data_PCOD9142735
_publ_section_title
;
Structure prediction by ZEFSAII (Michael W. Deem and Ramdas Pophale) SiO2 
 PCOD9142735
Probable space group: P 2/M
;
_chemical_formula_sum "Si O2"
_cell_formula_units_Z 32
_cell_length_a 19.505656
_cell_length_b 8.694653
_cell_length_c 27.522457
_cell_angle_alpha 90.000000
_cell_angle_beta 157.839176
_cell_angle_gamma 90.000000
_cell_volume 1760.680242
_symmetry_space_group_name_H-M "P 2/M"
_symmetry_group_IT_number 10
_symmetry_cell_setting 'monoclinic'
loop_
_space_group_symop_operation_xyz
x,y,z
-x,y,-z
-x,-y,-z
x,-y,z
loop_
_atom_site_type_symbol
_atom_site_label
_atom_site_fract_x
_atom_site_fract_y
_atom_site_fract_z
Si Si1 0.971454 0.181567 0.423440
Si Si2 0.592732 0.315696 0.849542
Si Si3 0.553635 0.184235 0.144446
Si Si4 0.293929 0.319126 0.574606
Si Si5 0.153274 0.818569 0.386675
Si Si6 0.706453 0.316008 0.622577
Si Si7 0.796216 0.683359 0.122477
Si Si8 0.939413 0.816703 0.113304
O O1 0.764279 0.220986 0.273822
O O2 0.000000 0.199994 0.500000
O O3 0.118019 0.281778 0.491702
O O4 0.001171 0.000000 0.431822
O O5 0.603755 0.500000 0.862099
O O6 0.498190 0.248210 0.836088
O O7 0.468140 0.279004 0.721658
O O8 0.793895 0.244614 0.979213
O O9 0.533187 0.000000 0.131935
O O10 0.409084 0.253708 0.011546
O O11 0.300446 0.500000 0.567308
O O12 0.270772 0.223508 0.510500
O O13 0.242476 0.742556 0.397661
O O14 0.948306 0.751584 0.258108
O O15 0.139369 0.000000 0.370047
O O16 0.500000 0.276196 0.500000
O O17 0.727453 0.500000 0.638006
O O18 0.854302 0.239883 0.755450
O O19 0.797222 0.500000 0.125168
O O20 0.868878 0.741477 0.117550
O O21 0.931027 0.000000 0.111597
#
# Coordination Sequence:
#
# PCOD9142735 Si02
#       8
#     4   4   4   4   4   4   4   4
#     4  10  20  34  51  74 105 140 179 226 274 319
#     4  10  19  31  49  74 104 139 179 221 264 310
#     4  10  18  30  50  74 102 134 176 225 271 316
#     4  11  23  36  53  76 106 143 182 223 268 319
#     4  11  22  37  57  79 108 141 176 216 261 317
#     4  10  20  36  60  87 114 141 170 209 257 309
#     4  10  18  31  51  73 102 135 174 220 265 314
#     4  10  18  29  50  79 109 138 173 216 257 303
#
# _framework density 18.174795
#
# number of rings (size 3 to 8) (size 9 to 14) (size 15 to 20)
#    0.000    1.750    1.250    7.875    0.000    3.750 
#    0.000    0.625    0.000    4.500    0.000    5.250 
#    0.000    0.000    0.000    0.000    0.000    0.000 
#
# Total GULP energy -178639.691069 kJ/mol
# GULP energy per Si atom -5582.490346 kJ/mol
# Density = 1.813343 g / cm^3
# Si number density = 18.174795 Si / 1000 Ang^3
#
#
#
# Elastic Constant Matrix: (Units=GPa)
#
#
# Indices 1 2 3 4 5 6 
#
# 1 23.8732 12.0324 30.3938 0.0000 -2.9098 0.0000
# 2 12.0324 77.7746 56.6348 0.0000 0.8337 0.0000
# 3 30.3938 56.6348 159.5042 0.0000 4.7729 0.0000
# 4 0.0000 0.0000 0.0000 29.5529 0.0000 -3.4639
# 5 -2.9098 0.8337 4.7729 0.0000 20.7153 0.0000
# 6 0.0000 0.0000 0.0000 -3.4639 0.0000 21.9740
#
#
#
# Elastic Compliance Matrix: (Units=1/GPa)
#
#
# Indices 1 2 3 4 5 6 
#
# 1 0.057629 -0.001081 -0.010916 0.000000 0.010654 0.000000
# 2 -0.001081 0.017373 -0.005978 0.000000 0.000526 0.000000
# 3 -0.010916 -0.005978 0.010584 0.000000 -0.003731 0.000000
# 4 0.000000 0.000000 0.000000 0.034475 0.000000 0.005435
# 5 0.010654 0.000526 -0.003731 0.000000 0.050608 0.000000
# 6 0.000000 0.000000 0.000000 0.005435 0.000000 0.046365
#
#
# Mechanical properties :
#
#
# Convention : Reuss Voigt Hill
#
# Bulk Modulus (GPa) = 20.14705 51.03044 35.58874
# Shear Modulus (GPa) = 18.55082 25.25450 21.90266
#
# Velocity S-wave (km/s) = 3.19829 3.73169 3.47524
# Velocity P-wave (km/s) = 4.97473 6.83417 5.97720
#
# Compressibility (1/GPa) = 0.04963505
#
# Stress axis : x y z
#
# Youngs Moduli (GPa) = 17.35224 57.56213 94.48298
#
# Poissons Ratio (x) = 0.06221 1.03142
# Poissons Ratio (y) = 0.01875 0.56484
# Poissons Ratio (z) = 0.18943 0.34412
#
# Static dielectric constant tensor:
#      x y z
#    x 1.609270 0.000000 -0.010470 
#    y 0.000000 1.607370 0.000000 
#    z -0.010470 0.000000 1.676310 
# 
# From -- ./inp_files/95679.got.cif
#   From: 2010.05.17/outbox.cif.g08.bks.cpg/sg10_48_cif.got.tgz:95679.got - 2010.06.03 11:33:40.
