data_PCOD9142233
_publ_section_title
;
Structure prediction by ZEFSAII (Michael W. Deem and Ramdas Pophale) SiO2 
 PCOD9142233
Probable space group: P 2/M
;
_chemical_formula_sum "Si O2"
_cell_formula_units_Z 28
_cell_length_a 18.646197
_cell_length_b 9.235478
_cell_length_c 14.224628
_cell_angle_alpha 90.000000
_cell_angle_beta 48.364669
_cell_angle_gamma 90.000000
_cell_volume 1830.783545
_symmetry_space_group_name_H-M "P 2/M"
_symmetry_group_IT_number 10
_symmetry_cell_setting 'monoclinic'
loop_
_space_group_symop_operation_xyz
x,y,z
-x,y,-z
-x,-y,-z
x,-y,z
loop_
_atom_site_type_symbol
_atom_site_label
_atom_site_fract_x
_atom_site_fract_y
_atom_site_fract_z
Si Si1 0.282522 0.672400 0.752199
Si Si2 0.909352 0.826975 0.012782
Si Si3 0.164656 0.673045 0.504283
Si Si4 0.026240 0.825857 0.254766
Si Si5 0.888199 0.834053 0.629964
Si Si6 0.471109 0.833591 0.635843
Si Si7 0.340527 0.327805 0.485936
O O1 0.282745 0.500000 0.765050
O O2 0.372790 0.744390 0.726480
O O3 0.297693 0.701293 0.627427
O O4 0.183978 0.742033 0.872439
O O5 0.937016 0.793365 0.881200
O O6 0.891669 0.000000 0.035134
O O7 0.000000 0.792742 0.000000
O O8 0.152927 0.500000 0.514067
O O9 0.072950 0.745567 0.635112
O O10 0.165834 0.734149 0.397222
O O11 0.260505 0.709157 0.478654
O O12 0.103563 0.788067 0.268604
O O13 0.010227 0.000000 0.276158
O O14 0.000000 0.833521 0.500000
O O15 0.853984 0.000000 0.653386
O O16 0.500000 0.832227 0.500000
O O17 0.560553 0.758964 0.609472
O O18 0.457813 0.000000 0.675951
O O19 0.360097 0.500000 0.464421
#
# Coordination Sequence:
#
# PCOD9142233 Si02
#       7
#     4   4   4   4   4   4   4
#     4  10  19  31  46  63  89 122 149 177 216 261
#     4  10  20  32  46  65  89 118 153 188 215 246
#     4  10  18  27  43  67  91 114 144 183 221 259
#     4   9  18  31  44  60  87 121 151 181 218 258
#     4   8  15  28  43  59  83 115 147 178 218 265
#     4   9  17  29  46  66  86 112 148 184 215 254
#     4   9  18  30  43  64  93 119 142 175 222 266
#
# _framework density 15.293996999999999
#
# number of rings (size 3 to 8) (size 9 to 14) (size 15 to 20)
#    0.000    2.714    0.000    3.000    0.000    6.857 
#    0.000    0.000    0.000    0.000    0.000    1.000 
#    0.000    8.000    0.000    0.000    0.000    0.000 
#
# Total GULP energy -156037.093027 kJ/mol
# GULP energy per Si atom -5572.753322 kJ/mol
# Density = 1.525919 g / cm^3
# Si number density = 15.293997 Si / 1000 Ang^3
#
#
#
# Elastic Constant Matrix: (Units=GPa)
#
#
# Indices 1 2 3 4 5 6 
#
# 1 151.6195 76.0518 66.2656 0.0000 -6.7890 0.0000
# 2 76.0518 66.8949 49.3891 0.0000 -10.9632 0.0000
# 3 66.2656 49.3891 75.6045 0.0000 -6.9672 0.0000
# 4 0.0000 0.0000 0.0000 22.9360 0.0000 -4.3997
# 5 -6.7890 -10.9632 -6.9672 0.0000 24.5905 0.0000
# 6 0.0000 0.0000 0.0000 -4.3997 0.0000 26.4706
#
#
#
# Elastic Compliance Matrix: (Units=1/GPa)
#
#
# Indices 1 2 3 4 5 6 
#
# 1 0.016321 -0.016156 -0.004107 0.000000 -0.003860 0.000000
# 2 -0.016156 0.046374 -0.015032 0.000000 0.011956 0.000000
# 3 -0.004107 -0.015032 0.026619 0.000000 -0.000294 0.000000
# 4 0.000000 0.000000 0.000000 0.045035 0.000000 0.007485
# 5 -0.003860 0.011956 -0.000294 0.000000 0.044847 0.000000
# 6 0.000000 0.000000 0.000000 0.007485 0.000000 0.039022
#
#
# Mechanical properties :
#
#
# Convention : Reuss Voigt Hill
#
# Bulk Modulus (GPa) = 53.40626 75.28132 64.34379
# Shear Modulus (GPa) = 16.94628 21.62692 19.28660
#
# Velocity S-wave (km/s) = 3.33233 3.76450 3.55499
# Velocity P-wave (km/s) = 7.05701 8.25984 7.68200
#
# Compressibility (1/GPa) = 0.01872440
#
# Stress axis : x y z
#
# Youngs Moduli (GPa) = 61.26948 21.56396 37.56693
#
# Poissons Ratio (x) = 0.34838 0.15429
# Poissons Ratio (y) = 0.98986 0.56470
# Poissons Ratio (z) = 0.25164 0.32415
#
# Static dielectric constant tensor:
#      x y z
#    x 1.514020 0.000000 0.018020 
#    y 0.000000 1.512140 0.000000 
#    z 0.018020 0.000000 1.482820 
# 
# From -- ./inp_files/54980.got.cif
#   From: 2010.05.17/outbox.cif.g08.bks.cpg/sg10_28_cif.got.tgz:54980.got - 2010.06.03 11:33:40.
