data_PCOD9142452
_publ_section_title
;
Structure prediction by ZEFSAII (Michael W. Deem and Ramdas Pophale) SiO2 
 PCOD9142452
Probable space group: P 2/M
;
_chemical_formula_sum "Si O2"
_cell_formula_units_Z 32
_cell_length_a 11.506825
_cell_length_b 15.318276
_cell_length_c 17.014207
_cell_angle_alpha 90.000000
_cell_angle_beta 29.515092
_cell_angle_gamma 90.000000
_cell_volume 1477.467939
_symmetry_space_group_name_H-M "P 2/M"
_symmetry_group_IT_number 10
_symmetry_cell_setting 'monoclinic'
loop_
_space_group_symop_operation_xyz
x,y,z
-x,y,-z
-x,-y,-z
x,-y,z
loop_
_atom_site_type_symbol
_atom_site_label
_atom_site_fract_x
_atom_site_fract_y
_atom_site_fract_z
Si Si1 0.316281 0.315020 0.425816
Si Si2 0.346001 0.095304 0.671458
Si Si3 0.825236 0.718552 0.773989
Si Si4 0.676979 0.125452 0.628684
Si Si5 0.335799 0.595540 0.268085
Si Si6 0.832128 0.601456 0.914614
Si Si7 0.291785 0.708171 0.687852
Si Si8 0.218426 0.905902 0.259424
O O1 0.331512 0.229662 0.362922
O O2 0.249252 0.392673 0.407689
O O3 0.564901 0.324997 0.320917
O O4 0.110860 0.289592 0.607658
O O5 0.500000 0.094480 0.500000
O O6 0.505201 0.099280 0.657646
O O7 0.218013 0.189609 0.742664
O O8 0.221049 0.000000 0.746539
O O9 0.758787 0.669449 0.733403
O O10 0.741276 0.661935 0.896546
O O11 0.748446 0.818973 0.811714
O O12 0.642907 0.096285 0.738719
O O13 0.941174 0.098931 0.447323
O O14 0.278500 0.500000 0.269709
O O15 0.620100 0.602767 0.101564
O O16 0.869095 0.500000 0.869321
O O17 0.071889 0.646310 0.801516
O O18 0.500000 0.706140 0.500000
O O19 0.259551 0.000000 0.196672
#
# Coordination Sequence:
#
# PCOD9142452 Si02
#       8
#     4   4   4   4   4   4   4   4
#     4  10  20  36  61  92 121 149 193 248 296 338
#     4   9  17  28  50  83 119 153 189 236 288 345
#     4  11  21  39  62  90 121 153 196 248 295 351
#     4   9  16  30  48  82 123 154 184 232 289 341
#     4  11  24  41  61  87 116 154 200 245 301 363
#     4  11  25  43  62  83 114 162 203 240 302 367
#     4  10  20  39  59  87 120 153 199 242 293 349
#     4  10  18  28  53  86 118 154 192 238 289 345
#
# _framework density 21.658677000000001
#
# number of rings (size 3 to 8) (size 9 to 14) (size 15 to 20)
#    0.000    1.875    2.500    2.625    1.750    3.750 
#    0.000    1.250    0.000    2.250    0.000    1.750 
#    0.000    0.000    0.000    0.000    0.000    0.000 
#
# Total GULP energy -178418.103382 kJ/mol
# GULP energy per Si atom -5575.565731 kJ/mol
# Density = 2.160938 g / cm^3
# Si number density = 21.658677 Si / 1000 Ang^3
#
#
#
# Elastic Constant Matrix: (Units=GPa)
#
#
# Indices 1 2 3 4 5 6 
#
# 1 76.6760 44.4369 19.3732 0.0000 -6.0919 0.0000
# 2 44.4369 155.9910 25.3495 0.0000 -7.6836 0.0000
# 3 19.3732 25.3495 55.8467 0.0000 -6.9405 0.0000
# 4 0.0000 0.0000 0.0000 -25.3005 0.0000 7.1239
# 5 -6.0919 -7.6836 -6.9405 0.0000 22.8885 0.0000
# 6 0.0000 0.0000 0.0000 7.1239 0.0000 21.3639
#
#
#
# Elastic Compliance Matrix: (Units=1/GPa)
#
#
# Indices 1 2 3 4 5 6 
#
# 1 0.016431 -0.003993 -0.003648 0.000000 0.001927 0.000000
# 2 -0.003993 0.007936 -0.002097 0.000000 0.000966 0.000000
# 3 -0.003648 -0.002097 0.020695 0.000000 0.004600 0.000000
# 4 0.000000 0.000000 0.000000 -0.036132 0.000000 0.012048
# 5 0.001927 0.000966 0.004600 0.000000 0.045922 0.000000
# 6 0.000000 0.000000 0.000000 0.012048 0.000000 0.042790
#
#
# Mechanical properties :
#
#
# Convention : Reuss Voigt Hill
#
# Bulk Modulus (GPa) = 39.08360 51.87032 45.47696
# Shear Modulus (GPa) = 39.79388 17.08065 28.43726
#
# Velocity S-wave (km/s) = 4.29105 2.81130 3.62743
# Velocity P-wave (km/s) = 6.52956 5.87698 6.21184
#
# Compressibility (1/GPa) = 0.02558618
#
# Stress axis : x y z
#
# Youngs Moduli (GPa) = 60.86163 126.00073 48.31997
#
# Poissons Ratio (x) = 0.50311 0.17627
# Poissons Ratio (y) = 0.24301 0.10134
# Poissons Ratio (z) = 0.22202 0.26426
#
# Static dielectric constant tensor:
#      x y z
#    x 1.804160 0.000000 0.003700 
#    y 0.000000 1.812880 0.000000 
#    z 0.003700 0.000000 1.802670 
# 
# From -- ./inp_files/77005.got.cif
#   From: 2010.05.17/outbox.cif.g08.bks.cpg/sg10_39_cif.got.tgz:77005.got - 2010.06.03 11:33:40.
