data_PCOD9142162
_publ_section_title
;
Structure prediction by ZEFSAII (Michael W. Deem and Ramdas Pophale) SiO2 
 PCOD9142162
Probable space group: P 2/M
;
_chemical_formula_sum "Si O2"
_cell_formula_units_Z 32
_cell_length_a 31.671259
_cell_length_b 7.570584
_cell_length_c 22.190820
_cell_angle_alpha 90.000000
_cell_angle_beta 160.721167
_cell_angle_gamma 90.000000
_cell_volume 1756.709752
_symmetry_space_group_name_H-M "P 2/M"
_symmetry_group_IT_number 10
_symmetry_cell_setting 'monoclinic'
loop_
_space_group_symop_operation_xyz
x,y,z
-x,y,-z
-x,-y,-z
x,-y,z
loop_
_atom_site_type_symbol
_atom_site_label
_atom_site_fract_x
_atom_site_fract_y
_atom_site_fract_z
Si Si1 0.295840 0.787229 0.216887
Si Si2 0.615319 0.286424 0.111175
Si Si3 0.393510 0.207779 0.580391
Si Si4 0.429372 0.207840 0.762777
Si Si5 0.097468 0.285697 0.183168
Si Si6 0.798746 0.296062 0.454984
Si Si7 0.001310 0.709449 0.183547
Si Si8 0.516996 0.216243 0.425913
O O1 0.365213 0.729110 0.372178
O O2 0.387581 0.729304 0.285696
O O3 0.297958 0.000000 0.220098
O O4 0.149912 0.731760 0.015349
O O5 0.618450 0.500000 0.115564
O O6 0.742406 0.220800 0.316504
O O7 0.500000 0.229233 0.000000
O O8 0.566283 0.230019 0.979760
O O9 0.425041 0.280494 0.689162
O O10 0.241881 0.227016 0.366218
O O11 0.464040 0.280552 0.616424
O O12 0.425286 0.000000 0.625844
O O13 0.319592 0.292691 0.656809
O O14 0.398219 0.000000 0.719190
O O15 0.096445 0.500000 0.181893
O O16 0.051717 0.221625 0.187236
O O17 0.000000 0.226671 0.000000
O O18 0.830183 0.500000 0.483953
O O19 0.917953 0.215762 0.651517
O O20 0.028763 0.500000 0.219511
O O21 0.518187 0.000000 0.426607
#
# Coordination Sequence:
#
# PCOD9142162 Si02
#       8
#     4   4   4   4   4   4   4   4
#     4   9  17  31  51  67  82 112 154 191 222 259
#     4   8  15  27  43  59  80 116 153 174 207 263
#     4  10  19  30  45  65  90 119 148 179 219 266
#     4  10  18  26  40  65  91 114 143 181 219 254
#     4  10  20  31  43  62  90 122 150 177 216 263
#     4   9  17  30  44  59  85 123 151 171 211 266
#     4  10  19  30  44  64  93 119 142 181 224 259
#     4   8  16  32  49  65  86 114 149 189 226 259
#
# _framework density 18.215872999999998
#
# number of rings (size 3 to 8) (size 9 to 14) (size 15 to 20)
#    0.000    2.750    1.250    2.625    0.000    4.000 
#    0.000    1.875    0.000    0.000    0.000    0.875 
#    0.000    7.000    0.000    0.000    0.000    0.000 
#
# Total GULP energy -178344.817015 kJ/mol
# GULP energy per Si atom -5573.275532 kJ/mol
# Density = 1.817441 g / cm^3
# Si number density = 18.215873 Si / 1000 Ang^3
#
#
#
# Elastic Constant Matrix: (Units=GPa)
#
#
# Indices 1 2 3 4 5 6 
#
# 1 76.8367 -8.7990 22.3096 0.0000 -12.9814 0.0000
# 2 -8.7990 38.5242 -7.4432 0.0000 -2.7781 0.0000
# 3 22.3096 -7.4432 47.8847 0.0000 -10.4519 0.0000
# 4 0.0000 0.0000 0.0000 15.5858 0.0000 -1.7630
# 5 -12.9814 -2.7781 -10.4519 0.0000 26.2874 0.0000
# 6 0.0000 0.0000 0.0000 -1.7630 0.0000 1.9124
#
#
#
# Elastic Compliance Matrix: (Units=1/GPa)
#
#
# Indices 1 2 3 4 5 6 
#
# 1 0.016018 0.002988 -0.005697 0.000000 0.005961 0.000000
# 2 0.002988 0.027910 0.004284 0.000000 0.006128 0.000000
# 3 -0.005697 0.004284 0.025940 0.000000 0.007953 0.000000
# 4 0.000000 0.000000 0.000000 0.071630 0.000000 0.066032
# 5 0.005961 0.006128 0.007953 0.000000 0.044794 0.000000
# 6 0.000000 0.000000 0.000000 0.066032 0.000000 0.583768
#
#
# Mechanical properties :
#
#
# Convention : Reuss Voigt Hill
#
# Bulk Modulus (GPa) = 13.69569 19.48673 16.59121
# Shear Modulus (GPa) = 6.31912 19.23568 12.77740
#
# Velocity S-wave (km/s) = 1.86455 3.25312 2.65135
# Velocity P-wave (km/s) = 3.48859 4.98310 4.30125
#
# Compressibility (1/GPa) = 0.07301566
#
# Stress axis : x y z
#
# Youngs Moduli (GPa) = 62.42968 35.82985 38.55096
#
# Poissons Ratio (x) = -0.10704 0.21964
# Poissons Ratio (y) = -0.18651 -0.16515
# Poissons Ratio (z) = 0.35569 -0.15349
#
# Static dielectric constant tensor:
#      x y z
#    x 1.630000 0.000000 -0.050540 
#    y 0.000000 1.680200 0.000000 
#    z -0.050540 0.000000 1.639470 
# 
# From -- ./inp_files/54854.got.cif
#   From: 2010.05.17/outbox.cif.g08.bks.cpg/sg10_28_cif.got.tgz:54854.got - 2010.06.03 11:33:40.
