data_PCOD9142038
_publ_section_title
;
Structure prediction by ZEFSAII (Michael W. Deem and Ramdas Pophale) SiO2 
 PCOD9142038
Probable space group: P 2/M
;
_chemical_formula_sum "Si O2"
_cell_formula_units_Z 24
_cell_length_a 25.171949
_cell_length_b 7.594277
_cell_length_c 12.656196
_cell_angle_alpha 90.000000
_cell_angle_beta 146.408720
_cell_angle_gamma 90.000000
_cell_volume 1338.565083
_symmetry_space_group_name_H-M "P 2/M"
_symmetry_group_IT_number 10
_symmetry_cell_setting 'monoclinic'
loop_
_space_group_symop_operation_xyz
x,y,z
-x,y,-z
-x,-y,-z
x,-y,z
loop_
_atom_site_type_symbol
_atom_site_label
_atom_site_fract_x
_atom_site_fract_y
_atom_site_fract_z
Si Si1 0.393135 0.214673 0.531490
Si Si2 0.878906 0.500000 0.412673
Si Si3 0.598681 0.789648 0.215780
Si Si4 0.752383 0.212932 0.891066
Si Si5 0.401641 0.800942 0.193115
Si Si6 0.900637 0.500000 0.195370
Si Si7 0.298079 0.696887 0.816994
O O1 0.386237 0.277520 0.640769
O O2 0.302122 0.253696 0.308379
O O3 0.492712 0.278997 0.643758
O O4 0.400527 0.000000 0.546259
O O5 0.885473 0.500000 0.297078
O O6 0.813663 0.666529 0.340816
O O7 0.985484 0.500000 0.634644
O O8 0.681464 0.754495 0.267776
O O9 0.588681 0.000000 0.208207
O O10 0.500000 0.722154 0.000000
O O11 0.677609 0.273796 0.858960
O O12 0.767727 0.000000 0.925025
O O13 0.847620 0.327232 0.062770
O O14 0.416239 0.000000 0.256969
O O15 0.354100 0.805515 0.998033
O O16 0.339655 0.500000 0.898043
#
# Coordination Sequence:
#
# PCOD9142038 Si02
#       7
#     4   2   4   4   4   2   4
#     4   9  18  32  50  76 113 147 177 212 252 310
#     4   9  22  38  57  73 110 135 166 235 286 307
#     4  10  18  31  51  74 107 148 180 209 250 305
#     4  10  20  35  56  81 109 144 180 216 267 324
#     4  10  17  31  52  76 110 146 175 205 257 322
#     4  11  20  42  59  78 108 136 172 235 285 317
#     4  10  19  33  49  75 107 137 171 219 265 310
#
# _framework density 17.929649000000001
#
# number of rings (size 3 to 8) (size 9 to 14) (size 15 to 20)
#    0.500    1.667    3.333    1.000    0.000    2.333 
#    3.000    4.167    0.000    2.000    0.000    3.500 
#    0.000    0.000    0.000    0.000    0.000    0.000 
#
# Total GULP energy -133722.983665 kJ/mol
# GULP energy per Si atom -5571.790986 kJ/mol
# Density = 1.788884 g / cm^3
# Si number density = 17.929649 Si / 1000 Ang^3
#
#
#
# Elastic Constant Matrix: (Units=GPa)
#
#
# Indices 1 2 3 4 5 6 
#
# 1 55.7468 4.6445 42.8856 0.0000 4.0010 0.0000
# 2 4.6445 54.8505 33.3439 0.0000 1.6083 0.0000
# 3 42.8856 33.3439 126.1332 0.0000 14.8214 0.0000
# 4 0.0000 0.0000 0.0000 11.7848 0.0000 -1.8575
# 5 4.0010 1.6083 14.8214 0.0000 29.8025 0.0000
# 6 0.0000 0.0000 0.0000 -1.8575 0.0000 21.3510
#
#
#
# Elastic Compliance Matrix: (Units=1/GPa)
#
#
# Indices 1 2 3 4 5 6 
#
# 1 0.024922 0.003685 -0.009592 0.000000 0.001225 0.000000
# 2 0.003685 0.022357 -0.007395 0.000000 0.001977 0.000000
# 3 -0.009592 -0.007395 0.013750 0.000000 -0.005151 0.000000
# 4 0.000000 0.000000 0.000000 0.086035 0.000000 0.007485
# 5 0.001225 0.001977 -0.005151 0.000000 0.035845 0.000000
# 6 0.000000 0.000000 0.000000 0.007485 0.000000 0.047487
#
#
# Mechanical properties :
#
#
# Convention : Reuss Voigt Hill
#
# Bulk Modulus (GPa) = 29.04939 44.27540 36.66240
# Shear Modulus (GPa) = 18.62372 22.97809 20.80090
#
# Velocity S-wave (km/s) = 3.22640 3.58379 3.40978
# Velocity P-wave (km/s) = 5.48786 6.47088 5.99954
#
# Compressibility (1/GPa) = 0.03442413
#
# Stress axis : x y z
#
# Youngs Moduli (GPa) = 40.12505 44.72870 72.72967
#
# Poissons Ratio (x) = -0.16481 0.69759
# Poissons Ratio (y) = -0.14784 0.53785
# Poissons Ratio (z) = 0.38486 0.33078
#
# Static dielectric constant tensor:
#      x y z
#    x 1.633130 0.000000 -0.014460 
#    y 0.000000 1.671100 0.000000 
#    z -0.014460 0.000000 1.596050 
# 
# From -- ./inp_files/52905.got.cif
#   From: 2010.05.17/outbox.cif.g08.bks.cpg/sg10_27_cif.got.tgz:52905.got - 2010.06.03 11:33:40.
