data_PCOD9142536
_publ_section_title
;
Structure prediction by ZEFSAII (Michael W. Deem and Ramdas Pophale) SiO2 
 PCOD9142536
Probable space group: P 2/M
;
_chemical_formula_sum "Si O2"
_cell_formula_units_Z 28
_cell_length_a 25.405791
_cell_length_b 16.376519
_cell_length_c 22.986819
_cell_angle_alpha 90.000000
_cell_angle_beta 169.250255
_cell_angle_gamma 90.000000
_cell_volume 1783.847869
_symmetry_space_group_name_H-M "P 2/M"
_symmetry_group_IT_number 10
_symmetry_cell_setting 'monoclinic'
loop_
_space_group_symop_operation_xyz
x,y,z
-x,y,-z
-x,-y,-z
x,-y,z
loop_
_atom_site_type_symbol
_atom_site_label
_atom_site_fract_x
_atom_site_fract_y
_atom_site_fract_z
Si Si1 0.597592 0.322538 0.883625
Si Si2 0.419688 0.903541 0.845038
Si Si3 0.288446 0.401162 0.442601
Si Si4 0.850204 0.189001 0.228779
Si Si5 0.811314 0.407936 0.475172
Si Si6 0.175275 0.344477 0.635084
Si Si7 0.355897 0.401648 0.284611
O O1 0.381659 0.347160 0.598608
O O2 0.448059 0.357810 0.779510
O O3 0.688059 0.230515 0.998272
O O4 0.888041 0.368507 0.182736
O O5 0.102307 0.873077 0.488430
O O6 0.447766 0.000000 0.864382
O O7 0.500000 0.889910 0.000000
O O8 0.631910 0.852965 0.035220
O O9 0.311999 0.500000 0.480480
O O10 0.483642 0.379647 0.599927
O O11 0.971282 0.382978 0.078402
O O12 0.006933 0.264730 0.430572
O O13 0.793808 0.500000 0.477888
O O14 0.808955 0.404295 0.402809
O O15 0.000000 0.376697 0.500000
O O16 0.500000 0.322883 0.000000
O O17 0.500000 0.369201 0.500000
O O18 0.375052 0.500000 0.308827
#
# Coordination Sequence:
#
# PCOD9142536 Si02
#       7
#     4   4   4   4   4   4   4
#     4  11  22  34  49  68  89 124 161 189 236 278
#     4  11  22  35  54  76  93 113 144 185 235 290
#     4  10  18  29  46  65  90 123 162 201 226 261
#     4  11  21  35  51  68  94 117 144 185 227 284
#     4  11  22  34  46  62  87 115 154 205 238 269
#     4  11  21  33  49  65  83 115 151 187 240 286
#     4   9  17  28  43  65  91 120 156 199 240 267
#
# _framework density 15.696406
#
# number of rings (size 3 to 8) (size 9 to 14) (size 15 to 20)
#    0.000    1.429    0.000    9.000    0.000    4.571 
#    0.000    0.000    0.000    0.000    0.000    0.000 
#    0.000    0.000    0.000    0.000    0.000   50.000 
#
# Total GULP energy -156302.304159 kJ/mol
# GULP energy per Si atom -5582.225149 kJ/mol
# Density = 1.566068 g / cm^3
# Si number density = 15.696406 Si / 1000 Ang^3
#
#
#
# Elastic Constant Matrix: (Units=GPa)
#
#
# Indices 1 2 3 4 5 6 
#
# 1 972.2429 -386.6733-2573.3517 0.0000 537.4592 0.0000
# 2 -386.6733 281.3248 1401.6225 0.0000 -274.3908 0.0000
# 3 -2573.3517 1401.6225 8670.5610 0.0000-1696.5660 0.0000
# 4 0.0000 0.0000 0.0000 -12.7529 0.0000 3.1873
# 5 537.4592 -274.3908-1696.5660 0.0000 376.6095 0.0000
# 6 0.0000 0.0000 0.0000 3.1873 0.0000 10.4194
#
#
#
# Elastic Compliance Matrix: (Units=1/GPa)
#
#
# Indices 1 2 3 4 5 6 
#
# 1 0.005992 -0.003220 0.001406 0.000000 -0.004564 0.000000
# 2 -0.003220 0.019996 -0.003697 0.000000 0.002508 0.000000
# 3 0.001406 -0.003697 0.001777 0.000000 0.003303 0.000000
# 4 0.000000 0.000000 0.000000 -0.072845 0.000000 0.022283
# 5 -0.004564 0.002508 0.003303 0.000000 0.025877 0.000000
# 6 0.000000 0.000000 0.000000 0.022283 0.000000 0.089158
#
#
# Mechanical properties :
#
#
# Convention : Reuss Voigt Hill
#
# Bulk Modulus (GPa) = 59.73139 756.36930 408.05034
# Shear Modulus (GPa) = 57.76498 840.35730 449.06114
#
# Velocity S-wave (km/s) = 6.07300 23.16343 16.93260
# Velocity P-wave (km/s) = 9.34408 34.61665 25.35374
#
# Compressibility (1/GPa) = 0.01674162
#
# Stress axis : x y z
#
# Youngs Moduli (GPa) = 166.89226 50.01043 562.88131
#
# Poissons Ratio (x) = 0.16103 -0.79129
# Poissons Ratio (y) = 0.53737 2.08111
# Poissons Ratio (z) = -0.23462 0.18490
#
# Static dielectric constant tensor:
#      x y z
#    x 1.546570 0.000000 -0.005040 
#    y 0.000000 1.518940 0.000000 
#    z -0.005040 0.000000 1.548410 
# 
# From -- ./inp_files/91274.got.cif
#   From: 2010.05.17/outbox.cif.g08.bks.cpg/sg10_46_cif.got.tgz:91274.got - 2010.06.03 11:33:40.
