data_PCOD9142333
_publ_section_title
;
Structure prediction by ZEFSAII (Michael W. Deem and Ramdas Pophale) SiO2 
 PCOD9142333
Probable space group: P 2/M
;
_chemical_formula_sum "Si O2"
_cell_formula_units_Z 32
_cell_length_a 19.487678
_cell_length_b 13.242996
_cell_length_c 15.397569
_cell_angle_alpha 90.000000
_cell_angle_beta 30.200252
_cell_angle_gamma 90.000000
_cell_volume 1998.881233
_symmetry_space_group_name_H-M "P 2/M"
_symmetry_group_IT_number 10
_symmetry_cell_setting 'monoclinic'
loop_
_space_group_symop_operation_xyz
x,y,z
-x,y,-z
-x,-y,-z
x,-y,z
loop_
_atom_site_type_symbol
_atom_site_label
_atom_site_fract_x
_atom_site_fract_y
_atom_site_fract_z
Si Si1 0.612368 0.112334 0.440347
Si Si2 0.152880 0.752788 0.867257
Si Si3 0.183493 0.880821 0.524720
Si Si4 0.613746 0.615895 0.451449
Si Si5 0.426386 0.215103 0.356591
Si Si6 0.875936 0.884479 0.931871
Si Si7 0.336443 0.119007 0.995026
Si Si8 0.849488 0.122008 0.639513
O O1 0.500000 0.161017 0.500000
O O2 0.758355 0.164539 0.282262
O O3 0.549883 0.121602 0.603208
O O4 0.632304 0.000000 0.388037
O O5 0.245785 0.655044 0.746900
O O6 0.152658 0.799902 0.964191
O O7 0.000000 0.742678 0.000000
O O8 0.283230 0.807438 0.467671
O O9 0.186237 0.852715 0.420163
O O10 0.029576 0.873520 0.728422
O O11 0.224087 0.000000 0.489498
O O12 0.500000 0.620305 0.500000
O O13 0.625793 0.500000 0.466839
O O14 0.577902 0.688884 0.573151
O O15 0.544843 0.198182 0.157494
O O16 0.863466 0.000000 0.980806
O O17 0.772967 0.876617 0.963770
O O18 0.380698 0.000000 0.954062
O O19 0.260338 0.148359 0.167275
O O20 0.000000 0.160609 0.500000
O O21 0.857622 0.000000 0.632742
#
# Coordination Sequence:
#
# PCOD9142333 Si02
#       8
#     4   4   4   4   4   4   4   4
#     4  10  19  31  45  63  99 144 174 198 234 284
#     4  11  21  31  47  73 101 127 161 210 253 296
#     4  10  19  30  46  69 105 142 167 196 236 281
#     4  10  22  41  59  70  91 128 163 203 259 317
#     4  11  20  31  47  73  97 117 160 213 249 283
#     4  10  18  28  44  67  97 138 176 197 225 275
#     4  10  18  28  47  71  99 134 170 203 228 272
#     4   9  16  30  46  66 101 144 176 193 223 274
#
# _framework density 16.008955
#
# number of rings (size 3 to 8) (size 9 to 14) (size 15 to 20)
#    0.000    1.875    1.250    6.000    0.000    4.750 
#    0.000    1.875    0.000    0.000    0.000    1.750 
#    0.000    1.000    0.000    0.000    0.000    0.000 
#
# Total GULP energy -178222.160680 kJ/mol
# GULP energy per Si atom -5569.442521 kJ/mol
# Density = 1.597252 g / cm^3
# Si number density = 16.008955 Si / 1000 Ang^3
#
#
#
# Elastic Constant Matrix: (Units=GPa)
#
#
# Indices 1 2 3 4 5 6 
#
# 1 60.3536 27.9757 29.7666 0.0000 8.7693 0.0000
# 2 27.9757 82.4744 38.5324 0.0000 0.1984 0.0000
# 3 29.7666 38.5324 93.1530 0.0000 7.8787 0.0000
# 4 0.0000 0.0000 0.0000 30.6499 0.0000 3.7656
# 5 8.7693 0.1984 7.8787 0.0000 35.5441 0.0000
# 6 0.0000 0.0000 0.0000 3.7656 0.0000 16.6455
#
#
#
# Elastic Compliance Matrix: (Units=1/GPa)
#
#
# Indices 1 2 3 4 5 6 
#
# 1 0.021855 -0.005347 -0.004401 0.000000 -0.004387 0.000000
# 2 -0.005347 0.016398 -0.005277 0.000000 0.002397 0.000000
# 3 -0.004401 -0.005277 0.014502 0.000000 -0.002099 0.000000
# 4 0.000000 0.000000 0.000000 0.033559 0.000000 -0.007592
# 5 -0.004387 0.002397 -0.002099 0.000000 0.029668 0.000000
# 6 0.000000 0.000000 0.000000 -0.007592 0.000000 0.061794
#
#
# Mechanical properties :
#
#
# Convention : Reuss Voigt Hill
#
# Bulk Modulus (GPa) = 44.04257 47.61450 45.82853
# Shear Modulus (GPa) = 23.21309 25.88166 24.54738
#
# Velocity S-wave (km/s) = 3.81203 4.02518 3.92005
# Velocity P-wave (km/s) = 6.85174 7.17006 7.01271
#
# Compressibility (1/GPa) = 0.02270531
#
# Stress axis : x y z
#
# Youngs Moduli (GPa) = 45.75530 60.98136 68.95639
#
# Poissons Ratio (x) = 0.32605 0.30349
# Poissons Ratio (y) = 0.24464 0.36391
# Poissons Ratio (z) = 0.20138 0.32182
#
# Static dielectric constant tensor:
#      x y z
#    x 1.569600 0.000000 -0.002320 
#    y 0.000000 1.536470 0.000000 
#    z -0.002320 0.000000 1.569880 
# 
# From -- ./inp_files/38282.got.cif
#   From: 2010.05.17/outbox.cif.g08.bks.cpg/sg10_20_cif.got.tgz:38282.got - 2010.06.03 11:33:40.
