data_PCOD9142276
_publ_section_title
;
Structure prediction by ZEFSAII (Michael W. Deem and Ramdas Pophale) SiO2 
 PCOD9142276
Probable space group: P 2/M
;
_chemical_formula_sum "Si O2"
_cell_formula_units_Z 32
_cell_length_a 29.079591
_cell_length_b 8.211702
_cell_length_c 13.137118
_cell_angle_alpha 90.000000
_cell_angle_beta 148.331922
_cell_angle_gamma 90.000000
_cell_volume 1646.944060
_symmetry_space_group_name_H-M "P 2/M"
_symmetry_group_IT_number 10
_symmetry_cell_setting 'monoclinic'
loop_
_space_group_symop_operation_xyz
x,y,z
-x,y,-z
-x,-y,-z
x,-y,z
loop_
_atom_site_type_symbol
_atom_site_label
_atom_site_fract_x
_atom_site_fract_y
_atom_site_fract_z
Si Si1 0.056717 0.302990 0.510459
Si Si2 0.157469 0.194378 0.404711
Si Si3 0.979730 0.303717 0.148345
Si Si4 0.603614 0.179548 0.197022
Si Si5 0.391432 0.314555 0.579392
Si Si6 0.765218 0.805793 0.232011
Si Si7 0.412523 0.693656 0.055132
Si Si8 0.790504 0.302560 0.717622
O O1 0.059171 0.500000 0.514547
O O2 0.156410 0.241247 0.695925
O O3 0.000000 0.249622 0.500000
O O4 0.010132 0.248692 0.317814
O O5 0.199455 0.255122 0.590394
O O6 0.206319 0.255155 0.395904
O O7 0.056733 0.250861 0.217235
O O8 0.159169 0.000000 0.409573
O O9 0.977402 0.500000 0.143644
O O10 0.883278 0.244986 0.937152
O O11 0.613687 0.307160 0.306811
O O12 0.620689 0.234696 0.115006
O O13 0.642526 0.000000 0.292307
O O14 0.500000 0.158642 0.000000
O O15 0.391609 0.500000 0.542046
O O16 0.294574 0.240800 0.379091
O O17 0.487969 0.243492 0.734611
O O18 0.669162 0.735218 0.026613
O O19 0.757186 0.000000 0.222332
O O20 0.421086 0.500000 0.060481
O O21 0.787848 0.500000 0.717691
#
# Coordination Sequence:
#
# PCOD9142276 Si02
#       8
#     4   4   4   4   4   4   4   4
#     4   9  18  34  55  76  95 114 140 179 228 280
#     4  10  20  31  43  63  92 124 157 191 224 261
#     4   9  18  32  49  68  90 118 150 184 225 272
#     4   9  16  25  37  54  79 113 153 194 229 258
#     4   9  18  29  40  57  83 118 157 192 224 259
#     4  10  20  32  47  69  95 122 151 185 228 272
#     4  10  18  28  42  60  85 117 153 191 226 262
#     4  10  19  30  44  63  90 125 160 189 220 260
#
# _framework density 19.429925000000001
#
# number of rings (size 3 to 8) (size 9 to 14) (size 15 to 20)
#    0.000    2.500    0.000    2.625    0.000    8.250 
#    0.000    0.000    0.000    0.000    0.000    0.875 
#    0.000    7.000    0.000    0.000    0.000    0.000 
#
# Total GULP energy -178164.823673 kJ/mol
# GULP energy per Si atom -5567.650740 kJ/mol
# Density = 1.938570 g / cm^3
# Si number density = 19.429925 Si / 1000 Ang^3
#
#
#
# Elastic Constant Matrix: (Units=GPa)
#
#
# Indices 1 2 3 4 5 6 
#
# 1 82.9772 3.7633 46.8756 0.0000 38.5279 0.0000
# 2 3.7633 21.0891 0.8644 0.0000 2.7703 0.0000
# 3 46.8756 0.8644 102.6933 0.0000 54.5410 0.0000
# 4 0.0000 0.0000 0.0000 -3.1054 0.0000 -7.7815
# 5 38.5279 2.7703 54.5410 0.0000 38.7617 0.0000
# 6 0.0000 0.0000 0.0000 -7.7815 0.0000 3.2737
#
#
#
# Elastic Compliance Matrix: (Units=1/GPa)
#
#
# Indices 1 2 3 4 5 6 
#
# 1 0.023471 -0.000174 0.006615 0.000000 -0.032625 0.000000
# 2 -0.000174 0.048695 0.005644 0.000000 -0.011249 0.000000
# 3 0.006615 0.005644 0.041066 0.000000 -0.064762 0.000000
# 4 0.000000 0.000000 0.000000 -0.046292 0.000000 -0.110036
# 5 -0.032625 -0.011249 -0.064762 0.000000 0.150156 0.000000
# 6 0.000000 0.000000 0.000000 -0.110036 0.000000 0.043913
#
#
# Mechanical properties :
#
#
# Convention : Reuss Voigt Hill
#
# Bulk Modulus (GPa) = 7.27789 34.41847 20.84818
# Shear Modulus (GPa) = 17.69036 18.13642 17.91339
#
# Velocity S-wave (km/s) = 3.02067 3.05852 3.03965
# Velocity P-wave (km/s) = 3.98996 5.49776 4.80339
#
# Compressibility (1/GPa) = 0.13740237
#
# Stress axis : x y z
#
# Youngs Moduli (GPa) = 42.60647 20.53591 24.35091
#
# Poissons Ratio (x) = 0.00357 -0.16109
# Poissons Ratio (y) = 0.00740 -0.13743
# Poissons Ratio (z) = -0.28185 -0.11590
#
# Static dielectric constant tensor:
#      x y z
#    x 1.696800 0.000000 0.041030 
#    y 0.000000 1.696790 0.000000 
#    z 0.041030 0.000000 1.773090 
# 
# From -- ./inp_files/66014.got.cif
#   From: 2010.05.17/outbox.cif.g08.bks.cpg/sg10_34_cif.got.tgz:66014.got - 2010.06.03 11:33:40.
