data_PCOD9142429
_publ_section_title
;
Structure prediction by ZEFSAII (Michael W. Deem and Ramdas Pophale) SiO2 
 PCOD9142429
Probable space group: P 2/M
;
_chemical_formula_sum "Si O2"
_cell_formula_units_Z 22
_cell_length_a 16.567070
_cell_length_b 8.373128
_cell_length_c 7.013343
_cell_angle_alpha 90.000000
_cell_angle_beta 101.609549
_cell_angle_gamma 90.000000
_cell_volume 952.974888
_symmetry_space_group_name_H-M "P 2/M"
_symmetry_group_IT_number 10
_symmetry_cell_setting 'monoclinic'
loop_
_space_group_symop_operation_xyz
x,y,z
-x,y,-z
-x,-y,-z
x,-y,z
loop_
_atom_site_type_symbol
_atom_site_label
_atom_site_fract_x
_atom_site_fract_y
_atom_site_fract_z
Si Si1 0.121671 0.500000 0.950035
Si Si2 0.625002 0.174492 0.909396
Si Si3 0.084300 0.171204 0.421042
Si Si4 0.697292 0.500000 0.011579
Si Si5 0.563397 0.825340 0.313908
Si Si6 0.363570 0.500000 0.597311
Si Si7 0.000000 0.243191 0.000000
Si Si8 0.827080 0.500000 0.581061
O O1 0.207264 0.500000 0.881452
O O2 0.061745 0.350392 0.901920
O O3 0.148843 0.500000 0.184387
O O4 0.677091 0.334155 0.895409
O O5 0.533555 0.186531 0.778089
O O6 0.661080 0.000000 0.874523
O O7 0.609042 0.170934 0.130444
O O8 0.057349 0.164665 0.185616
O O9 0.134867 0.333686 0.477746
O O10 0.000000 0.178259 0.500000
O O11 0.125923 0.000000 0.488815
O O12 0.640498 0.500000 0.172677
O O13 0.592737 0.666108 0.433495
O O14 0.579572 0.000000 0.411159
O O15 0.270251 0.500000 0.485720
#
# Coordination Sequence:
#
# PCOD9142429 Si02
#       8
#     2   4   4   2   4   2   2   2
#     4   9  20  36  54  76 100 143 175 210 265 322
#     4   8  14  26  44  69 100 130 164 213 259 300
#     4  10  21  37  60  84 104 138 181 220 267 321
#     4  10  18  28  48  75 100 123 172 217 257 307
#     4   8  14  26  44  68 100 133 167 206 254 309
#     4  10  19  27  48  76  99 133 167 207 263 305
#     4   9  19  38  60  77 109 142 181 219 266 319
#     4  10  22  37  51  73 111 140 167 213 266 316
#
# _framework density 23.085602999999999
#
# number of rings (size 3 to 8) (size 9 to 14) (size 15 to 20)
#    0.000    2.909    0.000    2.727    2.545    2.909 
#    0.000    4.545    0.000    2.182    0.000    2.545 
#    0.000    0.000    0.000    0.000    0.000    0.000 
#
# Total GULP energy -122778.894980 kJ/mol
# GULP energy per Si atom -5580.858863 kJ/mol
# Density = 2.303306 g / cm^3
# Si number density = 23.085603 Si / 1000 Ang^3
#
#
#
# Elastic Constant Matrix: (Units=GPa)
#
#
# Indices 1 2 3 4 5 6 
#
# 1 44.8052 67.9448 0.8593 0.0000 6.8295 0.0000
# 2 67.9448 268.6404 32.6642 0.0000 29.3581 0.0000
# 3 0.8593 32.6642 54.6420 0.0000 -2.1554 0.0000
# 4 0.0000 0.0000 0.0000 -10.9068 0.0000 -1.0770
# 5 6.8295 29.3581 -2.1554 0.0000 39.4979 0.0000
# 6 0.0000 0.0000 0.0000 -1.0770 0.0000 -7.6398
#
#
#
# Elastic Compliance Matrix: (Units=1/GPa)
#
#
# Indices 1 2 3 4 5 6 
#
# 1 0.037762 -0.010408 0.005688 0.000000 0.001517 0.000000
# 2 -0.010408 0.007308 -0.004357 0.000000 -0.003870 0.000000
# 3 0.005688 -0.004357 0.020950 0.000000 0.003399 0.000000
# 4 0.000000 0.000000 0.000000 -0.092980 0.000000 0.013107
# 5 0.001517 -0.003870 0.003399 0.000000 0.028117 0.000000
# 6 0.000000 0.000000 0.000000 0.013107 0.000000 -0.132741
#
#
# Mechanical properties :
#
#
# Convention : Reuss Voigt Hill
#
# Bulk Modulus (GPa) = 20.89231 63.44714 42.16972
# Shear Modulus (GPa) = -51.29590 21.96488 -14.66551
#
# Velocity S-wave (km/s) = -4.71891 3.08791 -2.52318
# Velocity P-wave (km/s) = 4.54106 6.34482 3.13332
#
# Compressibility (1/GPa) = 0.04786451
#
# Stress axis : x y z
#
# Youngs Moduli (GPa) = 26.48165 136.84356 47.73201
#
# Poissons Ratio (x) = 1.42430 -0.27149
# Poissons Ratio (y) = 0.27563 0.20798
# Poissons Ratio (z) = -0.15062 0.59627
#
# Static dielectric constant tensor:
#      x y z
#    x 1.807070 0.000000 -0.054140 
#    y 0.000000 1.923010 0.000000 
#    z -0.054140 0.000000 1.896600 
# 
# From -- ./inp_files/31279.got.cif
#   From: 2010.05.17/outbox.cif.g08.bks.cpg/sg10_16_cif.got.tgz:31279.got - 2010.06.03 11:33:40.
