data_PCOD9142340
_publ_section_title
;
Structure prediction by ZEFSAII (Michael W. Deem and Ramdas Pophale) SiO2 
 PCOD9142340
Probable space group: P 2/M
;
_chemical_formula_sum "Si O2"
_cell_formula_units_Z 32
_cell_length_a 27.106448
_cell_length_b 7.369218
_cell_length_c 13.311545
_cell_angle_alpha 90.000000
_cell_angle_beta 144.792156
_cell_angle_gamma 90.000000
_cell_volume 1533.045603
_symmetry_space_group_name_H-M "P 2/M"
_symmetry_group_IT_number 10
_symmetry_cell_setting 'monoclinic'
loop_
_space_group_symop_operation_xyz
x,y,z
-x,y,-z
-x,-y,-z
x,-y,z
loop_
_atom_site_type_symbol
_atom_site_label
_atom_site_fract_x
_atom_site_fract_y
_atom_site_fract_z
Si Si1 0.063569 0.279843 0.750344
Si Si2 0.233191 0.792037 0.528588
Si Si3 0.798315 0.705808 0.861205
Si Si4 0.699531 0.299051 0.154440
Si Si5 0.881675 0.279803 0.386505
Si Si6 0.656270 0.719898 0.484062
Si Si7 0.516293 0.278269 0.909592
Si Si8 0.903068 0.220341 0.838101
O O1 0.060958 0.500000 0.756520
O O2 0.094573 0.239136 0.689030
O O3 0.963860 0.218553 0.589670
O O4 0.135898 0.212079 0.948184
O O5 0.274801 0.684530 0.686391
O O6 0.289310 0.781414 0.521737
O O7 0.141650 0.724604 0.339712
O O8 0.227711 0.000000 0.552488
O O9 0.780307 0.500000 0.865747
O O10 0.707407 0.783322 0.669113
O O11 0.853559 0.703356 0.850956
O O12 0.688950 0.500000 0.090503
O O13 0.785741 0.214469 0.251175
O O14 0.605635 0.213938 0.009527
O O15 0.878506 0.500000 0.391483
O O16 0.658610 0.500000 0.491113
O O17 0.560741 0.773449 0.293422
O O18 0.519880 0.500000 0.919333
O O19 0.500000 0.221912 0.000000
O O20 0.896899 0.000000 0.833888
O O21 0.000000 0.275199 0.000000
#
# Coordination Sequence:
#
# PCOD9142340 Si02
#       8
#     4   4   4   4   4   4   4   4
#     4   8  14  27  43  65  90 108 133 179 230 256
#     4  10  19  29  41  60  88 117 143 177 213 248
#     4   9  17  27  45  67  83 105 143 185 215 242
#     4  10  18  28  45  65  83 114 151 177 208 256
#     4   8  15  26  43  64  88 112 137 174 219 267
#     4   9  16  29  44  60  84 115 147 177 207 249
#     4   9  15  25  42  61  85 116 146 176 209 251
#     4   9  19  32  41  55  86 123 146 164 206 264
#
# _framework density 20.873483
#
# number of rings (size 3 to 8) (size 9 to 14) (size 15 to 20)
#    0.000    3.000    1.250    1.125    1.750    0.750 
#    0.000    1.250    0.000    1.500    0.000    7.000 
#    0.000    0.000    0.000    7.375    0.000    7.750 
#
# Total GULP energy -178188.509309 kJ/mol
# GULP energy per Si atom -5568.390916 kJ/mol
# Density = 2.082597 g / cm^3
# Si number density = 20.873483 Si / 1000 Ang^3
#
#
#
# Elastic Constant Matrix: (Units=GPa)
#
#
# Indices 1 2 3 4 5 6 
#
# 1 58.6949 -1.1587 53.4311 0.0000 23.1953 0.0000
# 2 -1.1587 74.1936 8.7328 0.0000 1.4142 0.0000
# 3 53.4311 8.7328 207.1117 0.0000 26.6984 0.0000
# 4 0.0000 0.0000 0.0000 -7.0802 0.0000 1.0454
# 5 23.1953 1.4142 26.6984 0.0000 40.1332 0.0000
# 6 0.0000 0.0000 0.0000 1.0454 0.0000 -42.7707
#
#
#
# Elastic Compliance Matrix: (Units=1/GPa)
#
#
# Indices 1 2 3 4 5 6 
#
# 1 0.026672 0.001279 -0.005405 0.000000 -0.011864 0.000000
# 2 0.001279 0.013607 -0.000817 0.000000 -0.000675 0.000000
# 3 -0.005405 -0.000817 0.006400 0.000000 -0.001104 0.000000
# 4 0.000000 0.000000 0.000000 -0.141750 0.000000 -0.003465
# 5 -0.011864 -0.000675 -0.001104 0.000000 0.032533 0.000000
# 6 0.000000 0.000000 0.000000 -0.003465 0.000000 -0.023465
#
#
# Mechanical properties :
#
#
# Convention : Reuss Voigt Hill
#
# Bulk Modulus (GPa) = 27.17952 51.33452 39.25702
# Shear Modulus (GPa) = -78.30339 16.65614 -30.82362
#
# Velocity S-wave (km/s) = -6.13146 2.82788 -3.84694
# Velocity P-wave (km/s) = 6.08909 5.94214 0.94019
#
# Compressibility (1/GPa) = 0.03679241
#
# Stress axis : x y z
#
# Youngs Moduli (GPa) = 37.49297 73.49044 156.25976
#
# Poissons Ratio (x) = -0.09399 0.84464
# Poissons Ratio (y) = -0.04795 0.12760
# Poissons Ratio (z) = 0.20266 0.06001
#
# Static dielectric constant tensor:
#      x y z
#    x 1.708490 0.000000 0.038240 
#    y 0.000000 1.859700 0.000000 
#    z 0.038240 0.000000 1.830770 
# 
# From -- ./inp_files/72539.got.cif
#   From: 2010.05.17/outbox.cif.g08.bks.cpg/sg10_37_cif.got.tgz:72539.got - 2010.06.03 11:33:40.
