data_PCOD9142843
_publ_section_title
;
Structure prediction by ZEFSAII (Michael W. Deem and Ramdas Pophale) SiO2 
 PCOD9142843
Probable space group: P 2/M
;
_chemical_formula_sum "Si O2"
_cell_formula_units_Z 28
_cell_length_a 17.807373
_cell_length_b 13.733815
_cell_length_c 20.312091
_cell_angle_alpha 90.000000
_cell_angle_beta 159.598291
_cell_angle_gamma 90.000000
_cell_volume 1731.701647
_symmetry_space_group_name_H-M "P 2/M"
_symmetry_group_IT_number 10
_symmetry_cell_setting 'monoclinic'
loop_
_space_group_symop_operation_xyz
x,y,z
-x,y,-z
-x,-y,-z
x,-y,z
loop_
_atom_site_type_symbol
_atom_site_label
_atom_site_fract_x
_atom_site_fract_y
_atom_site_fract_z
Si Si1 0.899016 0.115116 0.326020
Si Si2 0.027821 0.697891 0.815366
Si Si3 0.391114 0.614302 0.594747
Si Si4 0.518113 0.612084 0.851668
Si Si5 0.669598 0.194302 0.259922
Si Si6 0.123119 0.382631 0.034424
Si Si7 0.777213 0.888060 0.073574
O O1 0.111992 0.174674 0.520504
O O2 0.715806 0.151073 0.225786
O O3 0.840330 0.127791 0.201933
O O4 0.936271 0.000000 0.368306
O O5 0.091787 0.810597 0.861220
O O6 0.807874 0.673593 0.597365
O O7 0.229477 0.639759 0.948086
O O8 0.021833 0.664524 0.886111
O O9 0.354515 0.500000 0.549802
O O10 0.421008 0.623067 0.698066
O O11 0.623263 0.643073 0.755631
O O12 0.493955 0.500000 0.852429
O O13 0.400074 0.692984 0.798497
O O14 0.475212 0.138118 0.135833
O O15 0.113014 0.500000 0.017905
O O16 0.000000 0.356752 0.000000
O O17 0.814932 0.000000 0.087337
#
# Coordination Sequence:
#
# PCOD9142843 Si02
#       7
#     4   4   4   4   4   4   4
#     4  10  19  31  47  67  89 114 152 198 240 277
#     4  10  18  30  49  68  92 122 151 183 225 270
#     4   9  16  28  47  69  93 122 152 180 217 263
#     4   9  18  30  44  65  93 123 155 188 220 266
#     4  10  18  30  48  66  90 121 152 189 237 278
#     4   9  18  31  48  74 101 120 146 183 218 260
#     4  10  20  32  48  69  90 115 151 194 233 270
#
# _framework density 16.169066999999998
#
# number of rings (size 3 to 8) (size 9 to 14) (size 15 to 20)
#    0.000    2.429    0.000    5.143    0.000    1.714 
#    0.000    3.571    0.000    9.000    0.000    1.000 
#    0.000    0.000    0.000    0.000    0.000    0.000 
#
# Total GULP energy -156160.877297 kJ/mol
# GULP energy per Si atom -5577.174189 kJ/mol
# Density = 1.613227 g / cm^3
# Si number density = 16.169067 Si / 1000 Ang^3
#
#
#
# Elastic Constant Matrix: (Units=GPa)
#
#
# Indices 1 2 3 4 5 6 
#
# 1 32.2541 16.8781 5.3164 0.0000 5.4807 0.0000
# 2 16.8781 83.6481 16.4572 0.0000 2.6221 0.0000
# 3 5.3164 16.4572 73.8987 0.0000 1.4868 0.0000
# 4 0.0000 0.0000 0.0000 13.1423 0.0000 1.7440
# 5 5.4807 2.6221 1.4868 0.0000 8.0544 0.0000
# 6 0.0000 0.0000 0.0000 1.7440 0.0000 22.9849
#
#
#
# Elastic Compliance Matrix: (Units=1/GPa)
#
#
# Indices 1 2 3 4 5 6 
#
# 1 0.038842 -0.006933 -0.000767 0.000000 -0.024031 0.000000
# 2 -0.006933 0.013843 -0.002598 0.000000 0.000691 0.000000
# 3 -0.000767 -0.002598 0.014191 0.000000 -0.001252 0.000000
# 4 0.000000 0.000000 0.000000 0.076864 0.000000 -0.005832
# 5 -0.024031 0.000691 -0.001252 0.000000 0.140514 0.000000
# 6 0.000000 0.000000 0.000000 -0.005832 0.000000 0.043949
#
#
# Mechanical properties :
#
#
# Convention : Reuss Voigt Hill
#
# Bulk Modulus (GPa) = 21.60759 29.67824 25.64292
# Shear Modulus (GPa) = 13.72772 18.91291 16.32032
#
# Velocity S-wave (km/s) = 2.91694 3.42379 3.18048
# Velocity P-wave (km/s) = 4.97366 5.83306 5.42042
#
# Compressibility (1/GPa) = 0.04628003
#
# Stress axis : x y z
#
# Youngs Moduli (GPa) = 25.74553 72.23728 70.46732
#
# Poissons Ratio (x) = 0.50083 0.05404
# Poissons Ratio (y) = 0.17850 0.18307
# Poissons Ratio (z) = 0.01974 0.18767
#
# Static dielectric constant tensor:
#      x y z
#    x 1.531510 0.000000 -0.004730 
#    y 0.000000 1.542570 0.000000 
#    z -0.004730 0.000000 1.547040 
# 
# From -- ./inp_files/85815.got.cif
#   From: 2010.05.17/outbox.cif.g08.bks.cpg/sg10_43_cif.got.tgz:85815.got - 2010.06.03 11:33:40.
