data_PCOD9142979
_publ_section_title
;
Structure prediction by ZEFSAII (Michael W. Deem and Ramdas Pophale) SiO2 
 PCOD9142979
Probable space group: P 2/M
;
_chemical_formula_sum "Si O2"
_cell_formula_units_Z 32
_cell_length_a 21.697131
_cell_length_b 8.640692
_cell_length_c 9.780510
_cell_angle_alpha 90.000000
_cell_angle_beta 88.718333
_cell_angle_gamma 90.000000
_cell_volume 1833.173924
_symmetry_space_group_name_H-M "P 2/M"
_symmetry_group_IT_number 10
_symmetry_cell_setting 'monoclinic'
loop_
_space_group_symop_operation_xyz
x,y,z
-x,y,-z
-x,-y,-z
x,-y,z
loop_
_atom_site_type_symbol
_atom_site_label
_atom_site_fract_x
_atom_site_fract_y
_atom_site_fract_z
Si Si1 0.602426 0.187432 0.249568
Si Si2 0.125069 0.813389 0.326573
Si Si3 0.937124 0.679862 0.413590
Si Si4 0.994586 0.812958 0.841424
Si Si5 0.355597 0.316714 0.479089
Si Si6 0.459783 0.186741 0.285651
Si Si7 0.262612 0.187106 0.263929
Si Si8 0.365722 0.812206 0.053967
O O1 0.643287 0.256751 0.367201
O O2 0.530878 0.231822 0.275168
O O3 0.604914 0.000000 0.254858
O O4 0.624290 0.241224 0.099862
O O5 0.111683 0.758303 0.482005
O O6 0.070039 0.763119 0.226792
O O7 0.192138 0.760104 0.273440
O O8 0.124033 0.000000 0.327109
O O9 0.922381 0.500000 0.396086
O O10 0.000000 0.692284 0.500000
O O11 0.952601 0.754363 0.265897
O O12 0.996266 0.000000 0.840707
O O13 0.000000 0.762668 0.000000
O O14 0.351272 0.500000 0.472460
O O15 0.419909 0.261185 0.407791
O O16 0.301148 0.242132 0.392987
O O17 0.423301 0.228134 0.148503
O O18 0.456785 0.000000 0.301756
O O19 0.303251 0.239654 0.132024
O O20 0.262539 0.000000 0.263101
O O21 0.364449 0.000000 0.050231
#
# Coordination Sequence:
#
# PCOD9142979 Si02
#       8
#     4   4   4   4   4   4   4   4
#     4  10  18  30  50  73  96 123 156 198 247 293
#     4   9  17  31  53  75  95 126 165 201 236 279
#     4   9  17  29  47  72 101 132 164 195 229 274
#     4   9  17  30  49  76 109 135 157 195 244 286
#     4  11  22  33  46  67  97 128 158 198 245 290
#     4   9  17  31  51  72  93 121 159 199 241 292
#     4   9  18  35  55  71  89 121 167 206 237 282
#     4   8  15  29  50  73  94 118 155 203 245 283
#
# _framework density 17.456064000000001
#
# number of rings (size 3 to 8) (size 9 to 14) (size 15 to 20)
#    0.000    2.750    0.000    3.000    0.000    5.750 
#    0.000    3.750    0.000    8.250    0.000    0.000 
#    0.000    0.000    0.000    0.000    0.000    0.000 
#
# Total GULP energy -178346.263609 kJ/mol
# GULP energy per Si atom -5573.320738 kJ/mol
# Density = 1.741633 g / cm^3
# Si number density = 17.456064 Si / 1000 Ang^3
#
#
#
# Elastic Constant Matrix: (Units=GPa)
#
#
# Indices 1 2 3 4 5 6 
#
# 1 84.1436 11.1955 35.3494 0.0000 -2.6830 0.0000
# 2 11.1955 9.2368 13.5032 0.0000 -0.7523 0.0000
# 3 35.3494 13.5032 132.5774 0.0000 4.4922 0.0000
# 4 0.0000 0.0000 0.0000 -14.6541 0.0000 9.7083
# 5 -2.6830 -0.7523 4.4922 0.0000 3.3861 0.0000
# 6 0.0000 0.0000 0.0000 9.7083 0.0000 2.2519
#
#
#
# Elastic Compliance Matrix: (Units=1/GPa)
#
#
# Indices 1 2 3 4 5 6 
#
# 1 0.015392 -0.012763 -0.003268 0.000000 0.013697 0.000000
# 2 -0.012763 0.145556 -0.012748 0.000000 0.039139 0.000000
# 3 -0.003268 -0.012748 0.010362 0.000000 -0.019169 0.000000
# 4 0.000000 0.000000 0.000000 -0.017697 0.000000 0.076293
# 5 0.013697 0.039139 -0.019169 0.000000 0.340307 0.000000
# 6 0.000000 0.000000 0.000000 0.076293 0.000000 0.115159
#
#
# Mechanical properties :
#
#
# Convention : Reuss Voigt Hill
#
# Bulk Modulus (GPa) = 8.79108 38.45044 23.62076
# Shear Modulus (GPa) = 7.09666 9.25742 8.17704
#
# Velocity S-wave (km/s) = 2.01848 2.30538 2.16668
# Velocity P-wave (km/s) = 3.23719 5.40011 4.45200
#
# Compressibility (1/GPa) = 0.11375169
#
# Stress axis : x y z
#
# Youngs Moduli (GPa) = 64.96726 6.87020 96.50514
#
# Poissons Ratio (x) = 0.08768 0.31540
# Poissons Ratio (y) = 0.82918 1.23027
# Poissons Ratio (z) = 0.21233 0.08758
#
# Static dielectric constant tensor:
#      x y z
#    x 1.590720 0.000000 -0.009920 
#    y 0.000000 1.586830 0.000000 
#    z -0.009920 0.000000 1.596650 
# 
# From -- ./inp_files/35687.got.cif
#   From: 2010.05.17/outbox.cif.g08.bks.cpg/sg10_18_cif.got.tgz:35687.got - 2010.06.03 11:33:40.
