data_PCOD9142649
_publ_section_title
;
Structure prediction by ZEFSAII (Michael W. Deem and Ramdas Pophale) SiO2 
 PCOD9142649
Probable space group: P 2/M
;
_chemical_formula_sum "Si O2"
_cell_formula_units_Z 32
_cell_length_a 17.579853
_cell_length_b 13.893673
_cell_length_c 14.477641
_cell_angle_alpha 90.000000
_cell_angle_beta 31.961782
_cell_angle_gamma 90.000000
_cell_volume 1871.870855
_symmetry_space_group_name_H-M "P 2/M"
_symmetry_group_IT_number 10
_symmetry_cell_setting 'monoclinic'
loop_
_space_group_symop_operation_xyz
x,y,z
-x,y,-z
-x,-y,-z
x,-y,z
loop_
_atom_site_type_symbol
_atom_site_label
_atom_site_fract_x
_atom_site_fract_y
_atom_site_fract_z
Si Si1 0.026827 0.651111 0.774302
Si Si2 0.265259 0.605688 0.006411
Si Si3 0.418596 0.109778 0.682126
Si Si4 0.470303 0.704432 0.343689
Si Si5 0.117453 0.210719 0.955023
Si Si6 0.283764 0.615362 0.377996
Si Si7 0.758139 0.609456 0.284944
Si Si8 0.162765 0.616647 0.308733
O O1 0.131041 0.642602 0.580123
O O2 0.116410 0.607735 0.766826
O O3 0.883572 0.598576 0.893324
O O4 0.975482 0.756477 0.860567
O O5 0.328870 0.500000 0.957472
O O6 0.226899 0.651255 0.145371
O O7 0.372222 0.662580 0.831677
O O8 0.500000 0.114209 0.500000
O O9 0.505553 0.184528 0.656651
O O10 0.253046 0.143520 0.837519
O O11 0.421999 0.000000 0.711911
O O12 0.393751 0.676270 0.326273
O O13 0.380421 0.651445 0.517468
O O14 0.186822 0.309866 0.842555
O O15 0.000000 0.175673 0.000000
O O16 0.307106 0.500000 0.366745
O O17 0.268757 0.635849 0.285152
O O18 0.734836 0.500000 0.275116
O O19 0.152174 0.500000 0.310632
O O20 0.000000 0.649745 0.500000
#
# Coordination Sequence:
#
# PCOD9142649 Si02
#       8
#     4   4   4   4   4   4   4   4
#     4  10  18  29  48  71 105 140 180 206 241 289
#     4  11  19  28  48  77 108 140 179 212 245 300
#     4  11  23  42  59  73  98 133 172 223 279 318
#     4  11  21  35  51  75 102 136 179 213 258 307
#     4  10  21  36  54  79 104 132 175 217 257 313
#     4  10  19  33  51  74 114 150 174 208 249 300
#     4  10  20  33  47  71 112 149 172 201 248 300
#     4   9  17  29  46  73 107 147 182 207 245 295
#
# _framework density 17.095196000000001
#
# number of rings (size 3 to 8) (size 9 to 14) (size 15 to 20)
#    0.000    1.750    3.750    3.000    0.000    4.000 
#    0.000    2.500    0.000    0.000    0.000    1.750 
#    0.000    2.000    0.000    0.000    0.000    0.000 
#
# Total GULP energy -178389.656404 kJ/mol
# GULP energy per Si atom -5574.676763 kJ/mol
# Density = 1.705629 g / cm^3
# Si number density = 17.095196 Si / 1000 Ang^3
#
#
#
# Elastic Constant Matrix: (Units=GPa)
#
#
# Indices 1 2 3 4 5 6 
#
# 1 77.4291 33.2605 30.6973 0.0000 -4.2621 0.0000
# 2 33.2605 85.2470 26.4492 0.0000 -7.0534 0.0000
# 3 30.6973 26.4492 63.9833 0.0000 -12.0781 0.0000
# 4 0.0000 0.0000 0.0000 19.3061 0.0000 -5.6268
# 5 -4.2621 -7.0534 -12.0781 0.0000 26.5677 0.0000
# 6 0.0000 0.0000 0.0000 -5.6268 0.0000 11.4366
#
#
#
# Elastic Compliance Matrix: (Units=1/GPa)
#
#
# Indices 1 2 3 4 5 6 
#
# 1 0.017598 -0.004914 -0.006700 0.000000 -0.001527 0.000000
# 2 -0.004914 0.014860 -0.003489 0.000000 0.001571 0.000000
# 3 -0.006700 -0.003489 0.021777 0.000000 0.007899 0.000000
# 4 0.000000 0.000000 0.000000 0.060468 0.000000 0.029750
# 5 -0.001527 0.001571 0.007899 0.000000 0.041403 0.000000
# 6 0.000000 0.000000 0.000000 0.029750 0.000000 0.102076
#
#
# Mechanical properties :
#
#
# Convention : Reuss Voigt Hill
#
# Bulk Modulus (GPa) = 41.61513 45.27484 43.44498
# Shear Modulus (GPa) = 16.86928 20.54556 18.70742
#
# Velocity S-wave (km/s) = 3.14472 3.47051 3.31162
# Velocity P-wave (km/s) = 6.13039 6.52692 6.33176
#
# Compressibility (1/GPa) = 0.02402972
#
# Stress axis : x y z
#
# Youngs Moduli (GPa) = 56.82463 67.29365 45.92017
#
# Poissons Ratio (x) = 0.33066 0.30767
# Poissons Ratio (y) = 0.27922 0.16021
# Poissons Ratio (z) = 0.38073 0.23478
#
# Static dielectric constant tensor:
#      x y z
#    x 1.633580 0.000000 -0.021260 
#    y 0.000000 1.563360 0.000000 
#    z -0.021260 0.000000 1.625660 
# 
# From -- ./inp_files/38310.got.cif
#   From: 2010.05.17/outbox.cif.g08.bks.cpg/sg10_20_cif.got.tgz:38310.got - 2010.06.03 11:33:40.
