data_PCOD9142729
_publ_section_title
;
Structure prediction by ZEFSAII (Michael W. Deem and Ramdas Pophale) SiO2 
 PCOD9142729
Probable space group: P 2/M
;
_chemical_formula_sum "Si O2"
_cell_formula_units_Z 28
_cell_length_a 17.455362
_cell_length_b 7.631910
_cell_length_c 15.525235
_cell_angle_alpha 90.000000
_cell_angle_beta 46.044476
_cell_angle_gamma 90.000000
_cell_volume 1488.879929
_symmetry_space_group_name_H-M "P 2/M"
_symmetry_group_IT_number 10
_symmetry_cell_setting 'monoclinic'
loop_
_space_group_symop_operation_xyz
x,y,z
-x,y,-z
-x,-y,-z
x,-y,z
loop_
_atom_site_type_symbol
_atom_site_label
_atom_site_fract_x
_atom_site_fract_y
_atom_site_fract_z
Si Si1 0.375234 0.213311 0.738050
Si Si2 0.986845 0.213740 0.110874
Si Si3 0.616327 0.295572 0.596087
Si Si4 0.580582 0.714486 0.813871
Si Si5 0.207615 0.791785 0.012826
Si Si6 0.247791 0.795325 0.671644
Si Si7 0.651851 0.289517 0.941842
O O1 0.494719 0.276179 0.659603
O O2 0.323830 0.274895 0.688171
O O3 0.380512 0.000000 0.734552
O O4 0.296895 0.273795 0.875861
O O5 0.871803 0.277786 0.232495
O O6 0.090608 0.277233 0.081406
O O7 0.987276 0.000000 0.116294
O O8 0.000000 0.257624 0.000000
O O9 0.642654 0.500000 0.579824
O O10 0.620099 0.222982 0.690424
O O11 0.694810 0.217105 0.464418
O O12 0.579901 0.500000 0.812068
O O13 0.646833 0.769223 0.846475
O O14 0.458421 0.769919 0.926869
O O15 0.249682 0.761623 0.075977
O O16 0.203836 0.000000 0.001531
O O17 0.236008 0.000000 0.702932
O O18 0.647622 0.500000 0.943522
#
# Coordination Sequence:
#
# PCOD9142729 Si02
#       7
#     4   4   4   4   4   4   4
#     4  10  19  31  48  72 101 130 161 194 234 288
#     4   9  16  31  53  72  93 128 168 200 234 280
#     4  11  21  33  49  71 100 131 162 198 242 287
#     4   8  16  30  49  69  93 128 164 194 233 294
#     4  10  18  29  50  78 101 121 156 205 244 279
#     4  10  20  34  51  70  96 133 170 197 230 284
#     4   9  16  31  51  70  94 127 162 194 242 295
#
# _framework density 18.806082
#
# number of rings (size 3 to 8) (size 9 to 14) (size 15 to 20)
#    0.000    2.429    2.857    1.714    0.000    2.286 
#    0.000    3.571    0.000    1.714    0.000    6.000 
#    0.000    0.000    0.000    0.000    0.000    0.000 
#
# Total GULP energy -156204.792932 kJ/mol
# GULP energy per Si atom -5578.742605 kJ/mol
# Density = 1.876328 g / cm^3
# Si number density = 18.806082 Si / 1000 Ang^3
#
#
#
# Elastic Constant Matrix: (Units=GPa)
#
#
# Indices 1 2 3 4 5 6 
#
# 1 152.9854 -11.2808 74.4028 0.0000 9.0737 0.0000
# 2 -11.2808 29.2195 -10.0558 0.0000 -0.6167 0.0000
# 3 74.4028 -10.0558 117.2332 0.0000 1.5597 0.0000
# 4 0.0000 0.0000 0.0000 -11.7640 0.0000 12.8116
# 5 9.0737 -0.6167 1.5597 0.0000 24.6983 0.0000
# 6 0.0000 0.0000 0.0000 12.8116 0.0000 16.1797
#
#
#
# Elastic Compliance Matrix: (Units=1/GPa)
#
#
# Indices 1 2 3 4 5 6 
#
# 1 0.009773 0.001634 -0.006020 0.000000 -0.003169 0.000000
# 2 0.001634 0.035550 0.002010 0.000000 0.000160 0.000000
# 3 -0.006020 0.002010 0.012503 0.000000 0.001472 0.000000
# 4 0.000000 0.000000 0.000000 -0.045644 0.000000 0.036142
# 5 -0.003169 0.000160 0.001472 0.000000 0.041564 0.000000
# 6 0.000000 0.000000 0.000000 0.036142 0.000000 0.033187
#
#
# Mechanical properties :
#
#
# Convention : Reuss Voigt Hill
#
# Bulk Modulus (GPa) = 18.84140 45.06339 31.95240
# Shear Modulus (GPa) = 45.71374 22.24758 33.98066
#
# Velocity S-wave (km/s) = 4.93566 3.44321 4.25537
# Velocity P-wave (km/s) = 6.52085 6.31045 6.41651
#
# Compressibility (1/GPa) = 0.05307461
#
# Stress axis : x y z
#
# Youngs Moduli (GPa) = 102.32426 28.12955 79.97768
#
# Poissons Ratio (x) = -0.04597 0.48147
# Poissons Ratio (y) = -0.16723 -0.16075
# Poissons Ratio (z) = 0.61600 -0.05654
#
# Static dielectric constant tensor:
#      x y z
#    x 1.661170 0.000000 0.011760 
#    y 0.000000 1.715300 0.000000 
#    z 0.011760 0.000000 1.630320 
# 
# From -- ./inp_files/63520.got.cif
#   From: 2010.05.17/outbox.cif.g08.bks.cpg/sg10_32_cif.got.tgz:63520.got - 2010.06.03 11:33:40.
