data_PCOD9142438
_publ_section_title
;
Structure prediction by ZEFSAII (Michael W. Deem and Ramdas Pophale) SiO2 
 PCOD9142438
Probable space group: P 2/M
;
_chemical_formula_sum "Si O2"
_cell_formula_units_Z 28
_cell_length_a 17.243554
_cell_length_b 8.808130
_cell_length_c 20.141652
_cell_angle_alpha 90.000000
_cell_angle_beta 148.488271
_cell_angle_gamma 90.000000
_cell_volume 1598.953126
_symmetry_space_group_name_H-M "P 2/M"
_symmetry_group_IT_number 10
_symmetry_cell_setting 'monoclinic'
loop_
_space_group_symop_operation_xyz
x,y,z
-x,y,-z
-x,-y,-z
x,-y,z
loop_
_atom_site_type_symbol
_atom_site_label
_atom_site_fract_x
_atom_site_fract_y
_atom_site_fract_z
Si Si1 0.076475 0.183117 0.249279
Si Si2 0.099266 0.815046 0.010002
Si Si3 0.149091 0.324800 0.654247
Si Si4 0.558270 0.182145 0.736618
Si Si5 0.686434 0.682673 0.352475
Si Si6 0.029752 0.180467 0.365133
Si Si7 0.598117 0.320823 0.505932
O O1 0.012116 0.220600 0.275008
O O2 0.238275 0.256367 0.362823
O O3 0.092222 0.000000 0.257575
O O4 0.975403 0.231656 0.113787
O O5 0.270378 0.767515 0.139560
O O6 0.099245 0.000000 0.011369
O O7 0.000000 0.763860 0.000000
O O8 0.177150 0.500000 0.692808
O O9 0.274887 0.270073 0.694954
O O10 0.000000 0.322597 0.500000
O O11 0.106658 0.231329 0.688202
O O12 0.464856 0.251855 0.728948
O O13 0.477495 0.236100 0.610758
O O14 0.553078 0.000000 0.736841
O O15 0.687055 0.500000 0.354746
O O16 0.821489 0.741197 0.497479
O O17 0.050194 0.000000 0.385436
O O18 0.500000 0.299016 0.500000
O O19 0.605816 0.500000 0.496509
#
# Coordination Sequence:
#
# PCOD9142438 Si02
#       7
#     4   4   4   4   4   4   4
#     4  10  20  35  55  79 106 137 176 220 266 317
#     4   9  19  36  56  77 103 138 179 221 266 318
#     4   8  16  29  46  70 103 143 174 207 259 313
#     4  11  21  34  56  81 104 137 179 221 267 316
#     4  10  19  32  50  74 108 142 174 214 262 316
#     4  10  18  28  48  79 108 135 173 219 263 313
#     4  11  23  36  52  77 107 138 172 216 269 319
#
# _framework density 17.511457
#
# number of rings (size 3 to 8) (size 9 to 14) (size 15 to 20)
#    0.000    2.143    1.429    3.429    0.000    6.000 
#    0.000    1.429    0.000    4.714    0.000    6.000 
#    0.000    0.000    0.000    0.000    0.000    0.000 
#
# Total GULP energy -156217.389728 kJ/mol
# GULP energy per Si atom -5579.192490 kJ/mol
# Density = 1.747160 g / cm^3
# Si number density = 17.511457 Si / 1000 Ang^3
#
#
#
# Elastic Constant Matrix: (Units=GPa)
#
#
# Indices 1 2 3 4 5 6 
#
# 1 132.2719 36.5695 40.9558 0.0000 13.1341 0.0000
# 2 36.5695 34.3430 12.1234 0.0000 1.5693 0.0000
# 3 40.9558 12.1234 75.2379 0.0000 10.6635 0.0000
# 4 0.0000 0.0000 0.0000 -11.2482 0.0000 6.9293
# 5 13.1341 1.5693 10.6635 0.0000 24.5110 0.0000
# 6 0.0000 0.0000 0.0000 6.9293 0.0000 30.2919
#
#
#
# Elastic Compliance Matrix: (Units=1/GPa)
#
#
# Indices 1 2 3 4 5 6 
#
# 1 0.012528 -0.011611 -0.004372 0.000000 -0.004068 0.000000
# 2 -0.011611 0.041636 -0.000951 0.000000 0.003970 0.000000
# 3 -0.004372 -0.000951 0.016501 0.000000 -0.004775 0.000000
# 4 0.000000 0.000000 0.000000 -0.077922 0.000000 0.017825
# 5 -0.004068 0.003970 -0.004775 0.000000 0.044801 0.000000
# 6 0.000000 0.000000 0.000000 0.017825 0.000000 0.028935
#
#
# Mechanical properties :
#
#
# Convention : Reuss Voigt Hill
#
# Bulk Modulus (GPa) = 27.17639 46.79446 36.98542
# Shear Modulus (GPa) = 44.40002 18.85788 31.62895
#
# Velocity S-wave (km/s) = 5.04082 3.28516 4.25454
# Velocity P-wave (km/s) = 7.03084 6.41638 6.73062
#
# Compressibility (1/GPa) = 0.03679665
#
# Stress axis : x y z
#
# Youngs Moduli (GPa) = 79.82166 24.01767 60.60153
#
# Poissons Ratio (x) = 0.27887 0.26496
# Poissons Ratio (y) = 0.92680 0.05765
# Poissons Ratio (z) = 0.34900 0.02285
#
# Static dielectric constant tensor:
#      x y z
#    x 1.621790 0.000000 0.001970 
#    y 0.000000 1.590190 0.000000 
#    z 0.001970 0.000000 1.561960 
# 
# From -- ./inp_files/85658.got.cif
#   From: 2010.05.17/outbox.cif.g08.bks.cpg/sg10_43_cif.got.tgz:85658.got - 2010.06.03 11:33:40.
