data_PCOD9142981
_publ_section_title
;
Structure prediction by ZEFSAII (Michael W. Deem and Ramdas Pophale) SiO2 
 PCOD9142981
Probable space group: P 2/M
;
_chemical_formula_sum "Si O2"
_cell_formula_units_Z 32
_cell_length_a 24.219655
_cell_length_b 8.954953
_cell_length_c 12.698120
_cell_angle_alpha 90.000000
_cell_angle_beta 133.383126
_cell_angle_gamma 90.000000
_cell_volume 2001.574963
_symmetry_space_group_name_H-M "P 2/M"
_symmetry_group_IT_number 10
_symmetry_cell_setting 'monoclinic'
loop_
_space_group_symop_operation_xyz
x,y,z
-x,y,-z
-x,-y,-z
x,-y,z
loop_
_atom_site_type_symbol
_atom_site_label
_atom_site_fract_x
_atom_site_fract_y
_atom_site_fract_z
Si Si1 0.845890 0.179099 0.668862
Si Si2 0.685103 0.181339 0.373739
Si Si3 0.839286 0.822310 0.910826
Si Si4 0.410749 0.820233 0.544348
Si Si5 0.429849 0.322146 0.194541
Si Si6 0.580311 0.179341 0.047160
Si Si7 0.996763 0.327949 0.123634
Si Si8 0.684712 0.678041 0.770578
O O1 0.771096 0.230442 0.508567
O O2 0.832765 0.209367 0.776316
O O3 0.924157 0.255417 0.737128
O O4 0.853562 0.000000 0.668827
O O5 0.632187 0.222933 0.403461
O O6 0.646206 0.228437 0.214149
O O7 0.686049 0.000000 0.374237
O O8 0.769235 0.743230 0.875647
O O9 0.835011 0.000000 0.918212
O O10 0.921056 0.761577 0.054144
O O11 0.495417 0.756177 0.660075
O O12 0.363852 0.754054 0.385975
O O13 0.412187 0.000000 0.539899
O O14 0.442212 0.500000 0.208320
O O15 0.358624 0.291298 0.177118
O O16 0.417492 0.259926 0.061458
O O17 0.585370 0.000000 0.037498
O O18 0.500000 0.207053 0.000000
O O19 0.991051 0.500000 0.148447
O O20 0.000000 0.323417 0.000000
O O21 0.686396 0.500000 0.756305
#
# Coordination Sequence:
#
# PCOD9142981 Si02
#       8
#     4   4   4   4   4   4   4   4
#     4   9  16  29  47  70 101 131 164 204 247 297
#     4   9  17  31  51  76 101 128 164 212 259 293
#     4  10  18  30  50  73  98 133 172 204 244 299
#     4  11  20  35  55  75  99 132 174 213 253 302
#     4  11  24  38  50  71 103 137 172 213 258 303
#     4  10  19  35  57  75  96 129 172 218 259 299
#     4   9  17  28  43  68 102 135 165 198 243 297
#     4  11  23  36  49  71 106 139 169 209 256 303
#
# _framework density 15.987410000000001
#
# number of rings (size 3 to 8) (size 9 to 14) (size 15 to 20)
#    0.000    2.000    2.500    2.250    0.000    5.750 
#    0.000    0.625    0.000    0.000    0.000    0.875 
#    0.000    7.000    0.000    0.000    0.000    0.000 
#
# Total GULP energy -178559.682649 kJ/mol
# GULP energy per Si atom -5579.990083 kJ/mol
# Density = 1.595102 g / cm^3
# Si number density = 15.987410 Si / 1000 Ang^3
#
#
#
# Elastic Constant Matrix: (Units=GPa)
#
#
# Indices 1 2 3 4 5 6 
#
# 1 112.4908 58.8621 59.1633 0.0000 20.2299 0.0000
# 2 58.8621 57.0959 37.4612 0.0000 10.8039 0.0000
# 3 59.1633 37.4612 70.2770 0.0000 28.5519 0.0000
# 4 0.0000 0.0000 0.0000 14.8460 0.0000 4.5642
# 5 20.2299 10.8039 28.5519 0.0000 30.6627 0.0000
# 6 0.0000 0.0000 0.0000 4.5642 0.0000 26.1462
#
#
#
# Elastic Compliance Matrix: (Units=1/GPa)
#
#
# Indices 1 2 3 4 5 6 
#
# 1 0.023498 -0.017210 -0.010895 0.000000 0.000706 0.000000
# 2 -0.017210 0.040303 -0.009391 0.000000 0.005899 0.000000
# 3 -0.010895 -0.009391 0.038834 0.000000 -0.025664 0.000000
# 4 0.000000 0.000000 0.000000 0.071178 0.000000 -0.012425
# 5 0.000706 0.005899 -0.025664 0.000000 0.053966 0.000000
# 6 0.000000 0.000000 0.000000 -0.012425 0.000000 0.040416
#
#
# Mechanical properties :
#
#
# Convention : Reuss Voigt Hill
#
# Bulk Modulus (GPa) = 36.17720 61.20412 48.69066
# Shear Modulus (GPa) = 14.18833 19.95611 17.07222
#
# Velocity S-wave (km/s) = 2.98227 3.53688 3.27135
# Velocity P-wave (km/s) = 5.87676 7.41924 6.69259
#
# Compressibility (1/GPa) = 0.02764172
#
# Stress axis : x y z
#
# Youngs Moduli (GPa) = 42.55609 24.81223 25.75055
#
# Poissons Ratio (x) = 0.42703 0.28055
# Poissons Ratio (y) = 0.73241 0.24183
# Poissons Ratio (z) = 0.46365 0.23302
#
# Static dielectric constant tensor:
#      x y z
#    x 1.517910 0.000000 0.011930 
#    y 0.000000 1.535020 0.000000 
#    z 0.011930 0.000000 1.525210 
# 
# From -- ./inp_files/54781.got.cif
#   From: 2010.05.17/outbox.cif.g08.bks.cpg/sg10_28_cif.got.tgz:54781.got - 2010.06.03 11:33:40.
