data_PCOD9142421
_publ_section_title
;
Structure prediction by ZEFSAII (Michael W. Deem and Ramdas Pophale) SiO2 
 PCOD9142421
Probable space group: P 2/M
;
_chemical_formula_sum "Si O2"
_cell_formula_units_Z 32
_cell_length_a 12.047182
_cell_length_b 8.783944
_cell_length_c 19.425162
_cell_angle_alpha 90.000000
_cell_angle_beta 119.641346
_cell_angle_gamma 90.000000
_cell_volume 1786.605016
_symmetry_space_group_name_H-M "P 2/M"
_symmetry_group_IT_number 10
_symmetry_cell_setting 'monoclinic'
loop_
_space_group_symop_operation_xyz
x,y,z
-x,y,-z
-x,-y,-z
x,-y,z
loop_
_atom_site_type_symbol
_atom_site_label
_atom_site_fract_x
_atom_site_fract_y
_atom_site_fract_z
Si Si1 0.074345 0.820422 0.450173
Si Si2 0.654351 0.184733 0.415444
Si Si3 0.614347 0.319181 0.825996
Si Si4 0.096974 0.181703 0.235721
Si Si5 0.648046 0.181850 0.251689
Si Si6 0.905320 0.321099 0.279422
Si Si7 0.875921 0.818164 0.919131
Si Si8 0.623379 0.815868 0.674502
O O1 0.219515 0.764995 0.505863
O O2 0.000000 0.811868 0.500000
O O3 0.996629 0.727665 0.370422
O O4 0.075992 0.000000 0.430604
O O5 0.665116 0.227700 0.337862
O O6 0.513464 0.231271 0.398980
O O7 0.658441 0.000000 0.418466
O O8 0.611371 0.500000 0.820194
O O9 0.481987 0.256774 0.815560
O O10 0.745211 0.263699 0.900749
O O11 0.618558 0.245496 0.750911
O O12 0.101885 0.209849 0.155386
O O13 0.236423 0.228041 0.309538
O O14 0.982304 0.268879 0.235976
O O15 0.082062 0.000000 0.241789
O O16 0.772270 0.234528 0.249204
O O17 0.635604 0.000000 0.246900
O O18 0.882452 0.500000 0.272840
O O19 0.858547 0.000000 0.922008
O O20 0.000000 0.771058 0.000000
O O21 0.623755 0.000000 0.677061
#
# Coordination Sequence:
#
# PCOD9142421 Si02
#       8
#     4   4   4   4   4   4   4   4
#     4  10  18  32  51  72  97 132 176 219 265 314
#     4   8  14  27  50  74  93 119 167 223 264 298
#     4  10  18  28  47  80 113 136 163 204 257 308
#     4   9  18  34  54  75 101 135 174 210 251 307
#     4  10  18  33  53  72  97 134 179 219 255 300
#     4  12  24  34  47  72 105 139 173 214 268 316
#     4   9  18  35  60  86 108 134 172 213 249 294
#     4   8  15  30  51  72  95 131 176 218 255 300
#
# _framework density 17.911068
#
# number of rings (size 3 to 8) (size 9 to 14) (size 15 to 20)
#    0.000    2.500    1.250    4.125    0.000    2.500 
#    0.000    1.250    0.000    4.500    0.000    5.250 
#    0.000    0.000    0.000    0.000    0.000    0.000 
#
# Total GULP energy -178362.001386 kJ/mol
# GULP energy per Si atom -5573.812543 kJ/mol
# Density = 1.787030 g / cm^3
# Si number density = 17.911068 Si / 1000 Ang^3
#
#
#
# Elastic Constant Matrix: (Units=GPa)
#
#
# Indices 1 2 3 4 5 6 
#
# 1 98.8401 2.8618 30.4789 0.0000 30.2213 0.0000
# 2 2.8618 -43.9786 -4.4028 0.0000 -7.0224 0.0000
# 3 30.4789 -4.4028 48.5468 0.0000 26.5285 0.0000
# 4 0.0000 0.0000 0.0000 -10.0652 0.0000 24.2453
# 5 30.2213 -7.0224 26.5285 0.0000 28.9319 0.0000
# 6 0.0000 0.0000 0.0000 24.2453 0.0000 -16.6963
#
#
#
# Elastic Compliance Matrix: (Units=1/GPa)
#
#
# Indices 1 2 3 4 5 6 
#
# 1 0.014467 0.003144 -0.001918 0.000000 -0.012591 0.000000
# 2 0.003144 -0.021125 0.001417 0.000000 -0.009710 0.000000
# 3 -0.001918 0.001417 0.041385 0.000000 -0.035600 0.000000
# 4 0.000000 0.000000 0.000000 0.039774 0.000000 0.057757
# 5 -0.012591 -0.009710 -0.035600 0.000000 0.078001 0.000000
# 6 0.000000 0.000000 0.000000 0.057757 0.000000 0.023977
#
#
# Mechanical properties :
#
#
# Convention : Reuss Voigt Hill
#
# Bulk Modulus (GPa) = 24.99219 17.92045 21.45632
# Shear Modulus (GPa) = 27.09574 5.39879 16.24727
#
# Velocity S-wave (km/s) = 3.89368 1.73804 3.01509
# Velocity P-wave (km/s) = 5.84792 3.74895 4.91186
#
# Compressibility (1/GPa) = 0.04001251
#
# Stress axis : x y z
#
# Youngs Moduli (GPa) = 69.12091 -47.33714 24.16354
#
# Poissons Ratio (x) = 0.14882 0.04634
# Poissons Ratio (y) = -0.21731 -0.03423
# Poissons Ratio (z) = 0.13255 0.06706
#
# Static dielectric constant tensor:
#      x y z
#    x 1.650550 0.000000 0.021830 
#    y 0.000000 1.599250 0.000000 
#    z 0.021830 0.000000 1.625450 
# 
# From -- ./inp_files/83397.got.cif
#   From: 2010.05.17/outbox.cif.g08.bks.cpg/sg10_42_cif.got.tgz:83397.got - 2010.06.03 11:33:40.
