data_PCOD9142674
_publ_section_title
;
Structure prediction by ZEFSAII (Michael W. Deem and Ramdas Pophale) SiO2 
 PCOD9142674
Probable space group: P 2/M
;
_chemical_formula_sum "Si O2"
_cell_formula_units_Z 32
_cell_length_a 11.398023
_cell_length_b 7.581373
_cell_length_c 23.010781
_cell_angle_alpha 90.000000
_cell_angle_beta 132.371606
_cell_angle_gamma 90.000000
_cell_volume 1469.025775
_symmetry_space_group_name_H-M "P 2/M"
_symmetry_group_IT_number 10
_symmetry_cell_setting 'monoclinic'
loop_
_space_group_symop_operation_xyz
x,y,z
-x,y,-z
-x,-y,-z
x,-y,z
loop_
_atom_site_type_symbol
_atom_site_label
_atom_site_fract_x
_atom_site_fract_y
_atom_site_fract_z
Si Si1 0.325352 0.711861 0.959432
Si Si2 0.128727 0.215632 0.494289
Si Si3 0.040845 0.799703 0.338461
Si Si4 0.998316 0.788222 0.798340
Si Si5 0.690523 0.295890 0.240247
Si Si6 0.761071 0.789198 0.814887
Si Si7 0.410657 0.213945 0.666401
Si Si8 0.339402 0.711791 0.091860
O O1 0.336163 0.500000 0.965150
O O2 0.184478 0.753831 0.868593
O O3 0.500000 0.777570 0.000000
O O4 0.281318 0.775267 0.009807
O O5 0.303227 0.263275 0.575824
O O6 0.000000 0.272058 0.500000
O O7 0.094239 0.280953 0.417651
O O8 0.117098 0.000000 0.488726
O O9 0.073036 0.717833 0.286058
O O10 0.849300 0.803193 0.276595
O O11 0.103840 0.000000 0.358966
O O12 0.904698 0.720475 0.823695
O O13 0.980837 0.000000 0.790125
O O14 0.706909 0.500000 0.227393
O O15 0.674273 0.284615 0.304288
O O16 0.521776 0.225561 0.160937
O O17 0.592725 0.726341 0.732072
O O18 0.758785 0.753540 0.882984
O O19 0.761528 0.000000 0.809898
O O20 0.409407 0.000000 0.669618
O O21 0.347805 0.500000 0.093152
#
# Coordination Sequence:
#
# PCOD9142674 Si02
#       8
#     4   4   4   4   4   4   4   4
#     4  10  21  38  58  79 105 133 165 207 254 304
#     4   9  15  26  48  76 101 128 168 209 248 300
#     4  10  19  32  49  70 101 137 169 204 252 307
#     4  10  22  37  52  74 104 136 171 211 253 298
#     4  10  18  29  48  75 104 129 161 207 255 302
#     4   9  19  35  53  74 102 136 174 212 248 291
#     4   9  16  30  51  72  99 135 169 203 249 300
#     4   9  19  34  53  77 101 131 170 209 249 297
#
# _framework density 21.783142000000002
#
# number of rings (size 3 to 8) (size 9 to 14) (size 15 to 20)
#    0.000    2.500    1.250    1.125    0.000    3.750 
#    0.000    4.375    0.000    3.750    0.000    0.000 
#    0.000    6.000    0.000    0.000    0.000    0.000 
#
# Total GULP energy -178551.532706 kJ/mol
# GULP energy per Si atom -5579.735397 kJ/mol
# Density = 2.173356 g / cm^3
# Si number density = 21.783142 Si / 1000 Ang^3
#
#
#
# Elastic Constant Matrix: (Units=GPa)
#
#
# Indices 1 2 3 4 5 6 
#
# 1 76.7115 2.1261 40.1762 0.0000 -15.6915 0.0000
# 2 2.1261 50.9960 1.1398 0.0000 -2.0019 0.0000
# 3 40.1762 1.1398 145.5347 0.0000 -35.1105 0.0000
# 4 0.0000 0.0000 0.0000 -34.4573 0.0000 -9.6616
# 5 -15.6915 -2.0019 -35.1105 0.0000 25.7923 0.0000
# 6 0.0000 0.0000 0.0000 -9.6616 0.0000 11.8822
#
#
#
# Elastic Compliance Matrix: (Units=1/GPa)
#
#
# Indices 1 2 3 4 5 6 
#
# 1 0.015745 -0.000376 -0.003037 0.000000 0.005415 0.000000
# 2 -0.000376 0.019688 0.000392 0.000000 0.001833 0.000000
# 3 -0.003037 0.000392 0.010822 0.000000 0.012915 0.000000
# 4 0.000000 0.000000 0.000000 -0.023633 0.000000 -0.019216
# 5 0.005415 0.001833 0.012915 0.000000 0.059789 0.000000
# 6 0.000000 0.000000 0.000000 -0.019216 0.000000 0.068534
#
#
# Mechanical properties :
#
#
# Convention : Reuss Voigt Hill
#
# Bulk Modulus (GPa) = 24.86785 40.01404 32.44094
# Shear Modulus (GPa) = 29.34420 15.96344 22.65382
#
# Velocity S-wave (km/s) = 3.67428 2.71003 3.22836
# Velocity P-wave (km/s) = 5.42598 5.31051 5.36856
#
# Compressibility (1/GPa) = 0.04021257
#
# Stress axis : x y z
#
# Youngs Moduli (GPa) = 63.51392 50.79169 92.40195
#
# Poissons Ratio (x) = 0.01909 0.28063
# Poissons Ratio (y) = 0.02388 -0.03620
# Poissons Ratio (z) = 0.19290 -0.01990
#
# Static dielectric constant tensor:
#      x y z
#    x 1.796230 0.000000 -0.023510 
#    y 0.000000 1.837700 0.000000 
#    z -0.023510 0.000000 1.807800 
# 
# From -- ./inp_files/55205.got.cif
#   From: 2010.05.17/outbox.cif.g08.bks.cpg/sg10_28_cif.got.tgz:55205.got - 2010.06.03 11:33:40.
