data_PCOD9142898
_publ_section_title
;
Structure prediction by ZEFSAII (Michael W. Deem and Ramdas Pophale) SiO2 
 PCOD9142898
Probable space group: P 2/M
;
_chemical_formula_sum "Si O2"
_cell_formula_units_Z 32
_cell_length_a 18.004083
_cell_length_b 18.112018
_cell_length_c 13.270901
_cell_angle_alpha 90.000000
_cell_angle_beta 23.389273
_cell_angle_gamma 90.000000
_cell_volume 1717.918570
_symmetry_space_group_name_H-M "P 2/M"
_symmetry_group_IT_number 10
_symmetry_cell_setting 'monoclinic'
loop_
_space_group_symop_operation_xyz
x,y,z
-x,y,-z
-x,-y,-z
x,-y,z
loop_
_atom_site_type_symbol
_atom_site_label
_atom_site_fract_x
_atom_site_fract_y
_atom_site_fract_z
Si Si1 0.040687 0.677388 0.550851
Si Si2 0.650621 0.725364 0.231220
Si Si3 0.684800 0.085279 0.907613
Si Si4 0.479778 0.226430 0.233677
Si Si5 0.962042 0.084453 0.380602
Si Si6 0.694826 0.416420 0.067694
Si Si7 0.592348 0.376403 0.987233
Si Si8 0.066287 0.774749 0.710085
O O1 0.109246 0.729495 0.553700
O O2 0.000000 0.724729 0.500000
O O3 0.193412 0.623399 0.314555
O O4 0.876895 0.628745 0.802809
O O5 0.500000 0.750804 0.500000
O O6 0.602758 0.761000 0.181531
O O7 0.622644 0.637893 0.244099
O O8 0.864499 0.743664 0.996492
O O9 0.787179 0.097677 0.673314
O O10 0.850943 0.091916 0.783946
O O11 0.616935 0.000000 0.994571
O O12 0.533302 0.147669 0.120023
O O13 0.535279 0.292114 0.086930
O O14 0.258071 0.232224 0.533664
O O15 0.963060 0.141722 0.288892
O O16 0.952472 0.000000 0.358172
O O17 0.731640 0.500000 0.052551
O O18 0.567541 0.416342 0.124910
O O19 0.500000 0.403536 0.000000
#
# Coordination Sequence:
#
# PCOD9142898 Si02
#       8
#     4   4   4   4   4   4   4   4
#     4   9  18  29  49  75 110 146 177 209 249 314
#     4  10  23  42  61  80 102 133 183 242 295 330
#     4   9  18  31  49  80 121 158 185 218 260 317
#     4  11  21  34  57  83 110 146 192 232 268 325
#     4   9  18  30  49  80 120 158 185 211 262 322
#     4   9  20  36  55  80 106 139 180 218 267 332
#     4  10  18  30  48  80 117 146 177 208 252 316
#     4  11  20  33  57  80 107 145 185 234 274 316
#
# _framework density 18.627193999999999
#
# number of rings (size 3 to 8) (size 9 to 14) (size 15 to 20)
#    0.000    2.250    2.500    2.250    1.750    3.750 
#    0.000    1.250    0.000    1.500    0.000    5.250 
#    0.000    0.000    0.000    0.000    0.000    0.000 
#
# Total GULP energy -178197.198875 kJ/mol
# GULP energy per Si atom -5568.662465 kJ/mol
# Density = 1.858480 g / cm^3
# Si number density = 18.627194 Si / 1000 Ang^3
#
#
#
# Elastic Constant Matrix: (Units=GPa)
#
#
# Indices 1 2 3 4 5 6 
#
# 1 22.3187 9.4010 18.0898 0.0000 -10.6466 0.0000
# 2 9.4010 100.5879 14.9664 0.0000 -0.4177 0.0000
# 3 18.0898 14.9664 71.0664 0.0000 -5.6478 0.0000
# 4 0.0000 0.0000 0.0000 -17.0042 0.0000 5.3517
# 5 -10.6466 -0.4177 -5.6478 0.0000 23.4240 0.0000
# 6 0.0000 0.0000 0.0000 5.3517 0.0000 3.3688
#
#
#
# Elastic Compliance Matrix: (Units=1/GPa)
#
#
# Indices 1 2 3 4 5 6 
#
# 1 0.073178 -0.004433 -0.015351 0.000000 0.029480 0.000000
# 2 -0.004433 0.010534 -0.001259 0.000000 -0.002131 0.000000
# 3 -0.015351 -0.001259 0.018033 0.000000 -0.002652 0.000000
# 4 0.000000 0.000000 0.000000 -0.039207 0.000000 0.062284
# 5 0.029480 -0.002131 -0.002652 0.000000 0.055413 0.000000
# 6 0.000000 0.000000 0.000000 0.062284 0.000000 0.197898
#
#
# Mechanical properties :
#
#
# Convention : Reuss Voigt Hill
#
# Bulk Modulus (GPa) = 16.76186 30.98748 23.87467
# Shear Modulus (GPa) = 13.23374 12.05876 12.64625
#
# Velocity S-wave (km/s) = 2.66832 2.54711 2.60842
# Velocity P-wave (km/s) = 4.30249 5.03211 4.68153
#
# Compressibility (1/GPa) = 0.05965927
#
# Stress axis : x y z
#
# Youngs Moduli (GPa) = 13.66540 94.92712 55.45278
#
# Poissons Ratio (x) = 0.42079 0.85124
# Poissons Ratio (y) = 0.06058 0.06984
# Poissons Ratio (z) = 0.20977 0.11956
#
# Static dielectric constant tensor:
#      x y z
#    x 1.741160 0.000000 -0.080690 
#    y 0.000000 1.652430 0.000000 
#    z -0.080690 0.000000 1.670740 
# 
# From -- ./inp_files/70838.got.cif
#   From: 2010.05.17/outbox.cif.g08.bks.cpg/sg10_36_cif.got.tgz:70838.got - 2010.06.03 11:33:40.
