data_PCOD9142895
_publ_section_title
;
Structure prediction by ZEFSAII (Michael W. Deem and Ramdas Pophale) SiO2 
 PCOD9142895
Probable space group: P 2/M
;
_chemical_formula_sum "Si O2"
_cell_formula_units_Z 30
_cell_length_a 13.695001
_cell_length_b 10.124201
_cell_length_c 13.571935
_cell_angle_alpha 90.000000
_cell_angle_beta 116.945212
_cell_angle_gamma 90.000000
_cell_volume 1677.477991
_symmetry_space_group_name_H-M "P 2/M"
_symmetry_group_IT_number 10
_symmetry_cell_setting 'monoclinic'
loop_
_space_group_symop_operation_xyz
x,y,z
-x,y,-z
-x,-y,-z
x,-y,z
loop_
_atom_site_type_symbol
_atom_site_label
_atom_site_fract_x
_atom_site_fract_y
_atom_site_fract_z
Si Si1 0.185444 0.659972 0.756650
Si Si2 0.935874 0.346287 0.634769
Si Si3 0.268360 0.654979 0.591998
Si Si4 0.000000 0.243825 0.000000
Si Si5 0.558090 0.155027 0.421975
Si Si6 0.856496 0.145199 0.759158
Si Si7 0.652420 0.849150 0.804563
Si Si8 0.218263 0.655075 0.997776
O O1 0.187440 0.500000 0.754510
O O2 0.264173 0.701910 0.703608
O O3 0.213713 0.697767 0.881262
O O4 0.060228 0.699775 0.677440
O O5 0.940287 0.500000 0.667663
O O6 0.856225 0.339341 0.504983
O O7 0.882575 0.259534 0.695469
O O8 0.302043 0.500000 0.601797
O O9 0.343490 0.747311 0.559172
O O10 0.902082 0.324465 0.008064
O O11 0.059674 0.159421 0.111360
O O12 0.500000 0.184001 0.500000
O O13 0.467336 0.171828 0.294700
O O14 0.591412 0.000000 0.439969
O O15 0.736576 0.158789 0.751183
O O16 0.866983 0.000000 0.718591
O O17 0.660897 0.000000 0.846627
O O18 0.696038 0.744130 0.903033
O O19 0.245558 0.500000 0.015415
#
# Coordination Sequence:
#
# PCOD9142895 Si02
#       8
#     4   4   4   2   4   4   4   4
#     4   9  18  35  54  78 111 148 179 210 264 325
#     4  10  19  33  53  79 109 143 178 217 265 319
#     4  10  21  36  58  82 107 139 181 227 267 315
#     4  10  18  30  48  76 108 144 178 216 260 316
#     4  10  21  40  62  80 105 141 178 222 276 325
#     4  10  19  31  50  76 106 140 179 217 260 315
#     4   9  20  36  53  76 108 143 177 219 273 323
#     4  10  19  32  54  80 109 143 181 221 261 313
#
# _framework density 17.883991000000002
#
# number of rings (size 3 to 8) (size 9 to 14) (size 15 to 20)
#    0.000    2.267    1.333    1.600    0.000    6.667 
#    0.000    2.000    0.000    5.600    0.000    0.000 
#    0.000    0.000    0.000    0.000    0.000    0.000 
#
# Total GULP energy -167285.702379 kJ/mol
# GULP energy per Si atom -5576.190079 kJ/mol
# Density = 1.784329 g / cm^3
# Si number density = 17.883991 Si / 1000 Ang^3
#
#
#
# Elastic Constant Matrix: (Units=GPa)
#
#
# Indices 1 2 3 4 5 6 
#
# 1 55.5687 40.0937 34.3362 0.0000 -10.0948 0.0000
# 2 40.0937 74.6768 40.0404 0.0000 -8.9379 0.0000
# 3 34.3362 40.0404 70.5990 0.0000 -14.8847 0.0000
# 4 0.0000 0.0000 0.0000 9.8610 0.0000 -1.5680
# 5 -10.0948 -8.9379 -14.8847 0.0000 29.6080 0.0000
# 6 0.0000 0.0000 0.0000 -1.5680 0.0000 -2.0212
#
#
#
# Elastic Compliance Matrix: (Units=1/GPa)
#
#
# Indices 1 2 3 4 5 6 
#
# 1 0.032873 -0.013012 -0.007912 0.000000 0.003302 0.000000
# 2 -0.013012 0.024396 -0.007708 0.000000 -0.000947 0.000000
# 3 -0.007912 -0.007708 0.023853 0.000000 0.006967 0.000000
# 4 0.000000 0.000000 0.000000 0.090274 0.000000 -0.070033
# 5 0.003302 -0.000947 0.006967 0.000000 0.038117 0.000000
# 6 0.000000 0.000000 0.000000 -0.070033 0.000000 -0.440433
#
#
# Mechanical properties :
#
#
# Convention : Reuss Voigt Hill
#
# Bulk Modulus (GPa) = 41.91243 47.75390 44.83316
# Shear Modulus (GPa) = -30.17436 13.24784 -8.46326
#
# Velocity S-wave (km/s) = -4.11204 2.72465 -2.17775
# Velocity P-wave (km/s) = 0.97026 6.05461 4.33588
#
# Compressibility (1/GPa) = 0.02385927
#
# Stress axis : x y z
#
# Youngs Moduli (GPa) = 30.42038 40.98953 41.92366
#
# Poissons Ratio (x) = 0.53335 0.33169
# Poissons Ratio (y) = 0.39582 0.32314
# Poissons Ratio (z) = 0.24068 0.31594
#
# Static dielectric constant tensor:
#      x y z
#    x 1.602810 0.000000 0.005780 
#    y 0.000000 1.595090 0.000000 
#    z 0.005780 0.000000 1.630980 
# 
# From -- ./inp_files/63863.got.cif
#   From: 2010.05.17/outbox.cif.g08.bks.cpg/sg10_32_cif.got.tgz:63863.got - 2010.06.03 11:33:40.
