data_PCOD9142137
_publ_section_title
;
Structure prediction by ZEFSAII (Michael W. Deem and Ramdas Pophale) SiO2 
 PCOD9142137
Probable space group: P 2/M
;
_chemical_formula_sum "Si O2"
_cell_formula_units_Z 26
_cell_length_a 8.173504
_cell_length_b 12.584036
_cell_length_c 20.095511
_cell_angle_alpha 90.000000
_cell_angle_beta 31.773249
_cell_angle_gamma 90.000000
_cell_volume 1088.364249
_symmetry_space_group_name_H-M "P 2/M"
_symmetry_group_IT_number 10
_symmetry_cell_setting 'monoclinic'
loop_
_space_group_symop_operation_xyz
x,y,z
-x,y,-z
-x,-y,-z
x,-y,z
loop_
_atom_site_type_symbol
_atom_site_label
_atom_site_fract_x
_atom_site_fract_y
_atom_site_fract_z
Si Si1 0.770223 0.379647 0.828882
Si Si2 0.310500 0.225343 0.322544
Si Si3 0.627971 0.000000 0.701524
Si Si4 0.168328 0.379990 0.553970
Si Si5 0.156724 0.000000 0.740486
Si Si6 0.471530 0.000000 0.914329
Si Si7 0.699989 0.227492 0.057180
Si Si8 0.703301 0.234798 0.315584
O O1 0.765387 0.500000 0.856381
O O2 0.425861 0.331121 0.937722
O O3 0.980953 0.385730 0.688284
O O4 0.964609 0.290897 0.800305
O O5 0.432245 0.219537 0.205649
O O6 0.577552 0.238131 0.284016
O O7 0.084769 0.323737 0.404626
O O8 0.181065 0.106995 0.377301
O O9 0.324380 0.000000 0.756789
O O10 0.530767 0.000000 0.813142
O O11 0.261263 0.500000 0.504519
O O12 0.461950 0.302844 0.442829
O O13 0.271813 0.887608 0.671038
O O14 0.785902 0.000000 0.850433
O O15 0.298772 0.114663 0.982523
O O16 0.000000 0.240791 0.000000
#
# Coordination Sequence:
#
# PCOD9142137 Si02
#       8
#     4   4   2   4   2   2   4   4
#     4  10  21  37  56  79 111 146 183 233 279 325
#     4   9  20  35  56  80 113 146 181 233 279 326
#     4   8  18  34  55  80 117 146 183 232 280 333
#     4  10  21  36  55  82 111 148 192 226 270 334
#     4  10  20  34  56  86 115 150 188 228 286 337
#     4  10  17  36  62  84 113 148 186 232 286 343
#     4  10  20  37  61  83 106 142 188 231 281 338
#     4  11  20  35  55  80 116 146 182 229 276 335
#
# _framework density 23.889061000000002
#
# number of rings (size 3 to 8) (size 9 to 14) (size 15 to 20)
#    0.000    2.154    1.538    1.615    0.000    4.000 
#    0.000    5.385    0.000    3.692    0.000    0.000 
#    0.000    0.000    0.000    0.000    0.000    0.000 
#
# Total GULP energy -144974.439081 kJ/mol
# GULP energy per Si atom -5575.939965 kJ/mol
# Density = 2.383469 g / cm^3
# Si number density = 23.889061 Si / 1000 Ang^3
#
#
#
# Elastic Constant Matrix: (Units=GPa)
#
#
# Indices 1 2 3 4 5 6 
#
# 1 57.8126 46.9079 -0.2940 0.0000 -12.8307 0.0000
# 2 46.9079 219.1043 56.0367 0.0000 -26.8420 0.0000
# 3 -0.2940 56.0367 59.1186 0.0000 -5.4739 0.0000
# 4 0.0000 0.0000 0.0000 26.4477 0.0000 -6.4547
# 5 -12.8307 -26.8420 -5.4739 0.0000 50.5220 0.0000
# 6 0.0000 0.0000 0.0000 -6.4547 0.0000 26.7800
#
#
#
# Elastic Compliance Matrix: (Units=1/GPa)
#
#
# Indices 1 2 3 4 5 6 
#
# 1 0.023017 -0.006117 0.006215 0.000000 0.003269 0.000000
# 2 -0.006117 0.008011 -0.007448 0.000000 0.001896 0.000000
# 3 0.006215 -0.007448 0.024027 0.000000 0.000225 0.000000
# 4 0.000000 0.000000 0.000000 0.040174 0.000000 0.009683
# 5 0.003269 0.001896 0.000225 0.000000 0.021655 0.000000
# 6 0.000000 0.000000 0.000000 0.009683 0.000000 0.039675
#
#
# Mechanical properties :
#
#
# Convention : Reuss Voigt Hill
#
# Bulk Modulus (GPa) = 24.77989 60.14851 42.46420
# Shear Modulus (GPa) = 27.06952 36.30892 31.68922
#
# Velocity S-wave (km/s) = 3.36986 3.90282 3.64609
# Velocity P-wave (km/s) = 5.05338 6.74850 5.96150
#
# Compressibility (1/GPa) = 0.04035530
#
# Stress axis : x y z
#
# Youngs Moduli (GPa) = 43.44528 124.83382 41.62066
#
# Poissons Ratio (x) = 0.76359 -0.25868
# Poissons Ratio (y) = 0.26575 0.30999
# Poissons Ratio (z) = -0.27002 0.92976
#
# Static dielectric constant tensor:
#      x y z
#    x 1.977820 0.000000 0.018580 
#    y 0.000000 1.935930 0.000000 
#    z 0.018580 0.000000 1.992070 
# 
# From -- ./inp_files/37566.got.cif
#   From: 2010.05.17/outbox.cif.g08.bks.cpg/sg10_19_cif.got.tgz:37566.got - 2010.06.03 11:33:40.
