data_PCOD9142209
_publ_section_title
;
Structure prediction by ZEFSAII (Michael W. Deem and Ramdas Pophale) SiO2 
 PCOD9142209
Probable space group: P 2/M
;
_chemical_formula_sum "Si O2"
_cell_formula_units_Z 30
_cell_length_a 12.356336
_cell_length_b 8.913868
_cell_length_c 30.610923
_cell_angle_alpha 90.000000
_cell_angle_beta 153.536788
_cell_angle_gamma 90.000000
_cell_volume 1502.450032
_symmetry_space_group_name_H-M "P 2/M"
_symmetry_group_IT_number 10
_symmetry_cell_setting 'monoclinic'
loop_
_space_group_symop_operation_xyz
x,y,z
-x,y,-z
-x,-y,-z
x,-y,z
loop_
_atom_site_type_symbol
_atom_site_label
_atom_site_fract_x
_atom_site_fract_y
_atom_site_fract_z
Si Si1 0.000000 0.248663 0.000000
Si Si2 0.603665 0.680443 0.744200
Si Si3 0.169363 0.319220 0.342351
Si Si4 0.529518 0.831723 0.214168
Si Si5 0.782201 0.823092 0.454726
Si Si6 0.356691 0.682887 0.835873
Si Si7 0.870126 0.332406 0.048050
Si Si8 0.308091 0.319704 0.492378
O O1 0.757003 0.159618 0.901477
O O2 0.061390 0.340350 0.978706
O O3 0.609803 0.500000 0.749355
O O4 0.475906 0.745370 0.741739
O O5 0.448900 0.734666 0.647454
O O6 0.884523 0.736368 0.843325
O O7 0.172229 0.500000 0.339230
O O8 0.216564 0.287031 0.410586
O O9 0.409357 0.267514 0.403837
O O10 0.896368 0.269929 0.233329
O O11 0.639747 0.743977 0.212595
O O12 0.628949 0.000000 0.254697
O O13 0.839086 0.762089 0.523264
O O14 0.000000 0.794472 0.500000
O O15 0.735055 0.000000 0.438602
O O16 0.367168 0.500000 0.837638
O O17 0.600398 0.736418 0.949017
O O18 0.845852 0.500000 0.057790
O O19 0.296610 0.500000 0.494077
#
# Coordination Sequence:
#
# PCOD9142209 Si02
#       8
#     2   4   4   4   4   4   4   4
#     4   8  14  24  38  58  93 140 177 204 251 306
#     4  10  20  34  51  71  97 138 181 216 258 310
#     4   8  16  32  57  85 109 135 171 217 261 304
#     4  10  18  27  41  67 103 139 174 214 255 302
#     4  11  25  41  55  77 107 137 172 219 267 312
#     4   9  16  28  48  76 106 138 172 213 261 308
#     4   8  14  25  44  70 100 130 171 218 255 299
#     4   9  18  36  59  82 107 137 176 216 257 311
#
# _framework density 19.967386999999999
#
# number of rings (size 3 to 8) (size 9 to 14) (size 15 to 20)
#    0.000    2.800    0.000    2.400    1.867    4.267 
#    0.000    2.667    0.000    0.800    0.000    5.600 
#    0.000    0.000    0.000    0.000    0.000    0.000 
#
# Total GULP energy -167112.922527 kJ/mol
# GULP energy per Si atom -5570.430751 kJ/mol
# Density = 1.992194 g / cm^3
# Si number density = 19.967387 Si / 1000 Ang^3
#
#
#
# Elastic Constant Matrix: (Units=GPa)
#
#
# Indices 1 2 3 4 5 6 
#
# 1 41.5617 22.2332 -1.3242 0.0000 7.8250 0.0000
# 2 22.2332 40.5482 16.4002 0.0000 4.3027 0.0000
# 3 -1.3242 16.4002 65.3560 0.0000 17.4965 0.0000
# 4 0.0000 0.0000 0.0000 -3.1187 0.0000 11.5947
# 5 7.8250 4.3027 17.4965 0.0000 27.6535 0.0000
# 6 0.0000 0.0000 0.0000 11.5947 0.0000 -9.7445
#
#
#
# Elastic Compliance Matrix: (Units=1/GPa)
#
#
# Indices 1 2 3 4 5 6 
#
# 1 0.040639 -0.025206 0.011049 0.000000 -0.014568 0.000000
# 2 -0.025206 0.043082 -0.013769 0.000000 0.009141 0.000000
# 3 0.011049 -0.013769 0.023167 0.000000 -0.015642 0.000000
# 4 0.000000 0.000000 0.000000 0.093655 0.000000 0.111437
# 5 -0.014568 0.009141 -0.015642 0.000000 0.048759 0.000000
# 6 0.000000 0.000000 0.000000 0.111437 0.000000 0.029974
#
#
# Mechanical properties :
#
#
# Convention : Reuss Voigt Hill
#
# Bulk Modulus (GPa) = 19.59387 24.67606 22.13497
# Shear Modulus (GPa) = 14.19885 10.30181 12.25033
#
# Velocity S-wave (km/s) = 2.66954 2.27388 2.47961
# Velocity P-wave (km/s) = 4.39729 4.39079 4.39404
#
# Compressibility (1/GPa) = 0.05103636
#
# Stress axis : x y z
#
# Youngs Moduli (GPa) = 24.60670 23.21167 43.16425
#
# Poissons Ratio (x) = 0.58507 -0.47690
# Poissons Ratio (y) = 0.62024 0.59431
# Poissons Ratio (z) = -0.27187 0.31959
#
# Static dielectric constant tensor:
#      x y z
#    x 1.692310 0.000000 0.030120 
#    y 0.000000 1.687530 0.000000 
#    z 0.030120 0.000000 1.779320 
# 
# From -- ./inp_files/94887.got.cif
#   From: 2010.05.17/outbox.cif.g08.bks.cpg/sg10_48_cif.got.tgz:94887.got - 2010.06.03 11:33:40.
