data_PCOD9142527
_publ_section_title
;
Structure prediction by ZEFSAII (Michael W. Deem and Ramdas Pophale) SiO2 
 PCOD9142527
Probable space group: P 2/M
;
_chemical_formula_sum "Si O2"
_cell_formula_units_Z 32
_cell_length_a 20.717672
_cell_length_b 21.610415
_cell_length_c 5.018253
_cell_angle_alpha 90.000000
_cell_angle_beta 87.998455
_cell_angle_gamma 90.000000
_cell_volume 2245.388856
_symmetry_space_group_name_H-M "P 2/M"
_symmetry_group_IT_number 10
_symmetry_cell_setting 'monoclinic'
loop_
_space_group_symop_operation_xyz
x,y,z
-x,y,-z
-x,-y,-z
x,-y,z
loop_
_atom_site_type_symbol
_atom_site_label
_atom_site_fract_x
_atom_site_fract_y
_atom_site_fract_z
Si Si1 0.831903 0.930162 0.013663
Si Si2 0.077739 0.694035 0.945102
Si Si3 0.874779 0.764193 0.569482
Si Si4 0.953320 0.568502 0.259378
Si Si5 0.564953 0.926886 0.860136
Si Si6 0.957096 0.881794 0.752134
Si Si7 0.779272 0.864464 0.516649
Si Si8 0.648770 0.073851 0.361068
O O1 0.902437 0.927390 0.871548
O O2 0.787030 0.898823 0.797493
O O3 0.811487 0.000000 0.069599
O O4 0.828534 0.892584 0.288715
O O5 0.100562 0.742061 0.719195
O O6 0.090852 0.625997 0.818585
O O7 0.113795 0.710612 0.213999
O O8 0.000000 0.698246 0.000000
O O9 0.919931 0.820469 0.661757
O O10 0.803474 0.794331 0.557639
O O11 0.924736 0.500000 0.317889
O O12 0.000000 0.585321 0.500000
O O13 0.000000 0.562054 0.000000
O O14 0.591739 0.906324 0.571886
O O15 0.551708 0.000000 0.822567
O O16 0.500000 0.899785 0.000000
O O17 0.621993 0.920810 0.067185
O O18 0.000000 0.905326 0.500000
O O19 0.000000 0.865689 0.000000
O O20 0.710110 0.883309 0.410505
O O21 0.663363 0.000000 0.406690
#
# Coordination Sequence:
#
# PCOD9142527 Si02
#       8
#     4   4   4   4   4   4   4   4
#     4  11  22  34  46  57  72  93 122 165 209 253
#     4  11  19  29  46  62  77 103 132 160 203 250
#     4  11  21  31  43  58  77  99 129 166 197 231
#     4   9  17  28  42  63  87 105 124 154 194 243
#     4   9  17  28  43  65  86 100 119 150 189 235
#     4  11  21  32  44  56  71  91 119 161 210 254
#     4  11  22  34  45  60  79 101 131 165 199 235
#     4  10  18  29  46  61  78 105 129 153 194 244
#
# _framework density 14.251431
#
# number of rings (size 3 to 8) (size 9 to 14) (size 15 to 20)
#    0.000    1.625    0.000    9.000    0.000    3.000 
#    0.000    0.000    0.000    0.000    0.000    0.000 
#    0.000    0.000    0.000    0.000    0.000    0.000 
#
# Total GULP energy -178472.817160 kJ/mol
# GULP energy per Si atom -5577.275536 kJ/mol
# Density = 1.421899 g / cm^3
# Si number density = 14.251431 Si / 1000 Ang^3
#
#
#
# Elastic Constant Matrix: (Units=GPa)
#
#
# Indices 1 2 3 4 5 6 
#
# 1 37.5097 9.4962 -3.3810 0.0000 -3.7875 0.0000
# 2 9.4962 48.5169 0.3699 0.0000 0.9593 0.0000
# 3 -3.3810 0.3699 69.7729 0.0000 -4.8609 0.0000
# 4 0.0000 0.0000 0.0000 18.0729 0.0000 3.8089
# 5 -3.7875 0.9593 -4.8609 0.0000 10.6778 0.0000
# 6 0.0000 0.0000 0.0000 3.8089 0.0000 5.1953
#
#
#
# Elastic Compliance Matrix: (Units=1/GPa)
#
#
# Indices 1 2 3 4 5 6 
#
# 1 0.029623 -0.006055 0.002311 0.000000 0.012103 0.000000
# 2 -0.006055 0.021890 -0.000719 0.000000 -0.004442 0.000000
# 3 0.002311 -0.000719 0.014985 0.000000 0.007706 0.000000
# 4 0.000000 0.000000 0.000000 0.065443 0.000000 -0.047980
# 5 0.012103 -0.004442 0.007706 0.000000 0.101853 0.000000
# 6 0.000000 0.000000 0.000000 -0.047980 0.000000 0.227660
#
#
# Mechanical properties :
#
#
# Convention : Reuss Voigt Hill
#
# Bulk Modulus (GPa) = 17.36973 18.75219 18.06096
# Shear Modulus (GPa) = 10.21303 16.74349 13.47826
#
# Velocity S-wave (km/s) = 2.67990 3.43135 3.07864
# Velocity P-wave (km/s) = 4.66801 5.37453 5.03368
#
# Compressibility (1/GPa) = 0.05757141
#
# Stress axis : x y z
#
# Youngs Moduli (GPa) = 33.75745 45.68333 66.73411
#
# Poissons Ratio (x) = 0.27661 -0.15421
# Poissons Ratio (y) = 0.20440 0.04798
# Poissons Ratio (z) = -0.07801 0.03284
#
# Static dielectric constant tensor:
#      x y z
#    x 1.497030 0.000000 -0.007910 
#    y 0.000000 1.495860 0.000000 
#    z -0.007910 0.000000 1.485620 
# 
# From -- ./inp_files/11673.got.cif
#   From: 2010.05.17/outbox.cif.g08.bks.cpg/sg10_6_cif.got.tgz:11673.got - 2010.06.03 11:33:40.
