data_PCOD9142375
_publ_section_title
;
Structure prediction by ZEFSAII (Michael W. Deem and Ramdas Pophale) SiO2 
 PCOD9142375
Probable space group: P 2/M
;
_chemical_formula_sum "Si O2"
_cell_formula_units_Z 28
_cell_length_a 22.646871
_cell_length_b 10.352099
_cell_length_c 18.931574
_cell_angle_alpha 90.000000
_cell_angle_beta 161.172158
_cell_angle_gamma 90.000000
_cell_volume 1432.375398
_symmetry_space_group_name_H-M "P 2/M"
_symmetry_group_IT_number 10
_symmetry_cell_setting 'monoclinic'
loop_
_space_group_symop_operation_xyz
x,y,z
-x,y,-z
-x,-y,-z
x,-y,z
loop_
_atom_site_type_symbol
_atom_site_label
_atom_site_fract_x
_atom_site_fract_y
_atom_site_fract_z
Si Si1 0.222572 0.850829 0.315282
Si Si2 0.077031 0.226934 0.914959
Si Si3 0.281323 0.643755 0.263932
Si Si4 0.160687 0.847627 0.479257
Si Si5 0.595389 0.849617 0.958897
Si Si6 0.185399 0.147611 0.665119
Si Si7 0.404881 0.849957 0.192373
O O1 0.211754 0.754879 0.237342
O O2 0.401025 0.801178 0.560129
O O3 0.051083 0.845938 0.173781
O O4 0.250495 0.000000 0.324386
O O5 0.946958 0.238146 0.699270
O O6 0.167432 0.342189 0.062307
O O7 0.254764 0.158821 0.083099
O O8 0.500000 0.661867 0.500000
O O9 0.254310 0.500000 0.262917
O O10 0.376713 0.847872 0.708430
O O11 0.143590 0.799231 0.540327
O O12 0.096899 0.000000 0.401016
O O13 0.659365 0.793751 0.955888
O O14 0.659578 0.000000 0.035245
O O15 0.668164 0.792037 0.114959
O O16 0.000000 0.143918 0.500000
O O17 0.247650 0.000000 0.718767
O O18 0.439559 0.000000 0.216192
#
# Coordination Sequence:
#
# PCOD9142375 Si02
#       7
#     4   4   4   4   4   4   4
#     4  11  23  39  61  91 119 149 194 242 296 355
#     4  12  22  36  60  83 112 153 193 241 295 352
#     4  11  26  48  67  86 116 156 198 243 298 361
#     4  10  18  28  45  74 110 148 193 239 287 342
#     4   9  16  28  44  67 110 157 195 233 281 340
#     4   9  16  25  39  64 102 155 200 230 276 342
#     4  10  19  32  51  80 117 152 186 238 290 339
#
# _framework density 19.547948999999999
#
# number of rings (size 3 to 8) (size 9 to 14) (size 15 to 20)
#    0.000    1.714    2.857    3.000    0.000    7.714 
#    0.000    0.000    0.000    0.000    0.000    0.000 
#    0.000    8.571    0.000    0.000    0.000    0.714 
#
# Total GULP energy -155979.659019 kJ/mol
# GULP energy per Si atom -5570.702108 kJ/mol
# Density = 1.950346 g / cm^3
# Si number density = 19.547949 Si / 1000 Ang^3
#
#
#
# Elastic Constant Matrix: (Units=GPa)
#
#
# Indices 1 2 3 4 5 6 
#
# 1 134.6372 38.7930 45.7541 0.0000 -17.4140 0.0000
# 2 38.7930 42.2525 21.6630 0.0000 -10.5313 0.0000
# 3 45.7541 21.6630 114.1141 0.0000 -19.4260 0.0000
# 4 0.0000 0.0000 0.0000 3.0436 0.0000 -3.7230
# 5 -17.4140 -10.5313 -19.4260 0.0000 44.2187 0.0000
# 6 0.0000 0.0000 0.0000 -3.7230 0.0000 -18.7631
#
#
#
# Elastic Compliance Matrix: (Units=1/GPa)
#
#
# Indices 1 2 3 4 5 6 
#
# 1 0.010861 -0.008366 -0.002570 0.000000 0.001156 0.000000
# 2 -0.008366 0.033474 -0.002382 0.000000 0.003631 0.000000
# 3 -0.002570 -0.002382 0.010783 0.000000 0.003158 0.000000
# 4 0.000000 0.000000 0.000000 0.264388 0.000000 -0.052460
# 5 0.001156 0.003631 0.003158 0.000000 0.025322 0.000000
# 6 0.000000 0.000000 0.000000 -0.052460 0.000000 -0.042887
#
#
# Mechanical properties :
#
#
# Convention : Reuss Voigt Hill
#
# Bulk Modulus (GPa) = 35.10872 55.93601 45.52237
# Shear Modulus (GPa) = 14.78978 18.01943 16.40460
#
# Velocity S-wave (km/s) = 2.75360 3.03942 2.90003
# Velocity P-wave (km/s) = 5.30180 6.40268 5.87807
#
# Compressibility (1/GPa) = 0.02848295
#
# Stress axis : x y z
#
# Youngs Moduli (GPa) = 92.07653 29.87350 92.73610
#
# Poissons Ratio (x) = 0.24991 0.23830
# Poissons Ratio (y) = 0.77029 0.22092
# Poissons Ratio (z) = 0.23661 0.07117
#
# Static dielectric constant tensor:
#      x y z
#    x 1.762430 0.000000 -0.039750 
#    y 0.000000 1.636530 0.000000 
#    z -0.039750 0.000000 1.762970 
# 
# From -- ./inp_files/79572.got.cif
#   From: 2010.05.17/outbox.cif.g08.bks.cpg/sg10_40_cif.got.tgz:79572.got - 2010.06.03 11:33:40.
