data_PCOD9142679
_publ_section_title
;
Structure prediction by ZEFSAII (Michael W. Deem and Ramdas Pophale) SiO2 
 PCOD9142679
Probable space group: P 2/M
;
_chemical_formula_sum "Si O2"
_cell_formula_units_Z 32
_cell_length_a 17.473564
_cell_length_b 14.257814
_cell_length_c 6.926910
_cell_angle_alpha 90.000000
_cell_angle_beta 90.502782
_cell_angle_gamma 90.000000
_cell_volume 1725.668070
_symmetry_space_group_name_H-M "P 2/M"
_symmetry_group_IT_number 10
_symmetry_cell_setting 'monoclinic'
loop_
_space_group_symop_operation_xyz
x,y,z
-x,y,-z
-x,-y,-z
x,-y,z
loop_
_atom_site_type_symbol
_atom_site_label
_atom_site_fract_x
_atom_site_fract_y
_atom_site_fract_z
Si Si1 0.794520 0.388127 0.742947
Si Si2 0.407660 0.109910 0.505846
Si Si3 0.496834 0.606821 0.766869
Si Si4 0.913464 0.613373 0.998220
Si Si5 0.643353 0.736760 0.217876
Si Si6 0.358849 0.729721 0.233427
Si Si7 0.914516 0.387073 0.497961
Si Si8 0.794102 0.387485 0.247981
O O1 0.774724 0.500000 0.747445
O O2 0.814178 0.374169 0.996190
O O3 0.722178 0.318892 0.733840
O O4 0.893128 0.369486 0.748511
O O5 0.500000 0.120413 0.500000
O O6 0.371727 0.162687 0.688343
O O7 0.371185 0.171348 0.335501
O O8 0.390306 0.000000 0.498234
O O9 0.491372 0.500000 0.703577
O O10 0.423237 0.667447 0.711781
O O11 0.573739 0.658764 0.705446
O O12 0.500000 0.604720 0.000000
O O13 0.921141 0.500000 0.997893
O O14 0.893189 0.630093 0.246789
O O15 0.000000 0.654876 0.000000
O O16 0.724127 0.686349 0.253862
O O17 0.633001 0.746153 0.991620
O O18 0.923617 0.500000 0.498750
O O19 0.816766 0.378276 0.495687
O O20 0.000000 0.343611 0.500000
O O21 0.773358 0.500000 0.242840
#
# Coordination Sequence:
#
# PCOD9142679 Si02
#       8
#     4   4   4   4   4   4   4   4
#     4  10  18  29  48  75 111 153 186 220 261 312
#     4  11  25  44  62  80 104 136 183 240 296 345
#     4   9  18  31  51  78 113 153 182 212 254 316
#     4   9  16  26  42  69 108 153 188 209 244 301
#     4  11  21  37  58  83 112 144 184 226 277 331
#     4  11  21  37  58  83 112 144 184 226 277 331
#     4   9  17  28  42  65 103 153 200 232 260 299
#     4  10  18  29  48  75 111 153 186 220 261 312
#
# _framework density 18.543544000000001
#
# number of rings (size 3 to 8) (size 9 to 14) (size 15 to 20)
#    0.000    2.000    2.500    2.250    0.000    4.500 
#    0.000    3.750    0.000    0.000    0.000    0.000 
#    0.000   19.000    0.000    0.000    0.000    0.000 
#
# Total GULP energy -178168.318087 kJ/mol
# GULP energy per Si atom -5567.759940 kJ/mol
# Density = 1.850134 g / cm^3
# Si number density = 18.543544 Si / 1000 Ang^3
#
#
#
# Elastic Constant Matrix: (Units=GPa)
#
#
# Indices 1 2 3 4 5 6 
#
# 1 149.2608 77.0021 55.4521 0.0000 -12.5167 0.0000
# 2 77.0021 119.0249 37.1288 0.0000 -12.7510 0.0000
# 3 55.4521 37.1288 155.7132 0.0000 -25.6278 0.0000
# 4 0.0000 0.0000 0.0000 -633.1387 0.0000 -63.9533
# 5 -12.5167 -12.7510 -25.6278 0.0000 10.2785 0.0000
# 6 0.0000 0.0000 0.0000 -63.9533 0.0000 -1.5389
#
#
#
# Elastic Compliance Matrix: (Units=1/GPa)
#
#
# Indices 1 2 3 4 5 6 
#
# 1 0.010805 -0.006307 -0.002486 0.000000 -0.000866 0.000000
# 2 -0.006307 0.013400 0.000887 0.000000 0.011154 0.000000
# 3 -0.002486 0.000887 0.011497 0.000000 0.026737 0.000000
# 4 0.000000 0.000000 0.000000 0.000494 0.000000 -0.020526
# 5 -0.000866 0.011154 0.026737 0.000000 0.176738 0.000000
# 6 0.000000 0.000000 0.000000 -0.020526 0.000000 0.203210
#
#
# Mechanical properties :
#
#
# Convention : Reuss Voigt Hill
#
# Bulk Modulus (GPa) = 50.28260 84.79611 67.53935
# Shear Modulus (GPa) = 11.40027 -107.91876 -48.25925
#
# Velocity S-wave (km/s) = 2.48217 -7.63700 -5.10699
# Velocity P-wave (km/s) = 5.94893 5.65135 1.31378
#
# Compressibility (1/GPa) = 0.01988759
#
# Stress axis : x y z
#
# Youngs Moduli (GPa) = 92.55394 74.62537 86.98236
#
# Poissons Ratio (x) = 0.47067 0.21627
# Poissons Ratio (y) = 0.58375 -0.07712
# Poissons Ratio (z) = 0.23013 -0.06616
#
# Static dielectric constant tensor:
#      x y z
#    x 1.664540 0.000000 -0.003100 
#    y 0.000000 1.505680 0.000000 
#    z -0.003100 0.000000 2.073340 
# 
# From -- ./inp_files/28591.got.cif
#   From: 2010.05.17/outbox.cif.g08.bks.cpg/sg10_15_cif.got.tgz:28591.got - 2010.06.03 11:33:40.
