data_PCOD9142512
_publ_section_title
;
Structure prediction by ZEFSAII (Michael W. Deem and Ramdas Pophale) SiO2 
 PCOD9142512
Probable space group: P 2/M
;
_chemical_formula_sum "Si O2"
_cell_formula_units_Z 32
_cell_length_a 5.571233
_cell_length_b 11.241909
_cell_length_c 22.299156
_cell_angle_alpha 90.000000
_cell_angle_beta 75.415016
_cell_angle_gamma 90.000000
_cell_volume 1351.619042
_symmetry_space_group_name_H-M "P 2/M"
_symmetry_group_IT_number 10
_symmetry_cell_setting 'monoclinic'
loop_
_space_group_symop_operation_xyz
x,y,z
-x,y,-z
-x,-y,-z
x,-y,z
loop_
_atom_site_type_symbol
_atom_site_label
_atom_site_fract_x
_atom_site_fract_y
_atom_site_fract_z
Si Si1 0.370314 0.134224 0.588078
Si Si2 0.014456 0.135163 0.276034
Si Si3 0.318568 0.736271 0.347935
Si Si4 0.123900 0.367781 0.557684
Si Si5 0.817975 0.626294 0.933962
Si Si6 0.614681 0.312200 0.129900
Si Si7 0.275557 0.843756 0.975205
Si Si8 0.745206 0.637209 0.250608
O O1 0.631058 0.175540 0.599695
O O2 0.188968 0.129263 0.657717
O O3 0.281998 0.246859 0.554728
O O4 0.367689 0.000000 0.563611
O O5 0.258891 0.177553 0.295850
O O6 0.933660 0.249426 0.241093
O O7 0.033437 0.000000 0.249283
O O8 0.090830 0.651800 0.378998
O O9 0.558701 0.657615 0.317957
O O10 0.240538 0.500000 0.558983
O O11 0.000000 0.368624 0.500000
O O12 0.779288 0.500000 0.964684
O O13 0.622612 0.640555 0.891935
O O14 0.104583 0.637832 0.896879
O O15 0.758936 0.718816 0.988767
O O16 0.647761 0.180149 0.098356
O O17 0.581989 0.339758 0.201381
O O18 0.500000 0.892561 0.000000
O O19 0.000000 0.891604 0.000000
O O20 0.839564 0.500000 0.244462
#
# Coordination Sequence:
#
# PCOD9142512 Si02
#       8
#     4   4   4   4   4   4   4   4
#     4   9  19  37  61  87 111 141 186 236 287 338
#     4   9  20  39  60  80 109 151 195 237 285 347
#     4  10  21  37  60  83 110 149 192 238 290 346
#     4  10  22  39  58  83 117 154 191 231 278 342
#     4  10  18  29  45  66 102 151 195 231 282 354
#     4  10  21  32  46  73 111 150 189 235 294 359
#     4   8  16  28  43  64  96 146 193 228 277 350
#     4  11  23  35  54  85 118 149 185 239 299 356
#
# _framework density 23.675307
#
# number of rings (size 3 to 8) (size 9 to 14) (size 15 to 20)
#    0.000    2.375    0.000    1.875    1.750   12.250 
#    0.000    1.875    0.000    0.000    0.000    0.000 
#    0.000    9.000    0.000    0.250    0.000    0.000 
#
# Total GULP energy -178261.588734 kJ/mol
# GULP energy per Si atom -5570.674648 kJ/mol
# Density = 2.362142 g / cm^3
# Si number density = 23.675307 Si / 1000 Ang^3
#
#
#
# Elastic Constant Matrix: (Units=GPa)
#
#
# Indices 1 2 3 4 5 6 
#
# 1 118.1314 46.2257 7.8183 0.0000 22.0362 0.0000
# 2 46.2257 237.9601 42.9738 0.0000 29.2965 0.0000
# 3 7.8183 42.9738 52.2192 0.0000 12.9486 0.0000
# 4 0.0000 0.0000 0.0000 11.6349 0.0000 -13.9847
# 5 22.0362 29.2965 12.9486 0.0000 45.7037 0.0000
# 6 0.0000 0.0000 0.0000 -13.9847 0.0000 15.5721
#
#
#
# Elastic Compliance Matrix: (Units=1/GPa)
#
#
# Indices 1 2 3 4 5 6 
#
# 1 0.009754 -0.001554 0.000793 0.000000 -0.003932 0.000000
# 2 -0.001554 0.005391 -0.003800 0.000000 -0.001630 0.000000
# 3 0.000793 -0.003800 0.023285 0.000000 -0.004544 0.000000
# 4 0.000000 0.000000 0.000000 -1.082041 0.000000 -0.971738
# 5 -0.003932 -0.001630 -0.004544 0.000000 0.026108 0.000000
# 6 0.000000 0.000000 0.000000 -0.971738 0.000000 -0.808461
#
#
# Mechanical properties :
#
#
# Convention : Reuss Voigt Hill
#
# Bulk Modulus (GPa) = 34.11871 66.92735 50.52303
# Shear Modulus (GPa) = -2.76690 35.33501 16.28405
#
# Velocity S-wave (km/s) = -1.08223 3.86746 2.62545
# Velocity P-wave (km/s) = 3.58898 6.94789 5.52964
#
# Compressibility (1/GPa) = 0.02930943
#
# Stress axis : x y z
#
# Youngs Moduli (GPa) = 102.52036 185.48879 42.94608
#
# Poissons Ratio (x) = 0.28826 -0.03407
# Poissons Ratio (y) = 0.15932 0.16319
# Poissons Ratio (z) = -0.08134 0.70482
#
# Static dielectric constant tensor:
#      x y z
#    x 1.972460 0.000000 -0.003650 
#    y 0.000000 1.941380 0.000000 
#    z -0.003650 0.000000 1.947530 
# 
# From -- ./inp_files/87452.got.cif
#   From: 2010.05.17/outbox.cif.g08.bks.cpg/sg10_44_cif.got.tgz:87452.got - 2010.06.03 11:33:40.
