data_PCOD9142420
_publ_section_title
;
Structure prediction by ZEFSAII (Michael W. Deem and Ramdas Pophale) SiO2 
 PCOD9142420
Probable space group: P 2/M
;
_chemical_formula_sum "Si O2"
_cell_formula_units_Z 24
_cell_length_a 14.710094
_cell_length_b 13.333414
_cell_length_c 10.817493
_cell_angle_alpha 90.000000
_cell_angle_beta 147.224837
_cell_angle_gamma 90.000000
_cell_volume 1148.567675
_symmetry_space_group_name_H-M "P 2/M"
_symmetry_group_IT_number 10
_symmetry_cell_setting 'monoclinic'
loop_
_space_group_symop_operation_xyz
x,y,z
-x,y,-z
-x,-y,-z
x,-y,z
loop_
_atom_site_type_symbol
_atom_site_label
_atom_site_fract_x
_atom_site_fract_y
_atom_site_fract_z
Si Si1 0.541734 0.743644 0.918804
Si Si2 0.805753 0.380245 0.503474
Si Si3 0.164797 0.388503 0.801639
Si Si4 0.302984 0.608157 0.240022
Si Si5 0.520061 0.885256 0.375518
Si Si6 0.842663 0.777711 0.756290
O O1 0.386139 0.663446 0.728938
O O2 0.559834 0.810179 0.815897
O O3 0.500000 0.799725 0.000000
O O4 0.719602 0.689209 0.137934
O O5 0.793355 0.500000 0.518126
O O6 0.874851 0.303580 0.686796
O O7 0.965277 0.373863 0.591320
O O8 0.195521 0.500000 0.786215
O O9 0.252460 0.388078 0.038844
O O10 0.500000 0.607310 0.500000
O O11 0.234432 0.500000 0.207615
O O12 0.233731 0.705052 0.227119
O O13 0.500000 0.865062 0.500000
O O14 0.714520 0.862605 0.570046
O O15 0.470612 0.000000 0.298253
O O16 0.000000 0.826942 0.000000
#
# Coordination Sequence:
#
# PCOD9142420 Si02
#       6
#     4   4   4   4   4   4
#     4  11  24  41  63  89 121 162 206 250 300 359
#     4  10  21  35  54  88 128 168 207 245 289 346
#     4  10  20  34  54  83 123 165 206 244 285 345
#     4  10  18  28  47  79 120 164 203 240 285 345
#     4  10  23  43  66  90 114 146 195 255 318 372
#     4  11  19  30  55  85 120 158 193 248 299 364
#
# _framework density 20.895591
#
# number of rings (size 3 to 8) (size 9 to 14) (size 15 to 20)
#    0.000    1.667    1.667    4.500    0.000    4.667 
#    0.000    1.667    0.000    0.500    0.000    3.500 
#    0.000    0.000    0.000    0.000    0.000    0.000 
#
# Total GULP energy -133697.462556 kJ/mol
# GULP energy per Si atom -5570.727606 kJ/mol
# Density = 2.084803 g / cm^3
# Si number density = 20.895591 Si / 1000 Ang^3
#
#
#
# Elastic Constant Matrix: (Units=GPa)
#
#
# Indices 1 2 3 4 5 6 
#
# 1 95.4420 48.4048 5.7985 0.0000 -10.0086 0.0000
# 2 48.4048 86.7248 25.3148 0.0000 3.9762 0.0000
# 3 5.7985 25.3148 107.9627 0.0000 3.1719 0.0000
# 4 0.0000 0.0000 0.0000 9.5810 0.0000 -5.3178
# 5 -10.0086 3.9762 3.1719 0.0000 23.5054 0.0000
# 6 0.0000 0.0000 0.0000 -5.3178 0.0000 14.1170
#
#
#
# Elastic Compliance Matrix: (Units=1/GPa)
#
#
# Indices 1 2 3 4 5 6 
#
# 1 0.016264 -0.009808 0.001179 0.000000 0.008425 0.000000
# 2 -0.009808 0.018361 -0.003579 0.000000 -0.006799 0.000000
# 3 0.001179 -0.003579 0.010046 0.000000 -0.000248 0.000000
# 4 0.000000 0.000000 0.000000 0.131966 0.000000 0.049711
# 5 0.008425 -0.006799 -0.000248 0.000000 0.047314 0.000000
# 6 0.000000 0.000000 0.000000 0.049711 0.000000 0.089563
#
#
# Mechanical properties :
#
#
# Convention : Reuss Voigt Hill
#
# Bulk Modulus (GPa) = 49.37115 49.90728 49.63922
# Shear Modulus (GPa) = 14.50618 23.48143 18.99380
#
# Velocity S-wave (km/s) = 2.63767 3.35588 3.01821
# Velocity P-wave (km/s) = 5.74066 6.24114 5.99613
#
# Compressibility (1/GPa) = 0.02025474
#
# Stress axis : x y z
#
# Youngs Moduli (GPa) = 61.48707 54.46269 99.54617
#
# Poissons Ratio (x) = 0.53415 -0.11733
# Poissons Ratio (y) = 0.60305 0.35625
# Poissons Ratio (z) = -0.07247 0.19491
#
# Static dielectric constant tensor:
#      x y z
#    x 1.907810 0.000000 -0.145300 
#    y 0.000000 1.707360 0.000000 
#    z -0.145300 0.000000 2.048130 
# 
# From -- ./inp_files/51689.got.cif
#   From: 2010.05.17/outbox.cif.g08.bks.cpg/sg10_26_cif.got.tgz:51689.got - 2010.06.03 11:33:40.
