data_PCOD9142920
_publ_section_title
;
Structure prediction by ZEFSAII (Michael W. Deem and Ramdas Pophale) SiO2 
 PCOD9142920
Probable space group: P 2/M
;
_chemical_formula_sum "Si O2"
_cell_formula_units_Z 32
_cell_length_a 28.581510
_cell_length_b 9.012815
_cell_length_c 22.325215
_cell_angle_alpha 90.000000
_cell_angle_beta 18.985737
_cell_angle_gamma 90.000000
_cell_volume 1870.979753
_symmetry_space_group_name_H-M "P 2/M"
_symmetry_group_IT_number 10
_symmetry_cell_setting 'monoclinic'
loop_
_space_group_symop_operation_xyz
x,y,z
-x,y,-z
-x,-y,-z
x,-y,z
loop_
_atom_site_type_symbol
_atom_site_label
_atom_site_fract_x
_atom_site_fract_y
_atom_site_fract_z
Si Si1 0.729146 0.826599 0.200622
Si Si2 0.448971 0.320711 0.129278
Si Si3 0.430036 0.322917 0.785256
Si Si4 0.069244 0.325559 0.350811
Si Si5 0.376986 0.176469 0.973592
Si Si6 0.425106 0.825651 0.497518
Si Si7 0.866115 0.678029 0.926207
Si Si8 0.119049 0.679982 0.535110
O O1 0.576302 0.817000 0.350698
O O2 0.695422 0.773792 0.308988
O O3 0.767104 0.000000 0.157860
O O4 0.839115 0.741925 0.024852
O O5 0.457778 0.500000 0.125513
O O6 0.547527 0.244780 0.059511
O O7 0.283698 0.271832 0.338449
O O8 0.500000 0.286628 0.000000
O O9 0.435631 0.500000 0.785089
O O10 0.444593 0.244219 0.831254
O O11 0.547898 0.266909 0.594888
O O12 0.272538 0.284131 0.947596
O O13 0.107308 0.500000 0.294482
O O14 0.000000 0.313758 0.500000
O O15 0.955110 0.281663 0.438211
O O16 0.211818 0.229415 0.173670
O O17 0.387449 0.000000 0.960695
O O18 0.401373 0.000000 0.512923
O O19 0.869087 0.500000 0.926041
O O20 0.011212 0.730717 0.718004
O O21 0.121894 0.500000 0.534038
#
# Coordination Sequence:
#
# PCOD9142920 Si02
#       8
#     4   4   4   4   4   4   4   4
#     4   8  14  24  39  62  97 137 170 201 245 309
#     4  10  21  39  61  79  98 133 180 222 264 315
#     4  10  18  30  49  72 101 135 176 218 254 303
#     4  10  19  35  59  81 102 131 172 217 260 313
#     4  12  24  36  52  77 111 143 171 212 264 316
#     4   8  14  25  40  63  98 135 169 206 252 301
#     4   9  16  27  45  70 101 131 166 217 261 299
#     4   9  17  32  53  78 103 129 169 222 268 304
#
# _framework density 17.103338000000001
#
# number of rings (size 3 to 8) (size 9 to 14) (size 15 to 20)
#    0.000    2.500    1.250    3.000    0.000    3.500 
#    0.000    3.750    0.000    0.000    0.000    0.875 
#    0.000    7.000    0.000    0.000    0.000    0.000 
#
# Total GULP energy -178382.857261 kJ/mol
# GULP energy per Si atom -5574.464289 kJ/mol
# Density = 1.706441 g / cm^3
# Si number density = 17.103338 Si / 1000 Ang^3
#
#
#
# Elastic Constant Matrix: (Units=GPa)
#
#
# Indices 1 2 3 4 5 6 
#
# 1 62.0222 35.1026 13.3791 0.0000 16.8642 0.0000
# 2 35.1026 41.7310 17.7664 0.0000 12.8858 0.0000
# 3 13.3791 17.7664 44.9854 0.0000 18.0437 0.0000
# 4 0.0000 0.0000 0.0000 8.9810 0.0000 6.2565
# 5 16.8642 12.8858 18.0437 0.0000 31.6735 0.0000
# 6 0.0000 0.0000 0.0000 6.2565 0.0000 14.2037
#
#
#
# Elastic Compliance Matrix: (Units=1/GPa)
#
#
# Indices 1 2 3 4 5 6 
#
# 1 0.032677 -0.026556 0.004426 0.000000 -0.009116 0.000000
# 2 -0.026556 0.051561 -0.012603 0.000000 0.000342 0.000000
# 3 0.004426 -0.012603 0.032118 0.000000 -0.015526 0.000000
# 4 0.000000 0.000000 0.000000 0.160641 0.000000 -0.070760
# 5 -0.009116 0.000342 -0.015526 0.000000 0.045132 0.000000
# 6 0.000000 0.000000 0.000000 -0.070760 0.000000 0.101573
#
#
# Mechanical properties :
#
#
# Convention : Reuss Voigt Hill
#
# Bulk Modulus (GPa) = 21.32635 31.24831 26.28733
# Shear Modulus (GPa) = 9.82711 16.47101 13.14906
#
# Velocity S-wave (km/s) = 2.39962 3.10664 2.77573
# Velocity P-wave (km/s) = 4.49152 5.58375 5.06715
#
# Compressibility (1/GPa) = 0.04689035
#
# Stress axis : x y z
#
# Youngs Moduli (GPa) = 30.60236 19.39455 31.13525
#
# Poissons Ratio (x) = 0.51505 -0.13781
# Poissons Ratio (y) = 0.81269 0.39238
# Poissons Ratio (z) = -0.13545 0.24442
#
# Static dielectric constant tensor:
#      x y z
#    x 1.569250 0.000000 0.020500 
#    y 0.000000 1.568040 0.000000 
#    z 0.020500 0.000000 1.593140 
# 
# From -- ./inp_files/86799.got.cif
#   From: 2010.05.17/outbox.cif.g08.bks.cpg/sg10_44_cif.got.tgz:86799.got - 2010.06.03 11:33:40.
