data_PCOD9142929
_publ_section_title
;
Structure prediction by ZEFSAII (Michael W. Deem and Ramdas Pophale) SiO2 
 PCOD9142929
Probable space group: P 2/M
;
_chemical_formula_sum "Si O2"
_cell_formula_units_Z 28
_cell_length_a 15.540364
_cell_length_b 7.673003
_cell_length_c 13.040007
_cell_angle_alpha 90.000000
_cell_angle_beta 104.965213
_cell_angle_gamma 90.000000
_cell_volume 1502.168757
_symmetry_space_group_name_H-M "P 2/M"
_symmetry_group_IT_number 10
_symmetry_cell_setting 'monoclinic'
loop_
_space_group_symop_operation_xyz
x,y,z
-x,y,-z
-x,-y,-z
x,-y,z
loop_
_atom_site_type_symbol
_atom_site_label
_atom_site_fract_x
_atom_site_fract_y
_atom_site_fract_z
Si Si1 0.719495 0.794660 0.714193
Si Si2 0.403121 0.209112 0.505982
Si Si3 0.895599 0.287383 0.080799
Si Si4 0.292725 0.714017 0.896745
Si Si5 0.397010 0.296601 0.128486
Si Si6 0.093231 0.710025 0.153128
Si Si7 0.409913 0.290366 0.744113
O O1 0.671597 0.727546 0.596713
O O2 0.672677 0.714140 0.799773
O O3 0.824950 0.766982 0.752076
O O4 0.702130 0.000000 0.716589
O O5 0.500000 0.276223 0.500000
O O6 0.388565 0.248926 0.620249
O O7 0.405448 0.000000 0.498317
O O8 0.895487 0.500000 0.081145
O O9 0.808778 0.229326 0.115410
O O10 0.993158 0.231335 0.149338
O O11 0.888424 0.234420 0.959046
O O12 0.292008 0.500000 0.898274
O O13 0.337747 0.770244 0.804826
O O14 0.352757 0.774880 0.011479
O O15 0.413341 0.500000 0.111179
O O16 0.491759 0.222211 0.194203
O O17 0.092859 0.500000 0.152658
O O18 0.412948 0.500000 0.751648
#
# Coordination Sequence:
#
# PCOD9142929 Si02
#       7
#     4   4   4   4   4   4   4
#     4  11  21  32  49  71  97 129 164 202 245 285
#     4  10  21  37  51  64  93 135 168 200 245 288
#     4   8  14  26  49  75 100 128 157 188 238 299
#     4   9  16  29  49  75 105 131 154 191 242 294
#     4  10  18  30  49  73 102 132 157 191 240 293
#     4   9  16  29  50  75  97 126 162 196 239 290
#     4  10  20  31  50  77  99 125 166 205 236 279
#
# _framework density 18.639717999999998
#
# number of rings (size 3 to 8) (size 9 to 14) (size 15 to 20)
#    0.000    2.429    2.857    1.714    0.000    3.143 
#    0.000    2.143    0.000    2.571    0.000    6.000 
#    0.000    0.000    0.000    0.000    0.000    0.000 
#
# Total GULP energy -156199.948015 kJ/mol
# GULP energy per Si atom -5578.569572 kJ/mol
# Density = 1.859729 g / cm^3
# Si number density = 18.639718 Si / 1000 Ang^3
#
#
#
# Elastic Constant Matrix: (Units=GPa)
#
#
# Indices 1 2 3 4 5 6 
#
# 1 123.9397 -0.3100 97.2007 0.0000 17.1933 0.0000
# 2 -0.3100 30.1724 -0.3093 0.0000 1.9848 0.0000
# 3 97.2007 -0.3093 155.3184 0.0000 4.2732 0.0000
# 4 0.0000 0.0000 0.0000 25.7734 0.0000 -1.8652
# 5 17.1933 1.9848 4.2732 0.0000 30.3778 0.0000
# 6 0.0000 0.0000 0.0000 -1.8652 0.0000 6.0295
#
#
#
# Elastic Compliance Matrix: (Units=1/GPa)
#
#
# Indices 1 2 3 4 5 6 
#
# 1 0.017824 0.000637 -0.010917 0.000000 -0.008594 0.000000
# 2 0.000637 0.033311 -0.000263 0.000000 -0.002500 0.000000
# 3 -0.010917 -0.000263 0.013150 0.000000 0.004346 0.000000
# 4 0.000000 0.000000 0.000000 0.039688 0.000000 0.012277
# 5 -0.008594 -0.002500 0.004346 0.000000 0.037335 0.000000
# 6 0.000000 0.000000 0.000000 0.012277 0.000000 0.169648
#
#
# Mechanical properties :
#
#
# Convention : Reuss Voigt Hill
#
# Bulk Modulus (GPa) = 23.14909 55.84368 39.49639
# Shear Modulus (GPa) = 14.43242 26.62609 20.52926
#
# Velocity S-wave (km/s) = 2.78561 3.78360 3.32229
# Velocity P-wave (km/s) = 4.77414 7.00800 5.99602
#
# Compressibility (1/GPa) = 0.04319825
#
# Stress axis : x y z
#
# Youngs Moduli (GPa) = 56.10534 30.02000 76.04525
#
# Poissons Ratio (x) = -0.01911 0.83015
# Poissons Ratio (y) = -0.03572 0.02002
# Poissons Ratio (z) = 0.61248 0.00790
#
# Static dielectric constant tensor:
#      x y z
#    x 1.648500 0.000000 0.024780 
#    y 0.000000 1.702800 0.000000 
#    z 0.024780 0.000000 1.622910 
# 
# From -- ./inp_files/49070.got.cif
#   From: 2010.05.17/outbox.cif.g08.bks.cpg/sg10_25_cif.got.tgz:49070.got - 2010.06.03 11:33:40.
