data_PCOD9142652
_publ_section_title
;
Structure prediction by ZEFSAII (Michael W. Deem and Ramdas Pophale) SiO2 
 PCOD9142652
Probable space group: P 2/M
;
_chemical_formula_sum "Si O2"
_cell_formula_units_Z 28
_cell_length_a 25.649455
_cell_length_b 9.484820
_cell_length_c 5.494875
_cell_angle_alpha 90.000000
_cell_angle_beta 102.758570
_cell_angle_gamma 90.000000
_cell_volume 1303.789314
_symmetry_space_group_name_H-M "P 2/M"
_symmetry_group_IT_number 10
_symmetry_cell_setting 'monoclinic'
loop_
_space_group_symop_operation_xyz
x,y,z
-x,y,-z
-x,-y,-z
x,-y,z
loop_
_atom_site_type_symbol
_atom_site_label
_atom_site_fract_x
_atom_site_fract_y
_atom_site_fract_z
Si Si1 0.284668 0.660649 0.350304
Si Si2 0.765374 0.672746 0.202523
Si Si3 0.061155 0.829346 0.056522
Si Si4 0.122793 0.171164 0.619555
Si Si5 0.636343 0.000000 0.741495
Si Si6 0.592759 0.697609 0.657133
Si Si7 0.441673 0.742887 0.876544
Si Si8 0.641629 0.000000 0.246076
O O1 0.265046 0.500000 0.341198
O O2 0.272896 0.715477 0.609536
O O3 0.347180 0.656785 0.352173
O O4 0.256242 0.723451 0.082811
O O5 0.767975 0.500000 0.197106
O O6 0.821969 0.744181 0.312259
O O7 0.092213 0.790469 0.336839
O O8 0.059313 0.000000 0.056232
O O9 0.089854 0.791770 0.831620
O O10 0.000000 0.777696 0.000000
O O11 0.130761 0.000000 0.627451
O O12 0.597613 0.133579 0.695932
O O13 0.670778 0.000000 0.532568
O O14 0.670628 0.000000 0.020071
O O15 0.557185 0.667670 0.384814
O O16 0.575517 0.651719 0.907279
O O17 0.397239 0.864314 0.798158
O O18 0.500000 0.801016 0.000000
#
# Coordination Sequence:
#
# PCOD9142652 Si02
#       8
#     4   4   4   4   2   4   4   2
#     4  10  21  38  58  74  94 133 181 216 254 316
#     4  10  21  38  57  78 103 138 183 224 268 317
#     4   9  17  30  52  81 115 152 186 220 258 312
#     4  10  19  33  54  83 113 142 184 226 269 310
#     4   8  16  28  43  68  96 120 146 190 243 296
#     4  10  19  33  49  71  99 124 162 201 251 305
#     4  10  18  29  48  71  98 127 156 196 246 306
#     4   8  15  26  42  64  92 126 156 180 220 288
#
# _framework density 21.475860999999998
#
# number of rings (size 3 to 8) (size 9 to 14) (size 15 to 20)
#    0.000    2.429    0.000    2.786    0.000    1.714 
#    2.571    4.286    0.000    5.143    0.000    0.000 
#    0.000    0.000    0.000    0.000    0.000    0.000 
#
# Total GULP energy -156064.046571 kJ/mol
# GULP energy per Si atom -5573.715949 kJ/mol
# Density = 2.142698 g / cm^3
# Si number density = 21.475861 Si / 1000 Ang^3
#
#
#
# Elastic Constant Matrix: (Units=GPa)
#
#
# Indices 1 2 3 4 5 6 
#
# 1 65.3644 -2.3422 26.9296 0.0000 -14.7907 0.0000
# 2 -2.3422 62.1905 3.1453 0.0000 -5.2867 0.0000
# 3 26.9296 3.1453 196.5473 0.0000 -29.8630 0.0000
# 4 0.0000 0.0000 0.0000 -32.2328 0.0000 35.7561
# 5 -14.7907 -5.2867 -29.8630 0.0000 46.5313 0.0000
# 6 0.0000 0.0000 0.0000 35.7561 0.0000 99.0092
#
#
#
# Elastic Compliance Matrix: (Units=1/GPa)
#
#
# Indices 1 2 3 4 5 6 
#
# 1 0.017039 0.001106 -0.001673 0.000000 0.004468 0.000000
# 2 0.001106 0.016308 -0.000086 0.000000 0.002149 0.000000
# 3 -0.001673 -0.000086 0.005802 0.000000 0.003182 0.000000
# 4 0.000000 0.000000 0.000000 -0.022150 0.000000 0.007999
# 5 0.004468 0.002149 0.003182 0.000000 0.025197 0.000000
# 6 0.000000 0.000000 0.000000 0.007999 0.000000 0.007211
#
#
# Mechanical properties :
#
#
# Convention : Reuss Voigt Hill
#
# Bulk Modulus (GPa) = 26.42524 42.17419 34.29971
# Shear Modulus (GPa) = 78.95411 42.41951 60.68681
#
# Velocity S-wave (km/s) = 6.06992 4.44916 5.32161
# Velocity P-wave (km/s) = 7.83942 6.78778 7.33248
#
# Compressibility (1/GPa) = 0.03784261
#
# Stress axis : x y z
#
# Youngs Moduli (GPa) = 58.68929 61.31834 172.35603
#
# Poissons Ratio (x) = -0.06783 0.28843
# Poissons Ratio (y) = -0.06492 0.01482
# Poissons Ratio (z) = 0.09821 0.00527
#
# Static dielectric constant tensor:
#      x y z
#    x 1.748200 0.000000 -0.060050 
#    y 0.000000 1.303650 0.000000 
#    z -0.060050 0.000000 1.868780 
# 
# From -- ./inp_files/12477.got.cif
#   From: 2010.05.17/outbox.cif.g08.bks.cpg/sg10_7_cif.got.tgz:12477.got - 2010.06.03 11:33:40.
