data_PCOD9142779
_publ_section_title
;
Structure prediction by ZEFSAII (Michael W. Deem and Ramdas Pophale) SiO2 
 PCOD9142779
Probable space group: P 2/M
;
_chemical_formula_sum "Si O2"
_cell_formula_units_Z 24
_cell_length_a 15.773455
_cell_length_b 7.897520
_cell_length_c 12.551242
_cell_angle_alpha 90.000000
_cell_angle_beta 117.160120
_cell_angle_gamma 90.000000
_cell_volume 1391.120048
_symmetry_space_group_name_H-M "P 2/M"
_symmetry_group_IT_number 10
_symmetry_cell_setting 'monoclinic'
loop_
_space_group_symop_operation_xyz
x,y,z
-x,y,-z
-x,-y,-z
x,-y,z
loop_
_atom_site_type_symbol
_atom_site_label
_atom_site_fract_x
_atom_site_fract_y
_atom_site_fract_z
Si Si1 0.727957 0.707541 0.195379
Si Si2 0.990675 0.304803 0.158728
Si Si3 0.472428 0.303120 0.858326
Si Si4 0.325216 0.295661 0.074731
Si Si5 0.059757 0.706892 0.635371
Si Si6 0.148679 0.807734 0.104056
O O1 0.725353 0.500000 0.194438
O O2 0.634220 0.769090 0.204958
O O3 0.716364 0.758682 0.064632
O O4 0.829725 0.760205 0.299024
O O5 0.957395 0.500000 0.138041
O O6 0.985069 0.244049 0.276456
O O7 0.918951 0.208802 0.038963
O O8 0.094371 0.295190 0.164527
O O9 0.464903 0.500000 0.820963
O O10 0.500000 0.302691 0.000000
O O11 0.565981 0.230145 0.854860
O O12 0.329916 0.500000 0.073469
O O13 0.252727 0.246428 0.125479
O O14 0.058997 0.500000 0.631611
O O15 0.000000 0.767510 0.500000
O O16 0.150119 0.000000 0.140842
#
# Coordination Sequence:
#
# PCOD9142779 Si02
#       6
#     4   4   4   4   4   4
#     4   8  12  21  37  60  86 110 136 171 207 245
#     4  10  18  30  45  61  83 114 146 173 206 251
#     4   7  11  18  34  58  82 105 136 170 202 246
#     4   9  14  24  41  62  83 111 142 168 205 257
#     4   9  16  25  41  66  90 110 137 173 211 248
#     4  11  20  28  41  62  88 114 140 176 216 250
#
# _framework density 17.252286999999999
#
# number of rings (size 3 to 8) (size 9 to 14) (size 15 to 20)
#    0.000    3.000    1.667    5.000    0.000    0.000 
#    0.000    0.000    0.000    6.500    0.000    1.167 
#    0.000    9.333    0.000    0.000    0.000    0.000 
#
# Total GULP energy -133608.218680 kJ/mol
# GULP energy per Si atom -5567.009112 kJ/mol
# Density = 1.721302 g / cm^3
# Si number density = 17.252287 Si / 1000 Ang^3
#
#
#
# Elastic Constant Matrix: (Units=GPa)
#
#
# Indices 1 2 3 4 5 6 
#
# 1 169.9372 -1.6999 54.5684 0.0000 6.4990 0.0000
# 2 -1.6999 20.8786 0.9642 0.0000 1.4459 0.0000
# 3 54.5684 0.9642 72.0317 0.0000 5.4045 0.0000
# 4 0.0000 0.0000 0.0000 -55.6235 0.0000 34.5415
# 5 6.4990 1.4459 5.4045 0.0000 16.6474 0.0000
# 6 0.0000 0.0000 0.0000 34.5415 0.0000 -30.1794
#
#
#
# Elastic Compliance Matrix: (Units=1/GPa)
#
#
# Indices 1 2 3 4 5 6 
#
# 1 0.007818 0.000992 -0.005843 0.000000 -0.001241 0.000000
# 2 0.000992 0.048320 -0.001081 0.000000 -0.004233 0.000000
# 3 -0.005843 -0.001081 0.018598 0.000000 -0.003663 0.000000
# 4 0.000000 0.000000 0.000000 -0.062153 0.000000 -0.071136
# 5 -0.001241 -0.004233 -0.003663 0.000000 0.062111 0.000000
# 6 0.000000 0.000000 0.000000 -0.071136 0.000000 -0.114554
#
#
# Mechanical properties :
#
#
# Convention : Reuss Voigt Hill
#
# Bulk Modulus (GPa) = 15.90497 41.16809 28.53653
# Shear Modulus (GPa) = -710.33265 0.10323 -355.11471
#
# Velocity S-wave (km/s) = -20.31320 0.24488 -14.36256
# Velocity P-wave (km/s) = 23.25789 4.89838 16.07693
#
# Compressibility (1/GPa) = 0.06287343
#
# Stress axis : x y z
#
# Youngs Moduli (GPa) = 127.90808 20.69549 53.76818
#
# Poissons Ratio (x) = -0.02054 0.31416
# Poissons Ratio (y) = -0.12693 0.05812
# Poissons Ratio (z) = 0.74734 0.02237
#
# Static dielectric constant tensor:
#      x y z
#    x 1.652200 0.000000 0.008340 
#    y 0.000000 1.609150 0.000000 
#    z 0.008340 0.000000 1.543350 
# 
# From -- ./inp_files/48886.got.cif
#   From: 2010.05.17/outbox.cif.g08.bks.cpg/sg10_25_cif.got.tgz:48886.got - 2010.06.03 11:33:40.
