data_PCOD9142372
_publ_section_title
;
Structure prediction by ZEFSAII (Michael W. Deem and Ramdas Pophale) SiO2 
 PCOD9142372
Probable space group: P 2/M
;
_chemical_formula_sum "Si O2"
_cell_formula_units_Z 32
_cell_length_a 33.653782
_cell_length_b 7.560624
_cell_length_c 13.141049
_cell_angle_alpha 90.000000
_cell_angle_beta 26.504214
_cell_angle_gamma 90.000000
_cell_volume 1492.151943
_symmetry_space_group_name_H-M "P 2/M"
_symmetry_group_IT_number 10
_symmetry_cell_setting 'monoclinic'
loop_
_space_group_symop_operation_xyz
x,y,z
-x,y,-z
-x,-y,-z
x,-y,z
loop_
_atom_site_type_symbol
_atom_site_label
_atom_site_fract_x
_atom_site_fract_y
_atom_site_fract_z
Si Si1 0.584944 0.715532 0.183409
Si Si2 0.031323 0.783976 0.042290
Si Si3 0.139426 0.792211 0.445190
Si Si4 0.772585 0.198522 0.378830
Si Si5 0.597659 0.285746 0.479257
Si Si6 0.584432 0.792814 0.742822
Si Si7 0.281989 0.299531 0.282579
Si Si8 0.270568 0.286730 0.981908
O O1 0.586499 0.500000 0.185919
O O2 0.482580 0.767711 0.412922
O O3 0.653295 0.776712 0.112843
O O4 0.628788 0.766863 0.975228
O O5 0.957833 0.734868 0.294936
O O6 0.036763 0.000000 0.025333
O O7 0.129246 0.718557 0.849535
O O8 0.000000 0.728201 0.000000
O O9 0.209301 0.699183 0.359829
O O10 0.145536 0.000000 0.453683
O O11 0.176221 0.766536 0.246653
O O12 0.682673 0.284358 0.541250
O O13 0.752865 0.189697 0.544201
O O14 0.779538 0.000000 0.318706
O O15 0.597123 0.500000 0.484791
O O16 0.575306 0.220888 0.642730
O O17 0.691669 0.229359 0.214250
O O18 0.590204 0.000000 0.759517
O O19 0.500000 0.719623 0.000000
O O20 0.296385 0.500000 0.285007
O O21 0.271052 0.500000 0.981079
#
# Coordination Sequence:
#
# PCOD9142372 Si02
#       8
#     4   4   4   4   4   4   4   4
#     4   8  15  28  47  71  98 129 164 199 239 290
#     4   9  16  29  50  74  98 128 169 206 239 294
#     4  10  18  30  49  72 100 132 163 197 246 303
#     4  10  19  33  51  69  97 136 170 203 247 293
#     4  10  19  33  54  73  95 132 172 209 246 291
#     4  10  22  37  52  74 104 134 165 207 253 293
#     4  10  18  28  45  72 104 131 161 202 244 293
#     4   9  18  32  50  74 102 129 164 208 252 295
#
# _framework density 21.445537000000002
#
# number of rings (size 3 to 8) (size 9 to 14) (size 15 to 20)
#    0.000    2.500    1.250    2.625    0.000    2.750 
#    0.000    4.375    0.000    4.500    0.000    5.250 
#    0.000    0.000    0.000    0.000    0.000    0.000 
#
# Total GULP energy -178374.343407 kJ/mol
# GULP energy per Si atom -5574.198231 kJ/mol
# Density = 2.139673 g / cm^3
# Si number density = 21.445537 Si / 1000 Ang^3
#
#
#
# Elastic Constant Matrix: (Units=GPa)
#
#
# Indices 1 2 3 4 5 6 
#
# 1 51.7973 -2.5371 48.8858 0.0000 -4.7269 0.0000
# 2 -2.5371 52.4299 7.0042 0.0000 -1.2355 0.0000
# 3 48.8858 7.0042 198.5861 0.0000 -0.9683 0.0000
# 4 0.0000 0.0000 0.0000 17.3379 0.0000 5.0071
# 5 -4.7269 -1.2355 -0.9683 0.0000 36.9752 0.0000
# 6 0.0000 0.0000 0.0000 5.0071 0.0000 8.6962
#
#
#
# Elastic Compliance Matrix: (Units=1/GPa)
#
#
# Indices 1 2 3 4 5 6 
#
# 1 0.025743 0.002176 -0.006398 0.000000 0.003196 0.000000
# 2 0.002176 0.019362 -0.001214 0.000000 0.000893 0.000000
# 3 -0.006398 -0.001214 0.006650 0.000000 -0.000684 0.000000
# 4 0.000000 0.000000 0.000000 0.069181 0.000000 -0.039833
# 5 0.003196 0.000893 -0.000684 0.000000 0.027466 0.000000
# 6 0.000000 0.000000 0.000000 -0.039833 0.000000 0.137928
#
#
# Mechanical properties :
#
#
# Convention : Reuss Voigt Hill
#
# Bulk Modulus (GPa) = 24.46098 45.50211 34.98154
# Shear Modulus (GPa) = 16.08597 29.23255 22.65926
#
# Velocity S-wave (km/s) = 2.74174 3.69603 3.25406
# Velocity P-wave (km/s) = 4.63181 6.28314 5.51958
#
# Compressibility (1/GPa) = 0.04088144
#
# Stress axis : x y z
#
# Youngs Moduli (GPa) = 38.84565 51.64856 150.37271
#
# Poissons Ratio (x) = -0.11238 0.96212
# Poissons Ratio (y) = -0.08452 0.18258
# Poissons Ratio (z) = 0.24854 0.06271
#
# Static dielectric constant tensor:
#      x y z
#    x 1.769760 0.000000 -0.004370 
#    y 0.000000 1.829950 0.000000 
#    z -0.004370 0.000000 1.838000 
# 
# From -- ./inp_files/58082.got.cif
#   From: 2010.05.17/outbox.cif.g08.bks.cpg/sg10_30_cif.got.tgz:58082.got - 2010.06.03 11:33:40.
