data_PCOD9142809
_publ_section_title
;
Structure prediction by ZEFSAII (Michael W. Deem and Ramdas Pophale) SiO2 
 PCOD9142809
Probable space group: P 2/M
;
_chemical_formula_sum "Si O2"
_cell_formula_units_Z 32
_cell_length_a 14.922027
_cell_length_b 7.413055
_cell_length_c 14.810692
_cell_angle_alpha 90.000000
_cell_angle_beta 72.475557
_cell_angle_gamma 90.000000
_cell_volume 1562.289218
_symmetry_space_group_name_H-M "P 2/M"
_symmetry_group_IT_number 10
_symmetry_cell_setting 'monoclinic'
loop_
_space_group_symop_operation_xyz
x,y,z
-x,y,-z
-x,-y,-z
x,-y,z
loop_
_atom_site_type_symbol
_atom_site_label
_atom_site_fract_x
_atom_site_fract_y
_atom_site_fract_z
Si Si1 0.497743 0.782654 0.397668
Si Si2 0.999597 0.221708 0.605340
Si Si3 0.712071 0.708819 0.554797
Si Si4 0.683777 0.220929 0.235675
Si Si5 0.815925 0.208741 0.347457
Si Si6 0.404856 0.219402 0.917483
Si Si7 0.200894 0.795754 0.288634
Si Si8 0.615970 0.779689 0.868417
O O1 0.500000 0.717505 0.500000
O O2 0.397125 0.730308 0.388952
O O3 0.588467 0.722553 0.315730
O O4 0.500193 0.000000 0.397790
O O5 0.903270 0.283445 0.682104
O O6 0.000000 0.277176 0.500000
O O7 0.091327 0.283734 0.632284
O O8 0.999509 0.000000 0.604240
O O9 0.736995 0.500000 0.546328
O O10 0.735122 0.784336 0.448937
O O11 0.772987 0.801069 0.613411
O O12 0.771550 0.284933 0.269051
O O13 0.667935 0.277264 0.137270
O O14 0.686539 0.000000 0.236400
O O15 0.837556 0.000000 0.322324
O O16 0.512691 0.276599 0.864860
O O17 0.406056 0.000000 0.916182
O O18 0.380572 0.271221 0.027062
O O19 0.291760 0.713707 0.211887
O O20 0.192935 0.000000 0.255900
O O21 0.615805 0.000000 0.862387
#
# Coordination Sequence:
#
# PCOD9142809 Si02
#       8
#     4   4   4   4   4   4   4   4
#     4  10  18  30  47  66  88 122 162 188 211 263
#     4   9  16  27  47  68  86 114 157 203 233 262
#     4  12  23  31  42  66  97 126 150 189 237 276
#     4   9  16  26  45  67  90 120 154 188 223 269
#     4  10  18  32  48  64  87 122 161 193 225 273
#     4   8  13  23  39  68  97 115 141 185 236 271
#     4  10  18  31  50  68  87 119 159 195 230 276
#     4   8  14  24  43  67  93 116 144 190 233 273
#
# _framework density 20.482762000000001
#
# number of rings (size 3 to 8) (size 9 to 14) (size 15 to 20)
#    0.000    2.500    2.500    2.625    0.000    2.250 
#    0.000    1.250    0.000    0.750    0.000   13.125 
#    0.000    0.000    0.000    2.250    0.000    2.500 
#
# Total GULP energy -178571.957729 kJ/mol
# GULP energy per Si atom -5580.373679 kJ/mol
# Density = 2.043614 g / cm^3
# Si number density = 20.482762 Si / 1000 Ang^3
#
#
#
# Elastic Constant Matrix: (Units=GPa)
#
#
# Indices 1 2 3 4 5 6 
#
# 1 155.5625 2.0257 54.5998 0.0000 21.5457 0.0000
# 2 2.0257 70.1530 -1.2152 0.0000 0.6134 0.0000
# 3 54.5998 -1.2152 83.9056 0.0000 16.7134 0.0000
# 4 0.0000 0.0000 0.0000 58.3145 0.0000 -553.6184
# 5 21.5457 0.6134 16.7134 0.0000 36.8954 0.0000
# 6 0.0000 0.0000 0.0000 -553.6184 0.0000 3958.8820
#
#
#
# Elastic Compliance Matrix: (Units=1/GPa)
#
#
# Indices 1 2 3 4 5 6 
#
# 1 0.008580 -0.000311 -0.005046 0.000000 -0.002719 0.000000
# 2 -0.000311 0.014274 0.000462 0.000000 -0.000265 0.000000
# 3 -0.005046 0.000462 0.016073 0.000000 -0.004342 0.000000
# 4 0.000000 0.000000 0.000000 -0.052343 0.000000 -0.007320
# 5 -0.002719 -0.000265 -0.004342 0.000000 0.030663 0.000000
# 6 0.000000 0.000000 0.000000 -0.007320 0.000000 -0.000771
#
#
# Mechanical properties :
#
#
# Convention : Reuss Voigt Hill
#
# Bulk Modulus (GPa) = 34.32115 46.71575 40.51845
# Shear Modulus (GPa) = 138.96911 827.76577 483.36744
#
# Velocity S-wave (km/s) = 8.24586 20.12474 15.37855
# Velocity P-wave (km/s) = 10.36587 23.72475 18.30731
#
# Compressibility (1/GPa) = 0.02913655
#
# Stress axis : x y z
#
# Youngs Moduli (GPa) = 116.54895 70.05810 62.21455
#
# Poissons Ratio (x) = 0.02182 0.31394
# Poissons Ratio (y) = 0.03629 -0.02875
# Poissons Ratio (z) = 0.58812 -0.03237
#
# Static dielectric constant tensor:
#      x y z
#    x 1.743660 0.000000 0.010300 
#    y 0.000000 1.770190 0.000000 
#    z 0.010300 0.000000 1.712370 
# 
# From -- ./inp_files/66049.got.cif
#   From: 2010.05.17/outbox.cif.g08.bks.cpg/sg10_34_cif.got.tgz:66049.got - 2010.06.03 11:33:40.
