data_PCOD9142198
_publ_section_title
;
Structure prediction by ZEFSAII (Michael W. Deem and Ramdas Pophale) SiO2 
 PCOD9142198
Probable space group: P 2/M
;
_chemical_formula_sum "Si O2"
_cell_formula_units_Z 28
_cell_length_a 14.646882
_cell_length_b 8.576845
_cell_length_c 11.051087
_cell_angle_alpha 90.000000
_cell_angle_beta 64.663934
_cell_angle_gamma 90.000000
_cell_volume 1254.747964
_symmetry_space_group_name_H-M "P 2/M"
_symmetry_group_IT_number 10
_symmetry_cell_setting 'monoclinic'
loop_
_space_group_symop_operation_xyz
x,y,z
-x,y,-z
-x,-y,-z
x,-y,z
loop_
_atom_site_type_symbol
_atom_site_label
_atom_site_fract_x
_atom_site_fract_y
_atom_site_fract_z
Si Si1 0.609505 0.190059 0.880458
Si Si2 0.986549 0.814071 0.149816
Si Si3 0.203622 0.812219 0.054220
Si Si4 0.577240 0.332368 0.271732
Si Si5 0.570614 0.000000 0.280290
Si Si6 0.341614 0.000000 0.510914
Si Si7 0.649899 0.675595 0.592654
Si Si8 0.211614 0.676560 0.779777
O O1 0.704468 0.232188 0.912036
O O2 0.628680 0.284264 0.746107
O O3 0.611427 0.000000 0.857930
O O4 0.500000 0.227197 0.000000
O O5 0.875384 0.757549 0.247829
O O6 0.089511 0.763201 0.157754
O O7 0.983583 0.000000 0.155663
O O8 0.000000 0.769154 0.000000
O O9 0.204443 0.000000 0.045341
O O10 0.214449 0.748040 0.912660
O O11 0.589739 0.500000 0.199358
O O12 0.582416 0.162516 0.204733
O O13 0.465744 0.333273 0.389751
O O14 0.668810 0.328521 0.316367
O O15 0.457855 0.000000 0.397347
O O16 0.648670 0.000000 0.348757
O O17 0.299306 0.835888 0.485055
O O18 0.694937 0.500000 0.553578
O O19 0.177500 0.500000 0.808377
#
# Coordination Sequence:
#
# PCOD9142198 Si02
#       8
#     4   4   4   4   2   2   4   4
#     4  10  19  30  45  65  90 122 161 196 221 254
#     4   8  15  27  40  56  80 115 154 185 223 267
#     4   9  18  29  41  59  86 120 157 194 221 254
#     4   9  19  30  43  70  96 116 149 184 222 273
#     4   9  18  30  52  66  88 123 143 181 230 268
#     4   9  18  34  47  70  89 113 159 183 216 277
#     4  10  19  32  48  65  93 125 151 188 225 258
#     4  10  18  27  41  62  89 118 149 187 224 266
#
# _framework density 22.315237
#
# number of rings (size 3 to 8) (size 9 to 14) (size 15 to 20)
#    0.000    2.714    0.714    2.143    2.000    4.000 
#    0.000    2.857    0.000    0.000    0.000    0.000 
#    0.000    2.286    0.000    4.429    0.000    0.286 
#
# Total GULP energy -156023.212356 kJ/mol
# GULP energy per Si atom -5572.257584 kJ/mol
# Density = 2.226445 g / cm^3
# Si number density = 22.315237 Si / 1000 Ang^3
#
#
#
# Elastic Constant Matrix: (Units=GPa)
#
#
# Indices 1 2 3 4 5 6 
#
# 1 166.6926 36.7331 48.2256 0.0000 -9.2281 0.0000
# 2 36.7331 137.2142 22.2428 0.0000 7.4248 0.0000
# 3 48.2256 22.2428 67.0674 0.0000 4.8878 0.0000
# 4 0.0000 0.0000 0.0000 16.0665 0.0000 1.3780
# 5 -9.2281 7.4248 4.8878 0.0000 30.0837 0.0000
# 6 0.0000 0.0000 0.0000 1.3780 0.0000 18.9410
#
#
#
# Elastic Compliance Matrix: (Units=1/GPa)
#
#
# Indices 1 2 3 4 5 6 
#
# 1 0.008173 -0.001475 -0.005664 0.000000 0.003791 0.000000
# 2 -0.001475 0.008036 -0.001444 0.000000 -0.002201 0.000000
# 3 -0.005664 -0.001444 0.019797 0.000000 -0.004597 0.000000
# 4 0.000000 0.000000 0.000000 0.062632 0.000000 -0.004557
# 5 0.003791 -0.002201 -0.004597 0.000000 0.035694 0.000000
# 6 0.000000 0.000000 0.000000 -0.004557 0.000000 0.053127
#
#
# Mechanical properties :
#
#
# Convention : Reuss Voigt Hill
#
# Bulk Modulus (GPa) = 53.07884 65.04191 59.06038
# Shear Modulus (GPa) = 23.70750 30.60308 27.15529
#
# Velocity S-wave (km/s) = 3.26297 3.70726 3.49219
# Velocity P-wave (km/s) = 6.16713 6.89457 6.54097
#
# Compressibility (1/GPa) = 0.01883990
#
# Stress axis : x y z
#
# Youngs Moduli (GPa) = 122.36150 124.44137 50.51294
#
# Poissons Ratio (x) = 0.18354 0.28609
# Poissons Ratio (y) = 0.18047 0.07295
# Poissons Ratio (z) = 0.69302 0.17971
#
# Static dielectric constant tensor:
#      x y z
#    x 3.990960 0.000000 0.680330 
#    y 0.000000 1.896180 0.000000 
#    z 0.680330 0.000000 2.135490 
# 
# From -- ./inp_files/49223.got.cif
#   From: 2010.05.17/outbox.cif.g08.bks.cpg/sg10_25_cif.got.tgz:49223.got - 2010.06.03 11:33:40.
