data_PCOD9142263
_publ_section_title
;
Structure prediction by ZEFSAII (Michael W. Deem and Ramdas Pophale) SiO2 
 PCOD9142263
Probable space group: P 2/M
;
_chemical_formula_sum "Si O2"
_cell_formula_units_Z 32
_cell_length_a 23.670268
_cell_length_b 7.541873
_cell_length_c 14.556004
_cell_angle_alpha 90.000000
_cell_angle_beta 143.209675
_cell_angle_gamma 90.000000
_cell_volume 1556.218026
_symmetry_space_group_name_H-M "P 2/M"
_symmetry_group_IT_number 10
_symmetry_cell_setting 'monoclinic'
loop_
_space_group_symop_operation_xyz
x,y,z
-x,y,-z
-x,-y,-z
x,-y,z
loop_
_atom_site_type_symbol
_atom_site_label
_atom_site_fract_x
_atom_site_fract_y
_atom_site_fract_z
Si Si1 0.502939 0.215921 0.609756
Si Si2 0.008189 0.710939 0.115754
Si Si3 0.812577 0.786851 0.960129
Si Si4 0.395146 0.702210 0.754523
Si Si5 0.796116 0.701711 0.577609
Si Si6 0.605874 0.795017 0.037962
Si Si7 0.704197 0.214674 0.639800
Si Si8 0.688682 0.217346 0.960406
O O1 0.500000 0.272143 0.500000
O O2 0.402600 0.268196 0.520972
O O3 0.594993 0.274189 0.783300
O O4 0.505575 0.000000 0.612693
O O5 0.024826 0.500000 0.128652
O O6 0.099689 0.783299 0.289335
O O7 0.913332 0.735077 0.050428
O O8 0.000000 0.781268 0.000000
O O9 0.735359 0.734555 0.782755
O O10 0.777608 0.725165 0.014649
O O11 0.811512 0.000000 0.961884
O O12 0.400911 0.500000 0.728852
O O13 0.298163 0.784141 0.589520
O O14 0.496028 0.788361 0.863013
O O15 0.388301 0.702629 0.856303
O O16 0.800441 0.500000 0.546675
O O17 0.773719 0.702676 0.656852
O O18 0.672815 0.724757 0.044412
O O19 0.628999 0.000000 0.085224
O O20 0.710669 0.000000 0.642112
O O21 0.688567 0.000000 0.962846
#
# Coordination Sequence:
#
# PCOD9142263 Si02
#       8
#     4   4   4   4   4   4   4   4
#     4   9  14  23  40  65  97 130 158 186 225 280
#     4  10  20  35  52  69  96 134 173 211 253 299
#     4  10  19  31  48  73 101 130 166 206 246 291
#     4  10  20  35  54  76 103 132 167 210 253 296
#     4  10  21  35  51  70  97 133 167 206 256 301
#     4  10  19  33  55  80 106 133 165 202 247 302
#     4  10  18  27  46  73  99 128 165 203 238 288
#     4   9  17  29  46  71 103 135 164 198 243 296
#
# _framework density 20.562671999999999
#
# number of rings (size 3 to 8) (size 9 to 14) (size 15 to 20)
#    0.000    2.250    2.500    2.250    0.000    2.750 
#    0.000    1.250    0.000    1.875    0.000    5.250 
#    0.000    0.000    0.000    0.000    0.000    0.000 
#
# Total GULP energy -178540.835148 kJ/mol
# GULP energy per Si atom -5579.401098 kJ/mol
# Density = 2.051587 g / cm^3
# Si number density = 20.562672 Si / 1000 Ang^3
#
#
#
# Elastic Constant Matrix: (Units=GPa)
#
#
# Indices 1 2 3 4 5 6 
#
# 1 131.9880 -0.7218 30.3650 0.0000 14.7366 0.0000
# 2 -0.7218 51.7369 0.3088 0.0000 -1.8239 0.0000
# 3 30.3650 0.3088 72.1309 0.0000 15.0369 0.0000
# 4 0.0000 0.0000 0.0000 9.7880 0.0000 4.4463
# 5 14.7366 -1.8239 15.0369 0.0000 31.3805 0.0000
# 6 0.0000 0.0000 0.0000 4.4463 0.0000 -9.7637
#
#
#
# Elastic Compliance Matrix: (Units=1/GPa)
#
#
# Indices 1 2 3 4 5 6 
#
# 1 0.008569 0.000048 -0.003076 0.000000 -0.002547 0.000000
# 2 0.000048 0.019377 -0.000370 0.000000 0.001281 0.000000
# 3 -0.003076 -0.000370 0.016513 0.000000 -0.006490 0.000000
# 4 0.000000 0.000000 0.000000 0.084654 0.000000 0.038551
# 5 -0.002547 0.001281 -0.006490 0.000000 0.036247 0.000000
# 6 0.000000 0.000000 0.000000 0.038551 0.000000 -0.084865
#
#
# Mechanical properties :
#
#
# Convention : Reuss Voigt Hill
#
# Bulk Modulus (GPa) = 26.55234 35.08443 30.81839
# Shear Modulus (GPa) = 50.07728 21.34122 35.70925
#
# Velocity S-wave (km/s) = 4.94028 3.22508 4.17178
# Velocity P-wave (km/s) = 6.74409 5.56484 6.18264
#
# Compressibility (1/GPa) = 0.03766146
#
# Stress axis : x y z
#
# Youngs Moduli (GPa) = 116.70168 51.60866 60.55749
#
# Poissons Ratio (x) = -0.00248 0.18630
# Poissons Ratio (y) = -0.00561 0.02242
# Poissons Ratio (z) = 0.35903 0.01911
#
# Static dielectric constant tensor:
#      x y z
#    x 1.746370 0.000000 0.008800 
#    y 0.000000 1.772590 0.000000 
#    z 0.008800 0.000000 1.754060 
# 
# From -- ./inp_files/70011.got.cif
#   From: 2010.05.17/outbox.cif.g08.bks.cpg/sg10_36_cif.got.tgz:70011.got - 2010.06.03 11:33:40.
