data_PCOD9142745
_publ_section_title
;
Structure prediction by ZEFSAII (Michael W. Deem and Ramdas Pophale) SiO2 
 PCOD9142745
Probable space group: P 2/M
;
_chemical_formula_sum "Si O2"
_cell_formula_units_Z 22
_cell_length_a 8.904718
_cell_length_b 8.486120
_cell_length_c 13.456307
_cell_angle_alpha 90.000000
_cell_angle_beta 78.665522
_cell_angle_gamma 90.000000
_cell_volume 997.014110
_symmetry_space_group_name_H-M "P 2/M"
_symmetry_group_IT_number 10
_symmetry_cell_setting 'monoclinic'
loop_
_space_group_symop_operation_xyz
x,y,z
-x,y,-z
-x,-y,-z
x,-y,z
loop_
_atom_site_type_symbol
_atom_site_label
_atom_site_fract_x
_atom_site_fract_y
_atom_site_fract_z
Si Si1 0.710979 0.000000 0.319987
Si Si2 0.143936 0.673014 0.869422
Si Si3 0.323947 0.685936 0.049828
Si Si4 0.691891 0.175498 0.735906
Si Si5 0.038165 0.000000 0.380678
Si Si6 0.585823 0.328398 0.327300
Si Si7 0.075717 0.000000 0.879705
O O1 0.630467 0.840034 0.369071
O O2 0.748458 0.000000 0.193909
O O3 0.882519 0.000000 0.340343
O O4 0.069229 0.500000 0.880561
O O5 0.286747 0.662365 0.776161
O O6 0.039415 0.820140 0.853092
O O7 0.216866 0.710366 0.967733
O O8 0.317910 0.500000 0.074078
O O9 0.288088 0.783432 0.152221
O O10 0.500000 0.723193 0.000000
O O11 0.854403 0.148209 0.662106
O O12 0.580142 0.299492 0.699126
O O13 0.617458 0.000000 0.737931
O O14 0.000000 0.000000 0.500000
O O15 0.591358 0.500000 0.378372
O O16 0.000000 0.000000 0.000000
#
# Coordination Sequence:
#
# PCOD9142745 Si02
#       7
#     2   4   4   4   2   4   2
#     4  10  21  41  61  89 120 166 208 240 321 382
#     4   9  19  31  47  76 119 163 195 236 293 346
#     4  10  18  29  50  83 125 162 195 246 301 360
#     4  10  21  34  60  92 116 161 212 253 310 358
#     4  10  25  46  66  85 121 166 209 269 327 364
#     4  10  18  37  63  92 126 158 200 250 300 370
#     4  10  22  31  50  73 115 161 202 247 277 359
#
# _framework density 22.065888000000001
#
# number of rings (size 3 to 8) (size 9 to 14) (size 15 to 20)
#    0.545    1.636    2.727    0.545    3.818    0.727 
#    0.000    3.636    0.000    6.000    0.000    0.000 
#    0.000    0.000    0.000    0.000    0.000    0.000 
#
# Total GULP energy -122480.715071 kJ/mol
# GULP energy per Si atom -5567.305231 kJ/mol
# Density = 2.201566 g / cm^3
# Si number density = 22.065888 Si / 1000 Ang^3
#
#
#
# Elastic Constant Matrix: (Units=GPa)
#
#
# Indices 1 2 3 4 5 6 
#
# 1 97.9363 46.3684 21.3146 0.0000 1.4492 0.0000
# 2 46.3684 178.5621 23.0862 0.0000 -1.7940 0.0000
# 3 21.3146 23.0862 69.3618 0.0000 -18.2970 0.0000
# 4 0.0000 0.0000 0.0000 -9.0435 0.0000 9.8353
# 5 1.4492 -1.7940 -18.2970 0.0000 11.7887 0.0000
# 6 0.0000 0.0000 0.0000 9.8353 0.0000 -0.7682
#
#
#
# Elastic Compliance Matrix: (Units=1/GPa)
#
#
# Indices 1 2 3 4 5 6 
#
# 1 0.012994 -0.002697 -0.006138 0.000000 -0.011535 0.000000
# 2 -0.002697 0.006504 -0.001672 0.000000 -0.001274 0.000000
# 3 -0.006138 -0.001672 0.028772 0.000000 0.045157 0.000000
# 4 0.000000 0.000000 0.000000 0.008556 0.000000 0.109542
# 5 -0.011535 -0.001274 0.045157 0.000000 0.156138 0.000000
# 6 0.000000 0.000000 0.000000 0.109542 0.000000 0.100724
#
#
# Mechanical properties :
#
#
# Convention : Reuss Voigt Hill
#
# Bulk Modulus (GPa) = 36.68956 58.59985 47.64471
# Shear Modulus (GPa) = 14.54385 17.40144 15.97265
#
# Velocity S-wave (km/s) = 2.57010 2.81127 2.69339
# Velocity P-wave (km/s) = 5.04684 6.09525 5.59565
#
# Compressibility (1/GPa) = 0.02725571
#
# Stress axis : x y z
#
# Youngs Moduli (GPa) = 76.95860 153.75346 34.75612
#
# Poissons Ratio (x) = 0.41460 0.21334
# Poissons Ratio (y) = 0.20752 0.05812
# Poissons Ratio (z) = 0.47239 0.25711
#
# Static dielectric constant tensor:
#      x y z
#    x 1.818010 0.000000 -0.011790 
#    y 0.000000 1.880520 0.000000 
#    z -0.011790 0.000000 1.833180 
# 
# From -- ./inp_files/60301.got.cif
#   From: 2010.05.17/outbox.cif.g08.bks.cpg/sg10_31_cif.got.tgz:60301.got - 2010.06.03 11:33:40.
