data_PCOD9142069
_publ_section_title
;
Structure prediction by ZEFSAII (Michael W. Deem and Ramdas Pophale) SiO2 
 PCOD9142069
Probable space group: P 2/M
;
_chemical_formula_sum "Si O2"
_cell_formula_units_Z 32
_cell_length_a 15.378146
_cell_length_b 15.825225
_cell_length_c 12.165588
_cell_angle_alpha 90.000000
_cell_angle_beta 151.137617
_cell_angle_gamma 90.000000
_cell_volume 1429.127662
_symmetry_space_group_name_H-M "P 2/M"
_symmetry_group_IT_number 10
_symmetry_cell_setting 'monoclinic'
loop_
_space_group_symop_operation_xyz
x,y,z
-x,y,-z
-x,-y,-z
x,-y,z
loop_
_atom_site_type_symbol
_atom_site_label
_atom_site_fract_x
_atom_site_fract_y
_atom_site_fract_z
Si Si1 0.421451 0.237100 0.797606
Si Si2 0.338069 0.908428 0.556020
Si Si3 0.142986 0.408367 0.940041
Si Si4 0.207064 0.851107 0.191035
Si Si5 0.701105 0.345599 0.676207
Si Si6 0.004539 0.262333 0.378764
Si Si7 0.919109 0.904585 0.178940
Si Si8 0.542900 0.594183 0.282957
O O1 0.446078 0.168674 0.728976
O O2 0.210092 0.245560 0.579598
O O3 0.482858 0.330751 0.832245
O O4 0.500000 0.208447 0.000000
O O5 0.325944 0.899956 0.411444
O O6 0.128804 0.904116 0.367611
O O7 0.410054 0.000000 0.667924
O O8 0.058638 0.500000 0.824950
O O9 0.059930 0.331978 0.779451
O O10 0.159741 0.391164 0.088467
O O11 0.349509 0.411772 0.127393
O O12 0.258716 0.753332 0.264223
O O13 0.204872 0.882738 0.063830
O O14 0.000000 0.860408 0.000000
O O15 0.500000 0.361204 0.500000
O O16 0.688378 0.375568 0.535966
O O17 0.000000 0.290543 0.500000
O O18 0.903431 0.173007 0.246596
O O19 0.883992 0.000000 0.179810
O O20 0.587906 0.500000 0.291341
#
# Coordination Sequence:
#
# PCOD9142069 Si02
#       8
#     4   4   4   4   4   4   4   4
#     4  11  23  39  59  82 111 147 191 238 282 327
#     4   9  18  33  56  85 114 146 184 226 275 332
#     4  10  21  38  60  85 114 149 186 225 276 336
#     4  10  17  31  57  86 114 146 183 223 273 332
#     4  10  19  33  57  86 118 148 177 221 279 336
#     4  11  23  39  59  82 111 147 191 238 282 327
#     4   9  18  33  56  85 114 146 184 226 275 332
#     4  10  21  38  60  85 114 149 186 225 276 336
#
# _framework density 22.391282
#
# number of rings (size 3 to 8) (size 9 to 14) (size 15 to 20)
#    0.000    2.000    2.500    1.500    0.000    4.500 
#    0.000    0.000    0.000    9.000    0.000    0.000 
#    0.000    0.000    0.000    0.000    0.000    0.000 
#
# Total GULP energy -178781.589649 kJ/mol
# GULP energy per Si atom -5586.924677 kJ/mol
# Density = 2.234032 g / cm^3
# Si number density = 22.391282 Si / 1000 Ang^3
#
#
#
# Elastic Constant Matrix: (Units=GPa)
#
#
# Indices 1 2 3 4 5 6 
#
# 1 30.8062 -7.2843 9.9266 0.0000 -2.5137 0.0000
# 2 -7.2843 140.8453 38.7910 0.0000 -8.2806 0.0000
# 3 9.9266 38.7910 104.3826 0.0000 -10.4594 0.0000
# 4 0.0000 0.0000 0.0000 1.9882 0.0000 7.9017
# 5 -2.5137 -8.2806 -10.4594 0.0000 23.3218 0.0000
# 6 0.0000 0.0000 0.0000 7.9017 0.0000 26.6909
#
#
#
# Elastic Compliance Matrix: (Units=1/GPa)
#
#
# Indices 1 2 3 4 5 6 
#
# 1 0.034787 0.003123 -0.004169 0.000000 0.002988 0.000000
# 2 0.003123 0.008245 -0.003177 0.000000 0.001839 0.000000
# 3 -0.004169 -0.003177 0.011517 0.000000 0.003588 0.000000
# 4 0.000000 0.000000 0.000000 -2.848157 0.000000 0.843185
# 5 0.002988 0.001839 0.003588 0.000000 0.045463 0.000000
# 6 0.000000 0.000000 0.000000 0.843185 0.000000 -0.212155
#
#
# Mechanical properties :
#
#
# Convention : Reuss Voigt Hill
#
# Bulk Modulus (GPa) = 21.69082 39.87785 30.78433
# Shear Modulus (GPa) = -1.70271 26.04023 12.16876
#
# Velocity S-wave (km/s) = -0.87298 3.41392 2.33375
# Velocity P-wave (km/s) = 2.94823 5.77824 4.58694
#
# Compressibility (1/GPa) = 0.04610245
#
# Stress axis : x y z
#
# Youngs Moduli (GPa) = 28.74650 121.29266 86.83107
#
# Poissons Ratio (x) = -0.37881 0.36203
# Poissons Ratio (y) = -0.08978 0.27582
# Poissons Ratio (z) = 0.11985 0.38529
#
# Static dielectric constant tensor:
#      x y z
#    x 2.526470 0.000000 -0.223940 
#    y 0.000000 1.847700 0.000000 
#    z -0.223940 0.000000 1.904450 
# 
# From -- ./inp_files/54045.got.cif
#   From: 2010.05.17/outbox.cif.g08.bks.cpg/sg10_28_cif.got.tgz:54045.got - 2010.06.03 11:33:40.
