data_PCOD9142612
_publ_section_title
;
Structure prediction by ZEFSAII (Michael W. Deem and Ramdas Pophale) SiO2 
 PCOD9142612
Probable space group: P 2/M
;
_chemical_formula_sum "Si O2"
_cell_formula_units_Z 28
_cell_length_a 20.933581
_cell_length_b 13.687407
_cell_length_c 26.588317
_cell_angle_alpha 90.000000
_cell_angle_beta 168.128432
_cell_angle_gamma 90.000000
_cell_volume 1567.216881
_symmetry_space_group_name_H-M "P 2/M"
_symmetry_group_IT_number 10
_symmetry_cell_setting 'monoclinic'
loop_
_space_group_symop_operation_xyz
x,y,z
-x,y,-z
-x,-y,-z
x,-y,z
loop_
_atom_site_type_symbol
_atom_site_label
_atom_site_fract_x
_atom_site_fract_y
_atom_site_fract_z
Si Si1 0.817255 0.111779 0.221571
Si Si2 0.397027 0.386499 0.260425
Si Si3 0.723596 0.801056 0.503553
Si Si4 0.080786 0.114674 0.862250
Si Si5 0.057945 0.888567 0.965056
Si Si6 0.238873 0.887530 0.644230
Si Si7 0.732291 0.689960 0.726749
O O1 0.989527 0.162646 0.308699
O O2 0.062741 0.109921 0.455785
O O3 0.745785 0.000000 0.151257
O O4 0.500000 0.154304 0.000000
O O5 0.467458 0.500000 0.310421
O O6 0.645477 0.310346 0.430826
O O7 0.374345 0.355830 0.302126
O O8 0.069422 0.362432 0.980616
O O9 0.825341 0.819835 0.638908
O O10 0.409597 0.862469 0.251949
O O11 0.059322 0.118923 0.905588
O O12 0.039926 0.000000 0.816777
O O13 0.417654 0.150137 0.102230
O O14 0.826793 0.804344 0.806100
O O15 0.976947 0.000000 0.916963
O O16 0.000000 0.840995 0.500000
O O17 0.286518 0.000000 0.698122
O O18 0.500000 0.678092 0.500000
#
# Coordination Sequence:
#
# PCOD9142612 Si02
#       7
#     4   4   4   4   4   4   4
#     4  10  18  29  48  76 110 144 176 207 243 297
#     4  10  23  40  57  78 101 128 172 230 275 312
#     4  11  20  34  53  74 104 141 181 215 258 308
#     4  10  18  29  47  71 105 143 173 205 246 298
#     4  10  20  33  49  75 112 145 173 205 245 308
#     4   9  16  26  41  67 102 138 174 207 237 279
#     4  10  20  37  59  81 104 134 171 212 262 318
#
# _framework density 17.866067000000001
#
# number of rings (size 3 to 8) (size 9 to 14) (size 15 to 20)
#    0.000    2.000    1.429    3.857    0.000    3.714 
#    0.000    7.143    0.000    0.429    0.000    0.000 
#    0.000    2.286    0.000    0.000    0.000    0.000 
#
# Total GULP energy -156197.470627 kJ/mol
# GULP energy per Si atom -5578.481094 kJ/mol
# Density = 1.782540 g / cm^3
# Si number density = 17.866067 Si / 1000 Ang^3
#
#
#
# Elastic Constant Matrix: (Units=GPa)
#
#
# Indices 1 2 3 4 5 6 
#
# 1 44.8422 11.6351 27.7037 0.0000 -3.5259 0.0000
# 2 11.6351 92.6918 24.1404 0.0000 -0.5203 0.0000
# 3 27.7037 24.1404 98.1162 0.0000 -18.9173 0.0000
# 4 0.0000 0.0000 0.0000 12.3928 0.0000 -2.1769
# 5 -3.5259 -0.5203 -18.9173 0.0000 37.2531 0.0000
# 6 0.0000 0.0000 0.0000 -2.1769 0.0000 37.4686
#
#
#
# Elastic Compliance Matrix: (Units=1/GPa)
#
#
# Indices 1 2 3 4 5 6 
#
# 1 0.027265 -0.001453 -0.007591 0.000000 -0.001294 0.000000
# 2 -0.001453 0.011672 -0.002723 0.000000 -0.001357 0.000000
# 3 -0.007591 -0.002723 0.014255 0.000000 0.006482 0.000000
# 4 0.000000 0.000000 0.000000 0.081524 0.000000 0.004736
# 5 -0.001294 -0.001357 0.006482 0.000000 0.029994 0.000000
# 6 0.000000 0.000000 0.000000 0.004736 0.000000 0.026964
#
#
# Mechanical properties :
#
#
# Convention : Reuss Voigt Hill
#
# Bulk Modulus (GPa) = 33.71643 40.28987 37.00315
# Shear Modulus (GPa) = 22.21287 28.90096 25.55692
#
# Velocity S-wave (km/s) = 3.52987 4.02636 3.78626
# Velocity P-wave (km/s) = 5.96037 6.64947 6.31433
#
# Compressibility (1/GPa) = 0.02965913
#
# Stress axis : x y z
#
# Youngs Moduli (GPa) = 36.67693 85.67178 70.15023
#
# Poissons Ratio (x) = 0.12447 0.53248
# Poissons Ratio (y) = 0.05329 0.19105
# Poissons Ratio (z) = 0.27840 0.23332
#
# Static dielectric constant tensor:
#      x y z
#    x 1.659480 0.000000 0.008020 
#    y 0.000000 1.598560 0.000000 
#    z 0.008020 0.000000 1.643140 
# 
# From -- ./inp_files/79561.got.cif
#   From: 2010.05.17/outbox.cif.g08.bks.cpg/sg10_40_cif.got.tgz:79561.got - 2010.06.03 11:33:40.
