data_PCOD9142901
_publ_section_title
;
Structure prediction by ZEFSAII (Michael W. Deem and Ramdas Pophale) SiO2 
 PCOD9142901
Probable space group: P 2/M
;
_chemical_formula_sum "Si O2"
_cell_formula_units_Z 18
_cell_length_a 5.370368
_cell_length_b 22.453044
_cell_length_c 7.504050
_cell_angle_alpha 90.000000
_cell_angle_beta 58.341686
_cell_angle_gamma 90.000000
_cell_volume 770.199329
_symmetry_space_group_name_H-M "P 2/M"
_symmetry_group_IT_number 10
_symmetry_cell_setting 'monoclinic'
loop_
_space_group_symop_operation_xyz
x,y,z
-x,y,-z
-x,-y,-z
x,-y,z
loop_
_atom_site_type_symbol
_atom_site_label
_atom_site_fract_x
_atom_site_fract_y
_atom_site_fract_z
Si Si1 0.034814 0.431521 0.756268
Si Si2 0.354007 0.257945 0.858170
Si Si3 0.437742 0.615797 0.282305
Si Si4 0.644417 0.000000 0.143674
Si Si5 0.354534 0.871728 0.857294
O O1 0.945599 0.500000 0.776685
O O2 0.260673 0.420867 0.832131
O O3 0.246710 0.414391 0.509190
O O4 0.765792 0.388739 0.813719
O O5 0.480720 0.315853 0.714264
O O6 0.430693 0.192891 0.748794
O O7 0.500000 0.258437 0.000000
O O8 0.000000 0.263276 0.000000
O O9 0.500000 0.000000 0.000000
O O10 0.558421 0.935805 0.257839
O O11 0.000000 0.000000 0.000000
O O12 0.500000 0.871680 0.000000
O O13 0.000000 0.871806 0.000000
#
# Coordination Sequence:
#
# PCOD9142901 Si02
#       5
#     4   4   4   2   4
#     4  10  19  33  53  67  78 101 140 192 224 237
#     4  10  19  30  43  63  93 122 139 160 205 264
#     4  10  18  30  49  68  85 107 140 174 216 255
#     4   8  12  20  34  52  74 104 142 174 192 218
#     4   8  14  23  36  54  79 111 141 166 195 233
#
# _framework density 23.370573
#
# number of rings (size 3 to 8) (size 9 to 14) (size 15 to 20)
#    0.000    2.667    0.000    4.667    0.000    0.000 
#    0.000    0.000    0.000   22.667    0.000    0.000 
#    0.000    7.111    0.000    0.000    0.000   27.556 
#
# Total GULP energy -100331.201003 kJ/mol
# GULP energy per Si atom -5573.955611 kJ/mol
# Density = 2.331738 g / cm^3
# Si number density = 23.370573 Si / 1000 Ang^3
#
#
#
# Elastic Constant Matrix: (Units=GPa)
#
#
# Indices 1 2 3 4 5 6 
#
# 1 196.3773 8.6558 23.0436 0.0000 -7.6046 0.0000
# 2 8.6558 257.0631 -3.0098 0.0000 -8.8559 0.0000
# 3 23.0436 -3.0098 25.9887 0.0000 6.0944 0.0000
# 4 0.0000 0.0000 0.0000 -7.0603 0.0000 -3.0570
# 5 -7.6046 -8.8559 6.0944 0.0000 32.4608 0.0000
# 6 0.0000 0.0000 0.0000 -3.0570 0.0000 36.8159
#
#
#
# Elastic Compliance Matrix: (Units=1/GPa)
#
#
# Indices 1 2 3 4 5 6 
#
# 1 0.005874 -0.000182 -0.005796 0.000000 0.002414 0.000000
# 2 -0.000182 0.003934 0.000393 0.000000 0.000957 0.000000
# 3 -0.005796 0.000393 0.045980 0.000000 -0.009883 0.000000
# 4 0.000000 0.000000 0.000000 -0.136721 0.000000 -0.011353
# 5 0.002414 0.000957 -0.009883 0.000000 0.033488 0.000000
# 6 0.000000 0.000000 0.000000 -0.011353 0.000000 0.026219
#
#
# Mechanical properties :
#
#
# Convention : Reuss Voigt Hill
#
# Bulk Modulus (GPa) = 22.41258 59.64539 41.02899
# Shear Modulus (GPa) = 1037.97226 42.49259 540.23243
#
# Velocity S-wave (km/s) = 21.09741 4.26867 15.22042
# Velocity P-wave (km/s) = 24.55765 7.06204 18.06863
#
# Compressibility (1/GPa) = 0.04461780
#
# Stress axis : x y z
#
# Youngs Moduli (GPa) = 170.24635 254.20725 21.74856
#
# Poissons Ratio (x) = 0.04638 0.12604
# Poissons Ratio (y) = 0.03106 -0.00855
# Poissons Ratio (z) = 0.98666 -0.09991
#
# Static dielectric constant tensor:
#      x y z
#    x 1.835120 0.000000 -0.138550 
#    y 0.000000 1.883690 0.000000 
#    z -0.138550 0.000000 1.566040 
# 
# From -- ./inp_files/4629.got.cif
#   From: 2010.05.17/outbox.cif.g08.bks.cpg/sg10_3_cif.got.tgz:4629.got - 2010.06.03 11:33:40.
