data_PCOD9142579
_publ_section_title
;
Structure prediction by ZEFSAII (Michael W. Deem and Ramdas Pophale) SiO2 
 PCOD9142579
Probable space group: P 2/M
;
_chemical_formula_sum "Si O2"
_cell_formula_units_Z 20
_cell_length_a 5.379539
_cell_length_b 7.269035
_cell_length_c 25.961544
_cell_angle_alpha 90.000000
_cell_angle_beta 78.041043
_cell_angle_gamma 90.000000
_cell_volume 993.168054
_symmetry_space_group_name_H-M "P 2/M"
_symmetry_group_IT_number 10
_symmetry_cell_setting 'monoclinic'
loop_
_space_group_symop_operation_xyz
x,y,z
-x,y,-z
-x,-y,-z
x,-y,z
loop_
_atom_site_type_symbol
_atom_site_label
_atom_site_fract_x
_atom_site_fract_y
_atom_site_fract_z
Si Si1 0.036464 0.221877 0.713523
Si Si2 0.270946 0.289913 0.979054
Si Si3 0.719953 0.775611 0.530048
Si Si4 0.057705 0.500000 0.192309
Si Si5 0.373764 0.500000 0.876223
Si Si6 0.401232 0.777127 0.348781
O O1 0.980919 0.324201 0.769078
O O2 0.317094 0.275859 0.681571
O O3 0.819725 0.275860 0.681575
O O4 0.030670 0.000000 0.719318
O O5 0.246704 0.500000 0.003296
O O6 0.333150 0.327476 0.916848
O O7 0.500000 0.203162 0.000000
O O8 0.000000 0.203162 0.000000
O O9 0.500000 0.718322 0.500000
O O10 0.659287 0.716013 0.590712
O O11 0.000000 0.718321 0.500000
O O12 0.719933 0.000000 0.530069
O O13 0.842553 0.500000 0.157637
O O14 0.342213 0.500000 0.157643
O O15 0.400085 0.000000 0.349927
#
# Coordination Sequence:
#
# PCOD9142579 Si02
#       6
#     4   4   4   2   2   4
#     4  10  21  36  51  70  98 132 169 202 239 292
#     4   8  13  24  42  66 102 132 155 196 241 288
#     4   9  15  23  40  69  96 115 147 195 242 291
#     4  12  22  33  52  76 100 131 168 210 248 274
#     4  10  18  29  46  76 108 127 164 212 244 286
#     4   9  17  31  49  68  96 130 160 198 245 294
#
# _framework density 20.137581000000001
#
# number of rings (size 3 to 8) (size 9 to 14) (size 15 to 20)
#    0.600    2.000    0.000    3.600    0.000    4.800 
#    0.000    0.000    0.000    0.000    0.000   14.000 
#    0.000   64.000    0.000    0.000    0.000    0.000 
#
# Total GULP energy -111586.356018 kJ/mol
# GULP energy per Si atom -5579.317801 kJ/mol
# Density = 2.009175 g / cm^3
# Si number density = 20.137581 Si / 1000 Ang^3
#
#
#
# Elastic Constant Matrix: (Units=GPa)
#
#
# Indices 1 2 3 4 5 6 
#
# 1 272.4147 29.2963 142.3844 0.0000 -0.6256 0.0000
# 2 29.2963 87.0284 30.3956 0.0000 0.0267 0.0000
# 3 142.3844 30.3956 198.7289 0.0000 -1.1909 0.0000
# 4 0.0000 0.0000 0.0000 -44.1357 0.0000 -0.6546
# 5 -0.6256 0.0267 -1.1909 0.0000 52.3246 0.0000
# 6 0.0000 0.0000 0.0000 -0.6546 0.0000 -17.4950
#
#
#
# Elastic Compliance Matrix: (Units=1/GPa)
#
#
# Indices 1 2 3 4 5 6 
#
# 1 0.005892 -0.000538 -0.004140 0.000000 -0.000023 0.000000
# 2 -0.000538 0.012188 -0.001479 0.000000 -0.000046 0.000000
# 3 -0.004140 -0.001479 0.008225 0.000000 0.000138 0.000000
# 4 0.000000 0.000000 0.000000 -0.022670 0.000000 0.000848
# 5 -0.000023 -0.000046 0.000138 0.000000 0.019114 0.000000
# 6 0.000000 0.000000 0.000000 0.000848 0.000000 -0.057191
#
#
# Mechanical properties :
#
#
# Convention : Reuss Voigt Hill
#
# Bulk Modulus (GPa) = 71.46728 106.92496 89.19612
# Shear Modulus (GPa) = -286.30144 21.87850 -132.21147
#
# Velocity S-wave (km/s) = -11.93656 3.29971 -8.11151
# Velocity P-wave (km/s) = 12.42613 8.22982 6.58326
#
# Compressibility (1/GPa) = 0.01399242
#
# Stress axis : x y z
#
# Youngs Moduli (GPa) = 169.71272 82.04692 121.58100
#
# Poissons Ratio (x) = 0.04412 0.50330
# Poissons Ratio (y) = 0.09126 0.17984
# Poissons Ratio (z) = 0.70254 0.12136
#
# Static dielectric constant tensor:
#      x y z
#    x 1.291810 0.000000 0.009100 
#    y 0.000000 1.757210 0.000000 
#    z 0.009100 0.000000 1.661330 
# 
# From -- ./inp_files/80899.got.cif
#   From: 2010.05.17/outbox.cif.g08.bks.cpg/sg10_41_cif.got.tgz:80899.got - 2010.06.03 11:33:40.
