data_PCOD9142669
_publ_section_title
;
Structure prediction by ZEFSAII (Michael W. Deem and Ramdas Pophale) SiO2 
 PCOD9142669
Probable space group: P 2/M
;
_chemical_formula_sum "Si O2"
_cell_formula_units_Z 32
_cell_length_a 14.022901
_cell_length_b 27.300674
_cell_length_c 5.091130
_cell_angle_alpha 90.000000
_cell_angle_beta 65.456318
_cell_angle_gamma 90.000000
_cell_volume 1772.953263
_symmetry_space_group_name_H-M "P 2/M"
_symmetry_group_IT_number 10
_symmetry_cell_setting 'monoclinic'
loop_
_space_group_symop_operation_xyz
x,y,z
-x,y,-z
-x,-y,-z
x,-y,z
loop_
_atom_site_type_symbol
_atom_site_label
_atom_site_fract_x
_atom_site_fract_y
_atom_site_fract_z
Si Si1 0.759726 0.716486 0.247104
Si Si2 0.289584 0.845204 0.137815
Si Si3 0.374151 0.445191 0.158356
Si Si4 0.372949 0.381346 0.659327
Si Si5 0.384287 0.807023 0.528267
Si Si6 0.090191 0.057136 0.068685
Si Si7 0.125378 0.239415 0.383123
Si Si8 0.781552 0.056888 0.587314
O O1 0.704669 0.663767 0.307611
O O2 0.661729 0.753592 0.368049
O O3 0.834287 0.732229 0.403813
O O4 0.825725 0.729856 0.913232
O O5 0.370417 0.817551 0.237252
O O6 0.181955 0.814379 0.311560
O O7 0.295315 0.900515 0.237021
O O8 0.314398 0.841093 0.801867
O O9 0.331103 0.500000 0.166450
O O10 0.351755 0.423048 0.467785
O O11 0.500000 0.449222 0.000000
O O12 0.347218 0.405382 0.968949
O O13 0.500000 0.369312 0.500000
O O14 0.500000 0.812186 0.500000
O O15 0.186829 0.059436 0.753540
O O16 0.060101 0.000000 0.133839
O O17 0.122030 0.070738 0.325355
O O18 0.000000 0.082610 0.000000
O O19 0.000000 0.235393 0.500000
O O20 0.754177 0.000000 0.675326
#
# Coordination Sequence:
#
# PCOD9142669 Si02
#       8
#     4   4   4   4   4   4   4   4
#     4  10  20  34  53  78 102 129 172 210 250 301
#     4  10  21  35  53  77  98 129 168 195 243 309
#     4   9  17  28  43  68 107 150 178 200 244 302
#     4  10  18  29  48  74 106 139 173 214 250 289
#     4  10  20  36  56  75 100 129 162 209 254 295
#     4   9  17  28  43  65  91 120 153 189 232 279
#     4  10  21  36  52  72 103 134 161 204 254 307
#     4  10  19  32  49  69  97 127 157 200 244 285
#
# _framework density 18.048981999999999
#
# number of rings (size 3 to 8) (size 9 to 14) (size 15 to 20)
#    0.000    2.250    0.000    3.375    0.000    4.000 
#    0.000    3.750    0.000    2.250    0.000    0.000 
#    0.000   35.000    0.000    0.000    0.000    0.000 
#
# Total GULP energy -178153.692611 kJ/mol
# GULP energy per Si atom -5567.302894 kJ/mol
# Density = 1.800790 g / cm^3
# Si number density = 18.048982 Si / 1000 Ang^3
#
#
#
# Elastic Constant Matrix: (Units=GPa)
#
#
# Indices 1 2 3 4 5 6 
#
# 1 64.1411 25.8783 8.7761 0.0000 2.7655 0.0000
# 2 25.8783 84.7003 7.6680 0.0000 -9.2196 0.0000
# 3 8.7761 7.6680 54.1307 0.0000 20.2431 0.0000
# 4 0.0000 0.0000 0.0000 11.5668 0.0000 10.7896
# 5 2.7655 -9.2196 20.2431 0.0000 23.6775 0.0000
# 6 0.0000 0.0000 0.0000 10.7896 0.0000 13.9368
#
#
#
# Elastic Compliance Matrix: (Units=1/GPa)
#
#
# Indices 1 2 3 4 5 6 
#
# 1 0.018243 -0.005934 -0.000671 0.000000 -0.003868 0.000000
# 2 -0.005934 0.015345 -0.005447 0.000000 0.011325 0.000000
# 3 -0.000671 -0.005447 0.029573 0.000000 -0.027326 0.000000
# 4 0.000000 0.000000 0.000000 0.311171 0.000000 -0.240902
# 5 -0.003868 0.011325 -0.027326 0.000000 0.070458 0.000000
# 6 0.000000 0.000000 0.000000 -0.240902 0.000000 0.258253
#
#
# Mechanical properties :
#
#
# Convention : Reuss Voigt Hill
#
# Bulk Modulus (GPa) = 25.60261 31.95744 28.78003
# Shear Modulus (GPa) = 6.75523 20.54620 13.65072
#
# Velocity S-wave (km/s) = 1.93671 3.37762 2.75310
# Velocity P-wave (km/s) = 4.38372 5.74068 5.10747
#
# Compressibility (1/GPa) = 0.03905851
#
# Stress axis : x y z
#
# Youngs Moduli (GPa) = 54.81440 65.16673 33.81444
#
# Poissons Ratio (x) = 0.38671 0.02267
# Poissons Ratio (y) = 0.32528 0.18418
# Poissons Ratio (z) = 0.03676 0.35496
#
# Static dielectric constant tensor:
#      x y z
#    x 1.677610 0.000000 -0.002370 
#    y 0.000000 1.628670 0.000000 
#    z -0.002370 0.000000 1.644420 
# 
# From -- ./inp_files/8087.got.cif
#   From: 2010.05.17/outbox.cif.g08.bks.cpg/sg10_5_cif.got.tgz:8087.got - 2010.06.03 11:33:40.
