data_PCOD9142863
_publ_section_title
;
Structure prediction by ZEFSAII (Michael W. Deem and Ramdas Pophale) SiO2 
 PCOD9142863
Probable space group: P 2/M
;
_chemical_formula_sum "Si O2"
_cell_formula_units_Z 32
_cell_length_a 12.798790
_cell_length_b 18.000863
_cell_length_c 24.709087
_cell_angle_alpha 90.000000
_cell_angle_beta 161.991646
_cell_angle_gamma 90.000000
_cell_volume 1759.933021
_symmetry_space_group_name_H-M "P 2/M"
_symmetry_group_IT_number 10
_symmetry_cell_setting 'monoclinic'
loop_
_space_group_symop_operation_xyz
x,y,z
-x,y,-z
-x,-y,-z
x,-y,z
loop_
_atom_site_type_symbol
_atom_site_label
_atom_site_fract_x
_atom_site_fract_y
_atom_site_fract_z
Si Si1 0.734428 0.824189 0.412513
Si Si2 0.090335 0.729065 0.681395
Si Si3 0.211730 0.580598 0.312230
Si Si4 0.717683 0.414763 0.461071
Si Si5 0.898291 0.267477 0.190543
Si Si6 0.912384 0.914682 0.893247
Si Si7 0.869160 0.223043 0.063395
Si Si8 0.297162 0.311209 0.187004
O O1 0.472287 0.886424 0.301808
O O2 0.521572 0.758414 0.277649
O O3 0.000000 0.853510 0.500000
O O4 0.908188 0.783377 0.548983
O O5 0.961171 0.741832 0.679551
O O6 0.995562 0.644666 0.617933
O O7 0.491362 0.743745 0.877201
O O8 0.500000 0.582160 0.500000
O O9 0.038831 0.500000 0.229199
O O10 0.419134 0.585999 0.358814
O O11 0.972689 0.649241 0.206646
O O12 0.831255 0.500000 0.510828
O O13 0.542851 0.378737 0.322346
O O14 0.004646 0.217774 0.191726
O O15 0.500000 0.256196 0.000000
O O16 0.127242 0.856117 0.964537
O O17 0.958240 0.000000 0.899958
O O18 0.000000 0.907536 0.000000
O O19 0.115893 0.276859 0.150936
O O20 0.000000 0.330903 0.000000
#
# Coordination Sequence:
#
# PCOD9142863 Si02
#       8
#     4   4   4   4   4   4   4   4
#     4  10  19  34  56  83 109 137 172 217 262 311
#     4  10  20  33  54  79 106 143 183 223 260 309
#     4  10  18  30  48  70 103 139 174 225 280 314
#     4  10  20  33  48  72 105 142 181 227 278 316
#     4  10  20  32  51  79 104 138 184 223 257 308
#     4  10  21  37  59  86 111 138 169 208 263 317
#     4  10  19  36  55  77 108 138 177 218 262 312
#     4  10  19  32  53  74  98 140 185 224 263 320
#
# _framework density 18.182511000000002
#
# number of rings (size 3 to 8) (size 9 to 14) (size 15 to 20)
#    0.000    2.000    2.500    3.000    0.000    0.750 
#    0.000    3.125    0.000   17.625    0.000    0.000 
#    0.000    0.000    0.000    0.000    0.000    0.000 
#
# Total GULP energy -178427.877922 kJ/mol
# GULP energy per Si atom -5575.871185 kJ/mol
# Density = 1.814113 g / cm^3
# Si number density = 18.182511 Si / 1000 Ang^3
#
#
#
# Elastic Constant Matrix: (Units=GPa)
#
#
# Indices 1 2 3 4 5 6 
#
# 1 56.4943 41.7849 19.5538 0.0000 0.3923 0.0000
# 2 41.7849 103.2508 16.6054 0.0000 -14.1379 0.0000
# 3 19.5538 16.6054 48.0438 0.0000 -11.6550 0.0000
# 4 0.0000 0.0000 0.0000 17.2219 0.0000 -0.3969
# 5 0.3923 -14.1379 -11.6550 0.0000 23.6539 0.0000
# 6 0.0000 0.0000 0.0000 -0.3969 0.0000 20.6950
#
#
#
# Elastic Compliance Matrix: (Units=1/GPa)
#
#
# Indices 1 2 3 4 5 6 
#
# 1 0.031184 -0.012634 -0.011678 0.000000 -0.013823 0.000000
# 2 -0.012634 0.015918 0.002271 0.000000 0.010842 0.000000
# 3 -0.011678 0.002271 0.028574 0.000000 0.015630 0.000000
# 4 0.000000 0.000000 0.000000 0.058091 0.000000 0.001114
# 5 -0.013823 0.010842 0.015630 0.000000 0.056688 0.000000
# 6 0.000000 0.000000 0.000000 0.001114 0.000000 0.048342
#
#
# Mechanical properties :
#
#
# Convention : Reuss Voigt Hill
#
# Bulk Modulus (GPa) = 31.65357 40.40855 36.03106
# Shear Modulus (GPa) = 17.04093 20.97047 19.00570
#
# Velocity S-wave (km/s) = 3.06472 3.39976 3.23658
# Velocity P-wave (km/s) = 5.47448 6.13867 5.81606
#
# Compressibility (1/GPa) = 0.03159202
#
# Stress axis : x y z
#
# Youngs Moduli (GPa) = 32.06799 62.82339 34.99652
#
# Poissons Ratio (x) = 0.79374 0.40870
# Poissons Ratio (y) = 0.40516 -0.07947
# Poissons Ratio (z) = 0.37450 -0.14266
#
# Static dielectric constant tensor:
#      x y z
#    x 1.687490 0.000000 -0.015240 
#    y 0.000000 1.610790 0.000000 
#    z -0.015240 0.000000 1.640000 
# 
# From -- ./inp_files/57092.got.cif
#   From: 2010.05.17/outbox.cif.g08.bks.cpg/sg10_29_cif.got.tgz:57092.got - 2010.06.03 11:33:40.
