data_PCOD9142076
_publ_section_title
;
Structure prediction by ZEFSAII (Michael W. Deem and Ramdas Pophale) SiO2 
 PCOD9142076
Probable space group: P 2/M
;
_chemical_formula_sum "Si O2"
_cell_formula_units_Z 26
_cell_length_a 12.365439
_cell_length_b 18.241649
_cell_length_c 10.959139
_cell_angle_alpha 90.000000
_cell_angle_beta 143.158141
_cell_angle_gamma 90.000000
_cell_volume 1482.237523
_symmetry_space_group_name_H-M "P 2/M"
_symmetry_group_IT_number 10
_symmetry_cell_setting 'monoclinic'
loop_
_space_group_symop_operation_xyz
x,y,z
-x,y,-z
-x,-y,-z
x,-y,z
loop_
_atom_site_type_symbol
_atom_site_label
_atom_site_fract_x
_atom_site_fract_y
_atom_site_fract_z
Si Si1 0.000000 0.148790 0.000000
Si Si2 0.376124 0.917418 0.266499
Si Si3 0.286450 0.582916 0.694724
Si Si4 0.214345 0.272003 0.295011
Si Si5 0.953749 0.416232 0.764099
Si Si6 0.438098 0.237612 0.249384
Si Si7 0.315444 0.636842 0.978060
O O1 0.830550 0.099775 0.884393
O O2 0.930817 0.206112 0.834050
O O3 0.500000 0.910585 0.500000
O O4 0.432676 0.849809 0.232685
O O5 0.395791 0.000000 0.237635
O O6 0.263751 0.500000 0.721577
O O7 0.154842 0.591194 0.461957
O O8 0.255610 0.634460 0.783080
O O9 0.493799 0.594445 0.842138
O O10 0.126455 0.351797 0.224771
O O11 0.319532 0.258754 0.262504
O O12 0.360628 0.262595 0.533789
O O13 0.929248 0.500000 0.785480
O O14 0.161435 0.399775 0.920916
O O15 0.357805 0.282510 0.065613
#
# Coordination Sequence:
#
# PCOD9142076 Si02
#       7
#     2   4   4   4   4   4   4
#     4  10  17  32  51  70 104 138 166 202 243 298
#     4  10  18  30  50  78 105 130 162 201 247 301
#     4  10  21  36  52  76 100 126 171 225 263 296
#     4  10  19  35  51  74 103 140 173 206 247 302
#     4  11  21  34  52  75 102 133 173 219 259 297
#     4  10  19  36  53  71 106 139 168 204 249 306
#     4  11  20  34  54  71  98 135 169 208 261 302
#
# _framework density 17.541046999999999
#
# number of rings (size 3 to 8) (size 9 to 14) (size 15 to 20)
#    0.000    1.692    4.615    4.385    0.000    1.231 
#    0.000    6.538    0.000    0.000    0.000    2.154 
#    0.000    2.769    0.000    0.000    0.000    0.000 
#
# Total GULP energy -145033.542417 kJ/mol
# GULP energy per Si atom -5578.213170 kJ/mol
# Density = 1.750112 g / cm^3
# Si number density = 17.541047 Si / 1000 Ang^3
#
#
#
# Elastic Constant Matrix: (Units=GPa)
#
#
# Indices 1 2 3 4 5 6 
#
# 1 29.4779 32.9986 17.5479 0.0000 7.4733 0.0000
# 2 32.9986 153.6488 31.9902 0.0000 -8.9617 0.0000
# 3 17.5479 31.9902 74.5306 0.0000 5.3143 0.0000
# 4 0.0000 0.0000 0.0000 6.6958 0.0000 -47.2935
# 5 7.4733 -8.9617 5.3143 0.0000 29.1349 0.0000
# 6 0.0000 0.0000 0.0000 -47.2935 0.0000 -95.8012
#
#
#
# Elastic Compliance Matrix: (Units=1/GPa)
#
#
# Indices 1 2 3 4 5 6 
#
# 1 0.054775 -0.011276 -0.006897 0.000000 -0.016261 0.000000
# 2 -0.011276 0.009700 -0.001953 0.000000 0.006232 0.000000
# 3 -0.006897 -0.001953 0.016004 0.000000 -0.001751 0.000000
# 4 0.000000 0.000000 0.000000 0.033286 0.000000 -0.016432
# 5 -0.016261 0.006232 -0.001751 0.000000 0.040731 0.000000
# 6 0.000000 0.000000 0.000000 -0.016432 0.000000 -0.002326
#
#
# Mechanical properties :
#
#
# Convention : Reuss Voigt Hill
#
# Bulk Modulus (GPa) = 24.85903 46.97007 35.91455
# Shear Modulus (GPa) = 24.29177 -0.31941 11.98618
#
# Velocity S-wave (km/s) = 3.72540 -0.42719 2.61688
# Velocity P-wave (km/s) = 5.71905 5.15675 5.44516
#
# Compressibility (1/GPa) = 0.04022683
#
# Stress axis : x y z
#
# Youngs Moduli (GPa) = 18.25652 103.09028 62.48313
#
# Poissons Ratio (x) = 1.16247 0.43095
# Poissons Ratio (y) = 0.20586 0.12203
# Poissons Ratio (z) = 0.12592 0.20134
#
# Static dielectric constant tensor:
#      x y z
#    x 1.606030 0.000000 0.015970 
#    y 0.000000 1.606560 0.000000 
#    z 0.015970 0.000000 1.639180 
# 
# From -- ./inp_files/47851.got.cif
#   From: 2010.05.17/outbox.cif.g08.bks.cpg/sg10_24_cif.got.tgz:47851.got - 2010.06.03 11:33:40.
