data_PCOD9142937
_publ_section_title
;
Structure prediction by ZEFSAII (Michael W. Deem and Ramdas Pophale) SiO2 
 PCOD9142937
Probable space group: P 2/M
;
_chemical_formula_sum "Si O2"
_cell_formula_units_Z 32
_cell_length_a 25.923049
_cell_length_b 7.611579
_cell_length_c 14.679484
_cell_angle_alpha 90.000000
_cell_angle_beta 152.182706
_cell_angle_gamma 90.000000
_cell_volume 1351.656284
_symmetry_space_group_name_H-M "P 2/M"
_symmetry_group_IT_number 10
_symmetry_cell_setting 'monoclinic'
loop_
_space_group_symop_operation_xyz
x,y,z
-x,y,-z
-x,-y,-z
x,-y,z
loop_
_atom_site_type_symbol
_atom_site_label
_atom_site_fract_x
_atom_site_fract_y
_atom_site_fract_z
Si Si1 0.464289 0.300287 0.307736
Si Si2 0.531933 0.303044 0.153362
Si Si3 0.270365 0.715974 0.115990
Si Si4 0.677032 0.803893 0.076397
Si Si5 0.711919 0.286019 0.653546
Si Si6 0.062482 0.297993 0.685396
Si Si7 0.129057 0.207750 0.486200
Si Si8 0.781465 0.288495 0.569903
O O1 0.491917 0.500000 0.376165
O O2 0.393331 0.222498 0.280264
O O3 0.580965 0.229062 0.450643
O O4 0.367075 0.299941 0.079666
O O5 0.530397 0.500000 0.194334
O O6 0.655490 0.235988 0.350871
O O7 0.500000 0.323317 0.000000
O O8 0.436874 0.187912 0.046402
O O9 0.270569 0.500000 0.113933
O O10 0.244484 0.766273 0.179312
O O11 0.176147 0.780483 0.899899
O O12 0.768479 0.729728 0.289031
O O13 0.710969 0.000000 0.101708
O O14 0.712239 0.500000 0.648943
O O15 0.785831 0.227604 0.682438
O O16 0.087631 0.500000 0.698765
O O17 0.000000 0.218471 0.500000
O O18 0.978774 0.294305 0.639426
O O19 0.148035 0.233737 0.408028
O O20 0.120466 0.000000 0.487485
O O21 0.789575 0.500000 0.582851
#
# Coordination Sequence:
#
# PCOD9142937 Si02
#       8
#     4   4   4   4   4   4   4   4
#     4  10  18  32  56  84 113 146 182 222 271 331
#     4  10  18  30  49  74 106 144 183 221 266 319
#     4   9  18  33  57  86 112 138 179 234 281 323
#     4  11  22  32  47  76 113 148 182 221 269 323
#     4   9  17  31  54  86 116 143 178 221 274 329
#     4  10  21  39  62  87 110 139 181 231 281 325
#     4  11  24  38  54  79 111 150 190 229 276 326
#     4  10  19  33  54  81 112 146 184 225 269 324
#
# _framework density 23.674657
#
# number of rings (size 3 to 8) (size 9 to 14) (size 15 to 20)
#    0.000    2.000    2.500    1.875    0.000    5.000 
#    0.000    1.250    0.000    7.500    0.000    0.000 
#    0.000    0.000    0.000    0.000    0.000    0.000 
#
# Total GULP energy -178449.366861 kJ/mol
# GULP energy per Si atom -5576.542714 kJ/mol
# Density = 2.362077 g / cm^3
# Si number density = 23.674657 Si / 1000 Ang^3
#
#
#
# Elastic Constant Matrix: (Units=GPa)
#
#
# Indices 1 2 3 4 5 6 
#
# 1 129.5653 0.0149 38.6371 0.0000 -4.9434 0.0000
# 2 0.0149 51.2270 5.4089 0.0000 -2.1776 0.0000
# 3 38.6371 5.4089 97.2692 0.0000 -13.0112 0.0000
# 4 0.0000 0.0000 0.0000 -1.1896 0.0000 -5.7126
# 5 -4.9434 -2.1776 -13.0112 0.0000 38.5463 0.0000
# 6 0.0000 0.0000 0.0000 -5.7126 0.0000 -35.4675
#
#
#
# Elastic Compliance Matrix: (Units=1/GPa)
#
#
# Indices 1 2 3 4 5 6 
#
# 1 0.008762 0.000366 -0.003506 0.000000 -0.000039 0.000000
# 2 0.000366 0.019674 -0.001136 0.000000 0.000775 0.000000
# 3 -0.003506 -0.001136 0.012220 0.000000 0.003611 0.000000
# 4 0.000000 0.000000 0.000000 -3.710962 0.000000 0.597711
# 5 -0.000039 0.000775 0.003611 0.000000 0.027200 0.000000
# 6 0.000000 0.000000 0.000000 0.597711 0.000000 -0.124466
#
#
# Mechanical properties :
#
#
# Convention : Reuss Voigt Hill
#
# Bulk Modulus (GPa) = 31.14892 40.68703 35.91797
# Shear Modulus (GPa) = -1.33393 15.97788 7.32197
#
# Velocity S-wave (km/s) = -0.75144 2.60069 1.76053
# Velocity P-wave (km/s) = 3.52601 5.12263 4.39739
#
# Compressibility (1/GPa) = 0.03210384
#
# Stress axis : x y z
#
# Youngs Moduli (GPa) = 114.12783 50.82922 81.83584
#
# Poissons Ratio (x) = -0.01860 0.28692
# Poissons Ratio (y) = -0.04177 0.09294
# Poissons Ratio (z) = 0.40014 0.05773
#
# Static dielectric constant tensor:
#      x y z
#    x 1.954490 0.000000 -0.049300 
#    y 0.000000 2.008960 0.000000 
#    z -0.049300 0.000000 1.907520 
# 
# From -- ./inp_files/72220.got.cif
#   From: 2010.05.17/outbox.cif.g08.bks.cpg/sg10_37_cif.got.tgz:72220.got - 2010.06.03 11:33:40.
