data_PCOD9142116
_publ_section_title
;
Structure prediction by ZEFSAII (Michael W. Deem and Ramdas Pophale) SiO2 
 PCOD9142116
Probable space group: P 2/M
;
_chemical_formula_sum "Si O2"
_cell_formula_units_Z 26
_cell_length_a 17.313892
_cell_length_b 14.866085
_cell_length_c 5.395388
_cell_angle_alpha 90.000000
_cell_angle_beta 113.981211
_cell_angle_gamma 90.000000
_cell_volume 1268.841985
_symmetry_space_group_name_H-M "P 2/M"
_symmetry_group_IT_number 10
_symmetry_cell_setting 'monoclinic'
loop_
_space_group_symop_operation_xyz
x,y,z
-x,y,-z
-x,-y,-z
x,-y,z
loop_
_atom_site_type_symbol
_atom_site_label
_atom_site_fract_x
_atom_site_fract_y
_atom_site_fract_z
Si Si1 0.769791 0.799380 0.421267
Si Si2 0.226010 0.682906 0.071743
Si Si3 0.376925 0.400357 0.999455
Si Si4 0.049388 0.108414 0.314076
Si Si5 0.500000 0.683137 0.500000
Si Si6 0.591881 0.780343 0.246657
Si Si7 0.041947 0.392647 0.805041
O O1 0.775697 0.754605 0.156572
O O2 0.853690 0.858810 0.559734
O O3 0.674375 0.841601 0.317483
O O4 0.772076 0.730188 0.657991
O O5 0.304468 0.617901 0.109232
O O6 0.140258 0.627357 0.938941
O O7 0.368562 0.500000 0.884092
O O8 0.376015 0.315475 0.818245
O O9 0.466081 0.382785 0.247656
O O10 0.000000 0.137541 0.500000
O O11 0.049581 0.000000 0.314468
O O12 0.000000 0.137760 0.000000
O O13 0.571127 0.752782 0.500488
O O14 0.500000 0.802785 0.000000
O O15 0.028312 0.500000 0.786738
O O16 0.000000 0.356078 0.500000
O O17 0.000000 0.355786 0.000000
#
# Coordination Sequence:
#
# PCOD9142116 Si02
#       7
#     4   4   4   4   2   4   4
#     4  11  22  38  59  85 114 148 185 225 280 341
#     4  11  22  36  53  80 110 142 189 235 277 328
#     4  10  20  32  48  72 105 146 193 243 291 333
#     4  10  22  41  65  95 125 150 178 220 278 343
#     4  10  17  34  50  70 103 142 190 246 285 338
#     4   9  20  35  52  77 111 150 197 241 291 336
#     4  10  21  36  51  69  99 142 186 230 279 325
#
# _framework density 20.491125
#
# number of rings (size 3 to 8) (size 9 to 14) (size 15 to 20)
#    0.000    1.846    1.538    2.538    0.000    7.077 
#    0.000    1.538    0.000    0.462    0.000    0.538 
#    0.000    0.000    0.000    0.000    0.000    0.000 
#
# Total GULP energy -144893.705534 kJ/mol
# GULP energy per Si atom -5572.834828 kJ/mol
# Density = 2.044449 g / cm^3
# Si number density = 20.491125 Si / 1000 Ang^3
#
#
#
# Elastic Constant Matrix: (Units=GPa)
#
#
# Indices 1 2 3 4 5 6 
#
# 1 138.5381 18.5358 36.7111 0.0000 11.0316 0.0000
# 2 18.5358 30.8909 16.7515 0.0000 6.7224 0.0000
# 3 36.7111 16.7515 119.7241 0.0000 0.2660 0.0000
# 4 0.0000 0.0000 0.0000 -2.7006 0.0000 2.3655
# 5 11.0316 6.7224 0.2660 0.0000 39.9792 0.0000
# 6 0.0000 0.0000 0.0000 2.3655 0.0000 13.4797
#
#
#
# Elastic Compliance Matrix: (Units=1/GPa)
#
#
# Indices 1 2 3 4 5 6 
#
# 1 0.008375 -0.003532 -0.002070 0.000000 -0.001703 0.000000
# 2 -0.003532 0.037947 -0.004214 0.000000 -0.005378 0.000000
# 3 -0.002070 -0.004214 0.009574 0.000000 0.001216 0.000000
# 4 0.000000 0.000000 0.000000 -0.320955 0.000000 0.056322
# 5 -0.001703 -0.005378 0.001216 0.000000 0.026379 0.000000
# 6 0.000000 0.000000 0.000000 0.056322 0.000000 0.064302
#
#
# Mechanical properties :
#
#
# Convention : Reuss Voigt Hill
#
# Bulk Modulus (GPa) = 27.57618 48.12777 37.85197
# Shear Modulus (GPa) = -35.04938 24.62864 -5.21037
#
# Velocity S-wave (km/s) = -4.14027 3.47063 -1.59633
# Velocity P-wave (km/s) = 3.06086 6.29273 3.88777
#
# Compressibility (1/GPa) = 0.03626319
#
# Stress axis : x y z
#
# Youngs Moduli (GPa) = 119.40322 26.35238 104.44682
#
# Poissons Ratio (x) = 0.09308 0.21621
# Poissons Ratio (y) = 0.42175 0.44019
# Poissons Ratio (z) = 0.24717 0.11106
#
# Static dielectric constant tensor:
#      x y z
#    x 1.808100 0.000000 0.003610 
#    y 0.000000 1.706250 0.000000 
#    z 0.003610 0.000000 1.781360 
# 
# From -- ./inp_files/9731.got.cif
#   From: 2010.05.17/outbox.cif.g08.bks.cpg/sg10_5_cif.got.tgz:9731.got - 2010.06.03 11:33:40.
