data_PCOD9142952
_publ_section_title
;
Structure prediction by ZEFSAII (Michael W. Deem and Ramdas Pophale) SiO2 
 PCOD9142952
Probable space group: P 2/M
;
_chemical_formula_sum "Si O2"
_cell_formula_units_Z 28
_cell_length_a 14.380377
_cell_length_b 17.032888
_cell_length_c 7.702224
_cell_angle_alpha 90.000000
_cell_angle_beta 57.614963
_cell_angle_gamma 90.000000
_cell_volume 1593.154215
_symmetry_space_group_name_H-M "P 2/M"
_symmetry_group_IT_number 10
_symmetry_cell_setting 'monoclinic'
loop_
_space_group_symop_operation_xyz
x,y,z
-x,y,-z
-x,-y,-z
x,-y,z
loop_
_atom_site_type_symbol
_atom_site_label
_atom_site_fract_x
_atom_site_fract_y
_atom_site_fract_z
Si Si1 0.727808 0.330976 0.473021
Si Si2 0.373827 0.000000 0.418620
Si Si3 0.626173 0.000000 0.166276
Si Si4 0.628029 0.827642 0.076806
Si Si5 0.727808 0.330976 0.071363
Si Si6 0.500000 0.589116 0.289133
Si Si7 0.868311 0.407322 0.631689
Si Si8 0.628030 0.827642 0.667136
O O1 0.748191 0.353379 0.251809
O O2 0.611279 0.367714 0.651086
O O3 0.818488 0.364214 0.512581
O O4 0.704827 0.238044 0.506526
O O5 0.500000 0.000000 0.225244
O O6 0.375262 0.000000 0.624737
O O7 0.328880 0.083893 0.404657
O O8 0.671120 0.083893 0.062418
O O9 0.704826 0.761956 0.083823
O O10 0.500000 0.822996 0.270892
O O11 0.624611 0.812218 0.875389
O O12 0.611280 0.367714 0.126355
O O13 0.818488 0.364213 0.850443
O O14 0.500000 0.589118 0.500000
O O15 0.500000 0.500000 0.227819
O O16 0.837115 0.500000 0.662886
O O17 0.000000 0.402583 0.500000
#
# Coordination Sequence:
#
# PCOD9142952 Si02
#       8
#     4   2   2   4   4   4   4   4
#     4  11  21  36  59  85 114 149 185 227 283 341
#     4   9  17  27  43  71 113 160 195 223 263 321
#     4   9  17  27  43  71 113 160 195 223 263 321
#     4  10  18  30  49  79 118 156 190 225 271 334
#     4  11  21  36  59  85 114 149 185 227 283 341
#     4   9  18  31  51  82 114 142 177 220 276 346
#     4  11  26  45  61  80 107 143 194 247 288 332
#     4  10  18  30  49  79 118 156 190 225 271 334
#
# _framework density 17.575199000000001
#
# number of rings (size 3 to 8) (size 9 to 14) (size 15 to 20)
#    0.000    1.857    2.857    2.143    0.000    5.714 
#    0.000    2.857    0.000    0.000    0.000    2.000 
#    0.000    3.429    0.000    0.000    0.000    0.000 
#
# Total GULP energy -156228.289020 kJ/mol
# GULP energy per Si atom -5579.581751 kJ/mol
# Density = 1.753520 g / cm^3
# Si number density = 17.575199 Si / 1000 Ang^3
#
#
#
# Elastic Constant Matrix: (Units=GPa)
#
#
# Indices 1 2 3 4 5 6 
#
# 1 69.5777 33.9594 38.5586 0.0000 6.3652 0.0000
# 2 33.9594 136.5202 30.7642 0.0000 -6.9964 0.0000
# 3 38.5586 30.7642 76.5753 0.0000 8.9565 0.0000
# 4 0.0000 0.0000 0.0000 15.2884 0.0000 6.6902
# 5 6.3652 -6.9964 8.9565 0.0000 22.6374 0.0000
# 6 0.0000 0.0000 0.0000 6.6902 0.0000 12.2333
#
#
#
# Elastic Compliance Matrix: (Units=1/GPa)
#
#
# Indices 1 2 3 4 5 6 
#
# 1 0.021347 -0.003477 -0.008938 0.000000 -0.003541 0.000000
# 2 -0.003477 0.008973 -0.002404 0.000000 0.004702 0.000000
# 3 -0.008938 -0.002404 0.019207 0.000000 -0.005829 0.000000
# 4 0.000000 0.000000 0.000000 0.085987 0.000000 -0.047025
# 5 -0.003541 0.004702 -0.005829 0.000000 0.048930 0.000000
# 6 0.000000 0.000000 0.000000 -0.047025 0.000000 0.107462
#
#
# Mechanical properties :
#
#
# Convention : Reuss Voigt Hill
#
# Bulk Modulus (GPa) = 50.27980 54.35973 52.31976
# Shear Modulus (GPa) = 15.23594 21.99123 18.61359
#
# Velocity S-wave (km/s) = 2.94751 3.54116 3.25789
# Velocity P-wave (km/s) = 6.34462 6.90773 6.63215
#
# Compressibility (1/GPa) = 0.01988870
#
# Stress axis : x y z
#
# Youngs Moduli (GPa) = 46.84568 111.45117 52.06443
#
# Poissons Ratio (x) = 0.38756 0.46534
# Poissons Ratio (y) = 0.16290 0.12515
# Poissons Ratio (z) = 0.41869 0.26789
#
# Static dielectric constant tensor:
#      x y z
#    x 1.586010 0.000000 0.030580 
#    y 0.000000 1.645160 0.000000 
#    z 0.030580 0.000000 1.599980 
# 
# From -- ./inp_files/29457.got.cif
#   From: 2010.05.17/outbox.cif.g08.bks.cpg/sg10_15_cif.got.tgz:29457.got - 2010.06.03 11:33:40.
