data_PCOD9142374
_publ_section_title
;
Structure prediction by ZEFSAII (Michael W. Deem and Ramdas Pophale) SiO2 
 PCOD9142374
Probable space group: P 2/M
;
_chemical_formula_sum "Si O2"
_cell_formula_units_Z 20
_cell_length_a 16.766054
_cell_length_b 14.019228
_cell_length_c 8.366503
_cell_angle_alpha 90.000000
_cell_angle_beta 156.875332
_cell_angle_gamma 90.000000
_cell_volume 772.318493
_symmetry_space_group_name_H-M "P 2/M"
_symmetry_group_IT_number 10
_symmetry_cell_setting 'monoclinic'
loop_
_space_group_symop_operation_xyz
x,y,z
-x,y,-z
-x,-y,-z
x,-y,z
loop_
_atom_site_type_symbol
_atom_site_label
_atom_site_fract_x
_atom_site_fract_y
_atom_site_fract_z
Si Si1 0.756599 0.811289 0.321896
Si Si2 0.313174 0.892038 0.486829
Si Si3 0.266585 0.182787 0.083482
Si Si4 0.764530 0.397422 0.014447
Si Si5 0.305198 0.603819 0.755199
O O1 0.795782 0.878296 0.544777
O O2 0.812664 0.703470 0.478039
O O3 0.508617 0.821586 0.848805
O O4 0.821526 0.828265 0.258010
O O5 0.187079 0.868510 0.095498
O O6 0.389647 0.000000 0.616826
O O7 0.500000 0.147456 0.500000
O O8 0.269985 0.295811 0.127947
O O9 0.728142 0.500000 0.867096
O O10 0.645133 0.395645 0.963532
O O11 0.000000 0.397375 0.500000
O O12 0.203479 0.500000 0.538734
O O13 0.500000 0.607535 0.000000
#
# Coordination Sequence:
#
# PCOD9142374 Si02
#       5
#     4   4   4   4   4
#     4   9  16  29  45  71 105 136 170 213 269 312
#     4  10  18  28  45  72 105 135 173 224 272 312
#     4   9  19  31  49  78 106 134 177 223 264 312
#     4   9  18  33  53  78 109 145 178 211 261 324
#     4   9  15  26  48  75 102 132 168 212 256 305
#
# _framework density 25.896052999999998
#
# number of rings (size 3 to 8) (size 9 to 14) (size 15 to 20)
#    0.000    2.800    2.000    1.200    0.000    4.800 
#    0.000    4.000    0.000    5.400    0.000   18.200 
#    0.000    0.000    0.000    0.000    0.000    0.000 
#
# Total GULP energy -111616.120116 kJ/mol
# GULP energy per Si atom -5580.806006 kJ/mol
# Density = 2.583711 g / cm^3
# Si number density = 25.896053 Si / 1000 Ang^3
#
#
#
# Elastic Constant Matrix: (Units=GPa)
#
#
# Indices 1 2 3 4 5 6 
#
# 1 201.8225 37.6985 35.6340 0.0000 -9.8784 0.0000
# 2 37.6985 119.7839 6.4361 0.0000 -23.4985 0.0000
# 3 35.6340 6.4361 95.1792 0.0000 -13.1159 0.0000
# 4 0.0000 0.0000 0.0000 -0.7809 0.0000 -13.9275
# 5 -9.8784 -23.4985 -13.1159 0.0000 40.6232 0.0000
# 6 0.0000 0.0000 0.0000 -13.9275 0.0000 25.4439
#
#
#
# Elastic Compliance Matrix: (Units=1/GPa)
#
#
# Indices 1 2 3 4 5 6 
#
# 1 0.005619 -0.001714 -0.002026 0.000000 -0.000280 0.000000
# 2 -0.001714 0.009941 0.000737 0.000000 0.005572 0.000000
# 3 -0.002026 0.000737 0.011728 0.000000 0.003720 0.000000
# 4 0.000000 0.000000 0.000000 -0.118982 0.000000 -0.065129
# 5 -0.000280 0.005572 0.003720 0.000000 0.028973 0.000000
# 6 0.000000 0.000000 0.000000 -0.065129 0.000000 0.003652
#
#
# Mechanical properties :
#
#
# Convention : Reuss Voigt Hill
#
# Bulk Modulus (GPa) = 46.98862 64.03587 55.51225
# Shear Modulus (GPa) = -108.77012 35.52503 -36.62254
#
# Velocity S-wave (km/s) = -6.48797 3.70784 -3.76468
# Velocity P-wave (km/s) = 6.15959 6.56601 1.60810
#
# Compressibility (1/GPa) = 0.02128175
#
# Stress axis : x y z
#
# Youngs Moduli (GPa) = 177.96196 100.58999 85.26644
#
# Poissons Ratio (x) = 0.17245 0.17278
# Poissons Ratio (y) = 0.30510 -0.06288
# Poissons Ratio (z) = 0.36061 -0.07418
#
# Static dielectric constant tensor:
#      x y z
#    x 2.084580 0.000000 0.039540 
#    y 0.000000 1.965350 0.000000 
#    z 0.039540 0.000000 2.085840 
# 
# From -- ./inp_files/32700.got.cif
#   From: 2010.05.17/outbox.cif.g08.bks.cpg/sg10_17_cif.got.tgz:32700.got - 2010.06.03 11:33:40.
