data_PCOD9142460
_publ_section_title
;
Structure prediction by ZEFSAII (Michael W. Deem and Ramdas Pophale) SiO2 
 PCOD9142460
Probable space group: P 2/M
;
_chemical_formula_sum "Si O2"
_cell_formula_units_Z 28
_cell_length_a 14.151858
_cell_length_b 14.280389
_cell_length_c 9.510056
_cell_angle_alpha 90.000000
_cell_angle_beta 61.372140
_cell_angle_gamma 90.000000
_cell_volume 1686.970414
_symmetry_space_group_name_H-M "P 2/M"
_symmetry_group_IT_number 10
_symmetry_cell_setting 'monoclinic'
loop_
_space_group_symop_operation_xyz
x,y,z
-x,y,-z
-x,-y,-z
x,-y,z
loop_
_atom_site_type_symbol
_atom_site_label
_atom_site_fract_x
_atom_site_fract_y
_atom_site_fract_z
Si Si1 0.652320 0.895326 0.518639
Si Si2 0.671057 0.388917 0.346201
Si Si3 0.325936 0.294035 0.356037
Si Si4 0.112794 0.613222 0.978696
Si Si5 0.604499 0.104891 0.233059
Si Si6 0.574013 0.701484 0.155122
Si Si7 0.758399 0.388825 0.847770
O O1 0.700282 0.810524 0.572839
O O2 0.523821 0.893736 0.642700
O O3 0.660979 0.880558 0.344285
O O4 0.691298 0.000000 0.524197
O O5 0.652120 0.500000 0.347807
O O6 0.671173 0.357012 0.506252
O O7 0.587058 0.334390 0.306822
O O8 0.787590 0.366133 0.195325
O O9 0.448399 0.295557 0.209020
O O10 0.247996 0.334634 0.293728
O O11 0.105762 0.500000 0.989193
O O12 0.148507 0.642166 0.109889
O O13 0.000000 0.649611 0.000000
O O14 0.621961 0.193090 0.119749
O O15 0.630907 0.000000 0.162769
O O16 0.647288 0.633784 0.010008
O O17 0.766192 0.500000 0.818666
#
# Coordination Sequence:
#
# PCOD9142460 Si02
#       7
#     4   4   4   4   4   4   4
#     4   8  14  25  41  60  85 118 151 187 226 252
#     4  10  19  28  43  67  89 116 157 188 208 257
#     4  11  19  28  42  65  97 124 150 184 215 253
#     4   8  16  34  53  63  79 111 147 188 236 271
#     4   8  13  24  42  61  81 113 159 196 218 245
#     4  10  18  29  42  61  92 131 158 177 211 256
#     4  10  21  32  43  63  92 125 154 180 219 269
#
# _framework density 16.597801
#
# number of rings (size 3 to 8) (size 9 to 14) (size 15 to 20)
#    0.000    2.714    1.429    3.429    0.000    3.429 
#    0.000    1.429    0.000    6.857    0.000    0.000 
#    0.000   21.714    0.000    0.000    0.000    0.000 
#
# Total GULP energy -155974.682942 kJ/mol
# GULP energy per Si atom -5570.524391 kJ/mol
# Density = 1.656002 g / cm^3
# Si number density = 16.597801 Si / 1000 Ang^3
#
#
#
# Elastic Constant Matrix: (Units=GPa)
#
#
# Indices 1 2 3 4 5 6 
#
# 1 85.5652 30.6244 20.9552 0.0000 19.4357 0.0000
# 2 30.6244 89.0145 11.3058 0.0000 12.9424 0.0000
# 3 20.9552 11.3058 26.2210 0.0000 18.0417 0.0000
# 4 0.0000 0.0000 0.0000 5.5275 0.0000 13.2781
# 5 19.4357 12.9424 18.0417 0.0000 20.7662 0.0000
# 6 0.0000 0.0000 0.0000 13.2781 0.0000 13.7975
#
#
#
# Elastic Compliance Matrix: (Units=1/GPa)
#
#
# Indices 1 2 3 4 5 6 
#
# 1 0.016238 -0.003709 -0.006244 0.000000 -0.007462 0.000000
# 2 -0.003709 0.013201 0.001354 0.000000 -0.005933 0.000000
# 3 -0.006244 0.001354 0.097221 0.000000 -0.079465 0.000000
# 4 0.000000 0.000000 0.000000 -0.137917 0.000000 0.132725
# 5 -0.007462 -0.005933 -0.079465 0.000000 0.127876 0.000000
# 6 0.000000 0.000000 0.000000 0.132725 0.000000 -0.055252
#
#
# Mechanical properties :
#
#
# Convention : Reuss Voigt Hill
#
# Bulk Modulus (GPa) = 9.13553 36.28572 22.71063
# Shear Modulus (GPa) = 43.45848 17.21260 30.33554
#
# Velocity S-wave (km/s) = 5.12251 3.22381 4.27978
# Velocity P-wave (km/s) = 6.36418 5.98051 6.17533
#
# Compressibility (1/GPa) = 0.10946268
#
# Stress axis : x y z
#
# Youngs Moduli (GPa) = 61.58221 75.75385 10.28585
#
# Poissons Ratio (x) = 0.28095 0.06423
# Poissons Ratio (y) = 0.22839 -0.01393
# Poissons Ratio (z) = 0.38453 -0.10258
#
# Static dielectric constant tensor:
#      x y z
#    x 1.561480 0.000000 0.014190 
#    y 0.000000 1.586570 0.000000 
#    z 0.014190 0.000000 1.573450 
# 
# From -- ./inp_files/28821.got.cif
#   From: 2010.05.17/outbox.cif.g08.bks.cpg/sg10_15_cif.got.tgz:28821.got - 2010.06.03 11:33:40.
