data_PCOD9142565
_publ_section_title
;
Structure prediction by ZEFSAII (Michael W. Deem and Ramdas Pophale) SiO2 
 PCOD9142565
Probable space group: P 2/M
;
_chemical_formula_sum "Si O2"
_cell_formula_units_Z 28
_cell_length_a 13.681237
_cell_length_b 7.597202
_cell_length_c 13.907003
_cell_angle_alpha 90.000000
_cell_angle_beta 60.377553
_cell_angle_gamma 90.000000
_cell_volume 1256.559165
_symmetry_space_group_name_H-M "P 2/M"
_symmetry_group_IT_number 10
_symmetry_cell_setting 'monoclinic'
loop_
_space_group_symop_operation_xyz
x,y,z
-x,y,-z
-x,-y,-z
x,-y,z
loop_
_atom_site_type_symbol
_atom_site_label
_atom_site_fract_x
_atom_site_fract_y
_atom_site_fract_z
Si Si1 0.434435 0.709849 0.439716
Si Si2 0.231502 0.784797 0.031216
Si Si3 0.133204 0.296477 0.367309
Si Si4 0.643745 0.786664 0.833551
Si Si5 0.013882 0.198622 0.231867
Si Si6 0.433576 0.787798 0.818833
Si Si7 0.182230 0.293278 0.546730
O O1 0.500000 0.781837 0.500000
O O2 0.421928 0.500000 0.459688
O O3 0.509095 0.736484 0.308680
O O4 0.307345 0.782112 0.494343
O O5 0.307161 0.734798 0.087110
O O6 0.104364 0.720966 0.113326
O O7 0.224276 0.000000 0.034328
O O8 0.306844 0.727770 0.904193
O O9 0.095066 0.500000 0.377257
O O10 0.267452 0.286583 0.286322
O O11 0.082694 0.200004 0.299537
O O12 0.118011 0.224450 0.482369
O O13 0.520125 0.731604 0.861061
O O14 0.646455 0.000000 0.829460
O O15 0.894690 0.276463 0.321607
O O16 0.991191 0.000000 0.212125
O O17 0.430644 0.000000 0.822642
O O18 0.192845 0.500000 0.520369
#
# Coordination Sequence:
#
# PCOD9142565 Si02
#       7
#     4   4   4   4   4   4   4
#     4  10  22  40  58  76 101 133 170 216 269 314
#     4   8  16  30  47  73 107 140 169 200 247 302
#     4  10  18  29  46  70 104 141 173 209 250 298
#     4   9  16  27  46  73 104 139 173 205 246 302
#     4  10  20  32  49  74 105 139 174 205 243 304
#     4  10  18  31  54  77 102 133 169 215 258 302
#     4  10  20  34  51  71  99 134 170 212 260 304
#
# _framework density 22.283073999999999
#
# number of rings (size 3 to 8) (size 9 to 14) (size 15 to 20)
#    0.000    2.429    1.429    2.571    0.000    5.429 
#    0.000    3.571    0.000    5.143    0.000    6.000 
#    0.000    0.000    0.000    0.000    0.000    0.000 
#
# Total GULP energy -156143.143485 kJ/mol
# GULP energy per Si atom -5576.540839 kJ/mol
# Density = 2.223236 g / cm^3
# Si number density = 22.283074 Si / 1000 Ang^3
#
#
#
# Elastic Constant Matrix: (Units=GPa)
#
#
# Indices 1 2 3 4 5 6 
#
# 1 49.4907 -0.2086 46.7564 0.0000 -12.0311 0.0000
# 2 -0.2086 43.2891 -12.4880 0.0000 1.6834 0.0000
# 3 46.7564 -12.4880 139.0496 0.0000 -42.3117 0.0000
# 4 0.0000 0.0000 0.0000 -5.0606 0.0000 -13.5746
# 5 -12.0311 1.6834 -42.3117 0.0000 26.7405 0.0000
# 6 0.0000 0.0000 0.0000 -13.5746 0.0000 4.1873
#
#
#
# Elastic Compliance Matrix: (Units=1/GPa)
#
#
# Indices 1 2 3 4 5 6 
#
# 1 0.030327 -0.003135 -0.012087 0.000000 -0.005283 0.000000
# 2 -0.003135 0.024222 0.004506 0.000000 0.004194 0.000000
# 3 -0.012087 0.004506 0.019131 0.000000 0.024549 0.000000
# 4 0.000000 0.000000 0.000000 -0.020380 0.000000 -0.066069
# 5 -0.005283 0.004194 0.024549 0.000000 0.073599 0.000000
# 6 0.000000 0.000000 0.000000 -0.066069 0.000000 0.024631
#
#
# Mechanical properties :
#
#
# Convention : Reuss Voigt Hill
#
# Bulk Modulus (GPa) = 19.13957 33.32766 26.23362
# Shear Modulus (GPa) = 26.26344 18.35807 22.31075
#
# Velocity S-wave (km/s) = 3.43684 2.87341 3.16767
# Velocity P-wave (km/s) = 4.93529 5.09878 5.01770
#
# Compressibility (1/GPa) = 0.05224777
#
# Stress axis : x y z
#
# Youngs Moduli (GPa) = 32.97338 41.28446 52.27216
#
# Poissons Ratio (x) = 0.12944 0.63181
# Poissons Ratio (y) = 0.10338 -0.23554
# Poissons Ratio (z) = 0.39855 -0.18603
#
# Static dielectric constant tensor:
#      x y z
#    x 1.837720 0.000000 -0.060150 
#    y 0.000000 1.823180 0.000000 
#    z -0.060150 0.000000 1.885150 
# 
# From -- ./inp_files/66408.got.cif
#   From: 2010.05.17/outbox.cif.g08.bks.cpg/sg10_34_cif.got.tgz:66408.got - 2010.06.03 11:33:40.
