data_PCOD9142129
_publ_section_title
;
Structure prediction by ZEFSAII (Michael W. Deem and Ramdas Pophale) SiO2 
 PCOD9142129
Probable space group: P 2/M
;
_chemical_formula_sum "Si O2"
_cell_formula_units_Z 32
_cell_length_a 11.695700
_cell_length_b 18.587174
_cell_length_c 19.918839
_cell_angle_alpha 90.000000
_cell_angle_beta 21.817928
_cell_angle_gamma 90.000000
_cell_volume 1609.338838
_symmetry_space_group_name_H-M "P 2/M"
_symmetry_group_IT_number 10
_symmetry_cell_setting 'monoclinic'
loop_
_space_group_symop_operation_xyz
x,y,z
-x,y,-z
-x,-y,-z
x,-y,z
loop_
_atom_site_type_symbol
_atom_site_label
_atom_site_fract_x
_atom_site_fract_y
_atom_site_fract_z
Si Si1 0.760436 0.207478 0.076920
Si Si2 0.528706 0.352765 0.821573
Si Si3 0.787146 0.833411 0.549801
Si Si4 0.786446 0.160578 0.919934
Si Si5 0.649079 0.581737 0.211800
Si Si6 0.827947 0.321838 0.456469
Si Si7 0.808057 0.327993 0.870720
Si Si8 0.130604 0.084363 0.255090
O O1 0.549376 0.273936 0.166732
O O2 0.546501 0.155577 0.236934
O O3 0.891621 0.168066 0.939588
O O4 0.000000 0.236725 0.000000
O O5 0.529497 0.408667 0.761203
O O6 0.860637 0.348978 0.675754
O O7 0.245480 0.365029 0.028087
O O8 0.796563 0.760480 0.499359
O O9 0.000000 0.826453 0.500000
O O10 0.895341 0.895868 0.441629
O O11 0.775094 0.242736 0.901555
O O12 0.963411 0.115272 0.766825
O O13 0.443731 0.126772 0.104895
O O14 0.635958 0.500000 0.243559
O O15 0.475382 0.635465 0.356405
O O16 0.000000 0.598510 0.000000
O O17 0.905557 0.333747 0.335517
O O18 0.500000 0.351470 0.000000
O O19 0.189755 0.000000 0.218371
#
# Coordination Sequence:
#
# PCOD9142129 Si02
#       8
#     4   4   4   4   4   4   4   4
#     4  11  22  35  58  87 121 154 198 253 306 357
#     4  10  19  34  58  88 116 150 196 248 302 352
#     4  12  19  35  57  89 118 150 199 257 300 343
#     4  10  17  35  56  83 119 153 197 244 304 356
#     4  11  24  40  58  83 122 164 198 240 299 366
#     4  11  19  35  62  89 115 153 197 253 301 353
#     4   9  16  30  57  86 116 145 188 251 301 339
#     4  11  21  34  59  90 120 156 202 256 305 357
#
# _framework density 19.883942999999999
#
# number of rings (size 3 to 8) (size 9 to 14) (size 15 to 20)
#    0.000    1.375    6.250    2.250    0.000    1.250 
#    0.000    1.875    0.000    7.875    0.000    0.000 
#    0.000    0.000    0.000    0.000    0.000    0.000 
#
# Total GULP energy -178371.467481 kJ/mol
# GULP energy per Si atom -5574.108359 kJ/mol
# Density = 1.983869 g / cm^3
# Si number density = 19.883943 Si / 1000 Ang^3
#
#
#
# Elastic Constant Matrix: (Units=GPa)
#
#
# Indices 1 2 3 4 5 6 
#
# 1 57.3903 1.9891 24.5759 0.0000 23.8006 0.0000
# 2 1.9891 50.0218 15.9520 0.0000 3.7001 0.0000
# 3 24.5759 15.9520 67.6381 0.0000 24.8216 0.0000
# 4 0.0000 0.0000 0.0000 -1.6268 0.0000 9.5271
# 5 23.8006 3.7001 24.8216 0.0000 36.0023 0.0000
# 6 0.0000 0.0000 0.0000 9.5271 0.0000 6.2660
#
#
#
# Elastic Compliance Matrix: (Units=1/GPa)
#
#
# Indices 1 2 3 4 5 6 
#
# 1 0.024884 0.001416 -0.004398 0.000000 -0.013564 0.000000
# 2 0.001416 0.021779 -0.006005 0.000000 0.000966 0.000000
# 3 -0.004398 -0.006005 0.022096 0.000000 -0.011709 0.000000
# 4 0.000000 0.000000 0.000000 -0.062065 0.000000 0.094366
# 5 -0.013564 0.000966 -0.011709 0.000000 0.044717 0.000000
# 6 0.000000 0.000000 0.000000 0.094366 0.000000 0.016114
#
#
# Mechanical properties :
#
#
# Convention : Reuss Voigt Hill
#
# Bulk Modulus (GPa) = 19.69102 28.89825 24.29464
# Shear Modulus (GPa) = 48.81581 16.96384 32.88983
#
# Velocity S-wave (km/s) = 4.96021 2.92403 4.07146
# Velocity P-wave (km/s) = 6.53677 5.09558 5.86064
#
# Compressibility (1/GPa) = 0.05078457
#
# Stress axis : x y z
#
# Youngs Moduli (GPa) = 40.18668 45.91658 45.25731
#
# Poissons Ratio (x) = -0.06503 0.19903
# Poissons Ratio (y) = -0.05692 0.27179
# Poissons Ratio (z) = 0.17673 0.27575
#
# Static dielectric constant tensor:
#      x y z
#    x 1.776660 0.000000 0.011240 
#    y 0.000000 1.674420 0.000000 
#    z 0.011240 0.000000 1.755100 
# 
# From -- ./inp_files/84245.got.cif
#   From: 2010.05.17/outbox.cif.g08.bks.cpg/sg10_43_cif.got.tgz:84245.got - 2010.06.03 11:33:40.
