data_PCOD9142523
_publ_section_title
;
Structure prediction by ZEFSAII (Michael W. Deem and Ramdas Pophale) SiO2 
 PCOD9142523
Probable space group: P 2/M
;
_chemical_formula_sum "Si O2"
_cell_formula_units_Z 32
_cell_length_a 13.083804
_cell_length_b 8.802678
_cell_length_c 17.589799
_cell_angle_alpha 90.000000
_cell_angle_beta 90.455683
_cell_angle_gamma 90.000000
_cell_volume 2025.797295
_symmetry_space_group_name_H-M "P 2/M"
_symmetry_group_IT_number 10
_symmetry_cell_setting 'monoclinic'
loop_
_space_group_symop_operation_xyz
x,y,z
-x,y,-z
-x,-y,-z
x,-y,z
loop_
_atom_site_type_symbol
_atom_site_label
_atom_site_fract_x
_atom_site_fract_y
_atom_site_fract_z
Si Si1 0.993413 0.815082 0.912752
Si Si2 0.109449 0.818847 0.339422
Si Si3 0.124082 0.675661 0.496047
Si Si4 0.206265 0.183091 0.182435
Si Si5 0.193132 0.182311 0.817309
Si Si6 0.624468 0.316522 0.084171
Si Si7 0.610890 0.317391 0.909005
Si Si8 0.881963 0.317178 0.336330
O O1 0.889490 0.766380 0.870518
O O2 0.092658 0.769647 0.864978
O O3 0.992599 0.000000 0.913572
O O4 0.000000 0.763061 0.000000
O O5 0.152130 0.769623 0.421682
O O6 0.179838 0.773435 0.268813
O O7 0.997896 0.743679 0.328775
O O8 0.095563 0.000000 0.336998
O O9 0.154095 0.500000 0.485595
O O10 0.157583 0.729398 0.579851
O O11 0.000000 0.679075 0.500000
O O12 0.310265 0.248313 0.149665
O O13 0.210310 0.000000 0.179171
O O14 0.292539 0.239757 0.861974
O O15 0.182363 0.252384 0.733623
O O16 0.192779 0.000000 0.812464
O O17 0.632843 0.500000 0.089163
O O18 0.507614 0.274484 0.103654
O O19 0.640248 0.273089 0.995730
O O20 0.615612 0.500000 0.905750
O O21 0.884327 0.500000 0.335070
#
# Coordination Sequence:
#
# PCOD9142523 Si02
#       8
#     4   4   4   4   4   4   4   4
#     4   9  17  29  43  62  94 129 155 187 233 280
#     4  10  18  29  45  68  98 129 159 197 239 282
#     4   8  16  29  44  64  91 126 163 194 231 280
#     4  10  19  31  46  69 100 128 158 198 241 283
#     4  11  20  31  49  72  97 127 163 197 238 290
#     4   9  19  36  52  69  95 124 160 207 250 281
#     4   9  19  35  53  70  92 125 164 205 244 285
#     4  10  19  31  46  66  97 131 160 196 237 281
#
# _framework density 15.796249
#
# number of rings (size 3 to 8) (size 9 to 14) (size 15 to 20)
#    0.000    2.500    1.250    3.375    0.000    5.750 
#    0.000    1.250    0.000    2.625    0.000    0.875 
#    0.000    7.000    0.000    0.000    0.000    0.000 
#
# Total GULP energy -178399.600923 kJ/mol
# GULP energy per Si atom -5574.987529 kJ/mol
# Density = 1.576030 g / cm^3
# Si number density = 15.796249 Si / 1000 Ang^3
#
#
#
# Elastic Constant Matrix: (Units=GPa)
#
#
# Indices 1 2 3 4 5 6 
#
# 1 70.3079 23.5310 56.3956 0.0000 -8.4300 0.0000
# 2 23.5310 29.7229 36.3468 0.0000 -3.9342 0.0000
# 3 56.3956 36.3468 134.5638 0.0000 -10.8459 0.0000
# 4 0.0000 0.0000 0.0000 49.6445 0.0000 -11.8959
# 5 -8.4300 -3.9342 -10.8459 0.0000 19.3050 0.0000
# 6 0.0000 0.0000 0.0000 -11.8959 0.0000 29.6427
#
#
#
# Elastic Compliance Matrix: (Units=1/GPa)
#
#
# Indices 1 2 3 4 5 6 
#
# 1 0.023496 -0.009572 -0.006905 0.000000 0.004430 0.000000
# 2 -0.009572 0.054276 -0.010573 0.000000 0.000941 0.000000
# 3 -0.006905 -0.010573 0.013370 0.000000 0.002342 0.000000
# 4 0.000000 0.000000 0.000000 0.022286 0.000000 0.008944
# 5 0.004430 0.000941 0.002342 0.000000 0.055242 0.000000
# 6 0.000000 0.000000 0.000000 0.008944 0.000000 0.037324
#
#
# Mechanical properties :
#
#
# Convention : Reuss Voigt Hill
#
# Bulk Modulus (GPa) = 26.99570 51.90461 39.45016
# Shear Modulus (GPa) = 18.35260 27.60651 22.97955
#
# Velocity S-wave (km/s) = 3.41226 4.18504 3.81825
# Velocity P-wave (km/s) = 5.71417 7.50219 6.66838
#
# Compressibility (1/GPa) = 0.03704293
#
# Stress axis : x y z
#
# Youngs Moduli (GPa) = 42.55972 18.42449 74.79522
#
# Poissons Ratio (x) = 0.17635 0.51645
# Poissons Ratio (y) = 0.40736 0.79081
# Poissons Ratio (z) = 0.29387 0.19480
#
# Static dielectric constant tensor:
#      x y z
#    x 1.497730 0.000000 0.002100 
#    y 0.000000 1.532880 0.000000 
#    z 0.002100 0.000000 1.545520 
# 
# From -- ./inp_files/54813.got.cif
#   From: 2010.05.17/outbox.cif.g08.bks.cpg/sg10_28_cif.got.tgz:54813.got - 2010.06.03 11:33:40.
