data_PCOD9142338
_publ_section_title
;
Structure prediction by ZEFSAII (Michael W. Deem and Ramdas Pophale) SiO2 
 PCOD9142338
Probable space group: P 2/M
;
_chemical_formula_sum "Si O2"
_cell_formula_units_Z 32
_cell_length_a 20.627337
_cell_length_b 7.354710
_cell_length_c 30.123385
_cell_angle_alpha 90.000000
_cell_angle_beta 159.974025
_cell_angle_gamma 90.000000
_cell_volume 1564.965384
_symmetry_space_group_name_H-M "P 2/M"
_symmetry_group_IT_number 10
_symmetry_cell_setting 'monoclinic'
loop_
_space_group_symop_operation_xyz
x,y,z
-x,y,-z
-x,-y,-z
x,-y,z
loop_
_atom_site_type_symbol
_atom_site_label
_atom_site_fract_x
_atom_site_fract_y
_atom_site_fract_z
Si Si1 0.738209 0.220890 0.609078
Si Si2 0.819218 0.222517 0.855593
Si Si3 0.239913 0.718885 0.610372
Si Si4 0.698306 0.779024 0.682408
Si Si5 0.579368 0.789298 0.363415
Si Si6 0.061394 0.220631 0.349704
Si Si7 0.339827 0.289949 0.865500
Si Si8 0.194827 0.722054 0.680044
O O1 0.523587 0.274161 0.457650
O O2 0.771621 0.280210 0.681232
O O3 0.884738 0.277340 0.665590
O O4 0.738678 0.000000 0.609537
O O5 0.809997 0.278617 0.798056
O O6 0.622130 0.284568 0.750969
O O7 0.822724 0.000000 0.858437
O O8 0.000000 0.282991 0.000000
O O9 0.239840 0.500000 0.610082
O O10 0.383864 0.779211 0.665298
O O11 0.273809 0.777440 0.682841
O O12 0.026070 0.777689 0.460196
O O13 0.699610 0.000000 0.683020
O O14 0.765405 0.714529 0.507668
O O15 0.574572 0.000000 0.374096
O O16 0.861520 0.285754 0.239285
O O17 0.054237 0.000000 0.346625
O O18 0.395511 0.500000 0.893860
O O19 0.305048 0.211798 0.794111
O O20 0.500000 0.207425 0.000000
O O21 0.193280 0.500000 0.679857
#
# Coordination Sequence:
#
# PCOD9142338 Si02
#       8
#     4   4   4   4   4   4   4   4
#     4   8  13  22  39  62  86 110 145 190 221 251
#     4   9  16  26  40  60  91 125 150 178 223 273
#     4   9  16  29  50  69  88 117 154 193 224 263
#     4   8  12  21  38  60  84 114 151 183 214 256
#     4  10  18  28  44  71  99 119 149 192 234 269
#     4  10  18  29  46  70  97 120 148 192 235 269
#     4  10  20  34  51  69  91 120 154 189 225 274
#     4   8  15  29  48  69  89 114 153 191 222 263
#
# _framework density 20.447737
#
# number of rings (size 3 to 8) (size 9 to 14) (size 15 to 20)
#    0.000    3.000    2.500    1.500    0.000    0.250 
#    0.000    3.125    0.000    1.875    0.000    2.625 
#    0.000    0.000    0.000    0.000    0.000    0.000 
#
# Total GULP energy -178512.001193 kJ/mol
# GULP energy per Si atom -5578.500037 kJ/mol
# Density = 2.040120 g / cm^3
# Si number density = 20.447737 Si / 1000 Ang^3
#
#
#
# Elastic Constant Matrix: (Units=GPa)
#
#
# Indices 1 2 3 4 5 6 
#
# 1 153.7125 -9.2483 82.1101 0.0000 -30.2871 0.0000
# 2 -9.2483 73.5153 2.2932 0.0000 -4.5926 0.0000
# 3 82.1101 2.2932 136.9894 0.0000 -29.8459 0.0000
# 4 0.0000 0.0000 0.0000 -7.9564 0.0000 14.1649
# 5 -30.2871 -4.5926 -29.8459 0.0000 34.0346 0.0000
# 6 0.0000 0.0000 0.0000 14.1649 0.0000 12.8600
#
#
#
# Elastic Compliance Matrix: (Units=1/GPa)
#
#
# Indices 1 2 3 4 5 6 
#
# 1 0.010333 0.001768 -0.005152 0.000000 0.004916 0.000000
# 2 0.001768 0.014026 -0.000667 0.000000 0.002881 0.000000
# 3 -0.005152 -0.000667 0.011596 0.000000 0.005494 0.000000
# 4 0.000000 0.000000 0.000000 -0.042447 0.000000 0.046754
# 5 0.004916 0.002881 0.005494 0.000000 0.038963 0.000000
# 6 0.000000 0.000000 0.000000 0.046754 0.000000 0.026262
#
#
# Mechanical properties :
#
#
# Convention : Reuss Voigt Hill
#
# Bulk Modulus (GPa) = 35.90314 57.16969 46.53641
# Shear Modulus (GPa) = 65.68762 27.05846 46.37304
#
# Velocity S-wave (km/s) = 5.67401 3.64166 4.76739
# Velocity P-wave (km/s) = 7.77962 6.76032 7.28781
#
# Compressibility (1/GPa) = 0.02785272
#
# Stress axis : x y z
#
# Youngs Moduli (GPa) = 96.78114 71.29735 86.23639
#
# Poissons Ratio (x) = -0.12603 0.44428
# Poissons Ratio (y) = -0.17107 0.05748
# Poissons Ratio (z) = 0.49861 0.04753
#
# Static dielectric constant tensor:
#      x y z
#    x 1.731390 0.000000 -0.027880 
#    y 0.000000 1.785500 0.000000 
#    z -0.027880 0.000000 1.688450 
# 
# From -- ./inp_files/93479.got.cif
#   From: 2010.05.17/outbox.cif.g08.bks.cpg/sg10_47_cif.got.tgz:93479.got - 2010.06.03 11:33:40.
