data_PCOD9142079
_publ_section_title
;
Structure prediction by ZEFSAII (Michael W. Deem and Ramdas Pophale) SiO2 
 PCOD9142079
Probable space group: P 2/M
;
_chemical_formula_sum "Si O2"
_cell_formula_units_Z 18
_cell_length_a 5.565587
_cell_length_b 9.734982
_cell_length_c 16.052647
_cell_angle_alpha 90.000000
_cell_angle_beta 90.437025
_cell_angle_gamma 90.000000
_cell_volume 869.721389
_symmetry_space_group_name_H-M "P 2/M"
_symmetry_group_IT_number 10
_symmetry_cell_setting 'monoclinic'
loop_
_space_group_symop_operation_xyz
x,y,z
-x,y,-z
-x,-y,-z
x,-y,z
loop_
_atom_site_type_symbol
_atom_site_label
_atom_site_fract_x
_atom_site_fract_y
_atom_site_fract_z
Si Si1 0.700280 0.000000 0.138731
Si Si2 0.781462 0.736346 0.733454
Si Si3 0.750773 0.166101 0.544042
Si Si4 0.718066 0.301833 0.203250
Si Si5 0.750572 0.500000 0.051253
Si Si6 0.799785 0.000000 0.856496
O O1 0.705107 0.136656 0.194947
O O2 0.445633 0.000000 0.093332
O O3 0.952721 0.000000 0.093400
O O4 0.755442 0.785727 0.639198
O O5 0.538246 0.657899 0.758743
O O6 0.795354 0.866718 0.796740
O O7 0.038788 0.663786 0.746665
O O8 0.500000 0.210955 0.500000
O O9 0.000000 0.210374 0.500000
O O10 0.750259 0.000000 0.542850
O O11 0.745325 0.368841 0.112570
O O12 0.500000 0.500000 0.000000
O O13 0.000000 0.500000 0.000000
#
# Coordination Sequence:
#
# PCOD9142079 Si02
#       6
#     2   4   4   4   2   2
#     4   8  16  30  52  82 106 134 182 224 270 328
#     4  10  17  32  52  80 112 155 199 236 270 338
#     4  10  19  28  44  79 126 164 191 235 297 335
#     4  10  21  36  61  85 110 152 194 235 284 346
#     4  12  26  46  64  88 120 144 178 244 308 356
#     4   8  14  24  44  72 108 138 178 230 274 294
#
# _framework density 20.696283999999999
#
# number of rings (size 3 to 8) (size 9 to 14) (size 15 to 20)
#    0.000    2.222    1.111    2.667    0.000    0.000 
#    0.000    1.111    0.000    0.000    0.000   15.556 
#    0.000    0.000    0.000    0.000    0.000    0.000 
#
# Total GULP energy -100273.380661 kJ/mol
# GULP energy per Si atom -5570.743370 kJ/mol
# Density = 2.064918 g / cm^3
# Si number density = 20.696284 Si / 1000 Ang^3
#
#
#
# Elastic Constant Matrix: (Units=GPa)
#
#
# Indices 1 2 3 4 5 6 
#
# 1 240.0429 8.4618 26.0302 0.0000 -21.8470 0.0000
# 2 8.4618 72.7430 2.4821 0.0000 -3.1722 0.0000
# 3 26.0302 2.4821 57.0486 0.0000 -18.6332 0.0000
# 4 0.0000 0.0000 0.0000 -27.0244 0.0000 1.1152
# 5 -21.8470 -3.1722 -18.6332 0.0000 37.8399 0.0000
# 6 0.0000 0.0000 0.0000 1.1152 0.0000 -3.8636
#
#
#
# Elastic Compliance Matrix: (Units=1/GPa)
#
#
# Indices 1 2 3 4 5 6 
#
# 1 0.004504 -0.000394 -0.001429 0.000000 0.001864 0.000000
# 2 -0.000394 0.013835 -0.000140 0.000000 0.000863 0.000000
# 3 -0.001429 -0.000140 0.021347 0.000000 0.009675 0.000000
# 4 0.000000 0.000000 0.000000 -0.037450 0.000000 -0.010809
# 5 0.001864 0.000863 0.009675 0.000000 0.032340 0.000000
# 6 0.000000 0.000000 0.000000 -0.010809 0.000000 -0.261944
#
#
# Mechanical properties :
#
#
# Convention : Reuss Voigt Hill
#
# Bulk Modulus (GPa) = 27.96434 49.30918 38.63676
# Shear Modulus (GPa) = -23.63840 23.58107 -0.02866
#
# Velocity S-wave (km/s) = -3.38325 3.37914 -0.11781
# Velocity P-wave (km/s) = 1.31176 6.25313 4.32325
#
# Compressibility (1/GPa) = 0.03575983
#
# Stress axis : x y z
#
# Youngs Moduli (GPa) = 222.00318 72.27893 46.84454
#
# Poissons Ratio (x) = 0.02847 0.06696
# Poissons Ratio (y) = 0.08745 0.00657
# Poissons Ratio (z) = 0.31733 0.01013
#
# Static dielectric constant tensor:
#      x y z
#    x 1.842460 0.000000 -0.018430 
#    y 0.000000 1.712420 0.000000 
#    z -0.018430 0.000000 1.654630 
# 
# From -- ./inp_files/10902.got.cif
#   From: 2010.05.17/outbox.cif.g08.bks.cpg/sg10_6_cif.got.tgz:10902.got - 2010.06.03 11:33:40.
