data_PCOD9142120
_publ_section_title
;
Structure prediction by ZEFSAII (Michael W. Deem and Ramdas Pophale) SiO2 
 PCOD9142120
Probable space group: P 2/M
;
_chemical_formula_sum "Si O2"
_cell_formula_units_Z 30
_cell_length_a 19.267050
_cell_length_b 17.838902
_cell_length_c 9.827773
_cell_angle_alpha 90.000000
_cell_angle_beta 23.703805
_cell_angle_gamma 90.000000
_cell_volume 1357.918760
_symmetry_space_group_name_H-M "P 2/M"
_symmetry_group_IT_number 10
_symmetry_cell_setting 'monoclinic'
loop_
_space_group_symop_operation_xyz
x,y,z
-x,y,-z
-x,-y,-z
x,-y,z
loop_
_atom_site_type_symbol
_atom_site_label
_atom_site_fract_x
_atom_site_fract_y
_atom_site_fract_z
Si Si1 0.688732 0.115286 0.597488
Si Si2 0.121022 0.684334 0.558179
Si Si3 0.313455 0.000000 0.644152
Si Si4 0.716481 0.696411 0.210728
Si Si5 0.145717 0.146099 0.429596
Si Si6 0.206799 0.585235 0.161193
Si Si7 0.652733 0.289965 0.617552
Si Si8 0.746001 0.864229 0.058448
O O1 0.719256 0.063831 0.415694
O O2 0.815292 0.105026 0.499048
O O3 0.692664 0.201124 0.539525
O O4 0.500000 0.101399 0.000000
O O5 0.180821 0.766537 0.398333
O O6 0.208630 0.622820 0.305518
O O7 0.183143 0.674669 0.600537
O O8 0.916292 0.688190 0.901764
O O9 0.335555 0.067026 0.717353
O O10 0.614605 0.683525 0.533761
O O11 0.702104 0.637537 0.114304
O O12 0.688574 0.780500 0.204078
O O13 0.260416 0.124983 0.093351
O O14 0.949126 0.134529 0.737345
O O15 0.268917 0.500000 0.046416
O O16 0.000000 0.585128 0.500000
O O17 0.500000 0.300259 0.000000
#
# Coordination Sequence:
#
# PCOD9142120 Si02
#       8
#     4   4   2   4   4   4   4   4
#     4  10  22  38  53  71 105 147 187 227 275 326
#     4   9  17  32  58  83 108 144 178 226 275 327
#     4  12  23  36  53  79 111 141 186 235 270 324
#     4  10  17  34  57  83 112 138 186 226 274 334
#     4   9  19  36  56  76 107 142 178 225 284 328
#     4   9  17  31  58  91 116 138 174 228 280 327
#     4  10  20  35  55  78 108 147 192 225 268 328
#     4  10  20  34  55  82 106 139 180 233 281 323
#
# _framework density 22.092632999999999
#
# number of rings (size 3 to 8) (size 9 to 14) (size 15 to 20)
#    0.000    2.267    2.667    0.600    0.000    3.200 
#    0.000    2.667    0.000    5.600    0.000    0.000 
#    0.000    0.000    0.000    0.000    0.000    0.000 
#
# Total GULP energy -167163.461298 kJ/mol
# GULP energy per Si atom -5572.115377 kJ/mol
# Density = 2.204235 g / cm^3
# Si number density = 22.092633 Si / 1000 Ang^3
#
#
#
# Elastic Constant Matrix: (Units=GPa)
#
#
# Indices 1 2 3 4 5 6 
#
# 1 86.3173 37.3438 48.5763 0.0000 24.2893 0.0000
# 2 37.3438 130.0778 47.3439 0.0000 27.9201 0.0000
# 3 48.5763 47.3439 80.2440 0.0000 31.3680 0.0000
# 4 0.0000 0.0000 0.0000 -16.4964 0.0000 10.4504
# 5 24.2893 27.9201 31.3680 0.0000 47.2935 0.0000
# 6 0.0000 0.0000 0.0000 10.4504 0.0000 17.7990
#
#
#
# Elastic Compliance Matrix: (Units=1/GPa)
#
#
# Indices 1 2 3 4 5 6 
#
# 1 0.017992 -0.001311 -0.009192 0.000000 -0.002370 0.000000
# 2 -0.001311 0.010134 -0.004198 0.000000 -0.002525 0.000000
# 3 -0.009192 -0.004198 0.023881 0.000000 -0.008640 0.000000
# 4 0.000000 0.000000 0.000000 -0.044185 0.000000 0.025942
# 5 -0.002370 -0.002525 -0.008640 0.000000 0.029583 0.000000
# 6 0.000000 0.000000 0.000000 0.025942 0.000000 0.040951
#
#
# Mechanical properties :
#
#
# Convention : Reuss Voigt Hill
#
# Bulk Modulus (GPa) = 44.23927 62.57414 53.40671
# Shear Modulus (GPa) = 43.36762 20.61088 31.98925
#
# Velocity S-wave (km/s) = 4.43537 3.05770 3.80934
# Velocity P-wave (km/s) = 6.80426 6.39149 6.60110
#
# Compressibility (1/GPa) = 0.02260435
#
# Stress axis : x y z
#
# Youngs Moduli (GPa) = 55.58022 98.67644 41.87474
#
# Poissons Ratio (x) = 0.12938 0.38490
# Poissons Ratio (y) = 0.07288 0.17581
# Poissons Ratio (z) = 0.51087 0.41429
#
# Static dielectric constant tensor:
#      x y z
#    x 1.863920 0.000000 -0.055090 
#    y 0.000000 1.765630 0.000000 
#    z -0.055090 0.000000 1.874370 
# 
# From -- ./inp_files/35412.got.cif
#   From: 2010.05.17/outbox.cif.g08.bks.cpg/sg10_18_cif.got.tgz:35412.got - 2010.06.03 11:33:40.
