data_PCOD9142867
_publ_section_title
;
Structure prediction by ZEFSAII (Michael W. Deem and Ramdas Pophale) SiO2 
 PCOD9142867
Probable space group: P 2/M
;
_chemical_formula_sum "Si O2"
_cell_formula_units_Z 24
_cell_length_a 16.552197
_cell_length_b 9.496728
_cell_length_c 22.330258
_cell_angle_alpha 90.000000
_cell_angle_beta 24.120197
_cell_angle_gamma 90.000000
_cell_volume 1434.423005
_symmetry_space_group_name_H-M "P 2/M"
_symmetry_group_IT_number 10
_symmetry_cell_setting 'monoclinic'
loop_
_space_group_symop_operation_xyz
x,y,z
-x,y,-z
-x,-y,-z
x,-y,z
loop_
_atom_site_type_symbol
_atom_site_label
_atom_site_fract_x
_atom_site_fract_y
_atom_site_fract_z
Si Si1 0.881834 0.833836 0.360886
Si Si2 0.172781 0.832944 0.050168
Si Si3 0.939000 0.336566 0.110405
Si Si4 0.178352 0.336974 0.233458
Si Si5 0.524191 0.335663 0.082081
Si Si6 0.456455 0.164906 0.600337
O O1 0.656446 0.793546 0.499713
O O2 0.990325 0.752066 0.340687
O O3 0.886768 0.000000 0.369844
O O4 0.009735 0.812450 0.213483
O O5 0.375041 0.763551 0.937268
O O6 0.191574 0.000000 0.027317
O O7 0.090967 0.751150 0.048266
O O8 0.933806 0.500000 0.133444
O O9 0.726711 0.263359 0.261112
O O10 0.000000 0.331784 0.000000
O O11 0.125073 0.500000 0.278383
O O12 0.310782 0.290918 0.200531
O O13 0.327875 0.331530 0.075342
O O14 0.514503 0.500000 0.107440
O O15 0.500000 0.172593 0.500000
O O16 0.411416 0.000000 0.644039
#
# Coordination Sequence:
#
# PCOD9142867 Si02
#       6
#     4   4   4   4   4   4
#     4   9  17  28  45  70  99 127 159 203 245 288
#     4  10  18  30  48  70  96 129 166 204 248 296
#     4  11  24  38  51  72 101 132 170 212 250 296
#     4   8  14  24  39  62  95 130 161 195 238 290
#     4   8  14  25  40  62  94 129 162 198 240 287
#     4  10  19  35  54  74 101 131 167 208 250 299
#
# _framework density 16.731466000000001
#
# number of rings (size 3 to 8) (size 9 to 14) (size 15 to 20)
#    0.000    2.667    1.667    2.000    0.000    3.667 
#    0.000    3.333    0.000    0.000    0.000    1.167 
#    0.000    9.333    0.000    0.000    0.000    0.000 
#
# Total GULP energy -133731.262423 kJ/mol
# GULP energy per Si atom -5572.135934 kJ/mol
# Density = 1.669338 g / cm^3
# Si number density = 16.731466 Si / 1000 Ang^3
#
#
#
# Elastic Constant Matrix: (Units=GPa)
#
#
# Indices 1 2 3 4 5 6 
#
# 1 128.2112 82.8877 45.5302 0.0000 -48.7464 0.0000
# 2 82.8877 94.6806 37.3544 0.0000 -22.7051 0.0000
# 3 45.5302 37.3544 32.0359 0.0000 -18.5919 0.0000
# 4 0.0000 0.0000 0.0000 21.3419 0.0000 -10.1179
# 5 -48.7464 -22.7051 -18.5919 0.0000 29.6915 0.0000
# 6 0.0000 0.0000 0.0000 -10.1179 0.0000 32.4693
#
#
#
# Elastic Compliance Matrix: (Units=1/GPa)
#
#
# Indices 1 2 3 4 5 6 
#
# 1 0.047309 -0.026482 -0.004768 0.000000 0.054434 0.000000
# 2 -0.026482 0.034405 -0.019546 0.000000 -0.029406 0.000000
# 3 -0.004768 -0.019546 0.074717 0.000000 0.024010 0.000000
# 4 0.000000 0.000000 0.000000 0.054978 0.000000 0.017132
# 5 0.054434 -0.029406 0.024010 0.000000 0.115594 0.000000
# 6 0.000000 0.000000 0.000000 0.017132 0.000000 0.036137
#
#
# Mechanical properties :
#
#
# Convention : Reuss Voigt Hill
#
# Bulk Modulus (GPa) = 18.23525 65.16360 41.69942
# Shear Modulus (GPa) = 10.35173 22.64424 16.49799
#
# Velocity S-wave (km/s) = 2.49006 3.68284 3.14354
# Velocity P-wave (km/s) = 4.38060 7.55749 6.17679
#
# Compressibility (1/GPa) = 0.05483884
#
# Stress axis : x y z
#
# Youngs Moduli (GPa) = 21.13761 29.06589 13.38389
#
# Poissons Ratio (x) = 0.76971 0.06382
# Poissons Ratio (y) = 0.55976 0.26160
# Poissons Ratio (z) = 0.10079 0.56812
#
# Static dielectric constant tensor:
#      x y z
#    x 1.569450 0.000000 -0.015980 
#    y 0.000000 1.557440 0.000000 
#    z -0.015980 0.000000 1.547140 
# 
# From -- ./inp_files/33947.got.cif
#   From: 2010.05.17/outbox.cif.g08.bks.cpg/sg10_17_cif.got.tgz:33947.got - 2010.06.03 11:33:40.
