data_PCOD9142369
_publ_section_title
;
Structure prediction by ZEFSAII (Michael W. Deem and Ramdas Pophale) SiO2 
 PCOD9142369
Probable space group: P 2/M
;
_chemical_formula_sum "Si O2"
_cell_formula_units_Z 32
_cell_length_a 14.887318
_cell_length_b 7.513197
_cell_length_c 14.916143
_cell_angle_alpha 90.000000
_cell_angle_beta 72.924208
_cell_angle_gamma 90.000000
_cell_volume 1594.843379
_symmetry_space_group_name_H-M "P 2/M"
_symmetry_group_IT_number 10
_symmetry_cell_setting 'monoclinic'
loop_
_space_group_symop_operation_xyz
x,y,z
-x,y,-z
-x,-y,-z
x,-y,z
loop_
_atom_site_type_symbol
_atom_site_label
_atom_site_fract_x
_atom_site_fract_y
_atom_site_fract_z
Si Si1 0.688938 0.217620 0.736367
Si Si2 0.798057 0.300564 0.217023
Si Si3 0.187700 0.785877 0.141627
Si Si4 0.402800 0.217843 0.414897
Si Si5 0.991465 0.711555 0.104979
Si Si6 0.497498 0.783185 0.103826
Si Si7 0.611172 0.209749 0.378040
Si Si8 0.296154 0.215742 0.934020
O O1 0.776775 0.277198 0.771492
O O2 0.669527 0.277105 0.640573
O O3 0.594947 0.272432 0.817425
O O4 0.691887 0.000000 0.734619
O O5 0.807554 0.500000 0.249371
O O6 0.901198 0.213846 0.185196
O O7 0.706259 0.228947 0.294173
O O8 0.771202 0.296741 0.120047
O O9 0.086560 0.733799 0.133147
O O10 0.188758 0.000000 0.143783
O O11 0.263183 0.733588 0.043072
O O12 0.511725 0.274378 0.365941
O O13 0.379434 0.277626 0.522713
O O14 0.400065 0.000000 0.413097
O O15 0.974139 0.500000 0.100842
O O16 0.000000 0.782372 0.000000
O O17 0.597013 0.730458 0.116096
O O18 0.495855 0.000000 0.104185
O O19 0.500000 0.726309 0.000000
O O20 0.595934 0.000000 0.391635
O O21 0.290294 0.000000 0.928950
#
# Coordination Sequence:
#
# PCOD9142369 Si02
#       8
#     4   4   4   4   4   4   4   4
#     4   9  15  25  43  71 104 133 158 191 237 289
#     4  11  22  34  50  70  94 128 166 206 253 297
#     4  10  19  29  47  74  98 123 163 207 240 277
#     4   8  15  29  52  79 107 133 158 192 240 297
#     4  10  21  37  51  64  91 133 171 203 250 303
#     4   9  14  22  39  67 101 130 154 183 223 276
#     4   9  17  32  54  80 102 127 164 202 241 286
#     4  10  18  28  45  71  99 128 161 197 235 284
#
# _framework density 20.064667
#
# number of rings (size 3 to 8) (size 9 to 14) (size 15 to 20)
#    0.000    2.500    2.500    1.875    0.000    3.250 
#    0.000    1.250    0.000    4.875    0.000    5.250 
#    0.000    0.000    0.000    0.000    0.000    0.000 
#
# Total GULP energy -178408.579888 kJ/mol
# GULP energy per Si atom -5575.268121 kJ/mol
# Density = 2.001900 g / cm^3
# Si number density = 20.064667 Si / 1000 Ang^3
#
#
#
# Elastic Constant Matrix: (Units=GPa)
#
#
# Indices 1 2 3 4 5 6 
#
# 1 139.5575 1.5596 50.4450 0.0000 17.1329 0.0000
# 2 1.5596 44.3717 3.6818 0.0000 -0.4589 0.0000
# 3 50.4450 3.6818 86.7412 0.0000 15.3393 0.0000
# 4 0.0000 0.0000 0.0000 86.9779 0.0000 13.9477
# 5 17.1329 -0.4589 15.3393 0.0000 31.4518 0.0000
# 6 0.0000 0.0000 0.0000 13.9477 0.0000 28.3969
#
#
#
# Elastic Compliance Matrix: (Units=1/GPa)
#
#
# Indices 1 2 3 4 5 6 
#
# 1 0.009270 0.000055 -0.004925 0.000000 -0.002647 0.000000
# 2 0.000055 0.022639 -0.001145 0.000000 0.000859 0.000000
# 3 -0.004925 -0.001145 0.015289 0.000000 -0.004790 0.000000
# 4 0.000000 0.000000 0.000000 0.012480 0.000000 -0.006130
# 5 -0.002647 0.000859 -0.004790 0.000000 0.035585 0.000000
# 6 0.000000 0.000000 0.000000 -0.006130 0.000000 0.038226
#
#
# Mechanical properties :
#
#
# Convention : Reuss Voigt Hill
#
# Bulk Modulus (GPa) = 28.43517 42.44924 35.44220
# Shear Modulus (GPa) = 31.79824 43.69759 37.74791
#
# Velocity S-wave (km/s) = 3.98526 4.67179 4.34212
# Velocity P-wave (km/s) = 5.94802 7.09246 6.54530
#
# Compressibility (1/GPa) = 0.03516772
#
# Stress axis : x y z
#
# Youngs Moduli (GPa) = 107.87270 44.17189 65.40809
#
# Poissons Ratio (x) = -0.00245 0.32216
# Poissons Ratio (y) = -0.00599 0.07489
# Poissons Ratio (z) = 0.53132 0.05058
#
# Static dielectric constant tensor:
#      x y z
#    x 1.731070 0.000000 0.005400 
#    y 0.000000 1.769880 0.000000 
#    z 0.005400 0.000000 1.709370 
# 
# From -- ./inp_files/66019.got.cif
#   From: 2010.05.17/outbox.cif.g08.bks.cpg/sg10_34_cif.got.tgz:66019.got - 2010.06.03 11:33:40.
