data_PCOD9142697
_publ_section_title
;
Structure prediction by ZEFSAII (Michael W. Deem and Ramdas Pophale) SiO2 
 PCOD9142697
Probable space group: P 2/M
;
_chemical_formula_sum "Si O2"
_cell_formula_units_Z 28
_cell_length_a 15.283611
_cell_length_b 12.907855
_cell_length_c 7.031426
_cell_angle_alpha 90.000000
_cell_angle_beta 119.439052
_cell_angle_gamma 90.000000
_cell_volume 1208.039932
_symmetry_space_group_name_H-M "P 2/M"
_symmetry_group_IT_number 10
_symmetry_cell_setting 'monoclinic'
loop_
_space_group_symop_operation_xyz
x,y,z
-x,y,-z
-x,-y,-z
x,-y,z
loop_
_atom_site_type_symbol
_atom_site_label
_atom_site_fract_x
_atom_site_fract_y
_atom_site_fract_z
Si Si1 0.701180 0.881793 0.038504
Si Si2 0.643682 0.114971 0.536217
Si Si3 0.864285 0.161201 0.677563
Si Si4 0.789859 0.615174 0.488942
Si Si5 0.080668 0.159556 0.839225
Si Si6 0.405237 0.277572 0.789742
Si Si7 0.090857 0.610539 0.749095
O O1 0.823152 0.873261 0.181125
O O2 0.649295 0.795944 0.112226
O O3 0.671597 0.000000 0.054157
O O4 0.671583 0.863592 0.785290
O O5 0.751300 0.118746 0.537939
O O6 0.573225 0.198702 0.360840
O O7 0.601560 0.000000 0.475792
O O8 0.847747 0.285915 0.638022
O O9 0.965035 0.133082 0.667659
O O10 0.894165 0.125369 0.920839
O O11 0.816543 0.500000 0.588423
O O12 0.672648 0.640176 0.377515
O O13 0.814324 0.615602 0.289897
O O14 0.084289 0.284613 0.855221
O O15 0.500000 0.322555 0.000000
O O16 0.088938 0.500000 0.849639
O O17 0.000000 0.610912 0.500000
#
# Coordination Sequence:
#
# PCOD9142697 Si02
#       7
#     4   4   4   4   4   4   4
#     4  10  21  37  57  81 112 147 180 219 269 321
#     4   9  20  38  56  81 113 142 177 222 270 319
#     4   9  19  31  52  79 110 147 178 216 256 309
#     4  10  20  36  55  76 106 141 176 221 273 321
#     4  10  18  32  50  78 112 145 182 213 255 312
#     4  11  23  39  60  82 104 135 182 234 279 328
#     4  10  18  29  49  75 104 139 175 215 260 314
#
# _framework density 23.178042999999999
#
# number of rings (size 3 to 8) (size 9 to 14) (size 15 to 20)
#    0.000    2.143    2.857    0.429    0.000    3.143 
#    0.000    5.714    0.000    3.000    0.000    4.000 
#    0.000    0.000    0.000    0.000    0.000    0.000 
#
# Total GULP energy -156272.703616 kJ/mol
# GULP energy per Si atom -5581.167986 kJ/mol
# Density = 2.312529 g / cm^3
# Si number density = 23.178043 Si / 1000 Ang^3
#
#
#
# Elastic Constant Matrix: (Units=GPa)
#
#
# Indices 1 2 3 4 5 6 
#
# 1 54.3058 -1.1781 0.5145 0.0000 0.5127 0.0000
# 2 -1.1781 96.2991 -5.4324 0.0000 -4.7450 0.0000
# 3 0.5145 -5.4324 73.2539 0.0000 6.3462 0.0000
# 4 0.0000 0.0000 0.0000 16.0310 0.0000 -7.1815
# 5 0.5127 -4.7450 6.3462 0.0000 29.8151 0.0000
# 6 0.0000 0.0000 0.0000 -7.1815 0.0000 1.2052
#
#
#
# Elastic Compliance Matrix: (Units=1/GPa)
#
#
# Indices 1 2 3 4 5 6 
#
# 1 0.018422 0.000207 -0.000091 0.000000 -0.000264 0.000000
# 2 0.000207 0.010499 0.000645 0.000000 0.001530 0.000000
# 3 -0.000091 0.000645 0.013948 0.000000 -0.002865 0.000000
# 4 0.000000 0.000000 0.000000 -0.037366 0.000000 -0.222656
# 5 -0.000264 0.001530 -0.002865 0.000000 0.034398 0.000000
# 6 0.000000 0.000000 0.000000 -0.222656 0.000000 -0.497025
#
#
# Mechanical properties :
#
#
# Convention : Reuss Voigt Hill
#
# Bulk Modulus (GPa) = 22.52772 23.51852 23.02312
# Shear Modulus (GPa) = -11.26509 24.74058 6.73774
#
# Velocity S-wave (km/s) = -2.20699 3.27068 1.70683
# Velocity P-wave (km/s) = 1.80170 4.94288 3.72009
#
# Compressibility (1/GPa) = 0.04438975
#
# Stress axis : x y z
#
# Youngs Moduli (GPa) = 54.28266 95.25078 71.69608
#
# Poissons Ratio (x) = -0.01974 0.00653
# Poissons Ratio (y) = -0.01125 -0.04621
# Poissons Ratio (z) = 0.00495 -0.06139
#
# Static dielectric constant tensor:
#      x y z
#    x 1.955240 0.000000 0.014540 
#    y 0.000000 1.867140 0.000000 
#    z 0.014540 0.000000 1.868970 
# 
# From -- ./inp_files/28664.got.cif
#   From: 2010.05.17/outbox.cif.g08.bks.cpg/sg10_15_cif.got.tgz:28664.got - 2010.06.03 11:33:40.
