data_PCOD9142519
_publ_section_title
;
Structure prediction by ZEFSAII (Michael W. Deem and Ramdas Pophale) SiO2 
 PCOD9142519
Probable space group: P 2/M
;
_chemical_formula_sum "Si O2"
_cell_formula_units_Z 32
_cell_length_a 16.086718
_cell_length_b 15.268880
_cell_length_c 18.806758
_cell_angle_alpha 90.000000
_cell_angle_beta 22.344542
_cell_angle_gamma 90.000000
_cell_volume 1756.193932
_symmetry_space_group_name_H-M "P 2/M"
_symmetry_group_IT_number 10
_symmetry_cell_setting 'monoclinic'
loop_
_space_group_symop_operation_xyz
x,y,z
-x,y,-z
-x,-y,-z
x,-y,z
loop_
_atom_site_type_symbol
_atom_site_label
_atom_site_fract_x
_atom_site_fract_y
_atom_site_fract_z
Si Si1 0.202960 0.604464 0.450681
Si Si2 0.374194 0.901052 0.494770
Si Si3 0.664753 0.404128 0.301759
Si Si4 0.328936 0.399709 0.960320
Si Si5 0.145537 0.130315 0.820642
Si Si6 0.345370 0.286902 0.474976
Si Si7 0.738208 0.602648 0.824036
Si Si8 0.997444 0.312569 0.125504
O O1 0.185064 0.500000 0.480905
O O2 0.411938 0.613876 0.234700
O O3 0.271831 0.658637 0.465382
O O4 0.965844 0.634858 0.611571
O O5 0.608419 0.874479 0.343447
O O6 0.195145 0.903245 0.700695
O O7 0.336489 0.818216 0.473059
O O8 0.387992 0.000000 0.454724
O O9 0.500000 0.404388 0.500000
O O10 0.649547 0.500000 0.279732
O O11 0.574836 0.327098 0.322442
O O12 0.899997 0.385534 0.150019
O O13 0.296354 0.500000 0.961797
O O14 0.223573 0.392032 0.121177
O O15 0.221126 0.337059 0.987434
O O16 0.027906 0.222481 0.896917
O O17 0.000000 0.091387 0.000000
O O18 0.175533 0.305304 0.672987
O O19 0.720314 0.500000 0.816907
O O20 0.500000 0.643421 0.000000
#
# Coordination Sequence:
#
# PCOD9142519 Si02
#       8
#     4   4   4   4   4   4   4   4
#     4  10  20  32  50  74 100 132 163 199 243 284
#     4  10  21  36  51  68  91 124 170 215 251 288
#     4   9  16  25  42  64  88 126 168 204 236 273
#     4  10  20  31  46  72 100 130 167 200 235 284
#     4  10  20  33  50  68  90 123 165 207 251 288
#     4  10  18  32  47  67  97 127 166 205 245 285
#     4   9  18  34  53  71  96 130 163 196 236 284
#     4  10  18  29  45  67  95 129 166 201 241 286
#
# _framework density 18.221222000000001
#
# number of rings (size 3 to 8) (size 9 to 14) (size 15 to 20)
#    0.000    2.250    2.500    1.500    1.750    2.500 
#    0.000    2.500    0.000    3.000    0.000    0.000 
#    0.000    0.500    0.000    1.250    0.000    0.375 
#
# Total GULP energy -178196.155167 kJ/mol
# GULP energy per Si atom -5568.629849 kJ/mol
# Density = 1.817975 g / cm^3
# Si number density = 18.221222 Si / 1000 Ang^3
#
#
#
# Elastic Constant Matrix: (Units=GPa)
#
#
# Indices 1 2 3 4 5 6 
#
# 1 35.1819 13.7794 22.6036 0.0000 -7.2211 0.0000
# 2 13.7794 92.1056 15.1351 0.0000 -3.8213 0.0000
# 3 22.6036 15.1351 88.2944 0.0000 -14.3309 0.0000
# 4 0.0000 0.0000 0.0000 3.5146 0.0000 -4.1793
# 5 -7.2211 -3.8213 -14.3309 0.0000 34.5040 0.0000
# 6 0.0000 0.0000 0.0000 -4.1793 0.0000 9.5075
#
#
#
# Elastic Compliance Matrix: (Units=1/GPa)
#
#
# Indices 1 2 3 4 5 6 
#
# 1 0.035792 -0.003903 -0.007879 0.000000 0.003786 0.000000
# 2 -0.003903 0.011605 -0.000980 0.000000 0.000061 0.000000
# 3 -0.007879 -0.000980 0.014182 0.000000 0.004133 0.000000
# 4 0.000000 0.000000 0.000000 0.596149 0.000000 0.262057
# 5 0.003786 0.000061 0.004133 0.000000 0.031498 0.000000
# 6 0.000000 0.000000 0.000000 0.262057 0.000000 0.220375
#
#
# Mechanical properties :
#
#
# Convention : Reuss Voigt Hill
#
# Bulk Modulus (GPa) = 27.73663 35.40199 31.56931
# Shear Modulus (GPa) = 5.27904 20.44281 12.86092
#
# Velocity S-wave (km/s) = 1.70396 3.35315 2.65961
# Velocity P-wave (km/s) = 4.37339 5.87049 5.17635
#
# Compressibility (1/GPa) = 0.03605341
#
# Stress axis : x y z
#
# Youngs Moduli (GPa) = 27.93956 86.17288 70.51366
#
# Poissons Ratio (x) = 0.33631 0.55560
# Poissons Ratio (y) = 0.10904 0.06911
# Poissons Ratio (z) = 0.22014 0.08446
#
# Static dielectric constant tensor:
#      x y z
#    x 1.620960 0.000000 0.012230 
#    y 0.000000 1.629310 0.000000 
#    z 0.012230 0.000000 1.724940 
# 
# From -- ./inp_files/85937.got.cif
#   From: 2010.05.17/outbox.cif.g08.bks.cpg/sg10_43_cif.got.tgz:85937.got - 2010.06.03 11:33:40.
