data_PCOD9142956
_publ_section_title
;
Structure prediction by ZEFSAII (Michael W. Deem and Ramdas Pophale) SiO2 
 PCOD9142956
Probable space group: P 2/M
;
_chemical_formula_sum "Si O2"
_cell_formula_units_Z 32
_cell_length_a 14.938063
_cell_length_b 7.390947
_cell_length_c 14.742073
_cell_angle_alpha 90.000000
_cell_angle_beta 72.706210
_cell_angle_gamma 90.000000
_cell_volume 1554.039917
_symmetry_space_group_name_H-M "P 2/M"
_symmetry_group_IT_number 10
_symmetry_cell_setting 'monoclinic'
loop_
_space_group_symop_operation_xyz
x,y,z
-x,y,-z
-x,-y,-z
x,-y,z
loop_
_atom_site_type_symbol
_atom_site_label
_atom_site_fract_x
_atom_site_fract_y
_atom_site_fract_z
Si Si1 0.006233 0.219235 0.892511
Si Si2 0.500819 0.721549 0.105388
Si Si3 0.802280 0.211781 0.923247
Si Si4 0.304741 0.281676 0.863803
Si Si5 0.118430 0.720372 0.372422
Si Si6 0.806052 0.293454 0.269680
Si Si7 0.089601 0.279248 0.590206
Si Si8 0.697583 0.295781 0.782634
O O1 0.908017 0.278513 0.878235
O O2 0.097253 0.294317 0.816607
O O3 0.011208 0.000000 0.886749
O O4 0.000000 0.269397 0.000000
O O5 0.499182 0.500000 0.105447
O O6 0.594834 0.779096 0.128718
O O7 0.405989 0.785103 0.183483
O O8 0.500000 0.777712 0.000000
O O9 0.729605 0.303476 0.877961
O O10 0.800017 0.000000 0.902683
O O11 0.770999 0.233669 0.036362
O O12 0.306787 0.500000 0.858380
O O13 0.270316 0.213194 0.776294
O O14 0.118295 0.500000 0.366585
O O15 0.116091 0.768550 0.479430
O O16 0.212907 0.786183 0.295717
O O17 0.018286 0.779825 0.361517
O O18 0.776462 0.500000 0.296856
O O19 0.837978 0.212374 0.355946
O O20 0.089084 0.500000 0.594881
O O21 0.687693 0.500000 0.749606
#
# Coordination Sequence:
#
# PCOD9142956 Si02
#       8
#     4   4   4   4   4   4   4   4
#     4  10  20  32  42  58  92 128 149 174 221 274
#     4   9  16  28  45  64  89 119 151 191 230 264
#     4  11  21  31  44  64  92 123 149 184 227 269
#     4  10  19  31  45  63  88 121 155 188 224 263
#     4   8  14  25  45  68  91 116 143 181 229 279
#     4  10  19  29  47  69  89 117 156 195 221 256
#     4   8  14  26  42  68  97 113 137 187 238 264
#     4  10  18  30  50  69  86 117 158 190 221 272
#
# _framework density 20.591491999999999
#
# number of rings (size 3 to 8) (size 9 to 14) (size 15 to 20)
#    0.000    2.500    2.500    1.875    0.000    2.250 
#    0.000    1.250    0.000    1.500    0.000    8.750 
#    0.000    0.000    0.000    3.375    0.000    4.000 
#
# Total GULP energy -178620.056467 kJ/mol
# GULP energy per Si atom -5581.876765 kJ/mol
# Density = 2.054463 g / cm^3
# Si number density = 20.591492 Si / 1000 Ang^3
#
#
#
# Elastic Constant Matrix: (Units=GPa)
#
#
# Indices 1 2 3 4 5 6 
#
# 1 157.1241 6.1293 54.4664 0.0000 14.8599 0.0000
# 2 6.1293 75.2341 -0.7751 0.0000 0.4909 0.0000
# 3 54.4664 -0.7751 90.0020 0.0000 12.8675 0.0000
# 4 0.0000 0.0000 0.0000 50.9942 0.0000 -46.7342
# 5 14.8599 0.4909 12.8675 0.0000 37.9898 0.0000
# 6 0.0000 0.0000 0.0000 -46.7342 0.0000 17.8006
#
#
#
# Elastic Compliance Matrix: (Units=1/GPa)
#
#
# Indices 1 2 3 4 5 6 
#
# 1 0.008182 -0.000705 -0.004730 0.000000 -0.001589 0.000000
# 2 -0.000705 0.013356 0.000554 0.000000 -0.000084 0.000000
# 3 -0.004730 0.000554 0.014413 0.000000 -0.003039 0.000000
# 4 0.000000 0.000000 0.000000 -0.013946 0.000000 -0.036615
# 5 -0.001589 -0.000084 -0.003039 0.000000 0.027975 0.000000
# 6 0.000000 0.000000 0.000000 -0.036615 0.000000 -0.039953
#
#
# Mechanical properties :
#
#
# Convention : Reuss Voigt Hill
#
# Bulk Modulus (GPa) = 38.18689 49.11126 43.64907
# Shear Modulus (GPa) = 175.32969 38.85956 107.09463
#
# Velocity S-wave (km/s) = 9.23751 4.34887 7.21956
# Velocity P-wave (km/s) = 11.50481 7.00849 9.52574
#
# Compressibility (1/GPa) = 0.02618700
#
# Stress axis : x y z
#
# Youngs Moduli (GPa) = 122.22048 74.87535 69.38323
#
# Poissons Ratio (x) = 0.05278 0.32821
# Poissons Ratio (y) = 0.08616 -0.03842
# Poissons Ratio (z) = 0.57814 -0.04146
#
# Static dielectric constant tensor:
#      x y z
#    x 1.745390 0.000000 0.021200 
#    y 0.000000 1.763200 0.000000 
#    z 0.021200 0.000000 1.719160 
# 
# From -- ./inp_files/65983.got.cif
#   From: 2010.05.17/outbox.cif.g08.bks.cpg/sg10_33_cif.got.tgz:65983.got - 2010.06.03 11:33:40.
