data_PCOD9142037
_publ_section_title
;
Structure prediction by ZEFSAII (Michael W. Deem and Ramdas Pophale) SiO2 
 PCOD9142037
Probable space group: P 2/M
;
_chemical_formula_sum "Si O2"
_cell_formula_units_Z 32
_cell_length_a 19.479666
_cell_length_b 21.376371
_cell_length_c 11.280571
_cell_angle_alpha 90.000000
_cell_angle_beta 24.056295
_cell_angle_gamma 90.000000
_cell_volume 1914.771726
_symmetry_space_group_name_H-M "P 2/M"
_symmetry_group_IT_number 10
_symmetry_cell_setting 'monoclinic'
loop_
_space_group_symop_operation_xyz
x,y,z
-x,y,-z
-x,-y,-z
x,-y,z
loop_
_atom_site_type_symbol
_atom_site_label
_atom_site_fract_x
_atom_site_fract_y
_atom_site_fract_z
Si Si1 0.015242 0.932888 0.618717
Si Si2 0.588011 0.573197 0.987380
Si Si3 0.584263 0.932864 0.996469
Si Si4 0.018288 0.427026 0.612494
Si Si5 0.984249 0.204885 0.381812
Si Si6 0.501205 0.681949 0.696417
Si Si7 0.417021 0.795035 0.001105
Si Si8 0.783365 0.317768 0.058389
O O1 0.951767 0.864563 0.756564
O O2 0.000000 0.933122 0.500000
O O3 0.943359 0.000000 0.774643
O O4 0.213752 0.933108 0.334699
O O5 0.568383 0.500000 0.051267
O O6 0.513847 0.619298 0.202280
O O7 0.500000 0.583431 0.000000
O O8 0.787607 0.585576 0.661993
O O9 0.543832 0.864662 0.112702
O O10 0.538710 0.000000 0.126826
O O11 0.500000 0.933080 0.000000
O O12 0.980966 0.500000 0.694816
O O13 0.000000 0.416593 0.500000
O O14 0.893430 0.380441 0.875025
O O15 0.000000 0.210219 0.500000
O O16 0.785580 0.210501 0.667859
O O17 0.092557 0.259081 0.151960
O O18 0.481871 0.740834 0.813718
O O19 0.347051 0.683152 0.846102
O O20 0.671821 0.684476 0.352079
O O21 0.500000 0.790162 0.000000
#
# Coordination Sequence:
#
# PCOD9142037 Si02
#       8
#     4   4   4   4   4   4   4   4
#     4   8  14  23  40  68  94 119 160 210 250 284
#     4  10  21  38  59  81 105 132 163 203 252 301
#     4   8  14  25  43  69  97 123 157 205 253 292
#     4  10  19  35  58  80 100 128 171 210 240 291
#     4  10  17  31  52  71  97 135 172 207 247 297
#     4  11  22  35  51  76 106 136 167 209 252 293
#     4  10  19  32  52  76 101 131 170 211 251 299
#     4  11  22  34  52  76 105 135 171 209 247 293
#
# _framework density 16.712175999999999
#
# number of rings (size 3 to 8) (size 9 to 14) (size 15 to 20)
#    0.000    2.250    2.500    1.500    0.000    0.500 
#    0.000    3.750    0.000    3.000    0.000    1.750 
#    0.000   10.000    0.000    0.000    0.000    0.000 
#
# Total GULP energy -178241.501739 kJ/mol
# GULP energy per Si atom -5570.046929 kJ/mol
# Density = 1.667414 g / cm^3
# Si number density = 16.712176 Si / 1000 Ang^3
#
#
#
# Elastic Constant Matrix: (Units=GPa)
#
#
# Indices 1 2 3 4 5 6 
#
# 1 71.3761 45.3593 47.7743 0.0000 -16.3719 0.0000
# 2 45.3593 155.0566 87.6422 0.0000 16.0968 0.0000
# 3 47.7743 87.6422 90.8672 0.0000 -2.2496 0.0000
# 4 0.0000 0.0000 0.0000 4.2781 0.0000 -10.9080
# 5 -16.3719 16.0968 -2.2496 0.0000 26.5697 0.0000
# 6 0.0000 0.0000 0.0000 -10.9080 0.0000 15.4939
#
#
#
# Elastic Compliance Matrix: (Units=1/GPa)
#
#
# Indices 1 2 3 4 5 6 
#
# 1 0.027841 -0.004683 -0.009647 0.000000 0.019176 0.000000
# 2 -0.004683 0.018047 -0.015318 0.000000 -0.015116 0.000000
# 3 -0.009647 -0.015318 0.030999 0.000000 0.005961 0.000000
# 4 0.000000 0.000000 0.000000 -0.294012 0.000000 -0.206989
# 5 0.019176 -0.015116 0.005961 0.000000 0.059115 0.000000
# 6 0.000000 0.000000 0.000000 -0.206989 0.000000 -0.081182
#
#
# Mechanical properties :
#
#
# Convention : Reuss Voigt Hill
#
# Bulk Modulus (GPa) = 56.84483 75.42793 66.13638
# Shear Modulus (GPa) = -28.73036 18.36996 -5.18020
#
# Velocity S-wave (km/s) = -4.15073 3.31901 -1.76249
# Velocity P-wave (km/s) = 3.33413 7.74075 5.95968
#
# Compressibility (1/GPa) = 0.01759175
#
# Stress axis : x y z
#
# Youngs Moduli (GPa) = 35.91778 55.41185 32.25881
#
# Poissons Ratio (x) = 0.25947 0.31119
# Poissons Ratio (y) = 0.16819 0.49416
# Poissons Ratio (z) = 0.34649 0.84882
#
# Static dielectric constant tensor:
#      x y z
#    x 1.545680 0.000000 -0.027280 
#    y 0.000000 1.622820 0.000000 
#    z -0.027280 0.000000 1.517630 
# 
# From -- ./inp_files/56139.got.cif
#   From: 2010.05.17/outbox.cif.g08.bks.cpg/sg10_29_cif.got.tgz:56139.got - 2010.06.03 11:33:40.
