data_PCOD9142768
_publ_section_title
;
Structure prediction by ZEFSAII (Michael W. Deem and Ramdas Pophale) SiO2 
 PCOD9142768
Probable space group: P 2/M
;
_chemical_formula_sum "Si O2"
_cell_formula_units_Z 32
_cell_length_a 24.094759
_cell_length_b 9.212663
_cell_length_c 13.952213
_cell_angle_alpha 90.000000
_cell_angle_beta 30.412121
_cell_angle_gamma 90.000000
_cell_volume 1567.786516
_symmetry_space_group_name_H-M "P 2/M"
_symmetry_group_IT_number 10
_symmetry_cell_setting 'monoclinic'
loop_
_space_group_symop_operation_xyz
x,y,z
-x,y,-z
-x,-y,-z
x,-y,z
loop_
_atom_site_type_symbol
_atom_site_label
_atom_site_fract_x
_atom_site_fract_y
_atom_site_fract_z
Si Si1 0.220675 0.334418 0.595280
Si Si2 0.353002 0.328431 0.043840
Si Si3 0.989044 0.330258 0.314199
Si Si4 0.873887 0.670637 0.071883
Si Si5 0.556760 0.668280 0.610350
Si Si6 0.229381 0.171450 0.384978
Si Si7 0.775978 0.671337 0.950102
Si Si8 0.329139 0.827888 0.723239
O O1 0.207034 0.500000 0.579821
O O2 0.126214 0.303801 0.814534
O O3 0.331901 0.328814 0.492662
O O4 0.230635 0.228057 0.491933
O O5 0.363434 0.500000 0.049808
O O6 0.326879 0.241559 0.178150
O O7 0.254055 0.308802 0.115425
O O8 0.460064 0.282452 0.824689
O O9 0.964946 0.500000 0.369476
O O10 0.884494 0.232792 0.488320
O O11 0.099343 0.289935 0.207805
O O12 0.022124 0.316202 0.152261
O O13 0.838244 0.500000 0.114028
O O14 0.783150 0.777507 0.162881
O O15 0.534623 0.500000 0.616971
O O16 0.577399 0.759992 0.483723
O O17 0.233276 0.000000 0.374869
O O18 0.764164 0.500000 0.990404
O O19 0.690183 0.757391 0.144106
O O20 0.339526 0.000000 0.713247
#
# Coordination Sequence:
#
# PCOD9142768 Si02
#       8
#     4   4   4   4   4   4   4   4
#     4   9  18  36  60  83 109 142 181 224 271 323
#     4  10  22  41  62  81 103 140 192 238 271 314
#     4   9  18  36  60  83 109 142 181 224 271 323
#     4   8  16  33  58  85 110 140 182 227 269 319
#     4   9  19  37  61  85 109 141 183 229 272 318
#     4  12  26  39  52  77 113 148 184 228 277 330
#     4   9  19  37  61  85 109 141 183 229 272 318
#     4  10  18  29  52  85 120 150 174 211 269 333
#
# _framework density 20.410944000000001
#
# number of rings (size 3 to 8) (size 9 to 14) (size 15 to 20)
#    0.000    2.500    0.000    3.750    0.000    7.000 
#    0.000   10.000    0.000    0.000    0.000    0.000 
#    0.000    0.000    0.000    0.000    0.000    0.000 
#
# Total GULP energy -178669.826855 kJ/mol
# GULP energy per Si atom -5583.432089 kJ/mol
# Density = 2.036449 g / cm^3
# Si number density = 20.410944 Si / 1000 Ang^3
#
#
#
# Elastic Constant Matrix: (Units=GPa)
#
#
# Indices 1 2 3 4 5 6 
#
# 1 30.8682 7.9428 9.3019 0.0000 3.5128 0.0000
# 2 7.9428 74.4462 43.3528 0.0000 18.8130 0.0000
# 3 9.3019 43.3528 85.5191 0.0000 15.3760 0.0000
# 4 0.0000 0.0000 0.0000 4.0353 0.0000 -0.6704
# 5 3.5128 18.8130 15.3760 0.0000 25.0916 0.0000
# 6 0.0000 0.0000 0.0000 -0.6704 0.0000 2.5911
#
#
#
# Elastic Compliance Matrix: (Units=1/GPa)
#
#
# Indices 1 2 3 4 5 6 
#
# 1 0.033795 -0.001666 -0.002478 0.000000 -0.001963 0.000000
# 2 -0.001666 0.021344 -0.008770 0.000000 -0.010396 0.000000
# 3 -0.002478 -0.008770 0.017042 0.000000 -0.003521 0.000000
# 4 0.000000 0.000000 0.000000 0.258945 0.000000 0.066998
# 5 -0.001963 -0.010396 -0.003521 0.000000 0.050081 0.000000
# 6 0.000000 0.000000 0.000000 0.066998 0.000000 0.403277
#
#
# Mechanical properties :
#
#
# Convention : Reuss Voigt Hill
#
# Bulk Modulus (GPa) = 21.57403 34.66984 28.12193
# Shear Modulus (GPa) = 6.05501 15.02600 10.54050
#
# Velocity S-wave (km/s) = 1.72424 2.71620 2.27494
# Velocity P-wave (km/s) = 3.81533 5.18264 4.55063
#
# Compressibility (1/GPa) = 0.04635204
#
# Stress axis : x y z
#
# Youngs Moduli (GPa) = 29.59040 46.85057 58.67995
#
# Poissons Ratio (x) = 0.07807 0.14542
# Poissons Ratio (y) = 0.04931 0.51461
# Poissons Ratio (z) = 0.07333 0.41087
#
# Static dielectric constant tensor:
#      x y z
#    x 1.763700 0.000000 -0.021800 
#    y 0.000000 1.670230 0.000000 
#    z -0.021800 0.000000 1.749770 
# 
# From -- ./inp_files/72201.got.cif
#   From: 2010.05.17/outbox.cif.g08.bks.cpg/sg10_37_cif.got.tgz:72201.got - 2010.06.03 11:33:40.
