data_PCOD9142815
_publ_section_title
;
Structure prediction by ZEFSAII (Michael W. Deem and Ramdas Pophale) SiO2 
 PCOD9142815
Probable space group: P 2/M
;
_chemical_formula_sum "Si O2"
_cell_formula_units_Z 32
_cell_length_a 20.789161
_cell_length_b 13.938292
_cell_length_c 20.344678
_cell_angle_alpha 90.000000
_cell_angle_beta 159.655991
_cell_angle_gamma 90.000000
_cell_volume 2049.495646
_symmetry_space_group_name_H-M "P 2/M"
_symmetry_group_IT_number 10
_symmetry_cell_setting 'monoclinic'
loop_
_space_group_symop_operation_xyz
x,y,z
-x,y,-z
-x,-y,-z
x,-y,z
loop_
_atom_site_type_symbol
_atom_site_label
_atom_site_fract_x
_atom_site_fract_y
_atom_site_fract_z
Si Si1 0.871583 0.610233 0.651642
Si Si2 0.406030 0.612492 0.737957
Si Si3 0.213191 0.109934 0.225643
Si Si4 0.384168 0.888189 0.249153
Si Si5 0.915254 0.110928 0.152201
Si Si6 0.041084 0.614032 0.462796
Si Si7 0.249247 0.206719 0.399535
Si Si8 0.808519 0.703253 0.125032
O O1 0.878010 0.500000 0.677720
O O2 0.716164 0.621498 0.445553
O O3 0.814122 0.684543 0.652382
O O4 0.067856 0.642456 0.808821
O O5 0.456656 0.500000 0.794062
O O6 0.253899 0.637530 0.648003
O O7 0.593864 0.673219 0.917951
O O8 0.326715 0.134545 0.268958
O O9 0.237497 0.173055 0.313148
O O10 0.259618 0.000000 0.288014
O O11 0.000000 0.112102 0.000000
O O12 0.543415 0.816423 0.379949
O O13 0.445948 0.000000 0.306753
O O14 0.213778 0.881136 0.036137
O O15 0.842814 0.186627 0.136588
O O16 0.114758 0.144492 0.317252
O O17 0.915506 0.000000 0.173686
O O18 0.017040 0.500000 0.423457
O O19 0.000000 0.626972 0.500000
O O20 0.902893 0.674731 0.284677
#
# Coordination Sequence:
#
# PCOD9142815 Si02
#       8
#     4   4   4   4   4   4   4   4
#     4   9  19  32  46  68  94 121 157 197 227 267
#     4   9  16  29  49  71  96 122 153 188 228 274
#     4  10  18  30  47  67  92 118 148 191 241 288
#     4  10  19  30  47  70  93 116 149 192 239 288
#     4  10  20  32  46  70  98 120 151 195 232 271
#     4   9  18  31  48  75 104 123 150 193 230 265
#     4  11  19  30  49  68  90 124 155 187 238 288
#     4  10  18  30  50  71  94 128 156 183 228 279
#
# _framework density 15.613597
#
# number of rings (size 3 to 8) (size 9 to 14) (size 15 to 20)
#    0.000    2.250    1.250    4.125    0.000    1.500 
#    0.000    1.875    0.000    2.250    0.000    0.875 
#    0.000    0.000    0.000    0.000    0.000    0.000 
#
# Total GULP energy -178399.458693 kJ/mol
# GULP energy per Si atom -5574.983084 kJ/mol
# Density = 1.557806 g / cm^3
# Si number density = 15.613597 Si / 1000 Ang^3
#
#
#
# Elastic Constant Matrix: (Units=GPa)
#
#
# Indices 1 2 3 4 5 6 
#
# 1 78.5418 54.4647 29.1714 0.0000 6.1809 0.0000
# 2 54.4647 106.6661 34.9963 0.0000 8.5120 0.0000
# 3 29.1714 34.9963 65.5719 0.0000 23.9357 0.0000
# 4 0.0000 0.0000 0.0000 19.1615 0.0000 -3.8941
# 5 6.1809 8.5120 23.9357 0.0000 20.2504 0.0000
# 6 0.0000 0.0000 0.0000 -3.8941 0.0000 33.6689
#
#
#
# Elastic Compliance Matrix: (Units=1/GPa)
#
#
# Indices 1 2 3 4 5 6 
#
# 1 0.020929 -0.009020 -0.006242 0.000000 0.004782 0.000000
# 2 -0.009020 0.015460 -0.005050 0.000000 0.002224 0.000000
# 3 -0.006242 -0.005050 0.033863 0.000000 -0.035998 0.000000
# 4 0.000000 0.000000 0.000000 0.053444 0.000000 0.006181
# 5 0.004782 0.002224 -0.035998 0.000000 0.089536 0.000000
# 6 0.000000 0.000000 0.000000 0.006181 0.000000 0.030416
#
#
# Mechanical properties :
#
#
# Convention : Reuss Voigt Hill
#
# Bulk Modulus (GPa) = 33.75272 54.22718 43.98995
# Shear Modulus (GPa) = 16.99813 23.42599 20.21206
#
# Velocity S-wave (km/s) = 3.30309 3.87765 3.60184
# Velocity P-wave (km/s) = 6.01761 7.40637 6.74781
#
# Compressibility (1/GPa) = 0.02962725
#
# Stress axis : x y z
#
# Youngs Moduli (GPa) = 47.77991 64.68172 29.53077
#
# Poissons Ratio (x) = 0.58345 0.18434
# Poissons Ratio (y) = 0.43099 0.14914
# Poissons Ratio (z) = 0.29826 0.32665
#
# Static dielectric constant tensor:
#      x y z
#    x 1.510300 0.000000 0.005540 
#    y 0.000000 1.514630 0.000000 
#    z 0.005540 0.000000 1.537850 
# 
# From -- ./inp_files/85975.got.cif
#   From: 2010.05.17/outbox.cif.g08.bks.cpg/sg10_43_cif.got.tgz:85975.got - 2010.06.03 11:33:40.
