data_PCOD9142308
_publ_section_title
;
Structure prediction by ZEFSAII (Michael W. Deem and Ramdas Pophale) SiO2 
 PCOD9142308
Probable space group: P 2/M
;
_chemical_formula_sum "Si O2"
_cell_formula_units_Z 32
_cell_length_a 19.912556
_cell_length_b 7.378918
_cell_length_c 28.483703
_cell_angle_alpha 90.000000
_cell_angle_beta 21.877836
_cell_angle_gamma 90.000000
_cell_volume 1559.525937
_symmetry_space_group_name_H-M "P 2/M"
_symmetry_group_IT_number 10
_symmetry_cell_setting 'monoclinic'
loop_
_space_group_symop_operation_xyz
x,y,z
-x,y,-z
-x,-y,-z
x,-y,z
loop_
_atom_site_type_symbol
_atom_site_label
_atom_site_fract_x
_atom_site_fract_y
_atom_site_fract_z
Si Si1 0.179875 0.204590 0.590555
Si Si2 0.199504 0.778451 0.383797
Si Si3 0.073489 0.777343 0.164725
Si Si4 0.357418 0.777503 0.382245
Si Si5 0.085717 0.781071 0.832804
Si Si6 0.729123 0.211705 0.107314
Si Si7 0.437943 0.787856 0.889940
Si Si8 0.507115 0.711088 0.441987
O O1 0.028824 0.285845 0.722542
O O2 0.244518 0.287869 0.499884
O O3 0.359560 0.196794 0.505536
O O4 0.118620 0.000000 0.619271
O O5 0.259461 0.727638 0.397396
O O6 0.360442 0.714549 0.245121
O O7 0.000000 0.718805 0.500000
O O8 0.201057 0.000000 0.381548
O O9 0.968878 0.723551 0.184812
O O10 0.071024 0.000000 0.166266
O O11 0.279682 0.715150 0.025445
O O12 0.566622 0.715140 0.244636
O O13 0.364516 0.000000 0.379111
O O14 0.290672 0.728171 0.708472
O O15 0.076952 0.000000 0.839013
O O16 0.931006 0.714705 0.969171
O O17 0.645202 0.219954 0.108941
O O18 0.749446 0.000000 0.106955
O O19 0.455207 0.000000 0.890554
O O20 0.500000 0.782133 0.500000
O O21 0.457262 0.500000 0.476100
#
# Coordination Sequence:
#
# PCOD9142308 Si02
#       8
#     4   4   4   4   4   4   4   4
#     4  10  18  28  44  61  80 109 143 178 208 243
#     4   8  12  19  34  56  84 116 140 160 197 249
#     4   8  13  21  36  57  75  97 135 178 210 230
#     4   8  14  24  38  60  85 107 139 175 203 237
#     4   9  15  26  45  62  76 100 141 182 208 240
#     4   7  11  21  38  58  77  98 131 177 211 230
#     4   7  10  17  30  51  77 102 134 170 197 231
#     4  11  22  32  41  58  85 110 134 172 219 258
#
# _framework density 20.519055000000002
#
# number of rings (size 3 to 8) (size 9 to 14) (size 15 to 20)
#    0.000    3.500    1.250    3.375    0.000    0.500 
#    0.000    0.625    0.000    5.250    0.000    5.250 
#    0.000    0.500    0.000    2.625    0.000    7.500 
#
# Total GULP energy -178278.319458 kJ/mol
# GULP energy per Si atom -5571.197483 kJ/mol
# Density = 2.047235 g / cm^3
# Si number density = 20.519055 Si / 1000 Ang^3
#
#
#
# Elastic Constant Matrix: (Units=GPa)
#
#
# Indices 1 2 3 4 5 6 
#
# 1 39.6279 -1.1032 55.0852 0.0000 12.9723 0.0000
# 2 -1.1032 72.8530 3.0206 0.0000 4.0351 0.0000
# 3 55.0852 3.0206 216.7099 0.0000 15.5684 0.0000
# 4 0.0000 0.0000 0.0000 -176.7861 0.0000 68.0062
# 5 12.9723 4.0351 15.5684 0.0000 33.2375 0.0000
# 6 0.0000 0.0000 0.0000 68.0062 0.0000 -43.9413
#
#
#
# Elastic Compliance Matrix: (Units=1/GPa)
#
#
# Indices 1 2 3 4 5 6 
#
# 1 0.043524 0.001770 -0.010195 0.000000 -0.012426 0.000000
# 2 0.001770 0.013892 -0.000489 0.000000 -0.002148 0.000000
# 3 -0.010195 -0.000489 0.007164 0.000000 0.000683 0.000000
# 4 0.000000 0.000000 0.000000 -0.013979 0.000000 -0.021635
# 5 -0.012426 -0.002148 0.000683 0.000000 0.034877 0.000000
# 6 0.000000 0.000000 0.000000 -0.021635 0.000000 -0.056241
#
#
# Mechanical properties :
#
#
# Convention : Reuss Voigt Hill
#
# Bulk Modulus (GPa) = 21.38988 49.24400 35.31694
# Shear Modulus (GPa) = 79.80895 -19.35209 30.22843
#
# Velocity S-wave (km/s) = 6.24335 -3.07437 3.84238
# Velocity P-wave (km/s) = 7.90061 3.38362 6.07736
#
# Compressibility (1/GPa) = 0.04675109
#
# Stress axis : x y z
#
# Youngs Moduli (GPa) = 22.97589 71.98205 139.59208
#
# Poissons Ratio (x) = -0.12741 1.42317
# Poissons Ratio (y) = -0.04067 0.06829
# Poissons Ratio (z) = 0.23424 0.03522
#
# Static dielectric constant tensor:
#      x y z
#    x 1.687640 0.000000 0.030390 
#    y 0.000000 1.794990 0.000000 
#    z 0.030390 0.000000 1.781500 
# 
# From -- ./inp_files/95694.got.cif
#   From: 2010.05.17/outbox.cif.g08.bks.cpg/sg10_48_cif.got.tgz:95694.got - 2010.06.03 11:33:40.
