data_PCOD9142508
_publ_section_title
;
Structure prediction by ZEFSAII (Michael W. Deem and Ramdas Pophale) SiO2 
 PCOD9142508
Probable space group: P 2/M
;
_chemical_formula_sum "Si O2"
_cell_formula_units_Z 32
_cell_length_a 19.755862
_cell_length_b 7.198345
_cell_length_c 12.835108
_cell_angle_alpha 90.000000
_cell_angle_beta 41.218893
_cell_angle_gamma 90.000000
_cell_volume 1202.741820
_symmetry_space_group_name_H-M "P 2/M"
_symmetry_group_IT_number 10
_symmetry_cell_setting 'monoclinic'
loop_
_space_group_symop_operation_xyz
x,y,z
-x,y,-z
-x,-y,-z
x,-y,z
loop_
_atom_site_type_symbol
_atom_site_label
_atom_site_fract_x
_atom_site_fract_y
_atom_site_fract_z
Si Si1 0.989950 0.274472 0.345654
Si Si2 0.164277 0.724515 0.290617
Si Si3 0.750368 0.708690 0.086292
Si Si4 0.818682 0.726845 0.392428
Si Si5 0.887792 0.273326 0.093051
Si Si6 0.398607 0.709336 0.310829
Si Si7 0.375097 0.273575 0.967501
Si Si8 0.397087 0.222327 0.556369
O O1 0.994480 0.500000 0.336742
O O2 0.908705 0.220654 0.530572
O O3 0.926373 0.216916 0.318241
O O4 0.102217 0.216974 0.257632
O O5 0.165259 0.500000 0.292104
O O6 0.283142 0.780856 0.151796
O O7 0.774792 0.500000 0.021182
O O8 0.852803 0.792304 0.019362
O O9 0.674087 0.786163 0.087066
O O10 0.686925 0.700289 0.267266
O O11 0.815637 0.500000 0.397803
O O12 0.818150 0.783119 0.272597
O O13 0.715792 0.789723 0.571424
O O14 0.888614 0.500000 0.085966
O O15 0.000000 0.217579 0.000000
O O16 0.394976 0.500000 0.271444
O O17 0.508436 0.791639 0.149681
O O18 0.404676 0.703315 0.430402
O O19 0.382551 0.500000 0.957111
O O20 0.500000 0.264644 0.500000
O O21 0.386610 0.000000 0.561675
#
# Coordination Sequence:
#
# PCOD9142508 Si02
#       8
#     4   4   4   4   4   4   4   4
#     4   8  14  24  39  57  86 122 149 178 223 274
#     4   8  14  25  38  58  87 119 149 180 223 273
#     4  10  18  29  45  65  89 122 154 186 223 263
#     4   9  16  25  39  59  85 118 152 182 218 265
#     4   9  17  25  37  62  90 113 147 191 225 257
#     4  10  18  30  45  64  90 119 151 187 224 268
#     4   9  17  25  40  61  84 114 152 186 218 263
#     4  11  21  31  44  63  89 121 156 191 223 265
#
# _framework density 26.605877
#
# number of rings (size 3 to 8) (size 9 to 14) (size 15 to 20)
#    0.000    2.750    2.500    1.125    1.750    0.500 
#    0.000    0.625    0.000    4.125    0.000    0.000 
#    0.000    3.000    0.000    6.875    0.000    6.250 
#
# Total GULP energy -178691.748941 kJ/mol
# GULP energy per Si atom -5584.117154 kJ/mol
# Density = 2.654532 g / cm^3
# Si number density = 26.605877 Si / 1000 Ang^3
#
#
#
# Elastic Constant Matrix: (Units=GPa)
#
#
# Indices 1 2 3 4 5 6 
#
# 1 53.4657 -2.1517 8.1757 0.0000 -20.9088 0.0000
# 2 -2.1517 130.4870 -5.5083 0.0000 -5.6728 0.0000
# 3 8.1757 -5.5083 126.6532 0.0000 -41.5171 0.0000
# 4 0.0000 0.0000 0.0000 8.8638 0.0000 19.0354
# 5 -20.9088 -5.6728 -41.5171 0.0000 58.2466 0.0000
# 6 0.0000 0.0000 0.0000 19.0354 0.0000 -40.6432
#
#
#
# Elastic Compliance Matrix: (Units=1/GPa)
#
#
# Indices 1 2 3 4 5 6 
#
# 1 0.022070 0.000830 0.001611 0.000000 0.009152 0.000000
# 2 0.000830 0.007783 0.000823 0.000000 0.001643 0.000000
# 3 0.001611 0.000823 0.010496 0.000000 0.008140 0.000000
# 4 0.000000 0.000000 0.000000 0.056246 0.000000 0.026343
# 5 0.009152 0.001643 0.008140 0.000000 0.026415 0.000000
# 6 0.000000 0.000000 0.000000 0.026343 0.000000 -0.012267
#
#
# Mechanical properties :
#
#
# Convention : Reuss Voigt Hill
#
# Bulk Modulus (GPa) = 21.33197 34.62637 27.97917
# Shear Modulus (GPa) = 41.72225 25.96609 33.84417
#
# Velocity S-wave (km/s) = 3.96429 3.12741 3.57046
# Velocity P-wave (km/s) = 5.38418 5.10723 5.24753
#
# Compressibility (1/GPa) = 0.04687800
#
# Stress axis : x y z
#
# Youngs Moduli (GPa) = 45.31132 128.47746 95.27815
#
# Poissons Ratio (x) = -0.10661 -0.15353
# Poissons Ratio (y) = -0.03760 -0.07846
# Poissons Ratio (z) = -0.07302 -0.10580
#
# Static dielectric constant tensor:
#      x y z
#    x 2.082730 0.000000 -0.044850 
#    y 0.000000 2.044090 0.000000 
#    z -0.044850 0.000000 2.160320 
# 
# From -- ./inp_files/69997.got.cif
#   From: 2010.05.17/outbox.cif.g08.bks.cpg/sg10_35_cif.got.tgz:69997.got - 2010.06.03 11:33:40.
