data_PCOD9142473
_publ_section_title
;
Structure prediction by ZEFSAII (Michael W. Deem and Ramdas Pophale) SiO2 
 PCOD9142473
Probable space group: P 2/M
;
_chemical_formula_sum "Si O2"
_cell_formula_units_Z 32
_cell_length_a 15.661908
_cell_length_b 7.499404
_cell_length_c 14.550593
_cell_angle_alpha 90.000000
_cell_angle_beta 84.697996
_cell_angle_gamma 90.000000
_cell_volume 1701.727362
_symmetry_space_group_name_H-M "P 2/M"
_symmetry_group_IT_number 10
_symmetry_cell_setting 'monoclinic'
loop_
_space_group_symop_operation_xyz
x,y,z
-x,y,-z
-x,-y,-z
x,-y,z
loop_
_atom_site_type_symbol
_atom_site_label
_atom_site_fract_x
_atom_site_fract_y
_atom_site_fract_z
Si Si1 0.621089 0.707200 0.180237
Si Si2 0.405424 0.214930 0.616038
Si Si3 0.604920 0.782635 0.585294
Si Si4 0.543336 0.796931 0.905021
Si Si5 0.851834 0.714319 0.856627
Si Si6 0.031102 0.292840 0.890169
Si Si7 0.209007 0.281050 0.936781
Si Si8 0.690150 0.212774 0.762333
O O1 0.609062 0.500000 0.158506
O O2 0.638821 0.722180 0.286669
O O3 0.531977 0.799599 0.163132
O O4 0.700547 0.777119 0.112922
O O5 0.370343 0.274441 0.520354
O O6 0.505664 0.269490 0.610066
O O7 0.403812 0.000000 0.617416
O O8 0.661438 0.720098 0.665280
O O9 0.606456 0.000000 0.584467
O O10 0.626590 0.714503 0.848388
O O11 0.566730 0.000000 0.929233
O O12 0.500000 0.713877 0.000000
O O13 0.858196 0.500000 0.862986
O O14 0.949674 0.783547 0.843730
O O15 0.787681 0.756482 0.781048
O O16 0.808246 0.775577 0.956691
O O17 0.039891 0.500000 0.861868
O O18 0.127206 0.218980 0.884700
O O19 0.000000 0.290252 0.000000
O O20 0.208434 0.500000 0.935653
O O21 0.675310 0.000000 0.762376
#
# Coordination Sequence:
#
# PCOD9142473 Si02
#       8
#     4   4   4   4   4   4   4   4
#     4  11  20  28  42  66  92 115 138 174 223 259
#     4   9  16  31  50  62  77 107 150 186 211 253
#     4   8  15  29  49  63  75 108 150 183 213 250
#     4  10  20  32  44  58  83 122 158 177 195 241
#     4   9  16  27  45  66  85 111 147 179 206 243
#     4   7  11  23  43  62  80 108 146 179 203 240
#     4   8  15  27  42  62  89 117 143 171 208 255
#     4  10  18  29  43  62  87 113 141 173 215 257
#
# _framework density 18.804421000000001
#
# number of rings (size 3 to 8) (size 9 to 14) (size 15 to 20)
#    0.000    3.000    1.250    3.375    0.000    0.750 
#    0.000    2.500    0.000    4.875    0.000    0.875 
#    0.000    7.000    0.000    0.000    0.000    0.000 
#
# Total GULP energy -178341.243979 kJ/mol
# GULP energy per Si atom -5573.163874 kJ/mol
# Density = 1.876162 g / cm^3
# Si number density = 18.804421 Si / 1000 Ang^3
#
#
#
# Elastic Constant Matrix: (Units=GPa)
#
#
# Indices 1 2 3 4 5 6 
#
# 1 68.3188 -1.2852 7.3266 0.0000 28.3028 0.0000
# 2 -1.2852 51.6856 -0.4419 0.0000 -0.0993 0.0000
# 3 7.3266 -0.4419 72.7621 0.0000 26.1325 0.0000
# 4 0.0000 0.0000 0.0000 3.4059 0.0000 -4.0202
# 5 28.3028 -0.0993 26.1325 0.0000 28.1497 0.0000
# 6 0.0000 0.0000 0.0000 -4.0202 0.0000 -8.9807
#
#
#
# Elastic Compliance Matrix: (Units=1/GPa)
#
#
# Indices 1 2 3 4 5 6 
#
# 1 0.030840 0.000789 0.012054 0.000000 -0.042194 0.000000
# 2 0.000789 0.019369 0.000448 0.000000 -0.001140 0.000000
# 3 0.012054 0.000448 0.025330 0.000000 -0.035632 0.000000
# 4 0.000000 0.000000 0.000000 0.192104 0.000000 -0.085995
# 5 -0.042194 -0.001140 -0.035632 0.000000 0.111023 0.000000
# 6 0.000000 0.000000 0.000000 -0.085995 0.000000 -0.072855
#
#
# Mechanical properties :
#
#
# Convention : Reuss Voigt Hill
#
# Bulk Modulus (GPa) = 9.79253 22.66285 16.22769
# Shear Modulus (GPa) = 15.96066 16.99277 16.47671
#
# Velocity S-wave (km/s) = 2.91653 3.00935 2.96330
# Velocity P-wave (km/s) = 4.06945 4.91457 4.51184
#
# Compressibility (1/GPa) = 0.10211869
#
# Stress axis : x y z
#
# Youngs Moduli (GPa) = 32.42588 51.62885 39.47927
#
# Poissons Ratio (x) = -0.04072 -0.47587
# Poissons Ratio (y) = -0.02558 -0.01768
# Poissons Ratio (z) = -0.39085 -0.02312
#
# Static dielectric constant tensor:
#      x y z
#    x 1.664930 0.000000 0.022860 
#    y 0.000000 1.727300 0.000000 
#    z 0.022860 0.000000 1.666590 
# 
# From -- ./inp_files/66032.got.cif
#   From: 2010.05.17/outbox.cif.g08.bks.cpg/sg10_34_cif.got.tgz:66032.got - 2010.06.03 11:33:40.
