data_PCOD9142566
_publ_section_title
;
Structure prediction by ZEFSAII (Michael W. Deem and Ramdas Pophale) SiO2 
 PCOD9142566
Probable space group: P 2/M
;
_chemical_formula_sum "Si O2"
_cell_formula_units_Z 32
_cell_length_a 18.426485
_cell_length_b 13.866260
_cell_length_c 21.414315
_cell_angle_alpha 90.000000
_cell_angle_beta 160.439716
_cell_angle_gamma 90.000000
_cell_volume 1831.848274
_symmetry_space_group_name_H-M "P 2/M"
_symmetry_group_IT_number 10
_symmetry_cell_setting 'monoclinic'
loop_
_space_group_symop_operation_xyz
x,y,z
-x,y,-z
-x,-y,-z
x,-y,z
loop_
_atom_site_type_symbol
_atom_site_label
_atom_site_fract_x
_atom_site_fract_y
_atom_site_fract_z
Si Si1 0.701476 0.389892 0.709828
Si Si2 0.961753 0.612037 0.117466
Si Si3 0.132588 0.384895 0.465872
Si Si4 0.125329 0.729910 0.831614
Si Si5 0.364823 0.235356 0.731670
Si Si6 0.104853 0.888421 0.430673
Si Si7 0.718156 0.109097 0.217446
Si Si8 0.517468 0.389346 0.686871
O O1 0.500000 0.394619 0.500000
O O2 0.771051 0.500000 0.782626
O O3 0.611357 0.342450 0.699952
O O4 0.897292 0.350409 0.826868
O O5 0.028371 0.500000 0.183802
O O6 0.974180 0.676430 0.188771
O O7 0.713981 0.610111 0.894783
O O8 0.123693 0.500000 0.464938
O O9 0.227987 0.331164 0.603634
O O10 0.308326 0.356547 0.554617
O O11 0.913402 0.339049 0.260359
O O12 0.997619 0.827241 0.709209
O O13 0.379095 0.747003 0.051337
O O14 0.309792 0.163670 0.629097
O O15 0.280714 0.184878 0.726194
O O16 0.919394 0.883635 0.333912
O O17 0.144370 0.000000 0.447546
O O18 0.716466 0.000000 0.242794
O O19 0.500000 0.120793 0.000000
O O20 0.465774 0.500000 0.626952
#
# Coordination Sequence:
#
# PCOD9142566 Si02
#       8
#     4   4   4   4   4   4   4   4
#     4   9  16  25  40  65  97 137 179 218 259 298
#     4  10  18  29  46  70 105 145 179 212 251 297
#     4  10  21  35  51  73 106 148 187 218 250 295
#     4  11  21  33  52  78 107 140 175 212 254 312
#     4  11  21  34  55  81 106 138 173 212 254 311
#     4  10  22  38  58  84 108 130 160 206 268 328
#     4  10  19  35  60  86 108 129 157 204 271 331
#     4   9  16  28  45  67  98 140 183 217 256 299
#
# _framework density 17.468696000000001
#
# number of rings (size 3 to 8) (size 9 to 14) (size 15 to 20)
#    0.000    2.000    2.500    2.250    0.000    5.500 
#    0.000    0.000    0.000    7.125    0.000    0.000 
#    0.000   15.500    0.000    1.125    0.000    0.000 
#
# Total GULP energy -178358.571545 kJ/mol
# GULP energy per Si atom -5573.705361 kJ/mol
# Density = 1.742894 g / cm^3
# Si number density = 17.468696 Si / 1000 Ang^3
#
#
#
# Elastic Constant Matrix: (Units=GPa)
#
#
# Indices 1 2 3 4 5 6 
#
# 1 66.4983 33.8570 12.9723 0.0000 -10.7519 0.0000
# 2 33.8570 105.5846 34.7488 0.0000 -17.2651 0.0000
# 3 12.9723 34.7488 110.4059 0.0000 -15.1003 0.0000
# 4 0.0000 0.0000 0.0000 17.9879 0.0000 -3.7367
# 5 -10.7519 -17.2651 -15.1003 0.0000 24.4100 0.0000
# 6 0.0000 0.0000 0.0000 -3.7367 0.0000 14.8222
#
#
#
# Elastic Compliance Matrix: (Units=1/GPa)
#
#
# Indices 1 2 3 4 5 6 
#
# 1 0.018389 -0.005193 0.000086 0.000000 0.004481 0.000000
# 2 -0.005193 0.012876 -0.002742 0.000000 0.005124 0.000000
# 3 0.000086 -0.002742 0.010542 0.000000 0.004620 0.000000
# 4 0.000000 0.000000 0.000000 0.058665 0.000000 0.014789
# 5 0.004481 0.005124 0.004620 0.000000 0.049423 0.000000
# 6 0.000000 0.000000 0.000000 0.014789 0.000000 0.071195
#
#
# Mechanical properties :
#
#
# Convention : Reuss Voigt Hill
#
# Bulk Modulus (GPa) = 38.29620 49.51611 43.90616
# Shear Modulus (GPa) = 20.36737 24.83805 22.60271
#
# Velocity S-wave (km/s) = 3.41828 3.77485 3.60098
# Velocity P-wave (km/s) = 6.12780 6.88524 6.51753
#
# Compressibility (1/GPa) = 0.02611225
#
# Stress axis : x y z
#
# Youngs Moduli (GPa) = 54.37939 77.66169 94.85696
#
# Poissons Ratio (x) = 0.40326 -0.00820
# Poissons Ratio (y) = 0.28237 0.26007
# Poissons Ratio (z) = -0.00470 0.21293
#
# Static dielectric constant tensor:
#      x y z
#    x 1.630560 0.000000 -0.001130 
#    y 0.000000 1.605720 0.000000 
#    z -0.001130 0.000000 1.653450 
# 
# From -- ./inp_files/85971.got.cif
#   From: 2010.05.17/outbox.cif.g08.bks.cpg/sg10_43_cif.got.tgz:85971.got - 2010.06.03 11:33:40.
