data_PCOD9142939
_publ_section_title
;
Structure prediction by ZEFSAII (Michael W. Deem and Ramdas Pophale) SiO2 
 PCOD9142939
Probable space group: P 2/M
;
_chemical_formula_sum "Si O2"
_cell_formula_units_Z 30
_cell_length_a 5.713797
_cell_length_b 21.757549
_cell_length_c 12.516917
_cell_angle_alpha 90.000000
_cell_angle_beta 93.204922
_cell_angle_gamma 90.000000
_cell_volume 1553.647054
_symmetry_space_group_name_H-M "P 2/M"
_symmetry_group_IT_number 10
_symmetry_cell_setting 'monoclinic'
loop_
_space_group_symop_operation_xyz
x,y,z
-x,y,-z
-x,-y,-z
x,-y,z
loop_
_atom_site_type_symbol
_atom_site_label
_atom_site_fract_x
_atom_site_fract_y
_atom_site_fract_z
Si Si1 0.146064 0.633279 0.736184
Si Si2 0.710614 0.817015 0.879991
Si Si3 0.235984 0.432319 0.386397
Si Si4 0.826097 0.317050 0.898449
Si Si5 0.736477 0.309139 0.470444
Si Si6 0.239226 0.000000 0.934755
Si Si7 0.218718 0.862961 0.872822
Si Si8 0.538941 0.569597 0.842753
O O1 0.282033 0.674426 0.654779
O O2 0.286076 0.600115 0.832925
O O3 0.023549 0.579180 0.666063
O O4 0.956934 0.675694 0.788844
O O5 0.673172 0.743848 0.887241
O O6 0.465777 0.842155 0.826964
O O7 0.965162 0.833986 0.834086
O O8 0.745870 0.843770 0.001064
O O9 0.259834 0.500000 0.435854
O O10 0.269846 0.374008 0.463341
O O11 0.390371 0.430162 0.282159
O O12 0.699422 0.382139 0.907518
O O13 0.000000 0.306069 0.000000
O O14 0.500000 0.274898 0.500000
O O15 0.000000 0.284408 0.500000
O O16 0.217734 0.936627 0.869819
O O17 0.500000 0.000000 0.000000
O O18 0.000000 0.000000 0.000000
O O19 0.552771 0.500000 0.879944
#
# Coordination Sequence:
#
# PCOD9142939 Si02
#       8
#     4   4   4   4   4   2   4   4
#     4  10  21  34  51  73  95 121 158 208 260 323
#     4  10  19  32  49  69  92 127 176 208 247 282
#     4   9  18  32  51  75  99 118 139 185 258 340
#     4  11  24  38  52  66  91 133 180 232 263 297
#     4  10  19  33  53  78 102 121 143 182 252 332
#     4  12  16  26  44  76 108 128 146 202 258 295
#     4  10  18  30  49  74  99 125 162 207 247 294
#     4  10  21  36  53  71  91 118 163 221 281 334
#
# _framework density 19.309404000000001
#
# number of rings (size 3 to 8) (size 9 to 14) (size 15 to 20)
#    0.000    1.867    5.333    0.400    1.867    4.533 
#    0.000    0.667    0.000    0.000    0.000    0.000 
#    0.000    0.000    0.000    0.000    0.000    0.000 
#
# Total GULP energy -167131.151525 kJ/mol
# GULP energy per Si atom -5571.038384 kJ/mol
# Density = 1.926546 g / cm^3
# Si number density = 19.309404 Si / 1000 Ang^3
#
#
#
# Elastic Constant Matrix: (Units=GPa)
#
#
# Indices 1 2 3 4 5 6 
#
# 1 133.5349 13.8425 6.0108 0.0000 1.5512 0.0000
# 2 13.8425 84.8857 9.0939 0.0000 -2.4291 0.0000
# 3 6.0108 9.0939 39.7947 0.0000 -5.8045 0.0000
# 4 0.0000 0.0000 0.0000 -7.6753 0.0000 -8.8643
# 5 1.5512 -2.4291 -5.8045 0.0000 12.5127 0.0000
# 6 0.0000 0.0000 0.0000 -8.8643 0.0000 19.2756
#
#
#
# Elastic Compliance Matrix: (Units=1/GPa)
#
#
# Indices 1 2 3 4 5 6 
#
# 1 0.007682 -0.001180 -0.001140 0.000000 -0.001710 0.000000
# 2 -0.001180 0.012273 -0.002421 0.000000 0.001406 0.000000
# 3 -0.001140 -0.002421 0.027680 0.000000 0.012512 0.000000
# 4 0.000000 0.000000 0.000000 -0.085094 0.000000 -0.039132
# 5 -0.001710 0.001406 0.012512 0.000000 0.086208 0.000000
# 6 0.000000 0.000000 0.000000 -0.039132 0.000000 0.033883
#
#
# Mechanical properties :
#
#
# Convention : Reuss Voigt Hill
#
# Bulk Modulus (GPa) = 26.21101 35.12330 30.66716
# Shear Modulus (GPa) = 47.69574 20.10712 33.90143
#
# Velocity S-wave (km/s) = 4.97538 3.23044 4.19465
# Velocity P-wave (km/s) = 6.82712 5.66953 6.27507
#
# Compressibility (1/GPa) = 0.03815190
#
# Stress axis : x y z
#
# Youngs Moduli (GPa) = 130.17191 81.48286 36.12778
#
# Poissons Ratio (x) = 0.09611 0.04120
# Poissons Ratio (y) = 0.15354 0.08748
# Poissons Ratio (z) = 0.14843 0.19730
#
# Static dielectric constant tensor:
#      x y z
#    x 1.859190 0.000000 -0.014010 
#    y 0.000000 1.654920 0.000000 
#    z -0.014010 0.000000 1.697310 
# 
# From -- ./inp_files/59558.got.cif
#   From: 2010.05.17/outbox.cif.g08.bks.cpg/sg10_30_cif.got.tgz:59558.got - 2010.06.03 11:33:40.
