data_PCOD9142763
_publ_section_title
;
Structure prediction by ZEFSAII (Michael W. Deem and Ramdas Pophale) SiO2 
 PCOD9142763
Probable space group: P 2/M
;
_chemical_formula_sum "Si O2"
_cell_formula_units_Z 28
_cell_length_a 14.607715
_cell_length_b 7.480462
_cell_length_c 22.070124
_cell_angle_alpha 90.000000
_cell_angle_beta 31.438368
_cell_angle_gamma 90.000000
_cell_volume 1257.874526
_symmetry_space_group_name_H-M "P 2/M"
_symmetry_group_IT_number 10
_symmetry_cell_setting 'monoclinic'
loop_
_space_group_symop_operation_xyz
x,y,z
-x,y,-z
-x,-y,-z
x,-y,z
loop_
_atom_site_type_symbol
_atom_site_label
_atom_site_fract_x
_atom_site_fract_y
_atom_site_fract_z
Si Si1 0.634084 0.283670 0.068668
Si Si2 0.128708 0.706485 0.480023
Si Si3 0.521227 0.202455 0.259385
Si Si4 0.636129 0.282724 0.872470
Si Si5 0.963615 0.281844 0.335548
Si Si6 0.855005 0.787068 0.130709
Si Si7 0.007479 0.714864 0.812711
O O1 0.637213 0.500000 0.071151
O O2 0.638193 0.205474 0.132738
O O3 0.452552 0.228765 0.140102
O O4 0.803074 0.229756 0.934274
O O5 0.069746 0.500000 0.518937
O O6 0.335444 0.709277 0.348577
O O7 0.000000 0.783011 0.500000
O O8 0.118767 0.780862 0.554424
O O9 0.657650 0.284310 0.230279
O O10 0.477315 0.000000 0.301429
O O11 0.637667 0.500000 0.873269
O O12 0.833075 0.228845 0.772176
O O13 0.500000 0.222749 0.000000
O O14 0.948166 0.500000 0.343379
O O15 0.911239 0.221233 0.297149
O O16 0.908348 0.761456 0.170309
O O17 0.844089 0.000000 0.126206
O O18 0.000000 0.717489 0.000000
O O19 0.006983 0.500000 0.809874
#
# Coordination Sequence:
#
# PCOD9142763 Si02
#       7
#     4   4   4   4   4   4   4
#     4  10  18  29  51  83 113 141 178 223 277 334
#     4  10  21  39  62  86 113 148 188 228 272 329
#     4  11  23  38  57  79 108 148 192 234 278 325
#     4   9  14  24  46  78 112 140 168 209 266 332
#     4   9  17  31  51  80 116 146 177 223 279 330
#     4  10  21  38  56  77 110 151 189 229 282 336
#     4  10  19  31  53  85 113 140 178 228 281 331
#
# _framework density 22.259772000000002
#
# number of rings (size 3 to 8) (size 9 to 14) (size 15 to 20)
#    0.000    2.143    2.857    1.286    0.000    4.000 
#    0.000    1.429    0.000    5.571    0.000    0.000 
#    0.000    0.000    0.000    0.000    0.000    0.000 
#
# Total GULP energy -156117.437967 kJ/mol
# GULP energy per Si atom -5575.622785 kJ/mol
# Density = 2.220911 g / cm^3
# Si number density = 22.259772 Si / 1000 Ang^3
#
#
#
# Elastic Constant Matrix: (Units=GPa)
#
#
# Indices 1 2 3 4 5 6 
#
# 1 167.4673 5.3171 44.0967 0.0000 16.3051 0.0000
# 2 5.3171 56.7593 4.0876 0.0000 2.6876 0.0000
# 3 44.0967 4.0876 82.5718 0.0000 20.1379 0.0000
# 4 0.0000 0.0000 0.0000 -12.7553 0.0000 15.4086
# 5 16.3051 2.6876 20.1379 0.0000 38.2015 0.0000
# 6 0.0000 0.0000 0.0000 15.4086 0.0000 27.2816
#
#
#
# Elastic Compliance Matrix: (Units=1/GPa)
#
#
# Indices 1 2 3 4 5 6 
#
# 1 0.007000 -0.000354 -0.003441 0.000000 -0.001149 0.000000
# 2 -0.000354 0.017726 -0.000484 0.000000 -0.000841 0.000000
# 3 -0.003441 -0.000484 0.015613 0.000000 -0.006728 0.000000
# 4 0.000000 0.000000 0.000000 -0.046603 0.000000 0.026321
# 5 -0.001149 -0.000841 -0.006728 0.000000 0.030273 0.000000
# 6 0.000000 0.000000 0.000000 0.026321 0.000000 0.021789
#
#
# Mechanical properties :
#
#
# Convention : Reuss Voigt Hill
#
# Bulk Modulus (GPa) = 31.46265 45.97793 38.72029
# Shear Modulus (GPa) = 76.98370 27.43204 52.20787
#
# Velocity S-wave (km/s) = 5.88722 3.51431 4.84818
# Velocity P-wave (km/s) = 7.77029 6.09649 6.98371
#
# Compressibility (1/GPa) = 0.03178372
#
# Stress axis : x y z
#
# Youngs Moduli (GPa) = 142.84836 56.41423 64.04966
#
# Poissons Ratio (x) = 0.01995 0.22038
# Poissons Ratio (y) = 0.05051 0.03097
# Poissons Ratio (z) = 0.49150 0.02728
#
# Static dielectric constant tensor:
#      x y z
#    x 1.864930 0.000000 0.023430 
#    y 0.000000 1.858550 0.000000 
#    z 0.023430 0.000000 1.803900 
# 
# From -- ./inp_files/63352.got.cif
#   From: 2010.05.17/outbox.cif.g08.bks.cpg/sg10_32_cif.got.tgz:63352.got - 2010.06.03 11:33:40.
