data_PCOD9142916
_publ_section_title
;
Structure prediction by ZEFSAII (Michael W. Deem and Ramdas Pophale) SiO2 
 PCOD9142916
Probable space group: P 2/M
;
_chemical_formula_sum "Si O2"
_cell_formula_units_Z 28
_cell_length_a 29.186358
_cell_length_b 8.806809
_cell_length_c 17.644900
_cell_angle_alpha 90.000000
_cell_angle_beta 22.989333
_cell_angle_gamma 90.000000
_cell_volume 1771.353197
_symmetry_space_group_name_H-M "P 2/M"
_symmetry_group_IT_number 10
_symmetry_cell_setting 'monoclinic'
loop_
_space_group_symop_operation_xyz
x,y,z
-x,y,-z
-x,-y,-z
x,-y,z
loop_
_atom_site_type_symbol
_atom_site_label
_atom_site_fract_x
_atom_site_fract_y
_atom_site_fract_z
Si Si1 0.842458 0.821982 0.897395
Si Si2 0.452881 0.680327 0.810021
Si Si3 0.463411 0.819078 0.170535
Si Si4 0.201340 0.178199 0.212715
Si Si5 0.324420 0.681704 0.250477
Si Si6 0.083157 0.319411 0.535915
Si Si7 0.588286 0.316844 0.298923
O O1 0.846260 0.805076 0.799944
O O2 0.956801 0.738619 0.755139
O O3 0.846551 0.000000 0.908637
O O4 0.717295 0.753548 0.111760
O O5 0.469227 0.500000 0.791758
O O6 0.534490 0.764912 0.745944
O O7 0.461320 0.725718 0.708832
O O8 0.320134 0.724608 0.034949
O O9 0.359581 0.747171 0.278644
O O10 0.461718 0.000000 0.167688
O O11 0.582548 0.756676 0.949246
O O12 0.115368 0.236999 0.408174
O O13 0.228129 0.000000 0.184055
O O14 0.341890 0.500000 0.222413
O O15 0.192163 0.714500 0.425638
O O16 0.079528 0.500000 0.529406
O O17 0.500000 0.271834 0.500000
O O18 0.599778 0.500000 0.281749
#
# Coordination Sequence:
#
# PCOD9142916 Si02
#       7
#     4   4   4   4   4   4   4
#     4  10  21  33  47  69  97 128 160 197 240 289
#     4  10  18  30  49  71  97 128 161 199 242 287
#     4  11  20  30  46  68  95 129 166 202 241 283
#     4  10  19  30  44  65  95 129 164 199 234 278
#     4  10  20  32  46  65  94 130 169 206 239 277
#     4  11  21  31  46  67  94 131 167 199 236 280
#     4   9  19  36  56  76  97 123 159 202 245 291
#
# _framework density 15.807124
#
# number of rings (size 3 to 8) (size 9 to 14) (size 15 to 20)
#    0.000    1.857    1.429    4.714    0.000    6.000 
#    0.000    0.000    0.000    0.000    0.000    1.000 
#    0.000    8.000    0.000    0.000    0.000    0.000 
#
# Total GULP energy -156250.144768 kJ/mol
# GULP energy per Si atom -5580.362313 kJ/mol
# Density = 1.577115 g / cm^3
# Si number density = 15.807124 Si / 1000 Ang^3
#
#
#
# Elastic Constant Matrix: (Units=GPa)
#
#
# Indices 1 2 3 4 5 6 
#
# 1 71.2824 39.0362 58.5595 0.0000 -6.2494 0.0000
# 2 39.0362 70.0440 36.4720 0.0000 -10.3454 0.0000
# 3 58.5595 36.4720 90.0804 0.0000 -3.2822 0.0000
# 4 0.0000 0.0000 0.0000 119.8154 0.0000 -76.9802
# 5 -6.2494 -10.3454 -3.2822 0.0000 19.6425 0.0000
# 6 0.0000 0.0000 0.0000 -76.9802 0.0000 73.3123
#
#
#
# Elastic Compliance Matrix: (Units=1/GPa)
#
#
# Indices 1 2 3 4 5 6 
#
# 1 0.034698 -0.009114 -0.018753 0.000000 0.003106 0.000000
# 2 -0.009114 0.021958 -0.002666 0.000000 0.008220 0.000000
# 3 -0.018753 -0.002666 0.024251 0.000000 -0.003318 0.000000
# 4 0.000000 0.000000 0.000000 0.025652 0.000000 0.026935
# 5 0.003106 0.008220 -0.003318 0.000000 0.055673 0.000000
# 6 0.000000 0.000000 0.000000 0.026935 0.000000 0.041923
#
#
# Mechanical properties :
#
#
# Convention : Reuss Voigt Hill
#
# Bulk Modulus (GPa) = 50.40222 55.50470 52.95346
# Shear Modulus (GPa) = 18.39340 49.04330 33.71835
#
# Velocity S-wave (km/s) = 3.41488 5.57615 4.62357
# Velocity P-wave (km/s) = 6.89228 8.75488 7.87881
#
# Compressibility (1/GPa) = 0.01984040
#
# Stress axis : x y z
#
# Youngs Moduli (GPa) = 28.81980 45.54049 41.23533
#
# Poissons Ratio (x) = 0.41506 0.77330
# Poissons Ratio (y) = 0.26267 0.10994
# Poissons Ratio (z) = 0.54047 0.12142
#
# Static dielectric constant tensor:
#      x y z
#    x 1.555110 0.000000 -0.012900 
#    y 0.000000 1.526400 0.000000 
#    z -0.012900 0.000000 1.500880 
# 
# From -- ./inp_files/80637.got.cif
#   From: 2010.05.17/outbox.cif.g08.bks.cpg/sg10_41_cif.got.tgz:80637.got - 2010.06.03 11:33:40.
