data_PCOD9142447
_publ_section_title
;
Structure prediction by ZEFSAII (Michael W. Deem and Ramdas Pophale) SiO2 
 PCOD9142447
Probable space group: P 2/M
;
_chemical_formula_sum "Si O2"
_cell_formula_units_Z 28
_cell_length_a 27.903204
_cell_length_b 7.518574
_cell_length_c 14.220493
_cell_angle_alpha 90.000000
_cell_angle_beta 152.882581
_cell_angle_gamma 90.000000
_cell_volume 1359.857251
_symmetry_space_group_name_H-M "P 2/M"
_symmetry_group_IT_number 10
_symmetry_cell_setting 'monoclinic'
loop_
_space_group_symop_operation_xyz
x,y,z
-x,y,-z
-x,-y,-z
x,-y,z
loop_
_atom_site_type_symbol
_atom_site_label
_atom_site_fract_x
_atom_site_fract_y
_atom_site_fract_z
Si Si1 0.390340 0.712866 0.696761
Si Si2 0.258651 0.212408 0.285650
Si Si3 0.820457 0.783562 0.143406
Si Si4 0.055823 0.783314 0.828005
Si Si5 0.839204 0.788603 0.386342
Si Si6 0.624281 0.714168 0.115236
Si Si7 0.615932 0.217092 0.677144
O O1 0.396285 0.500000 0.713099
O O2 0.305113 0.753142 0.468966
O O3 0.364134 0.776741 0.756310
O O4 0.508930 0.776194 0.879292
O O5 0.339382 0.276776 0.345863
O O6 0.254780 0.000000 0.268222
O O7 0.141915 0.278933 0.054535
O O8 0.897856 0.733620 0.193742
O O9 0.846105 0.717489 0.292017
O O10 0.823231 0.000000 0.150368
O O11 0.703457 0.731734 0.906523
O O12 0.935326 0.721462 0.618756
O O13 0.055894 0.000000 0.833882
O O14 0.724167 0.763569 0.228075
O O15 0.855179 0.000000 0.406398
O O16 0.621763 0.500000 0.111985
O O17 0.500000 0.279937 0.500000
O O18 0.613060 0.000000 0.670674
#
# Coordination Sequence:
#
# PCOD9142447 Si02
#       7
#     4   4   4   4   4   4   4
#     4   9  19  37  55  67  89 126 160 194 244 300
#     4   9  17  29  50  73  96 127 158 193 237 279
#     4   8  14  24  41  67  99 133 160 184 225 279
#     4   8  15  29  45  71 106 133 155 188 236 282
#     4  10  18  28  50  77  98 123 164 205 230 266
#     4   9  20  37  52  68  93 124 156 196 250 297
#     4   8  14  23  37  65 102 127 148 186 232 275
#
# _framework density 20.590395999999998
#
# number of rings (size 3 to 8) (size 9 to 14) (size 15 to 20)
#    0.000    3.286    0.000    3.000    2.000    2.857 
#    0.000    2.857    0.000    9.857    0.000    0.000 
#    0.000    0.000    0.000    0.000    0.000    0.000 
#
# Total GULP energy -156085.206084 kJ/mol
# GULP energy per Si atom -5574.471646 kJ/mol
# Density = 2.054353 g / cm^3
# Si number density = 20.590396 Si / 1000 Ang^3
#
#
#
# Elastic Constant Matrix: (Units=GPa)
#
#
# Indices 1 2 3 4 5 6 
#
# 1 34.1824 -5.6158 44.9093 0.0000 -7.6957 0.0000
# 2 -5.6158 47.4409 0.1383 0.0000 -1.7830 0.0000
# 3 44.9093 0.1383 123.9807 0.0000 -15.1306 0.0000
# 4 0.0000 0.0000 0.0000 -65.6345 0.0000 -66.3544
# 5 -7.6957 -1.7830 -15.1306 0.0000 29.8078 0.0000
# 6 0.0000 0.0000 0.0000 -66.3544 0.0000 -23.2284
#
#
#
# Elastic Compliance Matrix: (Units=1/GPa)
#
#
# Indices 1 2 3 4 5 6 
#
# 1 0.058729 0.007204 -0.020658 0.000000 0.005107 0.000000
# 2 0.007204 0.022012 -0.002395 0.000000 0.001961 0.000000
# 3 -0.020658 -0.002395 0.015866 0.000000 0.002577 0.000000
# 4 0.000000 0.000000 0.000000 0.008070 0.000000 -0.023053
# 5 0.005107 0.001961 0.002577 0.000000 0.036292 0.000000
# 6 0.000000 0.000000 0.000000 -0.023053 0.000000 0.022803
#
#
# Mechanical properties :
#
#
# Convention : Reuss Voigt Hill
#
# Bulk Modulus (GPa) = 15.40597 31.60750 23.50673
# Shear Modulus (GPa) = 23.03020 -0.73287 11.14866
#
# Velocity S-wave (km/s) = 3.34801 -0.59724 2.32943
# Velocity P-wave (km/s) = 4.73751 3.86113 4.32159
#
# Compressibility (1/GPa) = 0.06490990
#
# Stress axis : x y z
#
# Youngs Moduli (GPa) = 17.02740 45.42908 63.02855
#
# Poissons Ratio (x) = -0.32728 1.30204
# Poissons Ratio (y) = -0.12267 0.15094
# Poissons Ratio (z) = 0.35175 0.10879
#
# Static dielectric constant tensor:
#      x y z
#    x 1.703950 0.000000 -0.002050 
#    y 0.000000 1.800350 0.000000 
#    z -0.002050 0.000000 1.762870 
# 
# From -- ./inp_files/56863.got.cif
#   From: 2010.05.17/outbox.cif.g08.bks.cpg/sg10_29_cif.got.tgz:56863.got - 2010.06.03 11:33:40.
