data_PCOD9142471
_publ_section_title
;
Structure prediction by ZEFSAII (Michael W. Deem and Ramdas Pophale) SiO2 
 PCOD9142471
Probable space group: P 2/M
;
_chemical_formula_sum "Si O2"
_cell_formula_units_Z 32
_cell_length_a 31.264438
_cell_length_b 12.443557
_cell_length_c 5.290863
_cell_angle_alpha 90.000000
_cell_angle_beta 90.000967
_cell_angle_gamma 90.000000
_cell_volume 2058.361660
_symmetry_space_group_name_H-M "P 2/M"
_symmetry_group_IT_number 10
_symmetry_cell_setting 'monoclinic'
loop_
_space_group_symop_operation_xyz
x,y,z
-x,y,-z
-x,-y,-z
x,-y,z
loop_
_atom_site_type_symbol
_atom_site_label
_atom_site_fract_x
_atom_site_fract_y
_atom_site_fract_z
Si Si1 0.793538 0.127901 0.249977
Si Si2 0.882693 0.750994 0.250013
Si Si3 0.376150 0.630258 0.749962
Si Si4 0.972672 0.871484 0.249997
Si Si5 0.143911 0.372348 0.249992
Si Si6 0.323656 0.369876 0.249956
Si Si7 0.474490 0.631067 0.749999
Si Si8 0.766922 0.748120 0.749973
O O1 0.843337 0.164372 0.250001
O O2 0.772712 0.179736 0.499882
O O3 0.790034 0.000000 0.250004
O O4 0.772718 0.179713 0.000025
O O5 0.927829 0.810479 0.249995
O O6 0.876826 0.679140 0.500045
O O7 0.876821 0.679125 0.000005
O O8 0.377803 0.500000 0.749970
O O9 0.350492 0.661023 0.498698
O O10 0.425281 0.667523 0.749991
O O11 0.350484 0.661027 0.001192
O O12 0.000000 0.845638 0.500000
O O13 0.964866 0.000000 0.249993
O O14 0.000000 0.845636 0.000000
O O15 0.140309 0.500000 0.250009
O O16 0.193635 0.335990 0.250013
O O17 0.318541 0.500000 0.249954
O O18 0.277768 0.313819 0.249989
O O19 0.500000 0.664506 0.500000
O O20 0.473828 0.500000 0.750001
O O21 0.500000 0.664508 0.000000
#
# Coordination Sequence:
#
# PCOD9142471 Si02
#       8
#     4   4   4   4   4   4   4   4
#     4  10  20  34  51  72  96 119 151 189 228 277
#     4  10  20  34  54  75  98 126 154 191 232 273
#     4   9  17  26  38  57  81 116 155 193 233 264
#     4  10  20  34  54  78 101 124 152 190 238 287
#     4  10  20  34  52  73  97 126 162 197 228 264
#     4  10  18  29  43  61  90 120 155 195 224 263
#     4   9  15  23  35  51  74 106 150 196 228 262
#     4  10  20  32  49  71  92 123 157 189 232 270
#
# _framework density 15.546346
#
# number of rings (size 3 to 8) (size 9 to 14) (size 15 to 20)
#    0.000    2.250    0.000    3.750    0.000    3.000 
#    0.000    7.500    0.000    7.500    0.000    0.000 
#    0.000    0.000    0.000    0.000    0.000  157.500 
#
# Total GULP energy -178525.586552 kJ/mol
# GULP energy per Si atom -5578.924580 kJ/mol
# Density = 1.551096 g / cm^3
# Si number density = 15.546346 Si / 1000 Ang^3
#
#
#
# Elastic Constant Matrix: (Units=GPa)
#
#
# Indices 1 2 3 4 5 6 
#
# 1 169.5594 61.7406 101.2306 0.0000 -0.0422 0.0000
# 2 61.7406 67.9479 54.1845 0.0000 -0.0254 0.0000
# 3 101.2306 54.1845 185.9189 0.0000 -0.0529 0.0000
# 4 0.0000 0.0000 0.0000 7.1600 0.0000 -0.0031
# 5 -0.0422 -0.0254 -0.0529 0.0000 14.1515 0.0000
# 6 0.0000 0.0000 0.0000 -0.0031 0.0000 17.1682
#
#
#
# Elastic Compliance Matrix: (Units=1/GPa)
#
#
# Indices 1 2 3 4 5 6 
#
# 1 0.010580 -0.006540 -0.003855 0.000000 0.000005 0.000000
# 2 -0.006540 0.023215 -0.003205 0.000000 0.000010 0.000000
# 3 -0.003855 -0.003205 0.008412 0.000000 0.000014 0.000000
# 4 0.000000 0.000000 0.000000 0.139666 0.000000 0.000025
# 5 0.000005 0.000010 0.000014 0.000000 0.070664 0.000000
# 6 0.000000 0.000000 0.000000 0.000025 0.000000 0.058247
#
#
# Mechanical properties :
#
#
# Convention : Reuss Voigt Hill
#
# Bulk Modulus (GPa) = 66.63144 95.30417 80.96780
# Shear Modulus (GPa) = 14.57784 21.44731 18.01257
#
# Velocity S-wave (km/s) = 3.06551 3.71829 3.40757
# Velocity P-wave (km/s) = 7.44867 8.93703 8.22658
#
# Compressibility (1/GPa) = 0.01500793
#
# Stress axis : x y z
#
# Youngs Moduli (GPa) = 94.51438 43.07498 118.88115
#
# Poissons Ratio (x) = 0.28170 0.45828
# Poissons Ratio (y) = 0.61810 0.38103
# Poissons Ratio (z) = 0.36435 0.13806
#
# Static dielectric constant tensor:
#      x y z
#    x 1.496630 0.000000 0.000000 
#    y 0.000000 1.475950 0.000000 
#    z 0.000000 0.000000 1.521290 
# 
# From -- ./inp_files/13170.got.cif
#   From: 2010.05.17/outbox.cif.g08.bks.cpg/sg10_7_cif.got.tgz:13170.got - 2010.06.03 11:33:40.
