data_PCOD9142691
_publ_section_title
;
Structure prediction by ZEFSAII (Michael W. Deem and Ramdas Pophale) SiO2 
 PCOD9142691
Probable space group: P 2/M
;
_chemical_formula_sum "Si O2"
_cell_formula_units_Z 32
_cell_length_a 20.048201
_cell_length_b 9.319875
_cell_length_c 24.014474
_cell_angle_alpha 90.000000
_cell_angle_beta 23.421626
_cell_angle_gamma 90.000000
_cell_volume 1783.567048
_symmetry_space_group_name_H-M "P 2/M"
_symmetry_group_IT_number 10
_symmetry_cell_setting 'monoclinic'
loop_
_space_group_symop_operation_xyz
x,y,z
-x,y,-z
-x,-y,-z
x,-y,z
loop_
_atom_site_type_symbol
_atom_site_label
_atom_site_fract_x
_atom_site_fract_y
_atom_site_fract_z
Si Si1 0.342854 0.168718 0.944385
Si Si2 0.761011 0.332504 0.396834
Si Si3 0.548086 0.333137 0.873285
Si Si4 0.413889 0.167479 0.655065
Si Si5 0.775602 0.668109 0.796424
Si Si6 0.779286 0.167748 0.082576
Si Si7 0.980259 0.830950 0.727121
Si Si8 0.117416 0.333035 0.820380
O O1 0.492925 0.248196 0.861084
O O2 0.302580 0.217679 0.912706
O O3 0.380710 0.000000 0.913448
O O4 0.174294 0.186300 0.110644
O O5 0.731956 0.500000 0.431906
O O6 0.587877 0.251076 0.517776
O O7 0.867166 0.325624 0.258371
O O8 0.863942 0.253809 0.366359
O O9 0.574772 0.500000 0.839699
O O10 0.705481 0.283024 0.790073
O O11 0.386544 0.325850 0.038317
O O12 0.349219 0.174191 0.768185
O O13 0.272033 0.245187 0.727333
O O14 0.431118 0.000000 0.626237
O O15 0.824035 0.500000 0.756032
O O16 0.915971 0.762848 0.718622
O O17 0.830270 0.000000 0.036155
O O18 0.942966 0.260323 0.970830
O O19 0.014999 0.000000 0.695395
O O20 0.125982 0.500000 0.830433
#
# Coordination Sequence:
#
# PCOD9142691 Si02
#       8
#     4   4   4   4   4   4   4   4
#     4   9  17  29  47  71 101 133 168 212 253 298
#     4  11  23  38  55  77 106 138 173 216 263 311
#     4   8  14  24  40  64  97 135 170 204 249 302
#     4  11  24  39  57  78 104 138 174 215 262 313
#     4   8  14  25  40  63  99 136 167 206 253 299
#     4  10  21  38  56  78 107 139 174 213 261 311
#     4  10  18  29  49  74 100 134 174 213 254 305
#     4  11  23  38  58  81 104 134 172 216 264 313
#
# _framework density 17.941573999999999
#
# number of rings (size 3 to 8) (size 9 to 14) (size 15 to 20)
#    0.000    2.250    1.250    3.000    0.000    7.000 
#    0.000    2.500    0.000    0.000    0.000    0.875 
#    0.000    7.000    0.000    0.000    0.000    0.000 
#
# Total GULP energy -178522.233371 kJ/mol
# GULP energy per Si atom -5578.819793 kJ/mol
# Density = 1.790074 g / cm^3
# Si number density = 17.941574 Si / 1000 Ang^3
#
#
#
# Elastic Constant Matrix: (Units=GPa)
#
#
# Indices 1 2 3 4 5 6 
#
# 1 91.3024 35.9428 -0.3695 0.0000 -23.5823 0.0000
# 2 35.9428 67.6039 -3.7273 0.0000 6.4205 0.0000
# 3 -0.3695 -3.7273 -3.5943 0.0000 20.0540 0.0000
# 4 0.0000 0.0000 0.0000 21.7673 0.0000 -8.9302
# 5 -23.5823 6.4205 20.0540 0.0000 1.5191 0.0000
# 6 0.0000 0.0000 0.0000 -8.9302 0.0000 33.3812
#
#
#
# Elastic Compliance Matrix: (Units=1/GPa)
#
#
# Indices 1 2 3 4 5 6 
#
# 1 0.014320 -0.006800 0.018836 0.000000 0.002376 0.000000
# 2 -0.006800 0.017588 -0.013680 0.000000 0.000692 0.000000
# 3 0.018836 -0.013680 0.022612 0.000000 0.051723 0.000000
# 4 0.000000 0.000000 0.000000 0.051604 0.000000 0.013805
# 5 0.002376 0.000692 0.051723 0.000000 0.009443 0.000000
# 6 0.000000 0.000000 0.000000 0.013805 0.000000 0.033650
#
#
# Mechanical properties :
#
#
# Convention : Reuss Voigt Hill
#
# Bulk Modulus (GPa) = 19.51947 24.33379 21.92663
# Shear Modulus (GPa) = 29.48423 19.56459 24.52441
#
# Velocity S-wave (km/s) = 4.05822 3.30580 3.70118
# Velocity P-wave (km/s) = 5.73253 5.30691 5.52382
#
# Compressibility (1/GPa) = 0.05123091
#
# Stress axis : x y z
#
# Youngs Moduli (GPa) = 69.83408 56.85798 44.22383
#
# Poissons Ratio (x) = 0.38666 -0.83301
# Poissons Ratio (y) = 0.47490 0.60499
# Poissons Ratio (z) = -1.31542 0.77783
#
# Static dielectric constant tensor:
#      x y z
#    x 1.625600 0.000000 0.003090 
#    y 0.000000 1.603060 0.000000 
#    z 0.003090 0.000000 1.587200 
# 
# From -- ./inp_files/93623.got.cif
#   From: 2010.05.17/outbox.cif.g08.bks.cpg/sg10_47_cif.got.tgz:93623.got - 2010.06.03 11:33:40.
