data_PCOD9142096
_publ_section_title
;
Structure prediction by ZEFSAII (Michael W. Deem and Ramdas Pophale) SiO2 
 PCOD9142096
Probable space group: P 2/M
;
_chemical_formula_sum "Si O2"
_cell_formula_units_Z 30
_cell_length_a 14.425350
_cell_length_b 20.723136
_cell_length_c 14.323035
_cell_angle_alpha 90.000000
_cell_angle_beta 159.261578
_cell_angle_gamma 90.000000
_cell_volume 1516.161093
_symmetry_space_group_name_H-M "P 2/M"
_symmetry_group_IT_number 10
_symmetry_cell_setting 'monoclinic'
loop_
_space_group_symop_operation_xyz
x,y,z
-x,y,-z
-x,-y,-z
x,-y,z
loop_
_atom_site_type_symbol
_atom_site_label
_atom_site_fract_x
_atom_site_fract_y
_atom_site_fract_z
Si Si1 0.355766 0.741658 0.582238
Si Si2 0.276336 0.500000 0.714088
Si Si3 0.223871 0.921889 0.286404
Si Si4 0.876294 0.428286 0.028630
Si Si5 0.329478 0.599485 0.605413
Si Si6 0.387418 0.924582 0.995333
Si Si7 0.903794 0.283193 0.007176
Si Si8 0.167881 0.121621 0.449744
O O1 0.361080 0.676024 0.646439
O O2 0.270214 0.805169 0.555432
O O3 0.133759 0.729427 0.296242
O O4 0.635629 0.746078 0.794265
O O5 0.293159 0.562804 0.666299
O O6 0.000000 0.500000 0.500000
O O7 0.500000 0.500000 0.000000
O O8 0.500000 0.901904 0.500000
O O9 0.178307 0.894794 0.348232
O O10 0.226330 0.000000 0.298384
O O11 0.000000 0.905440 0.000000
O O12 0.919473 0.500000 0.027495
O O13 0.870651 0.361168 0.966092
O O14 0.093943 0.417198 0.313205
O O15 0.592514 0.427498 0.807519
O O16 0.619369 0.918440 0.290166
O O17 0.316031 0.000000 0.917752
O O18 0.500000 0.902523 0.000000
O O19 0.123902 0.889498 0.784317
O O20 0.000000 0.256054 0.000000
#
# Coordination Sequence:
#
# PCOD9142096 Si02
#       8
#     4   2   4   4   4   4   4   4
#     4  10  23  39  59  82 118 166 202 236 307 363
#     4  12  22  34  58  86 105 136 187 242 300 356
#     4  10  21  36  56  88 126 163 205 253 299 349
#     4  10  17  32  57  78 104 153 185 232 302 347
#     4  10  20  37  54  78 113 145 188 237 288 363
#     4  11  24  43  69  99 126 156 203 263 321 375
#     4  10  21  36  55  83 119 154 203 257 290 344
#     4  12  23  41  66  93 126 172 213 252 311 386
#
# _framework density 19.786815000000001
#
# number of rings (size 3 to 8) (size 9 to 14) (size 15 to 20)
#    0.000    1.467    1.333    4.400    0.000    4.000 
#    0.000    2.000    0.000    4.800    0.000    0.000 
#    0.000    0.000    0.000    0.000    0.000    0.000 
#
# Total GULP energy -167512.348446 kJ/mol
# GULP energy per Si atom -5583.744948 kJ/mol
# Density = 1.974178 g / cm^3
# Si number density = 19.786815 Si / 1000 Ang^3
#
#
#
# Elastic Constant Matrix: (Units=GPa)
#
#
# Indices 1 2 3 4 5 6 
#
# 1 151.0645 38.4161 70.7251 0.0000 22.5064 0.0000
# 2 38.4161 107.5512 12.9947 0.0000 20.4986 0.0000
# 3 70.7251 12.9947 150.6862 0.0000 31.2042 0.0000
# 4 0.0000 0.0000 0.0000 33.8498 0.0000 14.0157
# 5 22.5064 20.4986 31.2042 0.0000 44.6311 0.0000
# 6 0.0000 0.0000 0.0000 14.0157 0.0000 25.3069
#
#
#
# Elastic Compliance Matrix: (Units=1/GPa)
#
#
# Indices 1 2 3 4 5 6 
#
# 1 0.009269 -0.002706 -0.003983 0.000000 -0.000646 0.000000
# 2 -0.002706 0.010982 0.001269 0.000000 -0.004566 0.000000
# 3 -0.003983 0.001269 0.009473 0.000000 -0.005197 0.000000
# 4 0.000000 0.000000 0.000000 0.038333 0.000000 -0.021230
# 5 -0.000646 -0.004566 -0.005197 0.000000 0.028462 0.000000
# 6 0.000000 0.000000 0.000000 -0.021230 0.000000 0.051273
#
#
# Mechanical properties :
#
#
# Convention : Reuss Voigt Hill
#
# Bulk Modulus (GPa) = 52.96179 72.61929 62.79054
# Shear Modulus (GPa) = 30.31652 39.90195 35.10924
#
# Velocity S-wave (km/s) = 3.91853 4.49552 4.21690
# Velocity P-wave (km/s) = 6.87731 7.98291 7.45065
#
# Compressibility (1/GPa) = 0.01888154
#
# Stress axis : x y z
#
# Youngs Moduli (GPa) = 107.88549 91.06182 105.56712
#
# Poissons Ratio (x) = 0.24645 0.42050
# Poissons Ratio (y) = 0.29198 -0.13394
# Poissons Ratio (z) = 0.42974 -0.11554
#
# Static dielectric constant tensor:
#      x y z
#    x 1.658360 0.000000 0.005820 
#    y 0.000000 51.915430 0.000000 
#    z 0.005820 0.000000 1.658210 
# 
# From -- ./inp_files/67900.got.cif
#   From: 2010.05.17/outbox.cif.g08.bks.cpg/sg10_34_cif.got.tgz:67900.got - 2010.06.03 11:33:40.
