data_PCOD9142799
_publ_section_title
;
Structure prediction by ZEFSAII (Michael W. Deem and Ramdas Pophale) SiO2 
 PCOD9142799
Probable space group: P 2/M
;
_chemical_formula_sum "Si O2"
_cell_formula_units_Z 24
_cell_length_a 14.931254
_cell_length_b 12.657694
_cell_length_c 14.931254
_cell_angle_alpha 90.000000
_cell_angle_beta 148.573245
_cell_angle_gamma 90.000000
_cell_volume 1471.380431
_symmetry_space_group_name_H-M "P 2/M"
_symmetry_group_IT_number 10
_symmetry_cell_setting 'monoclinic'
loop_
_space_group_symop_operation_xyz
x,y,z
-x,y,-z
-x,-y,-z
x,-y,z
loop_
_atom_site_type_symbol
_atom_site_label
_atom_site_fract_x
_atom_site_fract_y
_atom_site_fract_z
Si Si1 0.893349 0.500000 0.001588
Si Si2 0.391066 0.729652 0.498884
Si Si3 0.429294 0.126298 0.698523
Si Si4 0.001116 0.729652 0.108934
Si Si5 0.053240 0.128386 0.446760
Si Si6 0.198523 0.873702 0.929295
Si Si7 0.501588 0.500000 0.393349
O O1 0.692625 0.500000 0.807375
O O2 0.944110 0.611102 0.088519
O O3 0.000000 0.500000 0.000000
O O4 0.500000 0.735741 0.500000
O O5 0.450942 0.813222 0.623431
O O6 0.411481 0.611101 0.555890
O O7 0.193806 0.748641 0.306194
O O8 0.246870 0.159662 0.585102
O O9 0.421609 0.000000 0.676931
O O10 0.597689 0.147312 0.902311
O O11 0.876569 0.813222 0.049058
O O12 0.000000 0.735741 0.000000
O O13 0.914897 0.159662 0.253130
O O14 0.000000 0.165499 0.500000
O O15 0.052199 0.000000 0.447801
O O16 0.176932 0.000000 0.921609
O O17 0.500000 0.500000 0.500000
#
# Coordination Sequence:
#
# PCOD9142799 Si02
#       7
#     2   4   4   4   4   4   2
#     4  10  18  30  46  68  96 129 174 214 247 290
#     4  11  20  32  49  71 102 138 173 209 251 297
#     4  10  20  34  51  75 105 134 169 209 252 306
#     4  11  20  32  49  71 102 138 173 209 251 297
#     4   9  18  34  54  75 101 133 169 214 260 300
#     4  10  20  34  51  75 105 134 169 209 252 306
#     4  10  18  30  46  68  96 129 174 214 247 290
#
# _framework density 16.311212999999999
#
# number of rings (size 3 to 8) (size 9 to 14) (size 15 to 20)
#    0.000    1.833    1.667    6.500    0.000    1.333 
#    0.000    3.333    0.000    0.000    0.000    2.333 
#    0.000    4.000    0.000    0.000    0.000    0.000 
#
# Total GULP energy -133794.883107 kJ/mol
# GULP energy per Si atom -5574.786796 kJ/mol
# Density = 1.627409 g / cm^3
# Si number density = 16.311213 Si / 1000 Ang^3
#
#
#
# Elastic Constant Matrix: (Units=GPa)
#
#
# Indices 1 2 3 4 5 6 
#
# 1 82.7286 30.3108 46.4589 0.0000 -0.6014 0.0000
# 2 30.3108 39.8772 31.5700 0.0000 0.3635 0.0000
# 3 46.4589 31.5700 130.5935 0.0000 14.4187 0.0000
# 4 0.0000 0.0000 0.0000 19.8712 0.0000 6.0301
# 5 -0.6014 0.3635 14.4187 0.0000 21.4291 0.0000
# 6 0.0000 0.0000 0.0000 6.0301 0.0000 -1.0175
#
#
#
# Elastic Compliance Matrix: (Units=1/GPa)
#
#
# Indices 1 2 3 4 5 6 
#
# 1 0.018471 -0.010574 -0.004420 0.000000 0.003672 0.000000
# 2 -0.010574 0.037545 -0.005630 0.000000 0.002854 0.000000
# 3 -0.004420 -0.005630 0.011444 0.000000 -0.007729 0.000000
# 4 0.000000 0.000000 0.000000 0.017983 0.000000 0.106574
# 5 0.003672 0.002854 -0.007729 0.000000 0.051921 0.000000
# 6 0.000000 0.000000 0.000000 0.106574 0.000000 -0.351200
#
#
# Mechanical properties :
#
#
# Convention : Reuss Voigt Hill
#
# Bulk Modulus (GPa) = 38.14982 52.20872 45.17927
# Shear Modulus (GPa) = -30.51566 17.71388 -6.40089
#
# Velocity S-wave (km/s) = -4.33001 3.29902 -1.98312
# Velocity P-wave (km/s) = 1.24868 6.82559 4.74497
#
# Compressibility (1/GPa) = 0.02621244
#
# Stress axis : x y z
#
# Youngs Moduli (GPa) = 54.13920 26.63465 87.38061
#
# Poissons Ratio (x) = 0.28163 0.38625
# Poissons Ratio (y) = 0.57245 0.49193
# Poissons Ratio (z) = 0.23931 0.14995
#
# Static dielectric constant tensor:
#      x y z
#    x 1.528130 0.000000 0.011940 
#    y 0.000000 1.549020 0.000000 
#    z 0.011940 0.000000 1.569500 
# 
# From -- ./inp_files/51723.got.cif
#   From: 2010.05.17/outbox.cif.g08.bks.cpg/sg10_26_cif.got.tgz:51723.got - 2010.06.03 11:33:40.
