data_PCOD9142127
_publ_section_title
;
Structure prediction by ZEFSAII (Michael W. Deem and Ramdas Pophale) SiO2 
 PCOD9142127
Probable space group: P 2/M
;
_chemical_formula_sum "Si O2"
_cell_formula_units_Z 28
_cell_length_a 4.967564
_cell_length_b 16.645318
_cell_length_c 17.081821
_cell_angle_alpha 90.000000
_cell_angle_beta 76.489133
_cell_angle_gamma 90.000000
_cell_volume 1373.350742
_symmetry_space_group_name_H-M "P 2/M"
_symmetry_group_IT_number 10
_symmetry_cell_setting 'monoclinic'
loop_
_space_group_symop_operation_xyz
x,y,z
-x,y,-z
-x,-y,-z
x,-y,z
loop_
_atom_site_type_symbol
_atom_site_label
_atom_site_fract_x
_atom_site_fract_y
_atom_site_fract_z
Si Si1 0.319444 0.593034 0.842189
Si Si2 0.634796 0.828042 0.230481
Si Si3 0.478130 0.000000 0.777181
Si Si4 0.771421 0.828722 0.886488
Si Si5 0.549931 0.664487 0.323851
Si Si6 0.965110 0.405227 0.409184
Si Si7 0.889596 0.000000 0.888992
Si Si8 0.735747 0.344658 0.927275
O O1 0.378179 0.500000 0.848836
O O2 0.284747 0.615635 0.754346
O O3 0.583561 0.642633 0.854695
O O4 0.036143 0.616384 0.905257
O O5 0.555663 0.916802 0.266206
O O6 0.484843 0.824625 0.155783
O O7 0.551417 0.756014 0.293201
O O8 0.958642 0.823033 0.187744
O O9 0.755241 0.000000 0.810426
O O10 0.219560 0.000000 0.856272
O O11 0.771594 0.749973 0.939563
O O12 0.791865 0.914427 0.928704
O O13 0.245178 0.627892 0.351338
O O14 0.712205 0.646481 0.392590
O O15 0.923204 0.500000 0.394251
O O16 0.000000 0.397963 0.500000
O O17 0.500000 0.379597 0.000000
#
# Coordination Sequence:
#
# PCOD9142127 Si02
#       8
#     4   4   2   4   4   4   2   4
#     4  12  25  40  58  81 106 141 195 242 279 324
#     4  10  18  32  56  81 112 137 180 227 270 320
#     4   8  16  28  48  82 108 138 168 220 276 316
#     4  10  17  35  50  79 107 140 180 227 277 332
#     4  12  21  38  62  87 110 146 186 230 274 321
#     4  11  24  40  58  85 120 151 180 219 274 336
#     4   8  16  26  53  72 104 138 171 220 276 330
#     4  12  24  39  56  76 110 151 188 234 290 333
#
# _framework density 20.388089000000001
#
# number of rings (size 3 to 8) (size 9 to 14) (size 15 to 20)
#    0.000    1.286    2.857    4.286    0.000    2.857 
#    0.000    0.357    0.000    0.000    0.000   11.000 
#    0.000    0.000    0.000    0.000    0.000    0.000 
#
# Total GULP energy -156452.135753 kJ/mol
# GULP energy per Si atom -5587.576277 kJ/mol
# Density = 2.034168 g / cm^3
# Si number density = 20.388089 Si / 1000 Ang^3
#
#
#
# Elastic Constant Matrix: (Units=GPa)
#
#
# Indices 1 2 3 4 5 6 
#
# 1 88.3862 6.9533 -0.3174 0.0000 4.3900 0.0000
# 2 6.9533 124.6759 9.2285 0.0000 -7.5521 0.0000
# 3 -0.3174 9.2285 40.8870 0.0000 -3.3884 0.0000
# 4 0.0000 0.0000 0.0000 -162.8934 0.0000 -117.2259
# 5 4.3900 -7.5521 -3.3884 0.0000 27.8240 0.0000
# 6 0.0000 0.0000 0.0000 -117.2259 0.0000 -51.8922
#
#
#
# Elastic Compliance Matrix: (Units=1/GPa)
#
#
# Indices 1 2 3 4 5 6 
#
# 1 0.011474 -0.000769 0.000096 0.000000 -0.002007 0.000000
# 2 -0.000769 0.008321 -0.001704 0.000000 0.002172 0.000000
# 3 0.000096 -0.001704 0.025056 0.000000 0.002574 0.000000
# 4 0.000000 0.000000 0.000000 0.009811 0.000000 -0.022164
# 5 -0.002007 0.002172 0.002574 0.000000 0.037160 0.000000
# 6 0.000000 0.000000 0.000000 -0.022164 0.000000 0.030799
#
#
# Mechanical properties :
#
#
# Convention : Reuss Voigt Hill
#
# Bulk Modulus (GPa) = 24.93822 31.74197 28.34009
# Shear Modulus (GPa) = 35.52614 -21.52000 7.00307
#
# Velocity S-wave (km/s) = 4.17885 -3.25240 1.85535
# Velocity P-wave (km/s) = 5.96171 1.22415 4.30352
#
# Compressibility (1/GPa) = 0.04009910
#
# Stress axis : x y z
#
# Youngs Moduli (GPa) = 87.14981 120.17222 39.91007
#
# Poissons Ratio (x) = 0.09237 -0.00384
# Poissons Ratio (y) = 0.06699 0.06801
# Poissons Ratio (z) = -0.00839 0.20479
#
# Static dielectric constant tensor:
#      x y z
#    x 1.739360 0.000000 0.035820 
#    y 0.000000 1.768530 0.000000 
#    z 0.035820 0.000000 1.773860 
# 
# From -- ./inp_files/59312.got.cif
#   From: 2010.05.17/outbox.cif.g08.bks.cpg/sg10_30_cif.got.tgz:59312.got - 2010.06.03 11:33:40.
