data_PCOD9142562
_publ_section_title
;
Structure prediction by ZEFSAII (Michael W. Deem and Ramdas Pophale) SiO2 
 PCOD9142562
Probable space group: P 2/M
;
_chemical_formula_sum "Si O2"
_cell_formula_units_Z 28
_cell_length_a 19.823185
_cell_length_b 8.883615
_cell_length_c 15.971169
_cell_angle_alpha 90.000000
_cell_angle_beta 36.094874
_cell_angle_gamma 90.000000
_cell_volume 1656.939432
_symmetry_space_group_name_H-M "P 2/M"
_symmetry_group_IT_number 10
_symmetry_cell_setting 'monoclinic'
loop_
_space_group_symop_operation_xyz
x,y,z
-x,y,-z
-x,-y,-z
x,-y,z
loop_
_atom_site_type_symbol
_atom_site_label
_atom_site_fract_x
_atom_site_fract_y
_atom_site_fract_z
Si Si1 0.011845 0.164030 0.587001
Si Si2 0.870646 0.682242 0.306941
Si Si3 0.244185 0.826535 0.087060
Si Si4 0.140143 0.679960 0.034137
Si Si5 0.634920 0.319690 0.874705
Si Si6 0.138667 0.827679 0.859565
Si Si7 0.224408 0.675435 0.427259
O O1 0.094187 0.299180 0.528398
O O2 0.000000 0.162640 0.500000
O O3 0.885742 0.176170 0.748944
O O4 0.061140 0.000000 0.564208
O O5 0.869909 0.500000 0.306132
O O6 0.831722 0.745893 0.256749
O O7 0.787278 0.734826 0.465912
O O8 0.005579 0.727212 0.185409
O O9 0.228068 0.741673 0.015271
O O10 0.318831 0.753035 0.086033
O O11 0.278732 0.000000 0.039798
O O12 0.140929 0.500000 0.034199
O O13 0.172273 0.741684 0.910331
O O14 0.655898 0.500000 0.859043
O O15 0.698855 0.261674 0.725949
O O16 0.500000 0.294686 0.000000
O O17 0.178782 0.000000 0.820455
O O18 0.000000 0.829503 0.000000
O O19 0.254715 0.500000 0.403264
#
# Coordination Sequence:
#
# PCOD9142562 Si02
#       7
#     4   4   4   4   4   4   4
#     4  10  19  30  44  68  99 127 157 196 245 293
#     4   9  17  28  43  67  97 130 164 197 237 285
#     4  11  21  32  49  72  99 130 164 203 245 293
#     4  10  18  29  46  69  99 132 164 198 237 287
#     4  10  22  38  53  70  95 129 169 210 248 289
#     4   9  17  28  42  64  97 134 165 194 232 283
#     4  10  19  31  49  71  96 128 166 203 241 288
#
# _framework density 16.898626
#
# number of rings (size 3 to 8) (size 9 to 14) (size 15 to 20)
#    0.000    2.143    2.857    1.286    0.000    4.000 
#    0.000    0.000    0.000    0.000    0.000    1.000 
#    0.000    8.000    0.000    0.000    0.000    0.000 
#
# Total GULP energy -155872.465973 kJ/mol
# GULP energy per Si atom -5566.873785 kJ/mol
# Density = 1.686016 g / cm^3
# Si number density = 16.898626 Si / 1000 Ang^3
#
#
#
# Elastic Constant Matrix: (Units=GPa)
#
#
# Indices 1 2 3 4 5 6 
#
# 1 118.7797 47.3508 61.2814 0.0000 40.3373 0.0000
# 2 47.3508 44.7810 26.0939 0.0000 13.5806 0.0000
# 3 61.2814 26.0939 46.3540 0.0000 20.5594 0.0000
# 4 0.0000 0.0000 0.0000 21.0309 0.0000 29.0730
# 5 40.3373 13.5806 20.5594 0.0000 28.2604 0.0000
# 6 0.0000 0.0000 0.0000 29.0730 0.0000 86.7571
#
#
#
# Elastic Compliance Matrix: (Units=1/GPa)
#
#
# Indices 1 2 3 4 5 6 
#
# 1 0.041128 -0.015793 -0.033679 0.000000 -0.026614 0.000000
# 2 -0.015793 0.039530 -0.004350 0.000000 0.006710 0.000000
# 3 -0.033679 -0.004350 0.068353 0.000000 0.000435 0.000000
# 4 0.000000 0.000000 0.000000 0.088587 0.000000 -0.029686
# 5 -0.026614 0.006710 0.000435 0.000000 0.069832 0.000000
# 6 0.000000 0.000000 0.000000 -0.029686 0.000000 0.021475
#
#
# Mechanical properties :
#
#
# Convention : Reuss Voigt Hill
#
# Bulk Modulus (GPa) = 24.17301 53.26301 38.71801
# Shear Modulus (GPa) = 11.10280 32.22225 21.66252
#
# Velocity S-wave (km/s) = 2.56603 4.37143 3.58426
# Velocity P-wave (km/s) = 4.80782 7.55425 6.33174
#
# Compressibility (1/GPa) = 0.04136846
#
# Stress axis : x y z
#
# Youngs Moduli (GPa) = 24.31418 25.29743 14.62987
#
# Poissons Ratio (x) = 0.39952 0.49271
# Poissons Ratio (y) = 0.38399 0.06364
# Poissons Ratio (z) = 0.81887 0.11004
#
# Static dielectric constant tensor:
#      x y z
#    x 1.566950 0.000000 0.036750 
#    y 0.000000 1.615330 0.000000 
#    z 0.036750 0.000000 1.596390 
# 
# From -- ./inp_files/54648.got.cif
#   From: 2010.05.17/outbox.cif.g08.bks.cpg/sg10_28_cif.got.tgz:54648.got - 2010.06.03 11:33:40.
