data_PCOD9142926
_publ_section_title
;
Structure prediction by ZEFSAII (Michael W. Deem and Ramdas Pophale) SiO2 
 PCOD9142926
Probable space group: P 2/M
;
_chemical_formula_sum "Si O2"
_cell_formula_units_Z 28
_cell_length_a 9.536887
_cell_length_b 18.288589
_cell_length_c 8.112128
_cell_angle_alpha 90.000000
_cell_angle_beta 133.196342
_cell_angle_gamma 90.000000
_cell_volume 1031.469773
_symmetry_space_group_name_H-M "P 2/M"
_symmetry_group_IT_number 10
_symmetry_cell_setting 'monoclinic'
loop_
_space_group_symop_operation_xyz
x,y,z
-x,y,-z
-x,-y,-z
x,-y,z
loop_
_atom_site_type_symbol
_atom_site_label
_atom_site_fract_x
_atom_site_fract_y
_atom_site_fract_z
Si Si1 0.220206 0.672738 0.530149
Si Si2 0.768475 0.917601 0.789494
Si Si3 0.239691 0.148640 0.889422
Si Si4 0.325996 0.700017 0.136534
Si Si5 0.268099 0.414233 0.281488
Si Si6 0.191539 0.163796 0.490389
Si Si7 0.274507 0.579915 0.871589
O O1 0.449011 0.693997 0.708822
O O2 0.174016 0.599022 0.390617
O O3 0.129613 0.751812 0.441987
O O4 0.194964 0.644618 0.699293
O O5 0.708504 0.861455 0.597786
O O6 0.729610 0.000000 0.704154
O O7 0.684021 0.902358 0.902617
O O8 0.000000 0.908922 0.000000
O O9 0.307001 0.150511 0.753501
O O10 0.016612 0.125400 0.683566
O O11 0.257745 0.229235 0.988326
O O12 0.247387 0.683204 0.251773
O O13 0.264552 0.611421 0.051303
O O14 0.500000 0.418533 0.500000
O O15 0.212846 0.500000 0.198854
O O16 0.195600 0.500000 0.790767
O O17 0.500000 0.575715 0.000000
#
# Coordination Sequence:
#
# PCOD9142926 Si02
#       7
#     4   4   4   4   4   4   4
#     4  10  18  30  49  72  99 132 171 213 256 305
#     4   9  19  36  57  81 106 133 170 212 254 307
#     4  10  20  34  54  79 106 135 167 209 259 308
#     4  10  18  30  49  72  99 132 171 213 256 305
#     4   9  17  28  45  71  98 127 172 226 266 295
#     4  10  20  34  54  79 106 135 167 209 259 308
#     4   9  16  26  43  67  94 127 168 210 247 285
#
# _framework density 27.14573
#
# number of rings (size 3 to 8) (size 9 to 14) (size 15 to 20)
#    0.000    2.429    1.429    1.714    0.000    4.000 
#    0.000    2.857    0.000    6.857    0.000    2.000 
#    0.000    0.000    0.000    0.000    0.000    0.000 
#
# Total GULP energy -155876.027892 kJ/mol
# GULP energy per Si atom -5567.000996 kJ/mol
# Density = 2.708395 g / cm^3
# Si number density = 27.145730 Si / 1000 Ang^3
#
#
#
# Elastic Constant Matrix: (Units=GPa)
#
#
# Indices 1 2 3 4 5 6 
#
# 1 51.6047 10.7842 28.1941 0.0000 -6.7973 0.0000
# 2 10.7842 124.6075 66.4428 0.0000 -36.5124 0.0000
# 3 28.1941 66.4428 114.8527 0.0000 -9.8693 0.0000
# 4 0.0000 0.0000 0.0000 -201.3098 0.0000 -182.0051
# 5 -6.7973 -36.5124 -9.8693 0.0000 48.1316 0.0000
# 6 0.0000 0.0000 0.0000 -182.0051 0.0000 -102.0175
#
#
#
# Elastic Compliance Matrix: (Units=1/GPa)
#
#
# Indices 1 2 3 4 5 6 
#
# 1 0.023139 0.002932 -0.007028 0.000000 0.004051 0.000000
# 2 0.002932 0.015499 -0.008795 0.000000 0.010368 0.000000
# 3 -0.007028 -0.008795 0.015128 0.000000 -0.004563 0.000000
# 4 0.000000 0.000000 0.000000 0.008104 0.000000 -0.014458
# 5 0.004051 0.010368 -0.004563 0.000000 0.028278 0.000000
# 6 0.000000 0.000000 0.000000 -0.014458 0.000000 0.015991
#
#
# Mechanical properties :
#
#
# Convention : Reuss Voigt Hill
#
# Bulk Modulus (GPa) = 35.73563 55.76745 45.75154
# Shear Modulus (GPa) = 35.39819 -38.66287 -1.63234
#
# Velocity S-wave (km/s) = 3.61502 -3.77805 -0.77629
# Velocity P-wave (km/s) = 5.53330 1.24773 4.01088
#
# Compressibility (1/GPa) = 0.02798327
#
# Stress axis : x y z
#
# Youngs Moduli (GPa) = 43.21759 64.51896 66.10217
#
# Poissons Ratio (x) = -0.18917 0.46458
# Poissons Ratio (y) = -0.12671 0.58138
# Poissons Ratio (z) = 0.30374 0.56746
#
# Static dielectric constant tensor:
#      x y z
#    x 2.188130 0.000000 -0.019590 
#    y 0.000000 2.067970 0.000000 
#    z -0.019590 0.000000 2.310020 
# 
# From -- ./inp_files/29615.got.cif
#   From: 2010.05.17/outbox.cif.g08.bks.cpg/sg10_15_cif.got.tgz:29615.got - 2010.06.03 11:33:40.
