data_PCOD9142213
_publ_section_title
;
Structure prediction by ZEFSAII (Michael W. Deem and Ramdas Pophale) SiO2 
 PCOD9142213
Probable space group: P 2/M
;
_chemical_formula_sum "Si O2"
_cell_formula_units_Z 32
_cell_length_a 11.736010
_cell_length_b 9.018170
_cell_length_c 23.656311
_cell_angle_alpha 90.000000
_cell_angle_beta 54.668236
_cell_angle_gamma 90.000000
_cell_volume 2042.578322
_symmetry_space_group_name_H-M "P 2/M"
_symmetry_group_IT_number 10
_symmetry_cell_setting 'monoclinic'
loop_
_space_group_symop_operation_xyz
x,y,z
-x,y,-z
-x,-y,-z
x,-y,z
loop_
_atom_site_type_symbol
_atom_site_label
_atom_site_fract_x
_atom_site_fract_y
_atom_site_fract_z
Si Si1 0.687606 0.821948 0.792845
Si Si2 0.885661 0.170120 0.481715
Si Si3 0.650902 0.819244 0.933727
Si Si4 0.466744 0.678751 0.770461
Si Si5 0.870275 0.179870 0.963689
Si Si6 0.093964 0.669998 0.345086
Si Si7 0.678714 0.670249 0.617881
Si Si8 0.187028 0.179419 0.891180
O O1 0.673935 0.777483 0.862141
O O2 0.564605 0.747992 0.791296
O O3 0.833049 0.766968 0.724150
O O4 0.676597 0.000000 0.791505
O O5 0.744116 0.234107 0.549060
O O6 0.000000 0.175221 0.500000
O O7 0.952895 0.264152 0.411865
O O8 0.870003 0.000000 0.469371
O O9 0.772095 0.767193 0.941352
O O10 0.651816 0.000000 0.934821
O O11 0.500000 0.771353 0.000000
O O12 0.471066 0.500000 0.773030
O O13 0.538474 0.720708 0.689951
O O14 0.312669 0.741652 0.823219
O O15 0.032794 0.222555 0.913678
O O16 0.869649 0.000000 0.962997
O O17 0.811606 0.220058 0.042468
O O18 0.077091 0.500000 0.332049
O O19 0.205968 0.671314 0.364704
O O20 0.663349 0.500000 0.603769
O O21 0.201080 0.000000 0.883276
#
# Coordination Sequence:
#
# PCOD9142213 Si02
#       8
#     4   4   4   4   4   4   4   4
#     4  10  18  27  42  62  83 111 148 182 210 250
#     4   9  15  22  35  55  77 103 138 176 206 240
#     4   9  16  26  43  66  89 111 138 176 218 255
#     4  10  19  29  41  59  87 117 143 175 215 256
#     4   8  15  28  45  67  88 107 138 179 220 255
#     4   9  16  26  38  52  78 113 142 171 209 251
#     4   8  15  25  35  50  75 109 140 166 205 252
#     4   9  16  28  48  66  82 108 143 180 213 254
#
# _framework density 15.666475
#
# number of rings (size 3 to 8) (size 9 to 14) (size 15 to 20)
#    0.000    3.000    0.000    3.750    0.000    7.000 
#    0.000    1.250    0.000    8.250    0.000    0.000 
#    0.000    1.000    0.000   11.500    0.000    5.625 
#
# Total GULP energy -178179.822368 kJ/mol
# GULP energy per Si atom -5568.119449 kJ/mol
# Density = 1.563082 g / cm^3
# Si number density = 15.666475 Si / 1000 Ang^3
#
#
#
# Elastic Constant Matrix: (Units=GPa)
#
#
# Indices 1 2 3 4 5 6 
#
# 1 47.3776 14.4921 40.3157 0.0000 -8.7791 0.0000
# 2 14.4921 46.0328 42.2652 0.0000 -8.6871 0.0000
# 3 40.3157 42.2652 136.2876 0.0000 -25.3571 0.0000
# 4 0.0000 0.0000 0.0000 13.5330 0.0000 -9.1429
# 5 -8.7791 -8.6871 -25.3571 0.0000 19.8411 0.0000
# 6 0.0000 0.0000 0.0000 -9.1429 0.0000 6.5113
#
#
#
# Elastic Compliance Matrix: (Units=1/GPa)
#
#
# Indices 1 2 3 4 5 6 
#
# 1 0.028384 -0.001657 -0.007453 0.000000 0.002309 0.000000
# 2 -0.001657 0.030510 -0.008688 0.000000 0.001521 0.000000
# 3 -0.007453 -0.008688 0.014320 0.000000 0.011200 0.000000
# 4 0.000000 0.000000 0.000000 1.438689 0.000000 2.020131
# 5 0.002309 0.001521 0.011200 0.000000 0.066401 0.000000
# 6 0.000000 0.000000 0.000000 2.020131 0.000000 2.990141
#
#
# Mechanical properties :
#
#
# Convention : Reuss Voigt Hill
#
# Bulk Modulus (GPa) = 26.58395 47.09379 36.83887
# Shear Modulus (GPa) = 1.08305 16.81875 8.95090
#
# Velocity S-wave (km/s) = 0.83236 3.28006 2.39287
# Velocity P-wave (km/s) = 4.23430 6.66863 5.58569
#
# Compressibility (1/GPa) = 0.03761669
#
# Stress axis : x y z
#
# Youngs Moduli (GPa) = 35.23157 32.77646 69.83123
#
# Poissons Ratio (x) = 0.05432 0.52044
# Poissons Ratio (y) = 0.05839 0.60672
# Poissons Ratio (z) = 0.26257 0.28477
#
# Static dielectric constant tensor:
#      x y z
#    x 1.507170 0.000000 -0.011500 
#    y 0.000000 1.523270 0.000000 
#    z -0.011500 0.000000 1.530310 
# 
# From -- ./inp_files/87203.got.cif
#   From: 2010.05.17/outbox.cif.g08.bks.cpg/sg10_44_cif.got.tgz:87203.got - 2010.06.03 11:33:40.
