data_PCOD9142002
_publ_section_title
;
Structure prediction by ZEFSAII (Michael W. Deem and Ramdas Pophale) SiO2 
 PCOD9142002
Probable space group: P 2/M
;
_chemical_formula_sum "Si O2"
_cell_formula_units_Z 26
_cell_length_a 14.434646
_cell_length_b 8.796738
_cell_length_c 19.982692
_cell_angle_alpha 90.000000
_cell_angle_beta 33.133707
_cell_angle_gamma 90.000000
_cell_volume 1386.906557
_symmetry_space_group_name_H-M "P 2/M"
_symmetry_group_IT_number 10
_symmetry_cell_setting 'monoclinic'
loop_
_space_group_symop_operation_xyz
x,y,z
-x,y,-z
-x,-y,-z
x,-y,z
loop_
_atom_site_type_symbol
_atom_site_label
_atom_site_fract_x
_atom_site_fract_y
_atom_site_fract_z
Si Si1 0.034382 0.181188 0.097353
Si Si2 0.611078 0.319470 0.161398
Si Si3 0.162256 0.816690 0.650284
Si Si4 0.255161 0.317455 0.324328
Si Si5 0.682770 0.828053 0.251235
Si Si6 0.500000 0.232872 0.500000
Si Si7 0.962975 0.181221 0.423431
O O1 0.978974 0.207476 0.207605
O O2 0.872093 0.232500 0.151476
O O3 0.045799 0.000000 0.081016
O O4 0.210468 0.254640 0.971269
O O5 0.616534 0.500000 0.155720
O O6 0.450037 0.269157 0.214996
O O7 0.589496 0.267489 0.251325
O O8 0.324405 0.713109 0.571569
O O9 0.094665 0.788549 0.617252
O O10 0.211576 0.000000 0.624458
O O11 0.245257 0.500000 0.324616
O O12 0.150598 0.240410 0.327755
O O13 0.159412 0.264639 0.449841
O O14 0.586715 0.834946 0.380311
O O15 0.696863 0.000000 0.217091
O O16 0.953991 0.000000 0.440258
#
# Coordination Sequence:
#
# PCOD9142002 Si02
#       7
#     4   4   4   4   4   2   4
#     4   9  19  35  53  75 104 137 172 209 254 306
#     4  11  23  36  51  73 102 139 179 214 250 296
#     4   9  17  30  51  79 107 132 162 206 256 303
#     4  10  21  36  52  73 104 138 171 209 255 306
#     4  10  19  32  54  80 105 136 170 208 256 306
#     4  10  17  30  53  82 111 134 161 200 251 312
#     4  10  19  33  56  83 104 127 165 211 259 305
#
# _framework density 18.746756999999999
#
# number of rings (size 3 to 8) (size 9 to 14) (size 15 to 20)
#    0.000    2.154    0.000    6.000    0.000    6.154 
#    0.000    2.692    0.000    7.385    0.000    0.000 
#    0.000    0.000    0.000    0.000    0.000    0.000 
#
# Total GULP energy -144841.237696 kJ/mol
# GULP energy per Si atom -5570.816834 kJ/mol
# Density = 1.870409 g / cm^3
# Si number density = 18.746757 Si / 1000 Ang^3
#
#
#
# Elastic Constant Matrix: (Units=GPa)
#
#
# Indices 1 2 3 4 5 6 
#
# 1 127.8186 21.0014 40.0878 0.0000 -7.5506 0.0000
# 2 21.0014 20.3478 10.4096 0.0000 -5.7038 0.0000
# 3 40.0878 10.4096 84.0815 0.0000 -17.7639 0.0000
# 4 0.0000 0.0000 0.0000 1.5027 0.0000 -13.8690
# 5 -7.5506 -5.7038 -17.7639 0.0000 28.7447 0.0000
# 6 0.0000 0.0000 0.0000 -13.8690 0.0000 8.2199
#
#
#
# Elastic Compliance Matrix: (Units=1/GPa)
#
#
# Indices 1 2 3 4 5 6 
#
# 1 0.010571 -0.009205 -0.004255 0.000000 -0.001679 0.000000
# 2 -0.009205 0.061872 -0.001367 0.000000 0.009015 0.000000
# 3 -0.004255 -0.001367 0.015870 0.000000 0.008418 0.000000
# 4 0.000000 0.000000 0.000000 -0.045666 0.000000 -0.077051
# 5 -0.001679 0.009015 0.008418 0.000000 0.041339 0.000000
# 6 0.000000 0.000000 0.000000 -0.077051 0.000000 -0.008348
#
#
# Mechanical properties :
#
#
# Convention : Reuss Voigt Hill
#
# Bulk Modulus (GPa) = 17.04760 41.69394 29.37077
# Shear Modulus (GPa) = 40.04977 18.41007 29.22992
#
# Velocity S-wave (km/s) = 4.62709 3.13715 3.95295
# Velocity P-wave (km/s) = 6.13677 5.95073 6.04447
#
# Compressibility (1/GPa) = 0.05865928
#
# Stress axis : x y z
#
# Youngs Moduli (GPa) = 94.59484 16.16240 63.01258
#
# Poissons Ratio (x) = 0.14877 0.26814
# Poissons Ratio (y) = 0.87072 0.08613
# Poissons Ratio (z) = 0.40254 0.02209
#
# Static dielectric constant tensor:
#      x y z
#    x 1.657760 0.000000 -0.021990 
#    y 0.000000 1.649710 0.000000 
#    z -0.021990 0.000000 1.652020 
# 
# From -- ./inp_files/84657.got.cif
#   From: 2010.05.17/outbox.cif.g08.bks.cpg/sg10_43_cif.got.tgz:84657.got - 2010.06.03 11:33:40.
