data_PCOD9142945
_publ_section_title
;
Structure prediction by ZEFSAII (Michael W. Deem and Ramdas Pophale) SiO2 
 PCOD9142945
Probable space group: P 2/M
;
_chemical_formula_sum "Si O2"
_cell_formula_units_Z 30
_cell_length_a 14.554222
_cell_length_b 24.355458
_cell_length_c 5.261309
_cell_angle_alpha 90.000000
_cell_angle_beta 61.333709
_cell_angle_gamma 90.000000
_cell_volume 1636.405245
_symmetry_space_group_name_H-M "P 2/M"
_symmetry_group_IT_number 10
_symmetry_cell_setting 'monoclinic'
loop_
_space_group_symop_operation_xyz
x,y,z
-x,y,-z
-x,-y,-z
x,-y,z
loop_
_atom_site_type_symbol
_atom_site_label
_atom_site_fract_x
_atom_site_fract_y
_atom_site_fract_z
Si Si1 0.781058 0.406050 0.856338
Si Si2 0.884627 0.299667 0.549156
Si Si3 0.612138 0.443346 0.717482
Si Si4 0.873398 0.937676 0.670326
Si Si5 0.379495 0.333452 0.602883
Si Si6 0.205949 0.250448 0.826203
Si Si7 0.127144 0.869892 0.829402
Si Si8 0.926088 0.500000 0.851136
O O1 0.854767 0.363636 0.609293
O O2 0.711256 0.443497 0.769333
O O3 0.851643 0.445709 0.937465
O O4 0.695191 0.365228 0.096560
O O5 0.868736 0.280283 0.282158
O O6 0.000000 0.291704 0.500000
O O7 0.818321 0.265163 0.847345
O O8 0.618129 0.500000 0.545446
O O9 0.615325 0.382770 0.602830
O O10 0.500000 0.445846 0.000000
O O11 0.844772 0.898137 0.474889
O O12 0.000000 0.940451 0.500000
O O13 0.834279 0.000000 0.692144
O O14 0.846887 0.911269 0.975894
O O15 0.500000 0.321038 0.500000
O O16 0.317747 0.278243 0.615915
O O17 0.187137 0.186704 0.799877
O O18 0.000000 0.859841 0.000000
O O19 0.000000 0.500000 0.500000
O O20 0.000000 0.500000 0.000000
#
# Coordination Sequence:
#
# PCOD9142945 Si02
#       8
#     4   4   4   4   4   4   4   2
#     4  11  24  39  60  82 109 146 182 227 287 352
#     4  11  22  37  56  77 108 147 193 228 275 333
#     4  11  22  38  63  86 110 137 184 239 303 359
#     4   9  17  29  48  76 113 155 192 233 278 319
#     4  11  24  40  60  85 115 144 185 243 304 356
#     4  11  23  37  57  82 113 154 191 241 285 340
#     4  10  18  30  49  76 113 151 195 233 271 328
#     4  12  30  46  62  86 118 148 184 230 282 346
#
# _framework density 18.332867
#
# number of rings (size 3 to 8) (size 9 to 14) (size 15 to 20)
#    0.000    1.333    3.333    2.800    2.800    5.067 
#    0.000    0.000    0.000    0.000    0.000    0.000 
#    0.000    3.200    0.000    0.000    0.000    0.000 
#
# Total GULP energy -167206.811461 kJ/mol
# GULP energy per Si atom -5573.560382 kJ/mol
# Density = 1.829114 g / cm^3
# Si number density = 18.332867 Si / 1000 Ang^3
#
#
#
# Elastic Constant Matrix: (Units=GPa)
#
#
# Indices 1 2 3 4 5 6 
#
# 1 89.1072 30.5177 10.4963 0.0000 -7.3676 0.0000
# 2 30.5177 129.7242 11.5663 0.0000 -2.8936 0.0000
# 3 10.4963 11.5663 40.2179 0.0000 4.2763 0.0000
# 4 0.0000 0.0000 0.0000 20.3541 0.0000 8.4407
# 5 -7.3676 -2.8936 4.2763 0.0000 24.4186 0.0000
# 6 0.0000 0.0000 0.0000 8.4407 0.0000 33.8743
#
#
#
# Elastic Compliance Matrix: (Units=1/GPa)
#
#
# Indices 1 2 3 4 5 6 
#
# 1 0.012825 -0.002657 -0.003017 0.000000 0.004083 0.000000
# 2 -0.002657 0.008507 -0.001809 0.000000 0.000523 0.000000
# 3 -0.003017 -0.001809 0.026791 0.000000 -0.005816 0.000000
# 4 0.000000 0.000000 0.000000 0.054792 0.000000 -0.013653
# 5 0.004083 0.000523 -0.005816 0.000000 0.043265 0.000000
# 6 0.000000 0.000000 0.000000 -0.013653 0.000000 0.032923
#
#
# Mechanical properties :
#
#
# Convention : Reuss Voigt Hill
#
# Bulk Modulus (GPa) = 30.15970 40.46776 35.31373
# Shear Modulus (GPa) = 24.37589 29.49400 26.93494
#
# Velocity S-wave (km/s) = 3.65036 4.01534 3.83719
# Velocity P-wave (km/s) = 5.85267 6.60448 6.23991
#
# Compressibility (1/GPa) = 0.03315683
#
# Stress axis : x y z
#
# Youngs Moduli (GPa) = 77.96981 117.55485 37.32650
#
# Poissons Ratio (x) = 0.31235 0.11262
# Poissons Ratio (y) = 0.20717 0.06751
# Poissons Ratio (z) = 0.23526 0.21261
#
# Static dielectric constant tensor:
#      x y z
#    x 1.613360 0.000000 0.072620 
#    y 0.000000 1.605910 0.000000 
#    z 0.072620 0.000000 1.725140 
# 
# From -- ./inp_files/10047.got.cif
#   From: 2010.05.17/outbox.cif.g08.bks.cpg/sg10_6_cif.got.tgz:10047.got - 2010.06.03 11:33:40.
