data_PCOD9142170
_publ_section_title
;
Structure prediction by ZEFSAII (Michael W. Deem and Ramdas Pophale) SiO2 
 PCOD9142170
Probable space group: P 2/M
;
_chemical_formula_sum "Si O2"
_cell_formula_units_Z 24
_cell_length_a 10.273449
_cell_length_b 14.531606
_cell_length_c 18.494878
_cell_angle_alpha 90.000000
_cell_angle_beta 157.003288
_cell_angle_gamma 90.000000
_cell_volume 1078.699922
_symmetry_space_group_name_H-M "P 2/M"
_symmetry_group_IT_number 10
_symmetry_cell_setting 'monoclinic'
loop_
_space_group_symop_operation_xyz
x,y,z
-x,y,-z
-x,-y,-z
x,-y,z
loop_
_atom_site_type_symbol
_atom_site_label
_atom_site_fract_x
_atom_site_fract_y
_atom_site_fract_z
Si Si1 0.669590 0.901306 0.507326
Si Si2 0.021955 0.893887 0.927469
Si Si3 0.764647 0.284515 0.036319
Si Si4 0.306862 0.606761 0.703795
Si Si5 0.834007 0.706309 0.619544
Si Si6 0.369797 0.395998 0.280115
O O1 0.500000 0.903391 0.500000
O O2 0.357205 0.893855 0.294427
O O3 0.874902 0.808073 0.607315
O O4 0.842121 0.000000 0.584829
O O5 0.222901 0.822728 0.979800
O O6 0.143444 0.000000 0.985620
O O7 0.000000 0.865086 0.000000
O O8 0.865779 0.305852 0.170597
O O9 0.079542 0.328065 0.154654
O O10 0.441316 0.334217 0.838776
O O11 0.239115 0.500000 0.689065
O O12 0.583296 0.604862 0.781660
O O13 0.000000 0.644696 0.500000
O O14 0.500000 0.709163 0.500000
O O15 0.710921 0.634729 0.495937
O O16 0.288942 0.500000 0.262082
#
# Coordination Sequence:
#
# PCOD9142170 Si02
#       6
#     4   4   4   4   4   4
#     4   9  14  25  41  63 104 138 156 191 242 292
#     4  10  18  26  42  73 107 134 162 199 243 289
#     4  11  19  31  52  76 102 131 163 204 246 292
#     4  10  22  38  53  70  95 131 171 206 247 298
#     4   9  17  28  43  75 103 128 157 199 247 294
#     4  10  19  32  51  75 101 126 159 205 251 296
#
# _framework density 22.249005
#
# number of rings (size 3 to 8) (size 9 to 14) (size 15 to 20)
#    0.000    2.167    5.000    2.000    0.000    5.000 
#    0.000    0.833    0.000    3.500    0.000    0.000 
#    0.000    2.667    0.000    0.000    0.000    0.000 
#
# Total GULP energy -133949.668762 kJ/mol
# GULP energy per Si atom -5581.236198 kJ/mol
# Density = 2.219837 g / cm^3
# Si number density = 22.249005 Si / 1000 Ang^3
#
#
#
# Elastic Constant Matrix: (Units=GPa)
#
#
# Indices 1 2 3 4 5 6 
#
# 1 62.7836 14.8704 21.4975 0.0000 -29.5758 0.0000
# 2 14.8704 99.7468 20.4866 0.0000 -15.1872 0.0000
# 3 21.4975 20.4866 129.2058 0.0000 -33.4095 0.0000
# 4 0.0000 0.0000 0.0000 -35.3954 0.0000 -130.9010
# 5 -29.5758 -15.1872 -33.4095 0.0000 44.9467 0.0000
# 6 0.0000 0.0000 0.0000 -130.9010 0.0000 -218.6264
#
#
#
# Elastic Compliance Matrix: (Units=1/GPa)
#
#
# Indices 1 2 3 4 5 6 
#
# 1 0.023222 -0.001218 0.000216 0.000000 0.015030 0.000000
# 2 -0.001218 0.010724 -0.000951 0.000000 0.002116 0.000000
# 3 0.000216 -0.000951 0.009666 0.000000 0.007005 0.000000
# 4 0.000000 0.000000 0.000000 0.023266 0.000000 -0.013931
# 5 0.015030 0.002116 0.007005 0.000000 0.038060 0.000000
# 6 0.000000 0.000000 0.000000 -0.013931 0.000000 0.003767
#
#
# Mechanical properties :
#
#
# Convention : Reuss Voigt Hill
#
# Bulk Modulus (GPa) = 25.18483 45.04946 35.11714
# Shear Modulus (GPa) = 39.73053 -26.15625 6.78714
#
# Velocity S-wave (km/s) = 4.23036 -3.43244 1.74847
# Velocity P-wave (km/s) = 5.93342 2.14078 4.46029
#
# Compressibility (1/GPa) = 0.03970644
#
# Stress axis : x y z
#
# Youngs Moduli (GPa) = 43.06184 93.24584 103.45651
#
# Poissons Ratio (x) = 0.11357 -0.02231
# Poissons Ratio (y) = 0.05245 0.09836
# Poissons Ratio (z) = -0.00928 0.08865
#
# Static dielectric constant tensor:
#      x y z
#    x 1.844360 0.000000 0.070280 
#    y 0.000000 1.838240 0.000000 
#    z 0.070280 0.000000 1.840760 
# 
# From -- ./inp_files/84160.got.cif
#   From: 2010.05.17/outbox.cif.g08.bks.cpg/sg10_43_cif.got.tgz:84160.got - 2010.06.03 11:33:40.
