data_PCOD9142675
_publ_section_title
;
Structure prediction by ZEFSAII (Michael W. Deem and Ramdas Pophale) SiO2 
 PCOD9142675
Probable space group: P 2/M
;
_chemical_formula_sum "Si O2"
_cell_formula_units_Z 28
_cell_length_a 9.349970
_cell_length_b 14.083043
_cell_length_c 20.860033
_cell_angle_alpha 90.000000
_cell_angle_beta 28.332762
_cell_angle_gamma 90.000000
_cell_volume 1303.592203
_symmetry_space_group_name_H-M "P 2/M"
_symmetry_group_IT_number 10
_symmetry_cell_setting 'monoclinic'
loop_
_space_group_symop_operation_xyz
x,y,z
-x,y,-z
-x,-y,-z
x,-y,z
loop_
_atom_site_type_symbol
_atom_site_label
_atom_site_fract_x
_atom_site_fract_y
_atom_site_fract_z
Si Si1 0.156408 0.111806 0.759956
Si Si2 0.046649 0.228296 0.686491
Si Si3 0.645238 0.609967 0.135024
Si Si4 0.430732 0.888974 0.930914
Si Si5 0.364211 0.888941 0.815606
Si Si6 0.310073 0.608485 0.132599
Si Si7 0.865096 0.758980 0.621809
O O1 0.230610 0.167122 0.665381
O O2 0.291440 0.151363 0.773451
O O3 0.228441 0.000000 0.723452
O O4 0.801770 0.118544 0.919040
O O5 0.716947 0.178060 0.819705
O O6 0.988993 0.332589 0.736717
O O7 0.093055 0.242117 0.592220
O O8 0.386154 0.500000 0.828945
O O9 0.528039 0.609680 0.108149
O O10 0.414980 0.685543 0.257032
O O11 0.000000 0.635207 0.000000
O O12 0.263585 0.864841 0.928842
O O13 0.521459 0.000000 0.890926
O O14 0.717833 0.863547 0.680787
O O15 0.296570 0.000000 0.835728
O O16 0.236150 0.500000 0.146213
O O17 0.500000 0.651543 0.000000
O O18 0.000000 0.738249 0.500000
#
# Coordination Sequence:
#
# PCOD9142675 Si02
#       7
#     4   4   4   4   4   4   4
#     4  10  18  29  48  75 104 134 175 227 275 315
#     4  10  19  30  47  70  99 136 179 218 260 311
#     4   9  19  36  59  87 112 134 170 221 270 316
#     4   9  16  27  45  72 105 136 168 212 271 331
#     4   9  19  33  49  72 103 141 182 223 267 316
#     4   9  17  29  46  72 106 138 166 200 251 315
#     4  10  22  38  55  76 106 147 186 219 265 323
#
# _framework density 21.479109000000001
#
# number of rings (size 3 to 8) (size 9 to 14) (size 15 to 20)
#    0.000    2.571    0.000    2.143    0.000    8.571 
#    0.000    0.714    0.000    1.714    0.000    0.000 
#    0.000   16.000    0.000    0.000    0.000    0.000 
#
# Total GULP energy -155960.238309 kJ/mol
# GULP energy per Si atom -5570.008511 kJ/mol
# Density = 2.143022 g / cm^3
# Si number density = 21.479109 Si / 1000 Ang^3
#
#
#
# Elastic Constant Matrix: (Units=GPa)
#
#
# Indices 1 2 3 4 5 6 
#
# 1 81.2874 28.0113 34.4110 0.0000 32.7132 0.0000
# 2 28.0113 66.1673 23.4751 0.0000 9.4973 0.0000
# 3 34.4110 23.4751 76.2098 0.0000 35.7564 0.0000
# 4 0.0000 0.0000 0.0000 10.6446 0.0000 6.0986
# 5 32.7132 9.4973 35.7564 0.0000 43.0886 0.0000
# 6 0.0000 0.0000 0.0000 6.0986 0.0000 25.2206
#
#
#
# Elastic Compliance Matrix: (Units=1/GPa)
#
#
# Indices 1 2 3 4 5 6 
#
# 1 0.020167 -0.006294 -0.001039 0.000000 -0.013062 0.000000
# 2 -0.006294 0.018957 -0.005370 0.000000 0.005056 0.000000
# 3 -0.001039 -0.005370 0.023449 0.000000 -0.017487 0.000000
# 4 0.000000 0.000000 0.000000 0.109053 0.000000 -0.026370
# 5 -0.013062 0.005056 -0.017487 0.000000 0.046521 0.000000
# 6 0.000000 0.000000 0.000000 -0.026370 0.000000 0.046027
#
#
# Mechanical properties :
#
#
# Convention : Reuss Voigt Hill
#
# Bulk Modulus (GPa) = 26.90485 43.93992 35.42238
# Shear Modulus (GPa) = 16.55798 24.97523 20.76661
#
# Velocity S-wave (km/s) = 2.77950 3.41364 3.11276
# Velocity P-wave (km/s) = 4.78059 6.00322 5.42645
#
# Compressibility (1/GPa) = 0.03716802
#
# Stress axis : x y z
#
# Youngs Moduli (GPa) = 49.58518 52.75058 42.64510
#
# Poissons Ratio (x) = 0.33202 0.04431
# Poissons Ratio (y) = 0.31210 0.22899
# Poissons Ratio (z) = 0.05152 0.28325
#
# Static dielectric constant tensor:
#      x y z
#    x 1.883390 0.000000 -0.030070 
#    y 0.000000 1.829060 0.000000 
#    z -0.030070 0.000000 1.828410 
# 
# From -- ./inp_files/42656.got.cif
#   From: 2010.05.17/outbox.cif.g08.bks.cpg/sg10_22_cif.got.tgz:42656.got - 2010.06.03 11:33:40.
