data_PCOD9142938
_publ_section_title
;
Structure prediction by ZEFSAII (Michael W. Deem and Ramdas Pophale) SiO2 
 PCOD9142938
Probable space group: P 2/M
;
_chemical_formula_sum "Si O2"
_cell_formula_units_Z 32
_cell_length_a 17.819918
_cell_length_b 13.241085
_cell_length_c 8.139201
_cell_angle_alpha 90.000000
_cell_angle_beta 113.637037
_cell_angle_gamma 90.000000
_cell_volume 1759.364024
_symmetry_space_group_name_H-M "P 2/M"
_symmetry_group_IT_number 10
_symmetry_cell_setting 'monoclinic'
loop_
_space_group_symop_operation_xyz
x,y,z
-x,y,-z
-x,-y,-z
x,-y,z
loop_
_atom_site_type_symbol
_atom_site_label
_atom_site_fract_x
_atom_site_fract_y
_atom_site_fract_z
Si Si1 0.149548 0.616160 0.042016
Si Si2 0.667379 0.610589 0.939495
Si Si3 0.450332 0.824205 0.792930
Si Si4 0.304242 0.885102 0.478803
Si Si5 0.572136 0.223575 0.661815
Si Si6 0.906376 0.618708 0.360616
Si Si7 0.359959 0.386047 0.700764
Si Si8 0.196099 0.298903 0.425649
O O1 0.123521 0.500000 0.047308
O O2 0.103104 0.654684 0.837124
O O3 0.243877 0.616886 0.065119
O O4 0.148519 0.670958 0.217291
O O5 0.631862 0.500000 0.868629
O O6 0.614190 0.701326 0.824664
O O7 0.673367 0.616591 0.141325
O O8 0.364559 0.879411 0.689715
O O9 0.514694 0.854557 0.708319
O O10 0.425127 0.705177 0.753915
O O11 0.500000 0.840923 0.000000
O O12 0.359181 0.828924 0.388234
O O13 0.225310 0.816715 0.441287
O O14 0.286757 0.000000 0.420579
O O15 0.500000 0.281238 0.500000
O O16 0.880191 0.500000 0.337636
O O17 0.853264 0.675274 0.452299
O O18 0.000000 0.623318 0.500000
O O19 0.390284 0.500000 0.695442
O O20 0.282851 0.360280 0.515765
#
# Coordination Sequence:
#
# PCOD9142938 Si02
#       8
#     4   4   4   4   4   4   4   4
#     4  10  19  32  55  85 115 149 186 214 251 319
#     4  10  18  30  49  74 108 149 186 221 265 323
#     4  10  20  32  52  73 103 136 181 231 283 341
#     4  10  23  40  56  73  95 134 186 242 293 330
#     4  10  20  35  49  72 106 140 177 235 286 329
#     4  10  21  36  57  91 129 154 173 205 253 317
#     4  10  19  31  50  76 110 151 186 220 269 329
#     4  11  20  36  60  79 110 148 186 227 269 322
#
# _framework density 18.188389999999998
#
# number of rings (size 3 to 8) (size 9 to 14) (size 15 to 20)
#    0.000    1.875    3.750    1.125    0.000    4.000 
#    0.000    1.875    0.000    0.375    0.000    0.875 
#    0.000    0.000    0.000    0.000    0.000    0.000 
#
# Total GULP energy -178327.665338 kJ/mol
# GULP energy per Si atom -5572.739542 kJ/mol
# Density = 1.814699 g / cm^3
# Si number density = 18.188390 Si / 1000 Ang^3
#
#
#
# Elastic Constant Matrix: (Units=GPa)
#
#
# Indices 1 2 3 4 5 6 
#
# 1 36.9990 18.6692 18.9048 0.0000 -0.8732 0.0000
# 2 18.6692 83.3653 26.0752 0.0000 -2.0350 0.0000
# 3 18.9048 26.0752 131.8589 0.0000 -1.9437 0.0000
# 4 0.0000 0.0000 0.0000 48.7266 0.0000 -140.9697
# 5 -0.8732 -2.0350 -1.9437 0.0000 18.4078 0.0000
# 6 0.0000 0.0000 0.0000 -140.9697 0.0000 478.5212
#
#
#
# Elastic Compliance Matrix: (Units=1/GPa)
#
#
# Indices 1 2 3 4 5 6 
#
# 1 0.031813 -0.006063 -0.003355 0.000000 0.000485 0.000000
# 2 -0.006063 0.013966 -0.001877 0.000000 0.001058 0.000000
# 3 -0.003355 -0.001877 0.008444 0.000000 0.000525 0.000000
# 4 0.000000 0.000000 0.000000 0.138934 0.000000 0.040929
# 5 0.000485 0.001058 0.000525 0.000000 0.054520 0.000000
# 6 0.000000 0.000000 0.000000 0.040929 0.000000 0.014147
#
#
# Mechanical properties :
#
#
# Convention : Reuss Voigt Hill
#
# Bulk Modulus (GPa) = 31.61283 42.16905 36.89094
# Shear Modulus (GPa) = 16.95158 121.70273 69.32715
#
# Velocity S-wave (km/s) = 3.05618 8.18887 6.18053
# Velocity P-wave (km/s) = 5.46554 10.61344 8.44148
#
# Compressibility (1/GPa) = 0.03163273
#
# Stress axis : x y z
#
# Youngs Moduli (GPa) = 31.43389 71.60190 118.43059
#
# Poissons Ratio (x) = 0.43413 0.39732
# Poissons Ratio (y) = 0.19059 0.22229
# Poissons Ratio (z) = 0.10546 0.13439
#
# Static dielectric constant tensor:
#      x y z
#    x 1.627110 0.000000 -0.028770 
#    y 0.000000 1.629530 0.000000 
#    z -0.028770 0.000000 1.701010 
# 
# From -- ./inp_files/34636.got.cif
#   From: 2010.05.17/outbox.cif.g08.bks.cpg/sg10_18_cif.got.tgz:34636.got - 2010.06.03 11:33:40.
