data_PCOD9142291
_publ_section_title
;
Structure prediction by ZEFSAII (Michael W. Deem and Ramdas Pophale) SiO2 
 PCOD9142291
Probable space group: P 2/M
;
_chemical_formula_sum "Si O2"
_cell_formula_units_Z 28
_cell_length_a 13.764751
_cell_length_b 8.959171
_cell_length_c 15.036168
_cell_angle_alpha 90.000000
_cell_angle_beta 102.090111
_cell_angle_gamma 90.000000
_cell_volume 1813.142780
_symmetry_space_group_name_H-M "P 2/M"
_symmetry_group_IT_number 10
_symmetry_cell_setting 'monoclinic'
loop_
_space_group_symop_operation_xyz
x,y,z
-x,y,-z
-x,-y,-z
x,-y,z
loop_
_atom_site_type_symbol
_atom_site_label
_atom_site_fract_x
_atom_site_fract_y
_atom_site_fract_z
Si Si1 0.634150 0.818318 0.103997
Si Si2 0.711400 0.320587 0.556235
Si Si3 0.592539 0.180024 0.898321
Si Si4 0.111625 0.320350 0.540484
Si Si5 0.756969 0.825934 0.289628
Si Si6 0.428557 0.826552 0.610044
Si Si7 0.372913 0.677666 0.278218
O O1 0.524168 0.775067 0.117627
O O2 0.720096 0.766586 0.187092
O O3 0.635107 0.000000 0.107099
O O4 0.640592 0.775234 0.001914
O O5 0.699365 0.500000 0.544939
O O6 0.811914 0.277252 0.523853
O O7 0.620740 0.241655 0.487556
O O8 0.705915 0.284141 0.659395
O O9 0.640941 0.248068 0.820153
O O10 0.594507 0.000000 0.892853
O O11 0.110699 0.500000 0.544180
O O12 0.157962 0.259501 0.640774
O O13 0.000000 0.267968 0.500000
O O14 0.658594 0.819211 0.332767
O O15 0.784780 0.000000 0.286676
O O16 0.522111 0.735525 0.663203
O O17 0.455399 0.000000 0.603086
O O18 0.375717 0.500000 0.268768
#
# Coordination Sequence:
#
# PCOD9142291 Si02
#       7
#     4   4   4   4   4   4   4
#     4   8  14  27  45  63  85 116 149 181 215 248
#     4   9  19  32  43  59  86 116 142 175 222 265
#     4   9  16  28  45  61  84 119 155 182 205 245
#     4   9  18  33  50  66  84 109 143 181 221 265
#     4   9  16  28  46  67  89 113 142 176 218 259
#     4  10  18  28  43  62  85 116 152 181 203 246
#     4  11  20  28  39  59  90 122 146 174 214 253
#
# _framework density 15.442799000000001
#
# number of rings (size 3 to 8) (size 9 to 14) (size 15 to 20)
#    0.000    2.714    1.429    2.143    0.000    3.714 
#    0.000    2.143    0.000    0.000    0.000    1.000 
#    0.000    8.000    0.000    0.000    0.000    0.000 
#
# Total GULP energy -155994.988295 kJ/mol
# GULP energy per Si atom -5571.249582 kJ/mol
# Density = 1.540765 g / cm^3
# Si number density = 15.442799 Si / 1000 Ang^3
#
#
#
# Elastic Constant Matrix: (Units=GPa)
#
#
# Indices 1 2 3 4 5 6 
#
# 1 58.7665 18.0813 51.7365 0.0000 11.2704 0.0000
# 2 18.0813 18.6185 31.9849 0.0000 -1.7680 0.0000
# 3 51.7365 31.9849 154.4718 0.0000 0.4441 0.0000
# 4 0.0000 0.0000 0.0000 16.9459 0.0000 -1.1952
# 5 11.2704 -1.7680 0.4441 0.0000 19.1381 0.0000
# 6 0.0000 0.0000 0.0000 -1.1952 0.0000 12.5564
#
#
#
# Elastic Compliance Matrix: (Units=1/GPa)
#
#
# Indices 1 2 3 4 5 6 
#
# 1 0.034564 -0.024719 -0.006393 0.000000 -0.022489 0.000000
# 2 -0.024719 0.102317 -0.012977 0.000000 0.024310 0.000000
# 3 -0.006393 -0.012977 0.011295 0.000000 0.002304 0.000000
# 4 0.000000 0.000000 0.000000 0.059410 0.000000 0.005655
# 5 -0.022489 0.024310 0.002304 0.000000 0.067688 0.000000
# 6 0.000000 0.000000 0.000000 0.005655 0.000000 0.080179
#
#
# Mechanical properties :
#
#
# Convention : Reuss Voigt Hill
#
# Bulk Modulus (GPa) = 16.66716 48.38469 32.52592
# Shear Modulus (GPa) = 10.78447 18.39836 14.59142
#
# Velocity S-wave (km/s) = 2.64550 3.45539 3.07721
# Velocity P-wave (km/s) = 4.48863 6.87890 5.80806
#
# Compressibility (1/GPa) = 0.05999822
#
# Stress axis : x y z
#
# Youngs Moduli (GPa) = 28.93224 9.77356 88.53257
#
# Poissons Ratio (x) = 0.24159 0.56601
# Poissons Ratio (y) = 0.71517 1.14886
# Poissons Ratio (z) = 0.18497 0.12683
#
# Static dielectric constant tensor:
#      x y z
#    x 1.498600 0.000000 -0.018230 
#    y 0.000000 1.517550 0.000000 
#    z -0.018230 0.000000 1.542680 
# 
# From -- ./inp_files/54709.got.cif
#   From: 2010.05.17/outbox.cif.g08.bks.cpg/sg10_28_cif.got.tgz:54709.got - 2010.06.03 11:33:40.
