data_PCOD9142324
_publ_section_title
;
Structure prediction by ZEFSAII (Michael W. Deem and Ramdas Pophale) SiO2 
 PCOD9142324
Probable space group: P 2/M
;
_chemical_formula_sum "Si O2"
_cell_formula_units_Z 28
_cell_length_a 8.874319
_cell_length_b 17.922251
_cell_length_c 11.339166
_cell_angle_alpha 90.000000
_cell_angle_beta 140.961132
_cell_angle_gamma 90.000000
_cell_volume 1135.910397
_symmetry_space_group_name_H-M "P 2/M"
_symmetry_group_IT_number 10
_symmetry_cell_setting 'monoclinic'
loop_
_space_group_symop_operation_xyz
x,y,z
-x,y,-z
-x,-y,-z
x,-y,z
loop_
_atom_site_type_symbol
_atom_site_label
_atom_site_fract_x
_atom_site_fract_y
_atom_site_fract_z
Si Si1 0.199511 0.211482 0.755557
Si Si2 0.048301 0.079751 0.325931
Si Si3 0.096916 0.714180 0.252271
Si Si4 0.759306 0.345993 0.402524
Si Si5 0.544093 0.916341 0.875287
Si Si6 0.753257 0.860961 0.774625
Si Si7 0.662807 0.584607 0.719119
O O1 0.967465 0.155859 0.609602
O O2 0.250482 0.280076 0.699646
O O3 0.393226 0.150834 0.835341
O O4 0.155602 0.247784 0.860617
O O5 0.233060 0.090031 0.333342
O O6 0.072792 0.000000 0.400310
O O7 0.798953 0.080339 0.097680
O O8 0.186805 0.690512 0.436861
O O9 0.252085 0.776575 0.278070
O O10 0.125722 0.641499 0.188810
O O11 0.513301 0.389270 0.281230
O O12 0.000000 0.388871 0.500000
O O13 0.570499 0.894941 0.755281
O O14 0.444486 0.000000 0.828026
O O15 0.000000 0.863465 0.000000
O O16 0.500000 0.584383 0.500000
O O17 0.741237 0.500000 0.786629
#
# Coordination Sequence:
#
# PCOD9142324 Si02
#       7
#     4   4   4   4   4   4   4
#     4  10  18  28  44  65  93 126 156 184 227 278
#     4   9  17  29  45  67  94 123 158 201 241 269
#     4   9  18  32  48  67  94 124 153 187 226 272
#     4   9  18  31  48  71  97 123 149 182 226 272
#     4  10  18  28  45  69  94 120 157 205 245 269
#     4   9  17  29  48  70  91 121 159 196 234 278
#     4   9  17  31  52  74  94 118 149 184 224 271
#
# _framework density 24.649830000000001
#
# number of rings (size 3 to 8) (size 9 to 14) (size 15 to 20)
#    0.000    2.714    0.000    2.143    0.000    3.143 
#    0.000    2.143    0.000   31.286    0.000    0.000 
#    0.000   13.714    0.000    0.000    0.000    0.000 
#
# Total GULP energy -156055.551656 kJ/mol
# GULP energy per Si atom -5573.412559 kJ/mol
# Density = 2.459373 g / cm^3
# Si number density = 24.649830 Si / 1000 Ang^3
#
#
#
# Elastic Constant Matrix: (Units=GPa)
#
#
# Indices 1 2 3 4 5 6 
#
# 1 210.5862 105.3543 26.1722 0.0000 -16.5735 0.0000
# 2 105.3543 195.6177 6.5121 0.0000 -0.6588 0.0000
# 3 26.1722 6.5121 71.6846 0.0000 -2.6535 0.0000
# 4 0.0000 0.0000 0.0000 10.3815 0.0000 9.3211
# 5 -16.5735 -0.6588 -2.6535 0.0000 36.2483 0.0000
# 6 0.0000 0.0000 0.0000 9.3211 0.0000 19.8107
#
#
#
# Elastic Compliance Matrix: (Units=1/GPa)
#
#
# Indices 1 2 3 4 5 6 
#
# 1 0.007137 -0.003762 -0.002152 0.000000 0.003037 0.000000
# 2 -0.003762 0.007111 0.000671 0.000000 -0.001542 0.000000
# 3 -0.002152 0.000671 0.014678 0.000000 0.000103 0.000000
# 4 0.000000 0.000000 0.000000 0.166782 0.000000 -0.078472
# 5 0.003037 -0.001542 0.000103 0.000000 0.028956 0.000000
# 6 0.000000 0.000000 0.000000 -0.078472 0.000000 0.087399
#
#
# Mechanical properties :
#
#
# Convention : Reuss Voigt Hill
#
# Bulk Modulus (GPa) = 54.23000 83.77397 69.00198
# Shear Modulus (GPa) = 15.21162 35.94478 25.57820
#
# Velocity S-wave (km/s) = 2.48686 3.82280 3.22477
# Velocity P-wave (km/s) = 5.50399 7.31741 6.47450
#
# Compressibility (1/GPa) = 0.01843998
#
# Stress axis : x y z
#
# Youngs Moduli (GPa) = 140.11042 140.63440 68.12705
#
# Poissons Ratio (x) = 0.52907 0.14658
# Poissons Ratio (y) = 0.52710 -0.04568
# Poissons Ratio (z) = 0.30146 -0.09430
#
# Static dielectric constant tensor:
#      x y z
#    x 2.054820 0.000000 0.101900 
#    y 0.000000 1.963240 0.000000 
#    z 0.101900 0.000000 2.193960 
# 
# From -- ./inp_files/61279.got.cif
#   From: 2010.05.17/outbox.cif.g08.bks.cpg/sg10_31_cif.got.tgz:61279.got - 2010.06.03 11:33:40.
