data_PCOD9142402
_publ_section_title
;
Structure prediction by ZEFSAII (Michael W. Deem and Ramdas Pophale) SiO2 
 PCOD9142402
Probable space group: P 2/M
;
_chemical_formula_sum "Si O2"
_cell_formula_units_Z 32
_cell_length_a 29.389957
_cell_length_b 8.776602
_cell_length_c 23.420058
_cell_angle_alpha 90.000000
_cell_angle_beta 17.203298
_cell_angle_gamma 90.000000
_cell_volume 1786.722957
_symmetry_space_group_name_H-M "P 2/M"
_symmetry_group_IT_number 10
_symmetry_cell_setting 'monoclinic'
loop_
_space_group_symop_operation_xyz
x,y,z
-x,y,-z
-x,-y,-z
x,-y,z
loop_
_atom_site_type_symbol
_atom_site_label
_atom_site_fract_x
_atom_site_fract_y
_atom_site_fract_z
Si Si1 0.775789 0.318353 0.015446
Si Si2 0.366395 0.820094 0.033769
Si Si3 0.119274 0.178411 0.227555
Si Si4 0.898005 0.684536 0.176212
Si Si5 0.036840 0.818865 0.778248
Si Si6 0.123771 0.675146 0.403798
Si Si7 0.438305 0.684353 0.393643
Si Si8 0.645270 0.317018 0.635465
O O1 0.780678 0.500000 0.018850
O O2 0.840464 0.278876 0.875256
O O3 0.881942 0.235552 0.933782
O O4 0.598761 0.263323 0.227369
O O5 0.250734 0.798783 0.118276
O O6 0.279336 0.744300 0.191483
O O7 0.383119 0.000000 0.022842
O O8 0.527990 0.745895 0.822919
O O9 0.958046 0.228179 0.448852
O O10 0.117098 0.000000 0.214881
O O11 0.904364 0.500000 0.173359
O O12 0.954735 0.754162 0.167669
O O13 0.718205 0.729127 0.386825
O O14 0.000000 0.730624 0.000000
O O15 0.183109 0.749317 0.568984
O O16 0.049328 0.000000 0.763767
O O17 0.144321 0.500000 0.396628
O O18 0.000000 0.677287 0.500000
O O19 0.443959 0.500000 0.386751
O O20 0.419910 0.729515 0.349239
O O21 0.651080 0.500000 0.630670
#
# Coordination Sequence:
#
# PCOD9142402 Si02
#       8
#     4   4   4   4   4   4   4   4
#     4  11  20  34  54  77 107 143 182 222 267 317
#     4  10  18  28  46  74 106 137 174 224 279 323
#     4  10  19  30  46  72 106 139 175 220 277 325
#     4   9  18  37  63  87 110 140 178 218 260 312
#     4  11  23  37  53  79 112 143 177 218 270 320
#     4   9  17  28  43  66  98 138 182 224 268 317
#     4   8  16  30  53  82 106 133 175 221 260 304
#     4  10  18  33  54  77 103 137 182 226 269 319
#
# _framework density 17.909883000000001
#
# number of rings (size 3 to 8) (size 9 to 14) (size 15 to 20)
#    0.000    2.250    1.250    3.750    0.000    2.750 
#    0.000    1.250    0.000    4.500    0.000    5.250 
#    0.000    0.000    0.000    0.000    0.000    0.000 
#
# Total GULP energy -178550.235318 kJ/mol
# GULP energy per Si atom -5579.694854 kJ/mol
# Density = 1.786912 g / cm^3
# Si number density = 17.909883 Si / 1000 Ang^3
#
#
#
# Elastic Constant Matrix: (Units=GPa)
#
#
# Indices 1 2 3 4 5 6 
#
# 1 31.7306 12.5509 41.0592 0.0000 -13.4375 0.0000
# 2 12.5509 53.3920 24.4085 0.0000 -1.9110 0.0000
# 3 41.0592 24.4085 143.3449 0.0000 -0.2244 0.0000
# 4 0.0000 0.0000 0.0000 15.5519 0.0000 -1.4207
# 5 -13.4375 -1.9110 -0.2244 0.0000 26.3704 0.0000
# 6 0.0000 0.0000 0.0000 -1.4207 0.0000 15.7060
#
#
#
# Elastic Compliance Matrix: (Units=1/GPa)
#
#
# Indices 1 2 3 4 5 6 
#
# 1 0.078401 -0.007360 -0.021142 0.000000 0.039237 0.000000
# 2 -0.007360 0.021056 -0.001481 0.000000 -0.002237 0.000000
# 3 -0.021142 -0.001481 0.013267 0.000000 -0.010768 0.000000
# 4 0.000000 0.000000 0.000000 0.064837 0.000000 0.005865
# 5 0.039237 -0.002237 -0.010768 0.000000 0.057662 0.000000
# 6 0.000000 0.000000 0.000000 0.005865 0.000000 0.064200
#
#
# Mechanical properties :
#
#
# Convention : Reuss Voigt Hill
#
# Bulk Modulus (GPa) = 18.95426 42.72274 30.83850
# Shear Modulus (GPa) = 13.26346 21.55559 17.40953
#
# Velocity S-wave (km/s) = 2.72429 3.47300 3.12117
# Velocity P-wave (km/s) = 4.52789 6.32363 5.49955
#
# Compressibility (1/GPa) = 0.05275858
#
# Stress axis : x y z
#
# Youngs Moduli (GPa) = 12.75494 47.49152 75.37293
#
# Poissons Ratio (x) = 0.34954 1.59355
# Poissons Ratio (y) = 0.09388 0.11161
# Poissons Ratio (z) = 0.26967 0.07032
#
# Static dielectric constant tensor:
#      x y z
#    x 1.598860 0.000000 -0.011330 
#    y 0.000000 1.593470 0.000000 
#    z -0.011330 0.000000 1.615210 
# 
# From -- ./inp_files/86805.got.cif
#   From: 2010.05.17/outbox.cif.g08.bks.cpg/sg10_44_cif.got.tgz:86805.got - 2010.06.03 11:33:40.
