data_PCOD9142656
_publ_section_title
;
Structure prediction by ZEFSAII (Michael W. Deem and Ramdas Pophale) SiO2 
 PCOD9142656
Probable space group: P 2/M
;
_chemical_formula_sum "Si O2"
_cell_formula_units_Z 24
_cell_length_a 15.274360
_cell_length_b 17.286589
_cell_length_c 9.172495
_cell_angle_alpha 90.000000
_cell_angle_beta 29.433187
_cell_angle_gamma 90.000000
_cell_volume 1190.151636
_symmetry_space_group_name_H-M "P 2/M"
_symmetry_group_IT_number 10
_symmetry_cell_setting 'monoclinic'
loop_
_space_group_symop_operation_xyz
x,y,z
-x,y,-z
-x,-y,-z
x,-y,z
loop_
_atom_site_type_symbol
_atom_site_label
_atom_site_fract_x
_atom_site_fract_y
_atom_site_fract_z
Si Si1 0.249912 0.181521 0.631884
Si Si2 0.785836 0.413223 0.339666
Si Si3 0.250088 0.681521 0.868117
Si Si4 0.146974 0.282949 0.537238
Si Si5 0.285836 0.086777 0.839666
Si Si6 0.353026 0.782949 0.962764
O O1 0.129834 0.210498 0.673865
O O2 0.209070 0.108043 0.791411
O O3 0.454323 0.181862 0.278146
O O4 0.250002 0.250000 0.749998
O O5 0.739121 0.500000 0.451852
O O6 0.751957 0.349362 0.514387
O O7 0.709070 0.391957 0.291411
O O8 0.000000 0.408574 0.000000
O O9 0.045676 0.681862 0.221853
O O10 0.370164 0.710497 0.826142
O O11 0.250000 0.249999 0.250002
O O12 0.500000 0.091426 0.500000
O O13 0.251958 0.150638 0.014387
O O14 0.239122 0.000000 0.951853
#
# Coordination Sequence:
#
# PCOD9142656 Si02
#       6
#     4   4   4   4   4   4
#     4   9  17  30  49  68  89 122 158 187 221 273
#     4   8  15  29  48  68  91 122 158 190 223 269
#     4   9  17  30  49  68  89 122 158 187 221 273
#     4  10  18  29  48  72  95 118 150 194 235 270
#     4   8  15  29  48  68  91 122 158 190 223 269
#     4  10  18  29  48  72  95 118 150 194 235 270
#
# _framework density 20.165496999999998
#
# number of rings (size 3 to 8) (size 9 to 14) (size 15 to 20)
#    0.000    3.000    0.000    4.000    0.000    0.000 
#    0.000    1.667    0.000   40.000    0.000    0.000 
#    0.000    0.000    0.000    0.000    0.000    0.000 
#
# Total GULP energy -133615.232577 kJ/mol
# GULP energy per Si atom -5567.301357 kJ/mol
# Density = 2.011960 g / cm^3
# Si number density = 20.165497 Si / 1000 Ang^3
#
#
#
# Elastic Constant Matrix: (Units=GPa)
#
#
# Indices 1 2 3 4 5 6 
#
# 1 73.3324 25.8085 28.1689 0.0000 7.4105 0.0000
# 2 25.8085 109.3772 34.6680 0.0000 22.5788 0.0000
# 3 28.1689 34.6680 86.5948 0.0000 22.1630 0.0000
# 4 0.0000 0.0000 0.0000 21.3281 0.0000 7.1186
# 5 7.4105 22.5788 22.1630 0.0000 32.8636 0.0000
# 6 0.0000 0.0000 0.0000 7.1186 0.0000 22.5485
#
#
#
# Elastic Compliance Matrix: (Units=1/GPa)
#
#
# Indices 1 2 3 4 5 6 
#
# 1 0.016177 -0.002635 -0.004517 0.000000 0.001209 0.000000
# 2 -0.002635 0.011717 -0.002327 0.000000 -0.005887 0.000000
# 3 -0.004517 -0.002327 0.016049 0.000000 -0.008206 0.000000
# 4 0.000000 0.000000 0.000000 0.052409 0.000000 -0.016546
# 5 0.001209 -0.005887 -0.008206 0.000000 0.039735 0.000000
# 6 0.000000 0.000000 0.000000 -0.016546 0.000000 0.049572
#
#
# Mechanical properties :
#
#
# Convention : Reuss Voigt Hill
#
# Bulk Modulus (GPa) = 40.02307 49.62167 44.82237
# Shear Modulus (GPa) = 23.48023 27.39199 25.43611
#
# Velocity S-wave (km/s) = 3.41600 3.68959 3.55543
# Velocity P-wave (km/s) = 5.95392 6.54304 6.25542
#
# Compressibility (1/GPa) = 0.02498559
#
# Stress axis : x y z
#
# Youngs Moduli (GPa) = 61.81728 85.34455 62.30828
#
# Poissons Ratio (x) = 0.22488 0.28142
# Poissons Ratio (y) = 0.16288 0.14500
# Poissons Ratio (z) = 0.27921 0.19861
#
# Static dielectric constant tensor:
#      x y z
#    x 1.823400 0.000000 -0.074600 
#    y 0.000000 1.780560 0.000000 
#    z -0.074600 0.000000 1.780890 
# 
# From -- ./inp_files/32966.got.cif
#   From: 2010.05.17/outbox.cif.g08.bks.cpg/sg10_17_cif.got.tgz:32966.got - 2010.06.03 11:33:40.
