data_PCOD9142414
_publ_section_title
;
Structure prediction by ZEFSAII (Michael W. Deem and Ramdas Pophale) SiO2 
 PCOD9142414
Probable space group: P 2/M
;
_chemical_formula_sum "Si O2"
_cell_formula_units_Z 28
_cell_length_a 29.482848
_cell_length_b 8.955688
_cell_length_c 17.732865
_cell_angle_alpha 90.000000
_cell_angle_beta 22.529465
_cell_angle_gamma 90.000000
_cell_volume 1794.013710
_symmetry_space_group_name_H-M "P 2/M"
_symmetry_group_IT_number 10
_symmetry_cell_setting 'monoclinic'
loop_
_space_group_symop_operation_xyz
x,y,z
-x,y,-z
-x,-y,-z
x,-y,z
loop_
_atom_site_type_symbol
_atom_site_label
_atom_site_fract_x
_atom_site_fract_y
_atom_site_fract_z
Si Si1 0.556722 0.677617 0.675219
Si Si2 0.464997 0.821064 0.675798
Si Si3 0.588094 0.678925 0.798458
Si Si4 0.843770 0.823739 0.389568
Si Si5 0.916289 0.677359 0.955268
Si Si6 0.188262 0.823821 0.737008
Si Si7 0.692737 0.179127 0.222428
O O1 0.574511 0.500000 0.639256
O O2 0.463700 0.736572 0.756975
O O3 0.533740 0.708226 0.798786
O O4 0.677514 0.765305 0.470975
O O5 0.359969 0.784208 0.778880
O O6 0.587483 0.783828 0.443397
O O7 0.464937 0.000000 0.687397
O O8 0.605438 0.500000 0.777518
O O9 0.716104 0.756118 0.605934
O O10 0.500000 0.726721 0.000000
O O11 0.857753 0.803241 0.277385
O O12 0.954240 0.744323 0.259195
O O13 0.845360 0.000000 0.401823
O O14 0.919224 0.500000 0.948218
O O15 0.879675 0.733448 0.094948
O O16 0.813105 0.740302 0.059975
O O17 0.183952 0.000000 0.761922
O O18 0.709114 0.000000 0.201244
#
# Coordination Sequence:
#
# PCOD9142414 Si02
#       7
#     4   4   4   4   4   4   4
#     4  10  18  28  47  73  97 124 159 197 237 281
#     4   9  17  30  47  66  92 129 165 198 236 276
#     4   9  19  36  54  73  99 126 153 193 243 289
#     4  10  21  34  49  68  92 125 162 198 234 281
#     4  12  22  30  44  68  96 128 162 197 236 278
#     4  10  19  31  45  63  92 129 164 195 230 274
#     4   9  18  31  46  64  92 131 168 197 231 276
#
# _framework density 15.607462
#
# number of rings (size 3 to 8) (size 9 to 14) (size 15 to 20)
#    0.000    2.143    1.429    3.857    0.000    4.857 
#    0.000    1.429    0.000    0.000    0.000    1.000 
#    0.000    8.000    0.000    0.000    0.000    0.000 
#
# Total GULP energy -156193.150840 kJ/mol
# GULP energy per Si atom -5578.326816 kJ/mol
# Density = 1.557194 g / cm^3
# Si number density = 15.607462 Si / 1000 Ang^3
#
#
#
# Elastic Constant Matrix: (Units=GPa)
#
#
# Indices 1 2 3 4 5 6 
#
# 1 109.2404 61.7774 70.1447 0.0000 -18.4062 0.0000
# 2 61.7774 64.4202 44.1413 0.0000 -16.0106 0.0000
# 3 70.1447 44.1413 77.9675 0.0000 -9.5780 0.0000
# 4 0.0000 0.0000 0.0000 5.3115 0.0000 -15.1806
# 5 -18.4062 -16.0106 -9.5780 0.0000 21.1863 0.0000
# 6 0.0000 0.0000 0.0000 -15.1806 0.0000 6.0161
#
#
#
# Elastic Compliance Matrix: (Units=1/GPa)
#
#
# Indices 1 2 3 4 5 6 
#
# 1 0.030380 -0.015165 -0.017906 0.000000 0.006838 0.000000
# 2 -0.015165 0.037132 -0.005877 0.000000 0.012229 0.000000
# 3 -0.017906 -0.005877 0.031559 0.000000 -0.005731 0.000000
# 4 0.000000 0.000000 0.000000 -0.030309 0.000000 -0.076478
# 5 0.006838 0.012229 -0.005731 0.000000 0.059792 0.000000
# 6 0.000000 0.000000 0.000000 -0.076478 0.000000 -0.026759
#
#
# Mechanical properties :
#
#
# Convention : Reuss Voigt Hill
#
# Bulk Modulus (GPa) = 47.22528 67.08387 57.15458
# Shear Modulus (GPa) = 26.77379 11.54044 19.15712
#
# Velocity S-wave (km/s) = 4.14629 2.72217 3.50728
# Velocity P-wave (km/s) = 7.29699 7.27706 7.28703
#
# Compressibility (1/GPa) = 0.02117510
#
# Stress axis : x y z
#
# Youngs Moduli (GPa) = 32.91628 26.93113 31.68682
#
# Poissons Ratio (x) = 0.40840 0.56740
# Poissons Ratio (y) = 0.49916 0.18622
# Poissons Ratio (z) = 0.58941 0.15827
#
# Static dielectric constant tensor:
#      x y z
#    x 1.547410 0.000000 -0.013770 
#    y 0.000000 1.516120 0.000000 
#    z -0.013770 0.000000 1.498040 
# 
# From -- ./inp_files/80630.got.cif
#   From: 2010.05.17/outbox.cif.g08.bks.cpg/sg10_41_cif.got.tgz:80630.got - 2010.06.03 11:33:40.
