data_PCOD9142289
_publ_section_title
;
Structure prediction by ZEFSAII (Michael W. Deem and Ramdas Pophale) SiO2 
 PCOD9142289
Probable space group: P 2/M
;
_chemical_formula_sum "Si O2"
_cell_formula_units_Z 22
_cell_length_a 5.367134
_cell_length_b 13.838888
_cell_length_c 16.505990
_cell_angle_alpha 90.000000
_cell_angle_beta 51.705485
_cell_angle_gamma 90.000000
_cell_volume 962.196914
_symmetry_space_group_name_H-M "P 2/M"
_symmetry_group_IT_number 10
_symmetry_cell_setting 'monoclinic'
loop_
_space_group_symop_operation_xyz
x,y,z
-x,y,-z
-x,-y,-z
x,-y,z
loop_
_atom_site_type_symbol
_atom_site_label
_atom_site_fract_x
_atom_site_fract_y
_atom_site_fract_z
Si Si1 0.432706 0.894722 0.403785
Si Si2 0.883787 0.500000 0.929439
Si Si3 0.141005 0.161093 0.291475
Si Si4 0.174998 0.301951 0.540285
Si Si5 0.791210 0.108204 0.123167
Si Si6 0.118632 0.708065 0.070102
O O1 0.297239 0.884720 0.341057
O O2 0.294562 0.802377 0.479015
O O3 0.811869 0.886155 0.332162
O O4 0.339527 0.000000 0.454692
O O5 0.500000 0.500000 0.000000
O O6 0.982353 0.603825 0.873694
O O7 0.000000 0.500000 0.000000
O O8 0.434409 0.141791 0.173127
O O9 0.048348 0.269767 0.339800
O O10 0.500000 0.352275 0.500000
O O11 0.000000 0.349695 0.500000
O O12 0.943195 0.198263 0.141043
O O13 0.796612 0.000000 0.157634
O O14 0.000000 0.101482 0.000000
O O15 0.500000 0.716386 0.000000
O O16 0.000000 0.704256 0.000000
#
# Coordination Sequence:
#
# PCOD9142289 Si02
#       6
#     4   2   4   4   4   4
#     4  10  18  28  43  60  76 100 139 185 228 263
#     4   8  14  28  50  70  84 102 138 190 240 272
#     4  10  20  31  42  57  80 111 145 179 215 256
#     4   8  16  27  41  59  76  97 132 179 226 264
#     4  10  21  34  46  63  92 130 164 187 211 256
#     4   9  18  32  49  67  86 112 149 191 230 264
#
# _framework density 22.864339999999999
#
# number of rings (size 3 to 8) (size 9 to 14) (size 15 to 20)
#    0.000    2.727    0.000    1.636    0.000   10.545 
#    0.000    3.636    0.000    0.000    0.000    0.000 
#    0.000    0.000    0.000   14.727    0.000    4.909 
#
# Total GULP energy -122602.395334 kJ/mol
# GULP energy per Si atom -5572.836152 kJ/mol
# Density = 2.281230 g / cm^3
# Si number density = 22.864340 Si / 1000 Ang^3
#
#
#
# Elastic Constant Matrix: (Units=GPa)
#
#
# Indices 1 2 3 4 5 6 
#
# 1 173.8596 12.0940 32.9882 0.0000 -41.0401 0.0000
# 2 12.0940 133.1515 5.4938 0.0000 -16.9047 0.0000
# 3 32.9882 5.4938 93.0222 0.0000 -30.1820 0.0000
# 4 0.0000 0.0000 0.0000 4.9071 0.0000 -5.3294
# 5 -41.0401 -16.9047 -30.1820 0.0000 46.1774 0.0000
# 6 0.0000 0.0000 0.0000 -5.3294 0.0000 7.6103
#
#
#
# Elastic Compliance Matrix: (Units=1/GPa)
#
#
# Indices 1 2 3 4 5 6 
#
# 1 0.007309 0.000142 -0.000604 0.000000 0.006153 0.000000
# 2 0.000142 0.007905 0.000587 0.000000 0.003404 0.000000
# 3 -0.000604 0.000587 0.013739 0.000000 0.008658 0.000000
# 4 0.000000 0.000000 0.000000 0.851042 0.000000 0.595973
# 5 0.006153 0.003404 0.008658 0.000000 0.034030 0.000000
# 6 0.000000 0.000000 0.000000 0.595973 0.000000 0.548752
#
#
# Mechanical properties :
#
#
# Convention : Reuss Voigt Hill
#
# Bulk Modulus (GPa) = 34.24169 55.68728 44.96448
# Shear Modulus (GPa) = 3.39614 35.03610 19.21612
#
# Velocity S-wave (km/s) = 1.22007 3.91877 2.90218
# Velocity P-wave (km/s) = 4.12229 6.69955 5.56225
#
# Compressibility (1/GPa) = 0.02920417
#
# Stress axis : x y z
#
# Youngs Moduli (GPa) = 136.81899 126.49759 72.78651
#
# Poissons Ratio (x) = -0.01799 0.04395
# Poissons Ratio (y) = -0.01946 -0.04274
# Poissons Ratio (z) = 0.08262 -0.07428
#
# Static dielectric constant tensor:
#      x y z
#    x 2.004970 0.000000 0.092190 
#    y 0.000000 1.900860 0.000000 
#    z 0.092190 0.000000 2.026310 
# 
# From -- ./inp_files/81338.got.cif
#   From: 2010.05.17/outbox.cif.g08.bks.cpg/sg10_41_cif.got.tgz:81338.got - 2010.06.03 11:33:40.
