data_PCOD9142667
_publ_section_title
;
Structure prediction by ZEFSAII (Michael W. Deem and Ramdas Pophale) SiO2 
 PCOD9142667
Probable space group: P 2/M
;
_chemical_formula_sum "Si O2"
_cell_formula_units_Z 28
_cell_length_a 5.317455
_cell_length_b 17.779563
_cell_length_c 13.810786
_cell_angle_alpha 90.000000
_cell_angle_beta 101.566052
_cell_angle_gamma 90.000000
_cell_volume 1279.186437
_symmetry_space_group_name_H-M "P 2/M"
_symmetry_group_IT_number 10
_symmetry_cell_setting 'monoclinic'
loop_
_space_group_symop_operation_xyz
x,y,z
-x,y,-z
-x,-y,-z
x,-y,z
loop_
_atom_site_type_symbol
_atom_site_label
_atom_site_fract_x
_atom_site_fract_y
_atom_site_fract_z
Si Si1 0.075660 0.671381 0.737318
Si Si2 0.227120 0.885108 0.955320
Si Si3 0.506239 0.330073 0.609381
Si Si4 0.839978 0.500000 0.258497
Si Si5 0.598699 0.091869 0.613842
Si Si6 0.844447 0.909008 0.276157
Si Si7 0.773374 0.287962 0.043814
Si Si8 0.600344 0.500000 0.639932
O O1 0.270135 0.687515 0.663249
O O2 0.111672 0.584180 0.776285
O O3 0.156427 0.716227 0.838330
O O4 0.782487 0.684054 0.681186
O O5 0.174573 0.889889 0.837710
O O6 0.245859 0.798476 0.991874
O O7 0.500000 0.919596 0.000000
O O8 0.000000 0.919153 0.000000
O O9 0.500000 0.297555 0.500000
O O10 0.492760 0.420897 0.596308
O O11 0.539175 0.500000 0.265116
O O12 0.092013 0.500000 0.350862
O O13 0.500000 0.112956 0.500000
O O14 0.397763 0.118018 0.679759
O O15 0.886113 0.118285 0.658692
O O16 0.603494 0.000000 0.616668
O O17 0.844684 0.000000 0.283495
O O18 0.500000 0.324314 0.000000
O O19 0.000000 0.324900 0.000000
#
# Coordination Sequence:
#
# PCOD9142667 Si02
#       8
#     4   4   4   2   4   4   4   2
#     4  10  19  33  51  72 100 128 160 205 242 285
#     4  10  21  36  54  75  99 128 165 206 247 299
#     4  10  18  29  48  74 102 132 160 190 240 296
#     4   8  16  28  45  71  97 122 155 197 247 284
#     4   9  17  30  49  74 105 139 172 202 233 281
#     4  10  19  31  51  78 105 133 164 202 250 290
#     4  10  21  38  57  73  91 127 173 207 244 293
#     4   8  15  26  42  67  99 130 159 189 226 288
#
# _framework density 21.888915000000001
#
# number of rings (size 3 to 8) (size 9 to 14) (size 15 to 20)
#    0.000    2.429    0.000    2.786    0.000    2.286 
#    0.000    5.000    0.000    5.143    0.000    0.000 
#    0.000    0.000    0.000    0.000    0.000    0.000 
#
# Total GULP energy -156023.767168 kJ/mol
# GULP energy per Si atom -5572.277399 kJ/mol
# Density = 2.183909 g / cm^3
# Si number density = 21.888915 Si / 1000 Ang^3
#
#
#
# Elastic Constant Matrix: (Units=GPa)
#
#
# Indices 1 2 3 4 5 6 
#
# 1 150.5350 -5.6595 29.3961 0.0000 -5.7491 0.0000
# 2 -5.6595 40.0127 -26.7331 0.0000 0.7711 0.0000
# 3 29.3961 -26.7331 73.5957 0.0000 -5.7093 0.0000
# 4 0.0000 0.0000 0.0000 -27.3637 0.0000 15.3075
# 5 -5.7491 0.7711 -5.7093 0.0000 34.3510 0.0000
# 6 0.0000 0.0000 0.0000 15.3075 0.0000 -26.2794
#
#
#
# Elastic Compliance Matrix: (Units=1/GPa)
#
#
# Indices 1 2 3 4 5 6 
#
# 1 0.007265 -0.001173 -0.003274 0.000000 0.000698 0.000000
# 2 -0.001173 0.033245 0.012634 0.000000 0.001157 0.000000
# 3 -0.003274 0.012634 0.019674 0.000000 0.002438 0.000000
# 4 0.000000 0.000000 0.000000 -0.054209 0.000000 -0.031576
# 5 0.000698 0.001157 0.002438 0.000000 0.029607 0.000000
# 6 0.000000 0.000000 0.000000 -0.031576 0.000000 -0.056445
#
#
# Mechanical properties :
#
#
# Convention : Reuss Voigt Hill
#
# Bulk Modulus (GPa) = 13.06182 28.68335 20.87259
# Shear Modulus (GPa) = -426.68957 13.95091 -206.36933
#
# Velocity S-wave (km/s) = -13.97703 2.52732 -9.72034
# Velocity P-wave (km/s) = 15.95293 4.65284 10.78998
#
# Compressibility (1/GPa) = 0.07655899
#
# Stress axis : x y z
#
# Youngs Moduli (GPa) = 137.64970 30.07959 50.82873
#
# Poissons Ratio (x) = 0.03529 0.16640
# Poissons Ratio (y) = 0.16148 -0.64219
# Poissons Ratio (z) = 0.45063 -0.38004
#
# Static dielectric constant tensor:
#      x y z
#    x 1.784370 0.000000 -0.037640 
#    y 0.000000 1.842950 0.000000 
#    z -0.037640 0.000000 1.764620 
# 
# From -- ./inp_files/39732.got.cif
#   From: 2010.05.17/outbox.cif.g08.bks.cpg/sg10_20_cif.got.tgz:39732.got - 2010.06.03 11:33:40.
