data_PCOD9142730
_publ_section_title
;
Structure prediction by ZEFSAII (Michael W. Deem and Ramdas Pophale) SiO2 
 PCOD9142730
Probable space group: P 2/M
;
_chemical_formula_sum "Si O2"
_cell_formula_units_Z 28
_cell_length_a 17.471845
_cell_length_b 20.009895
_cell_length_c 11.573024
_cell_angle_alpha 90.000000
_cell_angle_beta 160.065060
_cell_angle_gamma 90.000000
_cell_volume 1379.509862
_symmetry_space_group_name_H-M "P 2/M"
_symmetry_group_IT_number 10
_symmetry_cell_setting 'monoclinic'
loop_
_space_group_symop_operation_xyz
x,y,z
-x,y,-z
-x,-y,-z
x,-y,z
loop_
_atom_site_type_symbol
_atom_site_label
_atom_site_fract_x
_atom_site_fract_y
_atom_site_fract_z
Si Si1 0.814956 0.399029 0.340445
Si Si2 0.721662 0.812064 0.752962
Si Si3 0.264859 0.074981 0.408326
Si Si4 0.763394 0.247614 0.215023
Si Si5 0.301129 0.282908 0.473796
Si Si6 0.711360 0.572913 0.452453
Si Si7 0.801099 0.171863 0.484555
O O1 0.807245 0.318632 0.339462
O O2 0.834141 0.423319 0.500818
O O3 0.000000 0.414757 0.500000
O O4 0.561848 0.422713 0.949927
O O5 0.500000 0.789338 0.500000
O O6 0.649764 0.873115 0.566420
O O7 0.799441 0.751788 0.781091
O O8 0.926471 0.833155 0.125575
O O9 0.282193 0.109080 0.558524
O O10 0.355931 0.000000 0.532580
O O11 0.000000 0.072389 0.000000
O O12 0.706964 0.189188 0.225409
O O13 0.000000 0.227268 0.500000
O O14 0.570971 0.268349 0.851966
O O15 0.241935 0.359661 0.410082
O O16 0.246703 0.237927 0.507638
O O17 0.762727 0.500000 0.576369
#
# Coordination Sequence:
#
# PCOD9142730 Si02
#       7
#     4   4   4   4   4   4   4
#     4   9  17  29  46  71 101 132 168 217 263 303
#     4  10  20  33  54  78 100 131 170 211 256 299
#     4   8  16  31  51  76 102 130 166 204 246 297
#     4  10  18  29  50  78 104 129 167 212 260 296
#     4  10  19  34  50  73 103 134 169 213 256 307
#     4  10  19  30  47  70  99 135 173 215 261 309
#     4  10  18  32  54  74  99 136 167 204 250 304
#
# _framework density 20.297063000000001
#
# number of rings (size 3 to 8) (size 9 to 14) (size 15 to 20)
#    0.000    2.429    1.429    3.429    0.000    1.429 
#    0.000    0.000    0.000    9.429    0.000    0.000 
#    0.000    0.000    0.000    0.000    0.000    0.000 
#
# Total GULP energy -155892.599309 kJ/mol
# GULP energy per Si atom -5567.592832 kJ/mol
# Density = 2.025087 g / cm^3
# Si number density = 20.297063 Si / 1000 Ang^3
#
#
#
# Elastic Constant Matrix: (Units=GPa)
#
#
# Indices 1 2 3 4 5 6 
#
# 1 73.9432 35.6041 25.0663 0.0000 14.2850 0.0000
# 2 35.6041 144.3777 5.8811 0.0000 -12.4580 0.0000
# 3 25.0663 5.8811 59.3047 0.0000 2.9894 0.0000
# 4 0.0000 0.0000 0.0000 8.3541 0.0000 5.7880
# 5 14.2850 -12.4580 2.9894 0.0000 31.9048 0.0000
# 6 0.0000 0.0000 0.0000 5.7880 0.0000 5.3442
#
#
#
# Elastic Compliance Matrix: (Units=1/GPa)
#
#
# Indices 1 2 3 4 5 6 
#
# 1 0.021095 -0.005834 -0.007784 0.000000 -0.010994 0.000000
# 2 -0.005834 0.008825 0.001291 0.000000 0.005937 0.000000
# 3 -0.007784 0.001291 0.019917 0.000000 0.002123 0.000000
# 4 0.000000 0.000000 0.000000 0.479517 0.000000 -0.519339
# 5 -0.010994 0.005937 0.002123 0.000000 0.038385 0.000000
# 6 0.000000 0.000000 0.000000 -0.519339 0.000000 0.749585
#
#
# Mechanical properties :
#
#
# Convention : Reuss Voigt Hill
#
# Bulk Modulus (GPa) = 39.70657 45.63650 42.67153
# Shear Modulus (GPa) = 3.70269 23.19225 13.44747
#
# Velocity S-wave (km/s) = 1.35211 3.38396 2.57676
# Velocity P-wave (km/s) = 4.69498 6.14828 5.47011
#
# Compressibility (1/GPa) = 0.02518475
#
# Stress axis : x y z
#
# Youngs Moduli (GPa) = 47.40375 113.32005 50.20859
#
# Poissons Ratio (x) = 0.66108 0.39081
# Poissons Ratio (y) = 0.27654 -0.06484
# Poissons Ratio (z) = 0.36898 -0.14634
#
# Static dielectric constant tensor:
#      x y z
#    x 1.758030 0.000000 0.015610 
#    y 0.000000 1.720330 0.000000 
#    z 0.015610 0.000000 1.799310 
# 
# From -- ./inp_files/54247.got.cif
#   From: 2010.05.17/outbox.cif.g08.bks.cpg/sg10_28_cif.got.tgz:54247.got - 2010.06.03 11:33:40.
