data_PCOD9142546
_publ_section_title
;
Structure prediction by ZEFSAII (Michael W. Deem and Ramdas Pophale) SiO2 
 PCOD9142546
Probable space group: P 2/M
;
_chemical_formula_sum "Si O2"
_cell_formula_units_Z 30
_cell_length_a 12.375715
_cell_length_b 30.091118
_cell_length_c 5.145639
_cell_angle_alpha 90.000000
_cell_angle_beta 73.399678
_cell_angle_gamma 90.000000
_cell_volume 1836.364669
_symmetry_space_group_name_H-M "P 2/M"
_symmetry_group_IT_number 10
_symmetry_cell_setting 'monoclinic'
loop_
_space_group_symop_operation_xyz
x,y,z
-x,y,-z
-x,-y,-z
x,-y,z
loop_
_atom_site_type_symbol
_atom_site_label
_atom_site_fract_x
_atom_site_fract_y
_atom_site_fract_z
Si Si1 0.636156 0.894526 0.902418
Si Si2 0.080322 0.500000 0.693198
Si Si3 0.748183 0.799729 0.795445
Si Si4 0.918553 0.402538 0.304432
Si Si5 0.761808 0.320674 0.267959
Si Si6 0.877180 0.226400 0.207668
Si Si7 0.636959 0.949454 0.403113
Si Si8 0.630734 0.705631 0.848746
O O1 0.688550 0.846817 0.806244
O O2 0.669787 0.929276 0.656444
O O3 0.500000 0.890331 0.000000
O O4 0.671197 0.915840 0.152248
O O5 0.138158 0.451717 0.642280
O O6 0.000000 0.500000 0.500000
O O7 0.000000 0.500000 0.000000
O O8 0.846897 0.792306 0.513420
O O9 0.664200 0.757856 0.821011
O O10 0.794086 0.795822 0.055889
O O11 0.828472 0.364393 0.308908
O O12 0.000000 0.395289 0.500000
O O13 0.000000 0.402780 0.000000
O O14 0.846998 0.278802 0.233953
O O15 0.663667 0.312642 0.544634
O O16 0.708496 0.317692 0.016640
O O17 0.000000 0.220313 0.000000
O O18 0.500000 0.950824 0.500000
O O19 0.675912 0.000000 0.335191
O O20 0.500000 0.700075 0.000000
#
# Coordination Sequence:
#
# PCOD9142546 Si02
#       8
#     4   2   4   4   4   4   4   4
#     4  10  18  29  46  67  94 124 151 182 219 266
#     4   8  16  28  44  68  97 126 149 186 242 290
#     4  10  20  32  48  69  92 122 159 187 225 277
#     4  10  18  30  48  72 101 125 154 194 238 291
#     4  10  20  31  49  72  91 126 163 189 234 285
#     4  10  20  33  47  66  95 122 150 192 232 270
#     4   9  17  28  43  65  94 124 149 178 222 271
#     4  10  20  34  48  67  96 126 161 201 231 264
#
# _framework density 16.336624
#
# number of rings (size 3 to 8) (size 9 to 14) (size 15 to 20)
#    0.000    2.267    0.000    3.600    0.000    3.733 
#    0.000    4.000    0.000    0.000    0.000    2.800 
#    0.000   37.333    0.000    0.000    0.000    0.000 
#
# Total GULP energy -167160.436146 kJ/mol
# GULP energy per Si atom -5572.014538 kJ/mol
# Density = 1.629944 g / cm^3
# Si number density = 16.336624 Si / 1000 Ang^3
#
#
#
# Elastic Constant Matrix: (Units=GPa)
#
#
# Indices 1 2 3 4 5 6 
#
# 1 21.7437 25.6204 8.9345 0.0000 -3.1658 0.0000
# 2 25.6204 103.2413 16.4402 0.0000 -5.0114 0.0000
# 3 8.9345 16.4402 78.8806 0.0000 10.9480 0.0000
# 4 0.0000 0.0000 0.0000 12.0941 0.0000 4.5646
# 5 -3.1658 -5.0114 10.9480 0.0000 26.2355 0.0000
# 6 0.0000 0.0000 0.0000 4.5646 0.0000 14.8199
#
#
#
# Elastic Compliance Matrix: (Units=1/GPa)
#
#
# Indices 1 2 3 4 5 6 
#
# 1 0.067650 -0.015557 -0.005457 0.000000 0.007469 0.000000
# 2 -0.015557 0.013817 -0.001299 0.000000 0.001304 0.000000
# 3 -0.005457 -0.001299 0.014534 0.000000 -0.006971 0.000000
# 4 0.000000 0.000000 0.000000 0.093561 0.000000 -0.028817
# 5 0.007469 0.001304 -0.006971 0.000000 0.042176 0.000000
# 6 0.000000 0.000000 0.000000 -0.028817 0.000000 0.076352
#
#
# Mechanical properties :
#
#
# Convention : Reuss Voigt Hill
#
# Bulk Modulus (GPa) = 19.46414 33.98395 26.72405
# Shear Modulus (GPa) = 13.51940 20.82128 17.17034
#
# Velocity S-wave (km/s) = 2.87984 3.57391 3.24548
# Velocity P-wave (km/s) = 4.79565 6.15450 5.51707
#
# Compressibility (1/GPa) = 0.05137652
#
# Stress axis : x y z
#
# Youngs Moduli (GPa) = 14.78197 72.37648 68.80576
#
# Poissons Ratio (x) = 1.12593 0.37545
# Poissons Ratio (y) = 0.22996 0.08935
# Poissons Ratio (z) = 0.08066 0.09399
#
# Static dielectric constant tensor:
#      x y z
#    x 1.533160 0.000000 0.013240 
#    y 0.000000 1.563890 0.000000 
#    z 0.013240 0.000000 1.546070 
# 
# From -- ./inp_files/8152.got.cif
#   From: 2010.05.17/outbox.cif.g08.bks.cpg/sg10_5_cif.got.tgz:8152.got - 2010.06.03 11:33:40.
