data_PCOD9142992
_publ_section_title
;
Structure prediction by ZEFSAII (Michael W. Deem and Ramdas Pophale) SiO2 
 PCOD9142992
Probable space group: P 2/M
;
_chemical_formula_sum "Si O2"
_cell_formula_units_Z 32
_cell_length_a 24.905077
_cell_length_b 7.678479
_cell_length_c 21.552483
_cell_angle_alpha 90.000000
_cell_angle_beta 156.632206
_cell_angle_gamma 90.000000
_cell_volume 1634.737797
_symmetry_space_group_name_H-M "P 2/M"
_symmetry_group_IT_number 10
_symmetry_cell_setting 'monoclinic'
loop_
_space_group_symop_operation_xyz
x,y,z
-x,y,-z
-x,-y,-z
x,-y,z
loop_
_atom_site_type_symbol
_atom_site_label
_atom_site_fract_x
_atom_site_fract_y
_atom_site_fract_z
Si Si1 0.931615 0.206226 0.666704
Si Si2 0.652529 0.703599 0.133142
Si Si3 0.467973 0.714165 0.118089
Si Si4 0.757865 0.710287 0.370476
Si Si5 0.271764 0.794956 0.443249
Si Si6 0.029196 0.711047 0.100608
Si Si7 0.831337 0.702042 0.997596
Si Si8 0.429382 0.295651 0.216041
O O1 0.884385 0.239031 0.546767
O O2 0.812762 0.273819 0.586820
O O3 0.069966 0.288191 0.838008
O O4 0.943940 0.000000 0.689696
O O5 0.688842 0.500000 0.164525
O O6 0.746825 0.776451 0.287887
O O7 0.500000 0.708783 0.000000
O O8 0.634021 0.775095 0.044300
O O9 0.468032 0.500000 0.117547
O O10 0.620076 0.767327 0.259611
O O11 0.433983 0.776007 0.150844
O O12 0.753372 0.500000 0.363046
O O13 0.174976 0.763492 0.282084
O O14 0.420436 0.717202 0.597377
O O15 0.289983 0.000000 0.471538
O O16 0.026073 0.500000 0.097782
O O17 0.917588 0.777317 0.031802
O O18 0.000000 0.770340 0.000000
O O19 0.809212 0.500000 0.957398
O O20 0.687921 0.780861 0.865085
O O21 0.396338 0.500000 0.173984
#
# Coordination Sequence:
#
# PCOD9142992 Si02
#       8
#     4   4   4   4   4   4   4   4
#     4  10  19  30  45  67  95 126 160 197 236 278
#     4   7  11  19  34  61  90 115 148 191 237 280
#     4   8  13  22  40  66  93 119 149 190 241 282
#     4   9  14  23  43  66  89 118 155 198 239 278
#     4  10  20  32  49  74 101 128 158 191 229 278
#     4   9  18  35  57  76  96 125 159 194 230 269
#     4   9  19  33  50  73  97 121 156 196 235 279
#     4  10  18  30  50  74  98 124 155 196 239 279
#
# _framework density 19.575005000000001
#
# number of rings (size 3 to 8) (size 9 to 14) (size 15 to 20)
#    0.000    3.000    1.250    2.250    0.000    1.750 
#    0.000    0.625    0.000    8.625    0.000    5.250 
#    0.000    0.000    0.000    0.000    0.000    0.000 
#
# Total GULP energy -178288.796968 kJ/mol
# GULP energy per Si atom -5571.524905 kJ/mol
# Density = 1.953045 g / cm^3
# Si number density = 19.575005 Si / 1000 Ang^3
#
#
#
# Elastic Constant Matrix: (Units=GPa)
#
#
# Indices 1 2 3 4 5 6 
#
# 1 94.5885 0.0318 63.5123 0.0000 -15.9422 0.0000
# 2 0.0318 34.7616 -10.9296 0.0000 5.7051 0.0000
# 3 63.5123 -10.9296 95.4495 0.0000 -5.1500 0.0000
# 4 0.0000 0.0000 0.0000 117.0087 0.0000 -51.1388
# 5 -15.9422 5.7051 -5.1500 0.0000 35.3998 0.0000
# 6 0.0000 0.0000 0.0000 -51.1388 0.0000 24.5892
#
#
#
# Elastic Compliance Matrix: (Units=1/GPa)
#
#
# Indices 1 2 3 4 5 6 
#
# 1 0.022063 -0.006146 -0.014912 0.000000 0.008757 0.000000
# 2 -0.006146 0.032232 0.007409 0.000000 -0.006885 0.000000
# 3 -0.014912 0.007409 0.020986 0.000000 -0.004857 0.000000
# 4 0.000000 0.000000 0.000000 0.093861 0.000000 0.195206
# 5 0.008757 -0.006885 -0.004857 0.000000 0.032595 0.000000
# 6 0.000000 0.000000 0.000000 0.195206 0.000000 0.446643
#
#
# Mechanical properties :
#
#
# Convention : Reuss Voigt Hill
#
# Bulk Modulus (GPa) = 20.84081 36.66984 28.75532
# Shear Modulus (GPa) = 7.22885 46.87855 27.05370
#
# Velocity S-wave (km/s) = 1.92378 4.89900 3.72163
# Velocity P-wave (km/s) = 3.95023 7.12558 5.76100
#
# Compressibility (1/GPa) = 0.04798279
#
# Stress axis : x y z
#
# Youngs Moduli (GPa) = 45.32499 31.02470 47.65189
#
# Poissons Ratio (x) = 0.19068 0.71058
# Poissons Ratio (y) = 0.27857 -0.35305
# Poissons Ratio (z) = 0.67588 -0.22986
#
# Static dielectric constant tensor:
#      x y z
#    x 1.708720 0.000000 -0.009010 
#    y 0.000000 1.719040 0.000000 
#    z -0.009010 0.000000 1.679500 
# 
# From -- ./inp_files/91224.got.cif
#   From: 2010.05.17/outbox.cif.g08.bks.cpg/sg10_46_cif.got.tgz:91224.got - 2010.06.03 11:33:40.
