data_PCOD9142503
_publ_section_title
;
Structure prediction by ZEFSAII (Michael W. Deem and Ramdas Pophale) SiO2 
 PCOD9142503
Probable space group: P 2/M
;
_chemical_formula_sum "Si O2"
_cell_formula_units_Z 32
_cell_length_a 15.585479
_cell_length_b 7.686350
_cell_length_c 14.616380
_cell_angle_alpha 90.000000
_cell_angle_beta 88.835594
_cell_angle_gamma 90.000000
_cell_volume 1750.614193
_symmetry_space_group_name_H-M "P 2/M"
_symmetry_group_IT_number 10
_symmetry_cell_setting 'monoclinic'
loop_
_space_group_symop_operation_xyz
x,y,z
-x,y,-z
-x,-y,-z
x,-y,z
loop_
_atom_site_type_symbol
_atom_site_label
_atom_site_fract_x
_atom_site_fract_y
_atom_site_fract_z
Si Si1 0.873985 0.302753 0.028332
Si Si2 0.100450 0.713068 0.486852
Si Si3 0.403798 0.212379 0.984777
Si Si4 0.023008 0.713109 0.810921
Si Si5 0.822381 0.709433 0.326038
Si Si6 0.276625 0.204991 0.836948
Si Si7 0.745272 0.799479 0.878143
Si Si8 0.145678 0.294627 0.285424
O O1 0.894188 0.500000 0.999107
O O2 0.951707 0.228579 0.087575
O O3 0.798241 0.303991 0.106585
O O4 0.827815 0.215970 0.943617
O O5 0.100279 0.500000 0.488639
O O6 0.157437 0.770653 0.572079
O O7 0.138954 0.772765 0.388945
O O8 0.000000 0.763907 0.500000
O O9 0.334911 0.274854 0.062393
O O10 0.405129 0.000000 0.989506
O O11 0.500000 0.274226 0.000000
O O12 0.364386 0.255733 0.885900
O O13 0.023359 0.500000 0.814559
O O14 0.096487 0.765617 0.737636
O O15 0.933897 0.775996 0.772039
O O16 0.821681 0.500000 0.327703
O O17 0.739085 0.765614 0.269962
O O18 0.263151 0.000000 0.855811
O O19 0.770724 0.726236 0.779004
O O20 0.726283 0.000000 0.864015
O O21 0.130022 0.500000 0.294050
#
# Coordination Sequence:
#
# PCOD9142503 Si02
#       8
#     4   4   4   4   4   4   4   4
#     4   9  16  28  45  62  83 115 154 186 213 250
#     4   9  15  26  47  68  84 113 165 208 219 236
#     4   8  15  30  51  69  85 111 146 178 213 267
#     4   8  14  24  41  62  81 111 153 189 212 240
#     4   9  15  26  44  65  89 118 154 193 223 248
#     4   9  16  26  43  69  95 115 138 176 228 276
#     4  10  20  32  44  63  91 116 140 178 228 276
#     4  10  18  29  45  63  86 117 155 193 222 250
#
# _framework density 18.279299000000002
#
# number of rings (size 3 to 8) (size 9 to 14) (size 15 to 20)
#    0.000    3.000    1.250    2.625    0.000    0.500 
#    0.000    6.250    0.000   14.250    0.000    0.875 
#    0.000    7.000    0.000    0.000    0.000    0.000 
#
# Total GULP energy -178242.314702 kJ/mol
# GULP energy per Si atom -5570.072334 kJ/mol
# Density = 1.823769 g / cm^3
# Si number density = 18.279299 Si / 1000 Ang^3
#
#
#
# Elastic Constant Matrix: (Units=GPa)
#
#
# Indices 1 2 3 4 5 6 
#
# 1 87.8871 5.0912 80.6599 0.0000 14.6087 0.0000
# 2 5.0912 30.6292 3.7177 0.0000 1.5834 0.0000
# 3 80.6599 3.7177 167.8363 0.0000 6.6446 0.0000
# 4 0.0000 0.0000 0.0000 -0.8924 0.0000 -1.2467
# 5 14.6087 1.5834 6.6446 0.0000 22.0278 0.0000
# 6 0.0000 0.0000 0.0000 -1.2467 0.0000 11.1193
#
#
#
# Elastic Compliance Matrix: (Units=1/GPa)
#
#
# Indices 1 2 3 4 5 6 
#
# 1 0.023298 -0.001952 -0.010675 0.000000 -0.012091 0.000000
# 2 -0.001952 0.033002 0.000253 0.000000 -0.001154 0.000000
# 3 -0.010675 0.000253 0.010934 0.000000 0.003763 0.000000
# 4 0.000000 0.000000 0.000000 -0.968790 0.000000 -0.108623
# 5 -0.012091 -0.001154 0.003763 0.000000 0.052364 0.000000
# 6 0.000000 0.000000 0.000000 -0.108623 0.000000 0.077755
#
#
# Mechanical properties :
#
#
# Convention : Reuss Voigt Hill
#
# Bulk Modulus (GPa) = 23.53721 51.69891 37.61806
# Shear Modulus (GPa) = -6.82568 19.57650 6.37541
#
# Velocity S-wave (km/s) = -1.93448 3.27611 1.86959
# Velocity P-wave (km/s) = 2.81332 6.53106 5.02839
#
# Compressibility (1/GPa) = 0.04248592
#
# Stress axis : x y z
#
# Youngs Moduli (GPa) = 42.92194 30.30118 91.45945
#
# Poissons Ratio (x) = 0.05914 0.97632
# Poissons Ratio (y) = 0.08378 -0.02311
# Poissons Ratio (z) = 0.45819 -0.00766
#
# Static dielectric constant tensor:
#      x y z
#    x 1.634960 0.000000 0.008130 
#    y 0.000000 1.681300 0.000000 
#    z 0.008130 0.000000 1.674270 
# 
# From -- ./inp_files/66174.got.cif
#   From: 2010.05.17/outbox.cif.g08.bks.cpg/sg10_34_cif.got.tgz:66174.got - 2010.06.03 11:33:40.
