data_PCOD9142821
_publ_section_title
;
Structure prediction by ZEFSAII (Michael W. Deem and Ramdas Pophale) SiO2 
 PCOD9142821
Probable space group: P 2/M
;
_chemical_formula_sum "Si O2"
_cell_formula_units_Z 24
_cell_length_a 12.353990
_cell_length_b 8.754152
_cell_length_c 20.787672
_cell_angle_alpha 90.000000
_cell_angle_beta 140.426362
_cell_angle_gamma 90.000000
_cell_volume 1432.233850
_symmetry_space_group_name_H-M "P 2/M"
_symmetry_group_IT_number 10
_symmetry_cell_setting 'monoclinic'
loop_
_space_group_symop_operation_xyz
x,y,z
-x,y,-z
-x,-y,-z
x,-y,z
loop_
_atom_site_type_symbol
_atom_site_label
_atom_site_fract_x
_atom_site_fract_y
_atom_site_fract_z
Si Si1 0.067053 0.676555 0.437499
Si Si2 0.618032 0.684457 0.614294
Si Si3 0.583735 0.180323 0.360861
Si Si4 0.703330 0.815509 0.282158
Si Si5 0.341470 0.183762 0.885417
Si Si6 0.981910 0.677413 0.738711
O O1 0.094099 0.500000 0.468813
O O2 0.223645 0.778887 0.530980
O O3 0.885828 0.738068 0.377961
O O4 0.058571 0.682089 0.356051
O O5 0.500000 0.736348 0.500000
O O6 0.621295 0.500000 0.612519
O O7 0.536406 0.734796 0.643877
O O8 0.812070 0.738869 0.694845
O O9 0.576541 0.224252 0.282169
O O10 0.554775 0.000000 0.353287
O O11 0.647266 0.769482 0.184625
O O12 0.725579 0.000000 0.293167
O O13 0.159775 0.237717 0.829018
O O14 0.343700 0.000000 0.887356
O O15 0.500000 0.240153 0.000000
O O16 0.004893 0.500000 0.767197
#
# Coordination Sequence:
#
# PCOD9142821 Si02
#       6
#     4   4   4   4   4   4
#     4  10  18  30  47  68  96 131 167 197 234 286
#     4  10  19  34  50  67  98 135 169 201 232 275
#     4  11  21  30  44  68 100 134 163 195 237 285
#     4   9  19  33  46  68 100 126 156 202 249 288
#     4   9  18  34  56  76  94 121 158 203 251 294
#     4   9  18  32  50  72  98 127 159 201 244 279
#
# _framework density 16.75704
#
# number of rings (size 3 to 8) (size 9 to 14) (size 15 to 20)
#    0.000    2.333    1.667    1.500    0.000    5.333 
#    0.000    0.000    0.000    1.000    0.000    7.000 
#    0.000    0.000    0.000    0.000    0.000    0.000 
#
# Total GULP energy -133811.079520 kJ/mol
# GULP energy per Si atom -5575.461647 kJ/mol
# Density = 1.671890 g / cm^3
# Si number density = 16.757040 Si / 1000 Ang^3
#
#
#
# Elastic Constant Matrix: (Units=GPa)
#
#
# Indices 1 2 3 4 5 6 
#
# 1 142.3780 14.8528 50.4289 0.0000 9.5735 0.0000
# 2 14.8528 5.7636 11.5720 0.0000 0.4931 0.0000
# 3 50.4289 11.5720 89.5920 0.0000 11.7877 0.0000
# 4 0.0000 0.0000 0.0000 15.1457 0.0000 5.3637
# 5 9.5735 0.4931 11.7877 0.0000 12.3384 0.0000
# 6 0.0000 0.0000 0.0000 5.3637 0.0000 27.6473
#
#
#
# Elastic Compliance Matrix: (Units=1/GPa)
#
#
# Indices 1 2 3 4 5 6 
#
# 1 0.010485 -0.021669 -0.002455 0.000000 -0.004924 0.000000
# 2 -0.021669 0.284554 -0.028906 0.000000 0.033057 0.000000
# 3 -0.002455 -0.028906 0.018157 0.000000 -0.014286 0.000000
# 4 0.000000 0.000000 0.000000 0.070896 0.000000 -0.013754
# 5 -0.004924 0.033057 -0.014286 0.000000 0.097196 0.000000
# 6 0.000000 0.000000 0.000000 -0.013754 0.000000 0.038838
#
#
# Mechanical properties :
#
#
# Convention : Reuss Voigt Hill
#
# Bulk Modulus (GPa) = 4.82777 43.49345 24.16061
# Shear Modulus (GPa) = 7.19185 21.75159 14.47172
#
# Velocity S-wave (km/s) = 2.07392 3.60676 2.94193
# Velocity P-wave (km/s) = 2.93635 6.58458 5.09798
#
# Compressibility (1/GPa) = 0.20713501
#
# Stress axis : x y z
#
# Youngs Moduli (GPa) = 95.37773 3.51427 55.07580
#
# Poissons Ratio (x) = 0.07615 0.13520
# Poissons Ratio (y) = 2.06674 1.59204
# Poissons Ratio (z) = 0.23414 0.10158
#
# Static dielectric constant tensor:
#      x y z
#    x 1.588980 0.000000 -0.020660 
#    y 0.000000 1.567110 0.000000 
#    z -0.020660 0.000000 1.553400 
# 
# From -- ./inp_files/45185.got.cif
#   From: 2010.05.17/outbox.cif.g08.bks.cpg/sg10_23_cif.got.tgz:45185.got - 2010.06.03 11:33:40.
