data_PCOD9142705
_publ_section_title
;
Structure prediction by ZEFSAII (Michael W. Deem and Ramdas Pophale) SiO2 
 PCOD9142705
Probable space group: P 2/M
;
_chemical_formula_sum "Si O2"
_cell_formula_units_Z 28
_cell_length_a 8.475242
_cell_length_b 16.128381
_cell_length_c 13.776320
_cell_angle_alpha 90.000000
_cell_angle_beta 52.176910
_cell_angle_gamma 90.000000
_cell_volume 1487.484977
_symmetry_space_group_name_H-M "P 2/M"
_symmetry_group_IT_number 10
_symmetry_cell_setting 'monoclinic'
loop_
_space_group_symop_operation_xyz
x,y,z
-x,y,-z
-x,-y,-z
x,-y,z
loop_
_atom_site_type_symbol
_atom_site_label
_atom_site_fract_x
_atom_site_fract_y
_atom_site_fract_z
Si Si1 0.420785 0.906784 0.263511
Si Si2 0.700791 0.907145 0.467115
Si Si3 0.680560 0.500000 0.068172
Si Si4 0.949148 0.678693 0.236319
Si Si5 0.211584 0.205788 0.864380
Si Si6 0.635797 0.323071 0.032516
Si Si7 0.882239 0.500000 0.199795
Si Si8 0.059668 0.208225 0.364052
O O1 0.335420 0.913226 0.404540
O O2 0.647562 0.874631 0.188216
O O3 0.274611 0.836835 0.273037
O O4 0.408972 0.000000 0.224770
O O5 0.500000 0.867621 0.500000
O O6 0.901476 0.856982 0.379998
O O7 0.718887 0.000000 0.418632
O O8 0.567074 0.416011 0.083825
O O9 0.741156 0.500000 0.158237
O O10 0.891554 0.500000 0.929887
O O11 0.823129 0.749190 0.225993
O O12 0.855480 0.586522 0.267571
O O13 0.022836 0.710540 0.313028
O O14 0.144864 0.671948 0.095645
O O15 0.336340 0.271374 0.881316
O O16 0.000000 0.191792 0.000000
O O17 0.500000 0.285062 0.000000
O O18 0.000000 0.221533 0.500000
#
# Coordination Sequence:
#
# PCOD9142705 Si02
#       8
#     4   4   2   4   4   4   2   4
#     4  10  20  34  52  75 106 140 176 222 271 315
#     4   9  17  31  53  79 101 127 172 228 275 316
#     4   9  15  28  48  76 105 131 168 219 262 310
#     4  10  19  33  52  74 104 141 175 216 263 315
#     4  10  20  33  52  76 107 144 179 215 257 318
#     4  10  18  29  49  77 108 134 169 215 264 317
#     4   9  16  30  51  74 104 136 174 214 262 308
#     4  10  20  34  53  78 105 138 179 224 273 311
#
# _framework density 18.823720000000002
#
# number of rings (size 3 to 8) (size 9 to 14) (size 15 to 20)
#    0.000    2.286    1.429    2.357    0.000    2.000 
#    0.000    1.071    0.000    9.000    0.000   10.500 
#    0.000    0.000    0.000    0.000    0.000    0.000 
#
# Total GULP energy -155901.407846 kJ/mol
# GULP energy per Si atom -5567.907423 kJ/mol
# Density = 1.878088 g / cm^3
# Si number density = 18.823720 Si / 1000 Ang^3
#
#
#
# Elastic Constant Matrix: (Units=GPa)
#
#
# Indices 1 2 3 4 5 6 
#
# 1 92.1076 37.1231 13.7134 0.0000 7.4736 0.0000
# 2 37.1231 92.9002 37.1728 0.0000 7.0610 0.0000
# 3 13.7134 37.1728 26.8513 0.0000 -0.1771 0.0000
# 4 0.0000 0.0000 0.0000 6.1505 0.0000 4.7657
# 5 7.4736 7.0610 -0.1771 0.0000 29.7296 0.0000
# 6 0.0000 0.0000 0.0000 4.7657 0.0000 28.3162
#
#
#
# Elastic Compliance Matrix: (Units=1/GPa)
#
#
# Indices 1 2 3 4 5 6 
#
# 1 0.013073 -0.005368 0.000742 0.000000 -0.002007 0.000000
# 2 -0.005368 0.027430 -0.035267 0.000000 -0.005375 0.000000
# 3 0.000742 -0.035267 0.085744 0.000000 0.008701 0.000000
# 4 0.000000 0.000000 0.000000 0.186971 0.000000 -0.031468
# 5 -0.002007 -0.005375 0.008701 0.000000 0.035470 0.000000
# 6 0.000000 0.000000 0.000000 -0.031468 0.000000 0.040612
#
#
# Mechanical properties :
#
#
# Convention : Reuss Voigt Hill
#
# Bulk Modulus (GPa) = 21.52393 43.09753 32.31073
# Shear Modulus (GPa) = 10.31836 21.09592 15.70714
#
# Velocity S-wave (km/s) = 2.34382 3.35133 2.89179
# Velocity P-wave (km/s) = 4.33404 6.15794 5.32467
#
# Compressibility (1/GPa) = 0.04645991
#
# Stress axis : x y z
#
# Youngs Moduli (GPa) = 76.49418 36.45672 11.66257
#
# Poissons Ratio (x) = 0.19571 -0.00866
# Poissons Ratio (y) = 0.41065 0.41131
# Poissons Ratio (z) = -0.05677 1.28573
#
# Static dielectric constant tensor:
#      x y z
#    x 1.662260 0.000000 -0.003570 
#    y 0.000000 1.709040 0.000000 
#    z -0.003570 0.000000 1.643090 
# 
# From -- ./inp_files/61790.got.cif
#   From: 2010.05.17/outbox.cif.g08.bks.cpg/sg10_31_cif.got.tgz:61790.got - 2010.06.03 11:33:40.
