data_PCOD9142624
_publ_section_title
;
Structure prediction by ZEFSAII (Michael W. Deem and Ramdas Pophale) SiO2 
 PCOD9142624
Probable space group: P 2/M
;
_chemical_formula_sum "Si O2"
_cell_formula_units_Z 32
_cell_length_a 17.772679
_cell_length_b 7.566454
_cell_length_c 26.907541
_cell_angle_alpha 90.000000
_cell_angle_beta 155.922199
_cell_angle_gamma 90.000000
_cell_volume 1476.232371
_symmetry_space_group_name_H-M "P 2/M"
_symmetry_group_IT_number 10
_symmetry_cell_setting 'monoclinic'
loop_
_space_group_symop_operation_xyz
x,y,z
-x,y,-z
-x,-y,-z
x,-y,z
loop_
_atom_site_type_symbol
_atom_site_label
_atom_site_fract_x
_atom_site_fract_y
_atom_site_fract_z
Si Si1 0.233041 0.291673 0.583229
Si Si2 0.763005 0.792896 0.980187
Si Si3 0.357548 0.709443 0.197192
Si Si4 0.090081 0.798526 0.683312
Si Si5 0.864205 0.216778 0.744714
Si Si6 0.585566 0.211242 0.659942
Si Si7 0.824908 0.783125 0.606615
Si Si8 0.641695 0.214764 0.234484
O O1 0.219900 0.500000 0.564317
O O2 0.433800 0.222565 0.686771
O O3 0.071140 0.200206 0.455507
O O4 0.235758 0.267192 0.644047
O O5 0.767328 0.777502 0.923035
O O6 0.565754 0.720193 0.879723
O O7 0.758525 0.000000 0.989652
O O8 0.943730 0.720718 0.115661
O O9 0.362951 0.500000 0.194468
O O10 0.312371 0.750241 0.226749
O O11 0.991170 0.719143 0.671899
O O12 0.264892 0.719709 0.759921
O O13 0.140461 0.000000 0.726737
O O14 0.698368 0.276220 0.680378
O O15 0.843819 0.268549 0.675290
O O16 0.862075 0.000000 0.744197
O O17 0.374932 0.277224 0.533723
O O18 0.574293 0.000000 0.648615
O O19 0.827040 0.000000 0.605495
O O20 0.640110 0.000000 0.232413
#
# Coordination Sequence:
#
# PCOD9142624 Si02
#       8
#     4   4   4   4   4   4   4   4
#     4  10  19  30  46  70 100 130 160 197 243 291
#     4   9  18  34  52  70  99 134 168 203 238 283
#     4  10  20  33  50  74 104 132 160 201 249 297
#     4  10  18  29  47  72  99 128 160 195 241 294
#     4   9  18  32  52  76  97 126 170 210 240 283
#     4  10  18  31  54  78  99 126 162 203 250 296
#     4   9  17  30  50  76 103 126 158 206 250 287
#     4   9  18  30  46  69  98 131 163 194 237 290
#
# _framework density 21.676804000000001
#
# number of rings (size 3 to 8) (size 9 to 14) (size 15 to 20)
#    0.000    2.500    1.250    1.500    0.000    5.000 
#    0.000    3.750    0.000    7.500    0.000    0.000 
#    0.000    5.000    0.000    0.000    0.000    0.000 
#
# Total GULP energy -178640.229838 kJ/mol
# GULP energy per Si atom -5582.507182 kJ/mol
# Density = 2.162747 g / cm^3
# Si number density = 21.676804 Si / 1000 Ang^3
#
#
#
# Elastic Constant Matrix: (Units=GPa)
#
#
# Indices 1 2 3 4 5 6 
#
# 1 201.5821 -8.9137 23.2238 0.0000 -35.0564 0.0000
# 2 -8.9137 54.4616 -4.1938 0.0000 7.3829 0.0000
# 3 23.2238 -4.1938 56.6234 0.0000 -10.5626 0.0000
# 4 0.0000 0.0000 0.0000 -32.2230 0.0000 34.6025
# 5 -35.0564 7.3829 -10.5626 0.0000 43.1310 0.0000
# 6 0.0000 0.0000 0.0000 34.6025 0.0000 -40.1309
#
#
#
# Elastic Compliance Matrix: (Units=1/GPa)
#
#
# Indices 1 2 3 4 5 6 
#
# 1 0.005916 0.000253 -0.001592 0.000000 0.004376 0.000000
# 2 0.000253 0.018846 0.000764 0.000000 -0.002834 0.000000
# 3 -0.001592 0.000764 0.018971 0.000000 0.003222 0.000000
# 4 0.000000 0.000000 0.000000 -0.418882 0.000000 -0.361177
# 5 0.004376 -0.002834 0.003222 0.000000 0.028016 0.000000
# 6 0.000000 0.000000 0.000000 -0.361177 0.000000 -0.336340
#
#
# Mechanical properties :
#
#
# Convention : Reuss Voigt Hill
#
# Bulk Modulus (GPa) = 23.48398 36.98884 30.23641
# Shear Modulus (GPa) = -7.48359 14.32548 3.42095
#
# Velocity S-wave (km/s) = -1.86007 2.57352 1.25761
# Velocity P-wave (km/s) = 2.49882 5.09230 4.01096
#
# Compressibility (1/GPa) = 0.04258222
#
# Stress axis : x y z
#
# Youngs Moduli (GPa) = 169.02626 53.06209 52.71247
#
# Poissons Ratio (x) = -0.01340 0.08390
# Poissons Ratio (y) = -0.04269 -0.04025
# Poissons Ratio (z) = 0.26902 -0.04052
#
# Static dielectric constant tensor:
#      x y z
#    x 1.806160 0.000000 0.033530 
#    y 0.000000 1.801480 0.000000 
#    z 0.033530 0.000000 1.761110 
# 
# From -- ./inp_files/79912.got.cif
#   From: 2010.05.17/outbox.cif.g08.bks.cpg/sg10_40_cif.got.tgz:79912.got - 2010.06.03 11:33:40.
