data_PCOD9142824
_publ_section_title
;
Structure prediction by ZEFSAII (Michael W. Deem and Ramdas Pophale) SiO2 
 PCOD9142824
Probable space group: P 2/M
;
_chemical_formula_sum "Si O2"
_cell_formula_units_Z 28
_cell_length_a 19.213499
_cell_length_b 9.048151
_cell_length_c 11.650196
_cell_angle_alpha 90.000000
_cell_angle_beta 55.529529
_cell_angle_gamma 90.000000
_cell_volume 1669.732864
_symmetry_space_group_name_H-M "P 2/M"
_symmetry_group_IT_number 10
_symmetry_cell_setting 'monoclinic'
loop_
_space_group_symop_operation_xyz
x,y,z
-x,y,-z
-x,-y,-z
x,-y,z
loop_
_atom_site_type_symbol
_atom_site_label
_atom_site_fract_x
_atom_site_fract_y
_atom_site_fract_z
Si Si1 0.900456 0.660379 0.602849
Si Si2 0.013375 0.177610 0.854275
Si Si3 0.332985 0.678556 0.310987
Si Si4 0.491762 0.831111 0.869218
Si Si5 0.683006 0.323616 0.946111
Si Si6 0.150848 0.173058 0.138449
Si Si7 0.829522 0.329857 0.412994
O O1 0.871647 0.500000 0.679794
O O2 0.876328 0.795102 0.705450
O O3 0.865959 0.668502 0.507914
O O4 0.000000 0.656967 0.500000
O O5 0.929300 0.225985 0.862409
O O6 0.101101 0.244598 0.726190
O O7 0.018125 0.000000 0.837369
O O8 0.000000 0.213763 0.000000
O O9 0.335646 0.500000 0.312431
O O10 0.424472 0.746749 0.249247
O O11 0.308563 0.714897 0.199710
O O12 0.264588 0.728411 0.470350
O O13 0.489193 0.000000 0.830384
O O14 0.500000 0.834728 0.000000
O O15 0.404407 0.746971 0.929177
O O16 0.678572 0.500000 0.957047
O O17 0.760885 0.260167 0.947052
O O18 0.164099 0.000000 0.103436
O O19 0.824089 0.500000 0.377262
#
# Coordination Sequence:
#
# PCOD9142824 Si02
#       7
#     4   4   4   4   4   4   4
#     4  10  18  30  47  69  99 129 157 196 246 296
#     4  10  23  40  52  67  96 132 168 208 254 297
#     4   9  17  29  45  68  99 134 164 193 238 292
#     4   9  17  28  42  66 100 134 167 200 230 277
#     4  10  18  30  47  68  99 136 165 196 242 293
#     4  11  21  31  48  72  97 128 167 207 244 291
#     4  10  19  32  51  74  98 128 167 204 241 291
#
# _framework density 16.76915
#
# number of rings (size 3 to 8) (size 9 to 14) (size 15 to 20)
#    0.000    2.143    2.857    1.286    0.000    4.571 
#    0.000    0.000    0.000    0.000    0.000    1.000 
#    0.000    8.000    0.000    0.000    0.000    0.000 
#
# Total GULP energy -155906.492523 kJ/mol
# GULP energy per Si atom -5568.089019 kJ/mol
# Density = 1.673098 g / cm^3
# Si number density = 16.769150 Si / 1000 Ang^3
#
#
#
# Elastic Constant Matrix: (Units=GPa)
#
#
# Indices 1 2 3 4 5 6 
#
# 1 65.3573 36.7950 64.1576 0.0000 -35.2221 0.0000
# 2 36.7950 49.1611 39.1754 0.0000 -17.6458 0.0000
# 3 64.1576 39.1754 97.6389 0.0000 -33.2628 0.0000
# 4 0.0000 0.0000 0.0000 23.4780 0.0000 -9.5095
# 5 -35.2221 -17.6458 -33.2628 0.0000 33.7234 0.0000
# 6 0.0000 0.0000 0.0000 -9.5095 0.0000 22.7840
#
#
#
# Elastic Compliance Matrix: (Units=1/GPa)
#
#
# Indices 1 2 3 4 5 6 
#
# 1 0.076840 -0.019993 -0.028152 0.000000 0.042026 0.000000
# 2 -0.019993 0.035861 -0.002971 0.000000 -0.005047 0.000000
# 3 -0.028152 -0.002971 0.029196 0.000000 -0.002160 0.000000
# 4 0.000000 0.000000 0.000000 0.051259 0.000000 0.021394
# 5 0.042026 -0.005047 -0.002160 0.000000 0.068775 0.000000
# 6 0.000000 0.000000 0.000000 0.021394 0.000000 0.052820
#
#
# Mechanical properties :
#
#
# Convention : Reuss Voigt Hill
#
# Bulk Modulus (GPa) = 25.21068 54.71256 39.96162
# Shear Modulus (GPa) = 11.62244 20.79903 16.21074
#
# Velocity S-wave (km/s) = 2.63551 3.52563 3.11255
# Velocity P-wave (km/s) = 4.93232 7.01934 6.06626
#
# Compressibility (1/GPa) = 0.03966572
#
# Stress axis : x y z
#
# Youngs Moduli (GPa) = 13.01414 27.88575 34.25100
#
# Poissons Ratio (x) = 0.55751 0.96423
# Poissons Ratio (y) = 0.26019 0.10175
# Poissons Ratio (z) = 0.36637 0.08284
#
# Static dielectric constant tensor:
#      x y z
#    x 1.652310 0.000000 -0.051360 
#    y 0.000000 1.593400 0.000000 
#    z -0.051360 0.000000 1.572090 
# 
# From -- ./inp_files/54644.got.cif
#   From: 2010.05.17/outbox.cif.g08.bks.cpg/sg10_28_cif.got.tgz:54644.got - 2010.06.03 11:33:40.
