data_PCOD9142835
_publ_section_title
;
Structure prediction by ZEFSAII (Michael W. Deem and Ramdas Pophale) SiO2 
 PCOD9142835
Probable space group: P 2/M
;
_chemical_formula_sum "Si O2"
_cell_formula_units_Z 28
_cell_length_a 5.394993
_cell_length_b 13.875021
_cell_length_c 15.898596
_cell_angle_alpha 90.000000
_cell_angle_beta 93.648939
_cell_angle_gamma 90.000000
_cell_volume 1187.686947
_symmetry_space_group_name_H-M "P 2/M"
_symmetry_group_IT_number 10
_symmetry_cell_setting 'monoclinic'
loop_
_space_group_symop_operation_xyz
x,y,z
-x,y,-z
-x,-y,-z
x,-y,z
loop_
_atom_site_type_symbol
_atom_site_label
_atom_site_fract_x
_atom_site_fract_y
_atom_site_fract_z
Si Si1 0.125893 0.304571 0.379134
Si Si2 0.759379 0.893788 0.555547
Si Si3 0.048056 0.114747 0.909213
Si Si4 0.467499 0.113241 0.189064
Si Si5 0.922878 0.615001 0.811285
Si Si6 0.418228 0.683596 0.790831
Si Si7 0.630838 0.391059 0.395433
O O1 0.193154 0.192861 0.380429
O O2 0.097484 0.348369 0.285867
O O3 0.361745 0.359952 0.422485
O O4 0.862883 0.322095 0.417634
O O5 0.500000 0.879258 0.500000
O O6 0.000000 0.893745 0.500000
O O7 0.745592 0.000000 0.594986
O O8 0.330339 0.123739 0.882342
O O9 0.816677 0.137526 0.842197
O O10 0.014095 0.000000 0.916102
O O11 0.000000 0.158421 0.000000
O O12 0.561906 0.206525 0.243273
O O13 0.484718 0.000000 0.217168
O O14 0.940318 0.500000 0.815803
O O15 0.667035 0.652625 0.844173
O O16 0.178580 0.665196 0.842993
O O17 0.399080 0.616426 0.707565
O O18 0.694157 0.500000 0.418725
#
# Coordination Sequence:
#
# PCOD9142835 Si02
#       7
#     4   4   4   4   4   4   4
#     4  10  18  32  54  75  94 127 163 197 239 282
#     4  10  21  37  55  74  98 128 163 202 238 278
#     4   9  17  30  47  65  90 130 171 201 235 279
#     4  10  19  30  45  69 103 132 156 196 240 281
#     4  10  19  33  52  72  98 126 159 201 239 285
#     4  10  18  30  47  72 100 130 159 190 241 291
#     4  10  19  33  53  74 100 128 159 199 239 287
#
# _framework density 23.575234999999999
#
# number of rings (size 3 to 8) (size 9 to 14) (size 15 to 20)
#    0.000    2.143    0.000    6.429    0.000    1.714 
#    0.000    5.714    0.000   14.571    0.000    0.000 
#    0.000   66.286    0.000    0.000    0.000    0.000 
#
# Total GULP energy -156208.100859 kJ/mol
# GULP energy per Si atom -5578.860745 kJ/mol
# Density = 2.352158 g / cm^3
# Si number density = 23.575235 Si / 1000 Ang^3
#
#
#
# Elastic Constant Matrix: (Units=GPa)
#
#
# Indices 1 2 3 4 5 6 
#
# 1 190.5041 19.3558 4.6268 0.0000 20.9530 0.0000
# 2 19.3558 168.5514 -5.0800 0.0000 17.6632 0.0000
# 3 4.6268 -5.0800 13.7597 0.0000 -3.2073 0.0000
# 4 0.0000 0.0000 0.0000 10.5040 0.0000 10.0469
# 5 20.9530 17.6632 -3.2073 0.0000 20.0589 0.0000
# 6 0.0000 0.0000 0.0000 10.0469 0.0000 35.2072
#
#
#
# Elastic Compliance Matrix: (Units=1/GPa)
#
#
# Indices 1 2 3 4 5 6 
#
# 1 0.006106 -0.000091 -0.003692 0.000000 -0.006889 0.000000
# 2 -0.000091 0.006554 0.001171 0.000000 -0.005489 0.000000
# 3 -0.003692 0.001171 0.077912 0.000000 0.015284 0.000000
# 4 0.000000 0.000000 0.000000 0.130942 0.000000 -0.037366
# 5 -0.006889 -0.005489 0.015284 0.000000 0.064326 0.000000
# 6 0.000000 0.000000 0.000000 -0.037366 0.000000 0.039066
#
#
# Mechanical properties :
#
#
# Convention : Reuss Voigt Hill
#
# Bulk Modulus (GPa) = 11.71682 45.62448 28.67065
# Shear Modulus (GPa) = 13.94390 36.74821 25.34605
#
# Velocity S-wave (km/s) = 2.43464 3.95240 3.28245
# Velocity P-wave (km/s) = 3.58944 6.34219 5.15303
#
# Compressibility (1/GPa) = 0.08534741
#
# Stress axis : x y z
#
# Youngs Moduli (GPa) = 163.77985 152.58240 12.83496
#
# Poissons Ratio (x) = 0.01382 0.04739
# Poissons Ratio (y) = 0.01483 -0.01502
# Poissons Ratio (z) = 0.60471 -0.17861
#
# Static dielectric constant tensor:
#      x y z
#    x 2.048650 0.000000 -0.006640 
#    y 0.000000 1.881130 0.000000 
#    z -0.006640 0.000000 1.975370 
# 
# From -- ./inp_files/81218.got.cif
#   From: 2010.05.17/outbox.cif.g08.bks.cpg/sg10_41_cif.got.tgz:81218.got - 2010.06.03 11:33:40.
