data_PCOD9142166
_publ_section_title
;
Structure prediction by ZEFSAII (Michael W. Deem and Ramdas Pophale) SiO2 
 PCOD9142166
Probable space group: P 2/M
;
_chemical_formula_sum "Si O2"
_cell_formula_units_Z 32
_cell_length_a 14.848419
_cell_length_b 7.432357
_cell_length_c 27.704702
_cell_angle_alpha 90.000000
_cell_angle_beta 34.911811
_cell_angle_gamma 90.000000
_cell_volume 1749.827886
_symmetry_space_group_name_H-M "P 2/M"
_symmetry_group_IT_number 10
_symmetry_cell_setting 'monoclinic'
loop_
_space_group_symop_operation_xyz
x,y,z
-x,y,-z
-x,-y,-z
x,-y,z
loop_
_atom_site_type_symbol
_atom_site_label
_atom_site_fract_x
_atom_site_fract_y
_atom_site_fract_z
Si Si1 0.497439 0.281375 0.844809
Si Si2 0.754230 0.785094 0.598051
Si Si3 0.062879 0.719938 0.919110
Si Si4 0.178635 0.203957 0.248960
Si Si5 0.586352 0.286408 0.225426
Si Si6 0.675311 0.790275 0.911837
Si Si7 0.199805 0.717023 0.040327
Si Si8 0.031458 0.220549 0.407795
O O1 0.511449 0.500000 0.838648
O O2 0.658979 0.201702 0.792456
O O3 0.453437 0.218699 0.810705
O O4 0.357471 0.231769 0.942332
O O5 0.570653 0.742832 0.674703
O O6 0.830988 0.721115 0.615099
O O7 0.868816 0.723902 0.504726
O O8 0.768043 0.000000 0.593214
O O9 0.058128 0.500000 0.920931
O O10 0.243057 0.780477 0.833218
O O11 0.947348 0.779364 0.927092
O O12 0.000000 0.772957 0.000000
O O13 0.230859 0.288758 0.175129
O O14 0.060178 0.284723 0.340678
O O15 0.123621 0.000000 0.262990
O O16 0.605656 0.500000 0.212079
O O17 0.778815 0.779769 0.914482
O O18 0.648074 0.000000 0.911041
O O19 0.500000 0.713976 0.000000
O O20 0.194435 0.500000 0.043993
O O21 0.035725 0.000000 0.404357
#
# Coordination Sequence:
#
# PCOD9142166 Si02
#       8
#     4   4   4   4   4   4   4   4
#     4  10  18  26  41  66  91 115 147 184 215 246
#     4   9  16  28  45  64  88 115 147 182 216 260
#     4   9  16  29  47  65  87 118 153 182 212 259
#     4  10  18  30  46  62  86 123 154 173 211 267
#     4  10  18  28  44  67  92 117 147 181 219 260
#     4  10  20  31  44  65  91 118 146 182 225 261
#     4  10  19  31  47  64  86 120 155 185 213 249
#     4   8  15  27  44  64  85 116 151 179 209 260
#
# _framework density 18.287513000000001
#
# number of rings (size 3 to 8) (size 9 to 14) (size 15 to 20)
#    0.000    2.500    3.750    0.750    0.000    0.750 
#    0.000    2.500    0.000    0.750    0.000    0.875 
#    0.000    7.000    0.000    0.000    0.000    0.000 
#
# Total GULP energy -178438.415682 kJ/mol
# GULP energy per Si atom -5576.200490 kJ/mol
# Density = 1.824589 g / cm^3
# Si number density = 18.287513 Si / 1000 Ang^3
#
#
#
# Elastic Constant Matrix: (Units=GPa)
#
#
# Indices 1 2 3 4 5 6 
#
# 1 98.4452 -2.9098 58.6162 0.0000 14.2368 0.0000
# 2 -2.9098 55.8950 -1.4663 0.0000 3.4552 0.0000
# 3 58.6162 -1.4663 138.7747 0.0000 17.7462 0.0000
# 4 0.0000 0.0000 0.0000 12.1186 0.0000 -3.7683
# 5 14.2368 3.4552 17.7462 0.0000 32.7621 0.0000
# 6 0.0000 0.0000 0.0000 -3.7683 0.0000 14.9847
#
#
#
# Elastic Compliance Matrix: (Units=1/GPa)
#
#
# Indices 1 2 3 4 5 6 
#
# 1 0.013884 0.000775 -0.005452 0.000000 -0.003162 0.000000
# 2 0.000775 0.018079 0.000162 0.000000 -0.002331 0.000000
# 3 -0.005452 0.000162 0.009895 0.000000 -0.003008 0.000000
# 4 0.000000 0.000000 0.000000 0.089518 0.000000 0.022512
# 5 -0.003162 -0.002331 -0.003008 0.000000 0.033772 0.000000
# 6 0.000000 0.000000 0.000000 0.022512 0.000000 0.072396
#
#
# Mechanical properties :
#
#
# Convention : Reuss Voigt Hill
#
# Bulk Modulus (GPa) = 30.46115 44.62168 37.54141
# Shear Modulus (GPa) = 19.41616 27.89808 23.65712
#
# Velocity S-wave (km/s) = 3.26193 3.91004 3.60060
# Velocity P-wave (km/s) = 5.55697 6.69609 6.15295
#
# Compressibility (1/GPa) = 0.03282871
#
# Stress axis : x y z
#
# Youngs Moduli (GPa) = 72.02362 55.31164 101.06034
#
# Poissons Ratio (x) = -0.04288 0.55098
# Poissons Ratio (y) = -0.05584 -0.01634
# Poissons Ratio (z) = 0.39267 -0.00894
#
# Static dielectric constant tensor:
#      x y z
#    x 1.607200 0.000000 0.019620 
#    y 0.000000 1.709920 0.000000 
#    z 0.019620 0.000000 1.666740 
# 
# From -- ./inp_files/55716.got.cif
#   From: 2010.05.17/outbox.cif.g08.bks.cpg/sg10_28_cif.got.tgz:55716.got - 2010.06.03 11:33:40.
