data_PCOD9142734
_publ_section_title
;
Structure prediction by ZEFSAII (Michael W. Deem and Ramdas Pophale) SiO2 
 PCOD9142734
Probable space group: P 2/M
;
_chemical_formula_sum "Si O2"
_cell_formula_units_Z 15
_cell_length_a 7.956333
_cell_length_b 15.337492
_cell_length_c 7.245950
_cell_angle_alpha 90.000000
_cell_angle_beta 39.727482
_cell_angle_gamma 90.000000
_cell_volume 565.140523
_symmetry_space_group_name_H-M "P 2/M"
_symmetry_group_IT_number 10
_symmetry_cell_setting 'monoclinic'
loop_
_space_group_symop_operation_xyz
x,y,z
-x,y,-z
-x,-y,-z
x,-y,z
loop_
_atom_site_type_symbol
_atom_site_label
_atom_site_fract_x
_atom_site_fract_y
_atom_site_fract_z
Si Si1 0.409554 0.305615 0.359722
Si Si2 0.785546 0.000000 0.836053
Si Si3 0.089838 0.849788 0.733638
Si Si4 0.912991 0.597767 0.856594
Si Si5 0.500000 0.000000 0.500000
O O1 0.500000 0.301437 0.500000
O O2 0.241596 0.216906 0.473082
O O3 0.676538 0.332653 0.030513
O O4 0.184149 0.378258 0.526826
O O5 0.000000 0.000000 0.500000
O O6 0.836955 0.908266 0.893088
O O7 0.500000 0.000000 0.000000
O O8 0.296954 0.924965 0.600537
O O9 0.000000 0.804155 0.000000
O O10 0.822095 0.500000 0.891202
O O11 0.000000 0.598265 0.000000
#
# Coordination Sequence:
#
# PCOD9142734 Si02
#       5
#     4   2   4   4   1
#     4  10  18  29  50  79 108 147 193 235 275 337
#     4  11  28  43  60  84 121 157 192 242 303 356
#     4  11  23  38  62  86 117 152 206 244 287 344
#     4   9  17  28  43  71 115 155 180 218 288 353
#     4  10  20  32  56  80 104 144 188 250 280 324
#
# _framework density 26.542072999999998
#
# number of rings (size 3 to 8) (size 9 to 14) (size 15 to 20)
#    0.000    1.867    1.333    4.800    7.467    3.200 
#    0.000    0.000    0.000    0.000    0.000    0.000 
#    0.000   21.333    0.000    0.000    0.000    0.533 
#
# Total GULP energy -83669.464598 kJ/mol
# GULP energy per Si atom -5577.964307 kJ/mol
# Density = 2.648166 g / cm^3
# Si number density = 26.542073 Si / 1000 Ang^3
#
#
#
# Elastic Constant Matrix: (Units=GPa)
#
#
# Indices 1 2 3 4 5 6 
#
# 1 82.4290 24.1099 37.9417 0.0000 -37.9194 0.0000
# 2 24.1099 168.4984 43.8934 0.0000 -28.8691 0.0000
# 3 37.9417 43.8934 154.9012 0.0000 -36.0756 0.0000
# 4 0.0000 0.0000 0.0000 120.7716 0.0000 -51.4945
# 5 -37.9194 -28.8691 -36.0756 0.0000 58.6642 0.0000
# 6 0.0000 0.0000 0.0000 -51.4945 0.0000 34.6186
#
#
#
# Elastic Compliance Matrix: (Units=1/GPa)
#
#
# Indices 1 2 3 4 5 6 
#
# 1 0.017774 -0.000306 -0.001898 0.000000 0.010171 0.000000
# 2 -0.000306 0.006710 -0.001288 0.000000 0.002312 0.000000
# 3 -0.001898 -0.001288 0.007998 0.000000 0.003057 0.000000
# 4 0.000000 0.000000 0.000000 0.022637 0.000000 0.033673
# 5 0.010171 0.002312 0.003057 0.000000 0.026638 0.000000
# 6 0.000000 0.000000 0.000000 0.033673 0.000000 0.078974
#
#
# Mechanical properties :
#
#
# Convention : Reuss Voigt Hill
#
# Bulk Modulus (GPa) = 39.22005 68.63540 53.92773
# Shear Modulus (GPa) = 28.37453 62.80314 45.58883
#
# Velocity S-wave (km/s) = 3.27316 4.86961 4.14890
# Velocity P-wave (km/s) = 5.39383 7.58503 6.58127
#
# Compressibility (1/GPa) = 0.02549716
#
# Stress axis : x y z
#
# Youngs Moduli (GPa) = 56.26324 149.02579 125.03649
#
# Poissons Ratio (x) = 0.04563 0.23733
# Poissons Ratio (y) = 0.01723 0.16104
# Poissons Ratio (z) = 0.10679 0.19194
#
# Static dielectric constant tensor:
#      x y z
#    x 2.225950 0.000000 0.134630 
#    y 0.000000 2.092990 0.000000 
#    z 0.134630 0.000000 2.072050 
# 
# From -- ./inp_files/6679.got.cif
#   From: 2010.05.17/outbox.cif.g08.bks.cpg/sg10_4_cif.got.tgz:6679.got - 2010.06.03 11:33:40.
