data_PCOD9142589
_publ_section_title
;
Structure prediction by ZEFSAII (Michael W. Deem and Ramdas Pophale) SiO2 
 PCOD9142589
Probable space group: P 2/M
;
_chemical_formula_sum "Si O2"
_cell_formula_units_Z 28
_cell_length_a 14.091140
_cell_length_b 9.149706
_cell_length_c 18.488654
_cell_angle_alpha 90.000000
_cell_angle_beta 130.979449
_cell_angle_gamma 90.000000
_cell_volume 1799.590908
_symmetry_space_group_name_H-M "P 2/M"
_symmetry_group_IT_number 10
_symmetry_cell_setting 'monoclinic'
loop_
_space_group_symop_operation_xyz
x,y,z
-x,y,-z
-x,-y,-z
x,-y,z
loop_
_atom_site_type_symbol
_atom_site_label
_atom_site_fract_x
_atom_site_fract_y
_atom_site_fract_z
Si Si1 0.132166 0.832078 0.610019
Si Si2 0.746541 0.826656 0.783937
Si Si3 0.134158 0.331641 0.025124
Si Si4 0.005183 0.325420 0.675446
Si Si5 0.488062 0.675259 0.409481
Si Si6 0.748984 0.673970 0.460483
Si Si7 0.010620 0.173697 0.833122
O O1 0.104808 0.739643 0.668164
O O2 0.229683 0.759632 0.603375
O O3 0.000000 0.830887 0.500000
O O4 0.163235 0.000000 0.642143
O O5 0.771864 0.749165 0.873380
O O6 0.627335 0.757762 0.684813
O O7 0.871413 0.802583 0.797496
O O8 0.732352 0.000000 0.786617
O O9 0.169998 0.500000 0.030481
O O10 0.107912 0.245823 0.938045
O O11 0.000000 0.331871 0.000000
O O12 0.017853 0.500000 0.687782
O O13 0.017343 0.249392 0.758813
O O14 0.866765 0.294098 0.572442
O O15 0.500000 0.712985 0.500000
O O16 0.467256 0.500000 0.394397
O O17 0.618542 0.709277 0.434294
O O18 0.753021 0.500000 0.448085
O O19 0.030606 0.000000 0.837879
#
# Coordination Sequence:
#
# PCOD9142589 Si02
#       7
#     4   4   4   4   4   4   4
#     4   9  17  29  45  65  90 119 151 189 234 280
#     4  10  20  32  46  66  94 126 157 191 231 274
#     4   9  17  30  48  67  88 118 155 191 229 275
#     4  10  18  29  47  69  93 121 154 191 232 277
#     4  10  20  33  48  67  93 126 163 197 226 263
#     4   9  18  31  46  65  91 124 160 195 228 267
#     4  10  19  30  45  68  97 123 150 189 235 278
#
# _framework density 15.559093000000001
#
# number of rings (size 3 to 8) (size 9 to 14) (size 15 to 20)
#    0.000    2.429    0.000    3.000    0.000    7.714 
#    0.000    0.000    0.000    0.000    0.000    1.000 
#    0.000    8.000    0.000    0.000    0.000    0.000 
#
# Total GULP energy -156157.128841 kJ/mol
# GULP energy per Si atom -5577.040316 kJ/mol
# Density = 1.552368 g / cm^3
# Si number density = 15.559093 Si / 1000 Ang^3
#
#
#
# Elastic Constant Matrix: (Units=GPa)
#
#
# Indices 1 2 3 4 5 6 
#
# 1 96.7940 73.6523 65.8800 0.0000 -18.7536 0.0000
# 2 73.6523 103.2228 81.0155 0.0000 -21.3793 0.0000
# 3 65.8800 81.0155 126.0282 0.0000 -20.3356 0.0000
# 4 0.0000 0.0000 0.0000 26.7301 0.0000 -2.9218
# 5 -18.7536 -21.3793 -20.3356 0.0000 25.3807 0.0000
# 6 0.0000 0.0000 0.0000 -2.9218 0.0000 23.7008
#
#
#
# Elastic Compliance Matrix: (Units=1/GPa)
#
#
# Indices 1 2 3 4 5 6 
#
# 1 0.023391 -0.013760 -0.002829 0.000000 0.003426 0.000000
# 2 -0.013760 0.028919 -0.010459 0.000000 0.005812 0.000000
# 3 -0.002829 -0.010459 0.016513 0.000000 0.002330 0.000000
# 4 0.000000 0.000000 0.000000 0.037922 0.000000 0.004675
# 5 0.003426 0.005812 0.002330 0.000000 0.048694 0.000000
# 6 0.000000 0.000000 0.000000 0.004675 0.000000 0.042769
#
#
# Mechanical properties :
#
#
# Convention : Reuss Voigt Hill
#
# Bulk Modulus (GPa) = 67.90696 85.23784 76.57240
# Shear Modulus (GPa) = 19.43914 22.19546 20.81730
#
# Velocity S-wave (km/s) = 3.53848 3.78104 3.66177
# Velocity P-wave (km/s) = 7.77392 8.60023 8.19749
#
# Compressibility (1/GPa) = 0.01472603
#
# Stress axis : x y z
#
# Youngs Moduli (GPa) = 42.75214 34.57970 60.55753
#
# Poissons Ratio (x) = 0.47581 0.17132
# Poissons Ratio (y) = 0.58826 0.63339
# Poissons Ratio (z) = 0.12095 0.36168
#
# Static dielectric constant tensor:
#      x y z
#    x 1.500370 0.000000 -0.002630 
#    y 0.000000 1.520250 0.000000 
#    z -0.002630 0.000000 1.492250 
# 
# From -- ./inp_files/49354.got.cif
#   From: 2010.05.17/outbox.cif.g08.bks.cpg/sg10_25_cif.got.tgz:49354.got - 2010.06.03 11:33:40.
