data_PCOD9142305
_publ_section_title
;
Structure prediction by ZEFSAII (Michael W. Deem and Ramdas Pophale) SiO2 
 PCOD9142305
Probable space group: P 2/M
;
_chemical_formula_sum "Si O2"
_cell_formula_units_Z 32
_cell_length_a 21.723341
_cell_length_b 9.498304
_cell_length_c 15.907300
_cell_angle_alpha 90.000000
_cell_angle_beta 32.678260
_cell_angle_gamma 90.000000
_cell_volume 1772.145444
_symmetry_space_group_name_H-M "P 2/M"
_symmetry_group_IT_number 10
_symmetry_cell_setting 'monoclinic'
loop_
_space_group_symop_operation_xyz
x,y,z
-x,y,-z
-x,-y,-z
x,-y,z
loop_
_atom_site_type_symbol
_atom_site_label
_atom_site_fract_x
_atom_site_fract_y
_atom_site_fract_z
Si Si1 0.604827 0.664828 0.077320
Si Si2 0.671843 0.839817 0.838789
Si Si3 0.897070 0.666654 0.373553
Si Si4 0.939495 0.838080 0.486281
Si Si5 0.903467 0.328136 0.177037
Si Si6 0.411951 0.328623 0.719238
Si Si7 0.664220 0.671360 0.374589
Si Si8 0.364845 0.660683 0.276783
O O1 0.636698 0.500000 0.031854
O O2 0.633684 0.716702 0.137663
O O3 0.467363 0.672270 0.224605
O O4 0.654715 0.753449 0.943627
O O5 0.805500 0.840076 0.661611
O O6 0.615501 0.764247 0.823419
O O7 0.633052 0.000000 0.893455
O O8 0.920814 0.500000 0.354340
O O9 0.953963 0.749811 0.384782
O O10 0.928935 0.715137 0.243382
O O11 0.759612 0.684243 0.540732
O O12 0.000000 0.779526 0.500000
O O13 0.978030 0.000000 0.429981
O O14 0.901342 0.500000 0.180487
O O15 0.778242 0.281120 0.290306
O O16 0.000000 0.284826 0.000000
O O17 0.413011 0.500000 0.720250
O O18 0.341853 0.287500 0.716845
O O19 0.543633 0.284496 0.553586
O O20 0.664714 0.500000 0.376286
O O21 0.365980 0.500000 0.242523
#
# Coordination Sequence:
#
# PCOD9142305 Si02
#       8
#     4   4   4   4   4   4   4   4
#     4  10  18  28  43  68  97 123 151 185 230 275
#     4  10  20  32  46  66  91 118 152 192 233 278
#     4   9  17  30  49  74  97 122 159 196 232 276
#     4   9  19  37  55  67  86 123 164 197 233 282
#     4   9  16  26  41  65  98 127 149 185 240 287
#     4   8  14  24  40  62  86 118 157 190 219 262
#     4   8  13  24  41  60  87 121 156 189 221 266
#     4   9  17  29  46  65  92 126 156 187 225 271
#
# _framework density 18.057207999999999
#
# number of rings (size 3 to 8) (size 9 to 14) (size 15 to 20)
#    0.000    3.000    0.000    2.250    0.000    5.750 
#    2.250    0.000    0.000    0.375    0.000    2.625 
#    0.000    0.000    0.000    0.000    0.000    0.000 
#
# Total GULP energy -178291.205582 kJ/mol
# GULP energy per Si atom -5571.600174 kJ/mol
# Density = 1.801611 g / cm^3
# Si number density = 18.057208 Si / 1000 Ang^3
#
#
#
# Elastic Constant Matrix: (Units=GPa)
#
#
# Indices 1 2 3 4 5 6 
#
# 1 110.4910 28.9688 38.6895 0.0000 33.4973 0.0000
# 2 28.9688 35.9203 26.1169 0.0000 21.0026 0.0000
# 3 38.6895 26.1169 53.1721 0.0000 34.1456 0.0000
# 4 0.0000 0.0000 0.0000 3.5346 0.0000 -6.9324
# 5 33.4973 21.0026 34.1456 0.0000 38.2003 0.0000
# 6 0.0000 0.0000 0.0000 -6.9324 0.0000 6.4418
#
#
#
# Elastic Compliance Matrix: (Units=1/GPa)
#
#
# Indices 1 2 3 4 5 6 
#
# 1 0.013328 -0.004676 -0.003631 0.000000 -0.005870 0.000000
# 2 -0.004676 0.047111 -0.013468 0.000000 -0.009763 0.000000
# 3 -0.003631 -0.013468 0.049917 0.000000 -0.034030 0.000000
# 4 0.000000 0.000000 0.000000 -0.254730 0.000000 -0.274129
# 5 -0.005870 -0.009763 -0.034030 0.000000 0.067111 0.000000
# 6 0.000000 0.000000 0.000000 -0.274129 0.000000 -0.139769
#
#
# Mechanical properties :
#
#
# Convention : Reuss Voigt Hill
#
# Bulk Modulus (GPa) = 14.96868 43.01487 28.99177
# Shear Modulus (GPa) = -33.06588 16.68923 -8.18833
#
# Velocity S-wave (km/s) = -4.28386 3.04343 -2.13178
# Velocity P-wave (km/s) = 4.02008 6.01857 3.16718
#
# Compressibility (1/GPa) = 0.06680616
#
# Stress axis : x y z
#
# Youngs Moduli (GPa) = 75.03228 21.22638 20.03309
#
# Poissons Ratio (x) = 0.09925 0.07274
# Poissons Ratio (y) = 0.35084 0.26980
# Poissons Ratio (z) = 0.27246 0.28588
#
# Static dielectric constant tensor:
#      x y z
#    x 1.637970 0.000000 -0.006550 
#    y 0.000000 1.609020 0.000000 
#    z -0.006550 0.000000 1.626700 
# 
# From -- ./inp_files/69957.got.cif
#   From: 2010.05.17/outbox.cif.g08.bks.cpg/sg10_35_cif.got.tgz:69957.got - 2010.06.03 11:33:40.
