data_PCOD9142220
_publ_section_title
;
Structure prediction by ZEFSAII (Michael W. Deem and Ramdas Pophale) SiO2 
 PCOD9142220
Probable space group: P 2/M
;
_chemical_formula_sum "Si O2"
_cell_formula_units_Z 32
_cell_length_a 16.298364
_cell_length_b 8.781474
_cell_length_c 31.156859
_cell_angle_alpha 90.000000
_cell_angle_beta 150.248875
_cell_angle_gamma 90.000000
_cell_volume 2212.846176
_symmetry_space_group_name_H-M "P 2/M"
_symmetry_group_IT_number 10
_symmetry_cell_setting 'monoclinic'
loop_
_space_group_symop_operation_xyz
x,y,z
-x,y,-z
-x,-y,-z
x,-y,z
loop_
_atom_site_type_symbol
_atom_site_label
_atom_site_fract_x
_atom_site_fract_y
_atom_site_fract_z
Si Si1 0.596077 0.183458 0.807804
Si Si2 0.660088 0.682632 0.665634
Si Si3 0.089853 0.181903 0.479414
Si Si4 0.240450 0.317475 0.632676
Si Si5 0.728915 0.318953 0.518274
Si Si6 0.299832 0.175287 0.405388
Si Si7 0.198599 0.318541 0.178087
Si Si8 0.100570 0.175442 0.000578
O O1 0.417282 0.258746 0.728643
O O2 0.685985 0.238145 0.804972
O O3 0.717202 0.226955 0.902349
O O4 0.584784 0.000000 0.802090
O O5 0.671293 0.500000 0.666048
O O6 0.464259 0.719942 0.578453
O O7 0.736639 0.758404 0.658084
O O8 0.746139 0.727408 0.749152
O O9 0.206552 0.253347 0.569412
O O10 0.159106 0.231715 0.464997
O O11 0.908975 0.250352 0.406851
O O12 0.086497 0.000000 0.482433
O O13 0.233082 0.500000 0.628606
O O14 0.748166 0.500000 0.521770
O O15 0.764810 0.270283 0.583482
O O16 0.500000 0.181247 0.500000
O O17 0.248605 0.000000 0.385720
O O18 0.220108 0.500000 0.183668
O O19 0.010049 0.273403 0.081692
O O20 0.106564 0.000000 0.988620
O O21 0.000000 0.176468 0.000000
#
# Coordination Sequence:
#
# PCOD9142220 Si02
#       8
#     4   4   4   4   4   4   4   4
#     4  10  19  31  45  61  84 115 148 180 217 258
#     4   9  18  29  41  60  86 115 144 176 214 254
#     4  11  21  33  47  64  87 114 145 179 215 253
#     4  11  21  33  47  64  86 112 145 182 219 254
#     4  10  18  30  46  62  85 116 147 178 214 253
#     4   9  17  28  42  61  83 109 143 179 213 252
#     4  10  18  27  42  64  88 114 147 182 215 255
#     4   8  16  29  42  58  83 113 143 176 215 257
#
# _framework density 14.461015
#
# number of rings (size 3 to 8) (size 9 to 14) (size 15 to 20)
#    0.000    2.250    0.000    6.000    0.000    6.750 
#    0.000    0.000    0.000    0.000    0.000    0.000 
#    0.000    1.000    0.000   10.500    0.000    5.750 
#
# Total GULP energy -178429.831353 kJ/mol
# GULP energy per Si atom -5575.932230 kJ/mol
# Density = 1.442810 g / cm^3
# Si number density = 14.461015 Si / 1000 Ang^3
#
#
#
# Elastic Constant Matrix: (Units=GPa)
#
#
# Indices 1 2 3 4 5 6 
#
# 1 68.2184 34.1457 30.5527 0.0000 -10.4915 0.0000
# 2 34.1457 80.1885 35.5811 0.0000 -3.4909 0.0000
# 3 30.5527 35.5811 85.3890 0.0000 -5.3214 0.0000
# 4 0.0000 0.0000 0.0000 25.5248 0.0000 -7.2774
# 5 -10.4915 -3.4909 -5.3214 0.0000 20.6585 0.0000
# 6 0.0000 0.0000 0.0000 -7.2774 0.0000 37.6251
#
#
#
# Elastic Compliance Matrix: (Units=1/GPa)
#
#
# Indices 1 2 3 4 5 6 
#
# 1 0.021285 -0.006807 -0.004246 0.000000 0.008566 0.000000
# 2 -0.006807 0.017495 -0.004965 0.000000 -0.001780 0.000000
# 3 -0.004246 -0.004965 0.015359 0.000000 0.000961 0.000000
# 4 0.000000 0.000000 0.000000 0.041464 0.000000 0.008020
# 5 0.008566 -0.001780 0.000961 0.000000 0.052703 0.000000
# 6 0.000000 0.000000 0.000000 0.008020 0.000000 0.028129
#
#
# Mechanical properties :
#
#
# Convention : Reuss Voigt Hill
#
# Bulk Modulus (GPa) = 45.24241 48.26166 46.75204
# Shear Modulus (GPa) = 23.16552 25.66279 24.41415
#
# Velocity S-wave (km/s) = 4.00675 4.21719 4.11332
# Velocity P-wave (km/s) = 7.26355 7.56036 7.41344
#
# Compressibility (1/GPa) = 0.02210316
#
# Stress axis : x y z
#
# Youngs Moduli (GPa) = 46.98241 57.15995 65.10758
#
# Poissons Ratio (x) = 0.38906 0.27643
# Poissons Ratio (y) = 0.31979 0.32329
# Poissons Ratio (z) = 0.19947 0.28382
#
# Static dielectric constant tensor:
#      x y z
#    x 1.456680 0.000000 -0.003960 
#    y 0.000000 1.485060 0.000000 
#    z -0.003960 0.000000 1.482740 
# 
# From -- ./inp_files/95272.got.cif
#   From: 2010.05.17/outbox.cif.g08.bks.cpg/sg10_48_cif.got.tgz:95272.got - 2010.06.03 11:33:40.
