data_PCOD9142194
_publ_section_title
;
Structure prediction by ZEFSAII (Michael W. Deem and Ramdas Pophale) SiO2 
 PCOD9142194
Probable space group: P 2/M
;
_chemical_formula_sum "Si O2"
_cell_formula_units_Z 32
_cell_length_a 14.616299
_cell_length_b 7.444183
_cell_length_c 15.406936
_cell_angle_alpha 90.000000
_cell_angle_beta 88.408877
_cell_angle_gamma 90.000000
_cell_volume 1675.726950
_symmetry_space_group_name_H-M "P 2/M"
_symmetry_group_IT_number 10
_symmetry_cell_setting 'monoclinic'
loop_
_space_group_symop_operation_xyz
x,y,z
-x,y,-z
-x,-y,-z
x,-y,z
loop_
_atom_site_type_symbol
_atom_site_label
_atom_site_fract_x
_atom_site_fract_y
_atom_site_fract_z
Si Si1 0.196899 0.717384 0.480480
Si Si2 0.285259 0.717927 0.662132
Si Si3 0.522922 0.293332 0.404339
Si Si4 0.337394 0.793180 0.322445
Si Si5 0.890565 0.718387 0.249445
Si Si6 0.032479 0.706179 0.382247
Si Si7 0.029388 0.789253 0.091620
Si Si8 0.171985 0.780216 0.223346
O O1 0.194732 0.500000 0.475148
O O2 0.235958 0.764057 0.572717
O O3 0.269147 0.782118 0.406823
O O4 0.093988 0.780615 0.459605
O O5 0.287409 0.500000 0.669812
O O6 0.389194 0.783254 0.648404
O O7 0.214579 0.777458 0.738481
O O8 0.500000 0.212076 0.500000
O O9 0.549208 0.500000 0.422900
O O10 0.432163 0.293146 0.348694
O O11 0.275072 0.723618 0.244477
O O12 0.358796 0.000000 0.304317
O O13 0.894169 0.500000 0.251208
O O14 0.947144 0.773880 0.163411
O O15 0.945882 0.784426 0.333692
O O16 0.008327 0.500000 0.403484
O O17 0.107925 0.709937 0.302701
O O18 0.121021 0.720081 0.137232
O O19 0.047528 0.000000 0.077069
O O20 0.000000 0.710561 0.000000
O O21 0.169606 0.000000 0.227645
#
# Coordination Sequence:
#
# PCOD9142194 Si02
#       8
#     4   4   4   4   4   4   4   4
#     4   9  15  26  41  57  80 115 153 180 207 250
#     4   9  17  28  42  59  83 116 151 183 217 253
#     4  10  18  30  45  59  80 117 159 192 219 252
#     4  10  18  27  41  62  87 112 143 188 228 251
#     4   9  17  29  43  64  91 114 139 176 218 256
#     4   8  14  23  39  60  82 110 144 177 205 243
#     4   9  17  31  51  71  90 114 141 167 205 266
#     4   8  15  27  42  62  88 113 136 169 215 260
#
# _framework density 19.096191000000001
#
# number of rings (size 3 to 8) (size 9 to 14) (size 15 to 20)
#    0.000    3.000    1.250    0.375    0.000    1.500 
#    0.000    3.750    0.000    0.000    0.000    9.625 
#    0.000    7.000    0.000    0.000    0.000    0.000 
#
# Total GULP energy -178248.865696 kJ/mol
# GULP energy per Si atom -5570.277053 kJ/mol
# Density = 1.905273 g / cm^3
# Si number density = 19.096191 Si / 1000 Ang^3
#
#
#
# Elastic Constant Matrix: (Units=GPa)
#
#
# Indices 1 2 3 4 5 6 
#
# 1 143.9948 -5.7281 44.6366 0.0000 8.8160 0.0000
# 2 -5.7281 56.9331 -2.0777 0.0000 3.3660 0.0000
# 3 44.6366 -2.0777 86.7057 0.0000 18.7305 0.0000
# 4 0.0000 0.0000 0.0000 -2.2519 0.0000 -1.4489
# 5 8.8160 3.3660 18.7305 0.0000 18.9936 0.0000
# 6 0.0000 0.0000 0.0000 -1.4489 0.0000 5.9959
#
#
#
# Elastic Compliance Matrix: (Units=1/GPa)
#
#
# Indices 1 2 3 4 5 6 
#
# 1 0.008291 0.000660 -0.004315 0.000000 0.000290 0.000000
# 2 0.000660 0.017938 0.001071 0.000000 -0.004542 0.000000
# 3 -0.004315 0.001071 0.017013 0.000000 -0.014964 0.000000
# 4 0.000000 0.000000 0.000000 -0.384312 0.000000 -0.092866
# 5 0.000290 -0.004542 -0.014964 0.000000 0.068077 0.000000
# 6 0.000000 0.000000 0.000000 -0.092866 0.000000 0.144340
#
#
# Mechanical properties :
#
#
# Convention : Reuss Voigt Hill
#
# Bulk Modulus (GPa) = 26.26453 40.14392 33.20423
# Shear Modulus (GPa) = -45.12900 21.26770 -11.93065
#
# Velocity S-wave (km/s) = -4.86660 3.34086 -2.50224
# Velocity P-wave (km/s) = 4.21838 5.99578 3.01286
#
# Compressibility (1/GPa) = 0.03807416
#
# Stress axis : x y z
#
# Youngs Moduli (GPa) = 120.61610 55.74618 58.77861
#
# Poissons Ratio (x) = -0.03677 0.25363
# Poissons Ratio (y) = -0.07955 -0.06298
# Poissons Ratio (z) = 0.52046 -0.05973
#
# Static dielectric constant tensor:
#      x y z
#    x 1.710580 0.000000 0.019420 
#    y 0.000000 1.761100 0.000000 
#    z 0.019420 0.000000 1.667740 
# 
# From -- ./inp_files/66134.got.cif
#   From: 2010.05.17/outbox.cif.g08.bks.cpg/sg10_34_cif.got.tgz:66134.got - 2010.06.03 11:33:40.
