data_PCOD9142740
_publ_section_title
;
Structure prediction by ZEFSAII (Michael W. Deem and Ramdas Pophale) SiO2 
 PCOD9142740
Probable space group: P 2/M
;
_chemical_formula_sum "Si O2"
_cell_formula_units_Z 32
_cell_length_a 19.252019
_cell_length_b 17.607977
_cell_length_c 11.942295
_cell_angle_alpha 90.000000
_cell_angle_beta 21.263013
_cell_angle_gamma 90.000000
_cell_volume 1468.117681
_symmetry_space_group_name_H-M "P 2/M"
_symmetry_group_IT_number 10
_symmetry_cell_setting 'monoclinic'
loop_
_space_group_symop_operation_xyz
x,y,z
-x,y,-z
-x,-y,-z
x,-y,z
loop_
_atom_site_type_symbol
_atom_site_label
_atom_site_fract_x
_atom_site_fract_y
_atom_site_fract_z
Si Si1 0.347704 0.087798 0.639308
Si Si2 0.785327 0.834420 0.373432
Si Si3 0.317844 0.669976 0.849915
Si Si4 0.919645 0.915351 0.383262
Si Si5 0.881368 0.583400 0.032070
Si Si6 0.519412 0.412166 0.742360
Si Si7 0.247597 0.319630 0.451359
Si Si8 0.044866 0.758070 0.561545
O O1 0.500000 0.115026 0.500000
O O2 0.342780 0.137766 0.535855
O O3 0.392988 0.000000 0.541862
O O4 0.138527 0.086933 0.010172
O O5 0.718612 0.756908 0.529518
O O6 0.798938 0.895497 0.453089
O O7 0.000000 0.825068 0.000000
O O8 0.500000 0.689353 0.500000
O O9 0.218820 0.598427 0.936625
O O10 0.378946 0.641918 0.881215
O O11 0.162078 0.736549 0.075197
O O12 0.899392 0.845203 0.498513
O O13 0.877976 0.000000 0.488238
O O14 0.969463 0.500000 0.905070
O O15 0.712311 0.588207 0.375906
O O16 0.047222 0.644383 0.794022
O O17 0.454220 0.500000 0.848939
O O18 0.588342 0.377285 0.756177
O O19 0.199059 0.293738 0.397021
O O20 0.000000 0.743136 0.500000
#
# Coordination Sequence:
#
# PCOD9142740 Si02
#       8
#     4   4   4   4   4   4   4   4
#     4   9  17  28  45  73 108 139 166 203 254 308
#     4   9  16  27  44  68 103 139 170 206 254 306
#     4   9  19  34  55  81 108 138 173 213 260 310
#     4   9  18  32  51  75 100 131 172 214 256 304
#     4   9  16  28  48  76 110 141 170 211 262 310
#     4  10  18  29  50  80 109 137 173 217 260 304
#     4  10  19  30  47  73 103 138 179 216 257 311
#     4  10  22  39  56  74 102 140 177 216 262 313
#
# _framework density 21.796617999999999
#
# number of rings (size 3 to 8) (size 9 to 14) (size 15 to 20)
#    0.000    2.625    0.000    2.250    0.000    8.750 
#    0.000    0.625    0.000   14.250    0.000    0.000 
#    0.000   10.000    0.000    0.000    0.000    0.000 
#
# Total GULP energy -178629.995874 kJ/mol
# GULP energy per Si atom -5582.187371 kJ/mol
# Density = 2.174701 g / cm^3
# Si number density = 21.796618 Si / 1000 Ang^3
#
#
#
# Elastic Constant Matrix: (Units=GPa)
#
#
# Indices 1 2 3 4 5 6 
#
# 1 173.0065 40.7137 14.5464 0.0000 -17.3108 0.0000
# 2 40.7137 98.0713 12.0326 0.0000 -6.9217 0.0000
# 3 14.5464 12.0326 20.1609 0.0000 -6.6288 0.0000
# 4 0.0000 0.0000 0.0000 3.4541 0.0000 -9.6099
# 5 -17.3108 -6.9217 -6.6288 0.0000 24.8771 0.0000
# 6 0.0000 0.0000 0.0000 -9.6099 0.0000 22.4416
#
#
#
# Elastic Compliance Matrix: (Units=1/GPa)
#
#
# Indices 1 2 3 4 5 6 
#
# 1 0.006878 -0.002310 -0.002435 0.000000 0.003495 0.000000
# 2 -0.002310 0.011825 -0.005302 0.000000 0.000270 0.000000
# 3 -0.002435 -0.005302 0.058615 0.000000 0.012449 0.000000
# 4 0.000000 0.000000 0.000000 -1.512773 0.000000 -0.647800
# 5 0.003495 0.000270 0.012449 0.000000 0.046022 0.000000
# 6 0.000000 0.000000 0.000000 -0.647800 0.000000 -0.232841
#
#
# Mechanical properties :
#
#
# Convention : Reuss Voigt Hill
#
# Bulk Modulus (GPa) = 17.47506 47.31381 32.39444
# Shear Modulus (GPa) = -3.15835 25.08430 10.96297
#
# Velocity S-wave (km/s) = -1.20505 3.39608 2.24513
# Velocity P-wave (km/s) = 2.46952 6.09359 4.64921
#
# Compressibility (1/GPa) = 0.05722439
#
# Stress axis : x y z
#
# Youngs Moduli (GPa) = 145.38795 84.56488 17.06037
#
# Poissons Ratio (x) = 0.19535 0.04154
# Poissons Ratio (y) = 0.33585 0.09046
# Poissons Ratio (z) = 0.35402 0.44838
#
# Static dielectric constant tensor:
#      x y z
#    x 1.807080 0.000000 0.008650 
#    y 0.000000 1.786270 0.000000 
#    z 0.008650 0.000000 1.798980 
# 
# From -- ./inp_files/54137.got.cif
#   From: 2010.05.17/outbox.cif.g08.bks.cpg/sg10_28_cif.got.tgz:54137.got - 2010.06.03 11:33:40.
