data_PCOD9142131
_publ_section_title
;
Structure prediction by ZEFSAII (Michael W. Deem and Ramdas Pophale) SiO2 
 PCOD9142131
Probable space group: P 2/M
;
_chemical_formula_sum "Si O2"
_cell_formula_units_Z 30
_cell_length_a 12.669531
_cell_length_b 14.531226
_cell_length_c 19.395981
_cell_angle_alpha 90.000000
_cell_angle_beta 153.396465
_cell_angle_gamma 90.000000
_cell_volume 1599.088349
_symmetry_space_group_name_H-M "P 2/M"
_symmetry_group_IT_number 10
_symmetry_cell_setting 'monoclinic'
loop_
_space_group_symop_operation_xyz
x,y,z
-x,y,-z
-x,-y,-z
x,-y,z
loop_
_atom_site_type_symbol
_atom_site_label
_atom_site_fract_x
_atom_site_fract_y
_atom_site_fract_z
Si Si1 0.765093 0.395770 0.626841
Si Si2 0.346632 0.185503 0.238064
Si Si3 0.605335 0.194992 0.897372
Si Si4 0.000000 0.343440 0.000000
Si Si5 0.097860 0.105336 0.217957
Si Si6 0.214536 0.399397 0.989218
Si Si7 0.710973 0.890494 0.178451
Si Si8 0.817094 0.792455 0.597845
O O1 0.500000 0.377255 0.500000
O O2 0.762211 0.500000 0.597649
O O3 0.835859 0.317169 0.615039
O O4 0.969164 0.391483 0.803896
O O5 0.382403 0.174318 0.177198
O O6 0.184545 0.277108 0.147458
O O7 0.202795 0.115058 0.202329
O O8 0.598473 0.189457 0.420820
O O9 0.379447 0.153986 0.803248
O O10 0.639525 0.304286 0.933130
O O11 0.832525 0.142626 0.060281
O O12 0.857555 0.398911 0.972931
O O13 0.224835 0.167927 0.349380
O O14 0.106171 0.000000 0.245374
O O15 0.320450 0.500000 0.032995
O O16 0.947609 0.841324 0.291374
O O17 0.746769 0.000000 0.205858
O O18 0.500000 0.875620 0.000000
#
# Coordination Sequence:
#
# PCOD9142131 Si02
#       8
#     4   4   4   2   4   4   4   4
#     4  10  19  33  57  88 123 160 193 239 305 365
#     4  11  23  38  61  89 129 155 192 249 317 359
#     4  11  22  42  60  86 121 161 201 248 299 359
#     4  10  17  36  53  84 122 168 185 228 301 376
#     4  12  22  38  62  86 117 156 196 248 313 368
#     4  10  18  31  56  87 116 152 199 243 290 356
#     4  11  23  42  66  85 112 163 214 251 295 355
#     4  12  23  39  61  91 123 155 203 259 289 353
#
# _framework density 18.76069
#
# number of rings (size 3 to 8) (size 9 to 14) (size 15 to 20)
#    0.000    1.067    5.333    3.000    0.000    3.733 
#    0.000    4.000    0.000    2.400    0.000    4.667 
#    0.000    0.000    0.000    0.000    0.000    0.000 
#
# Total GULP energy -167382.334014 kJ/mol
# GULP energy per Si atom -5579.411134 kJ/mol
# Density = 1.871799 g / cm^3
# Si number density = 18.760690 Si / 1000 Ang^3
#
#
#
# Elastic Constant Matrix: (Units=GPa)
#
#
# Indices 1 2 3 4 5 6 
#
# 1 82.3827 41.5325 12.0872 0.0000 9.0258 0.0000
# 2 41.5325 117.2476 30.2570 0.0000 19.8578 0.0000
# 3 12.0872 30.2570 71.0246 0.0000 1.0096 0.0000
# 4 0.0000 0.0000 0.0000 -21.6652 0.0000 21.0328
# 5 9.0258 19.8578 1.0096 0.0000 27.0969 0.0000
# 6 0.0000 0.0000 0.0000 21.0328 0.0000 12.1484
#
#
#
# Elastic Compliance Matrix: (Units=1/GPa)
#
#
# Indices 1 2 3 4 5 6 
#
# 1 0.014824 -0.004924 -0.000407 0.000000 -0.001314 0.000000
# 2 -0.004924 0.012695 -0.004464 0.000000 -0.007497 0.000000
# 3 -0.000407 -0.004464 0.016010 0.000000 0.002810 0.000000
# 4 0.000000 0.000000 0.000000 -0.017218 0.000000 0.029809
# 5 -0.001314 -0.007497 0.002810 0.000000 0.042732 0.000000
# 6 0.000000 0.000000 0.000000 0.029809 0.000000 0.030706
#
#
# Mechanical properties :
#
#
# Convention : Reuss Voigt Hill
#
# Bulk Modulus (GPa) = 41.76809 48.71203 45.24006
# Shear Modulus (GPa) = 39.27194 15.96790 27.61992
#
# Velocity S-wave (km/s) = 4.58023 2.92059 3.84112
# Velocity P-wave (km/s) = 7.09108 6.11510 6.62109
#
# Compressibility (1/GPa) = 0.02394172
#
# Stress axis : x y z
#
# Youngs Moduli (GPa) = 67.45655 78.77351 62.45944
#
# Poissons Ratio (x) = 0.38785 0.02540
# Poissons Ratio (y) = 0.33213 0.27879
# Poissons Ratio (z) = 0.02743 0.35161
#
# Static dielectric constant tensor:
#      x y z
#    x 1.660670 0.000000 -0.012500 
#    y 0.000000 1.672770 0.000000 
#    z -0.012500 0.000000 1.637120 
# 
# From -- ./inp_files/76922.got.cif
#   From: 2010.05.17/outbox.cif.g08.bks.cpg/sg10_39_cif.got.tgz:76922.got - 2010.06.03 11:33:40.
