data_PCOD9142633
_publ_section_title
;
Structure prediction by ZEFSAII (Michael W. Deem and Ramdas Pophale) SiO2 
 PCOD9142633
Probable space group: P 2/M
;
_chemical_formula_sum "Si O2"
_cell_formula_units_Z 24
_cell_length_a 10.513197
_cell_length_b 25.391675
_cell_length_c 5.230916
_cell_angle_alpha 90.000000
_cell_angle_beta 69.037735
_cell_angle_gamma 90.000000
_cell_volume 1303.963167
_symmetry_space_group_name_H-M "P 2/M"
_symmetry_group_IT_number 10
_symmetry_cell_setting 'monoclinic'
loop_
_space_group_symop_operation_xyz
x,y,z
-x,y,-z
-x,-y,-z
x,-y,z
loop_
_atom_site_type_symbol
_atom_site_label
_atom_site_fract_x
_atom_site_fract_y
_atom_site_fract_z
Si Si1 0.403817 0.000000 0.818430
Si Si2 0.152388 0.201621 0.808616
Si Si3 0.500000 0.191833 0.000000
Si Si4 0.334490 0.560082 0.620550
Si Si5 0.334597 0.375869 0.121199
Si Si6 0.743266 0.256498 0.746827
Si Si7 0.645009 0.114260 0.248556
O O1 0.500000 0.000000 0.500000
O O2 0.322409 0.054847 0.858802
O O3 0.500000 0.000000 0.000000
O O4 0.158588 0.236532 0.548117
O O5 0.238093 0.147796 0.698458
O O6 0.216277 0.234185 0.002220
O O7 0.000000 0.188273 0.000000
O O8 0.404332 0.231293 0.228036
O O9 0.607191 0.151341 0.040177
O O10 0.500000 0.558555 0.500000
O O11 0.287269 0.500000 0.687415
O O12 0.295318 0.585071 0.378633
O O13 0.293827 0.597947 0.882343
O O14 0.272370 0.318720 0.216991
O O15 0.500000 0.370391 0.000000
O O16 0.500000 0.112887 0.500000
#
# Coordination Sequence:
#
# PCOD9142633 Si02
#       7
#     2   4   2   4   4   4   4
#     4  10  20  32  55  84 113 134 181 236 279 312
#     4  11  24  38  55  78 114 151 184 222 280 341
#     4  10  18  31  54  82 105 142 178 232 270 320
#     4   9  17  28  43  67 108 151 178 211 271 335
#     4  10  18  29  47  75 105 139 183 226 269 322
#     4  11  21  35  55  78 112 140 191 224 278 322
#     4  10  19  35  56  82 110 143 185 228 275 323
#
# _framework density 18.405429000000002
#
# number of rings (size 3 to 8) (size 9 to 14) (size 15 to 20)
#    0.000    1.833    3.333    2.000    0.000    2.000 
#    0.000    0.417    0.000    0.000    0.000    5.833 
#    0.000   46.667    0.000    0.000    0.000    0.000 
#
# Total GULP energy -133664.852829 kJ/mol
# GULP energy per Si atom -5569.368868 kJ/mol
# Density = 1.836354 g / cm^3
# Si number density = 18.405429 Si / 1000 Ang^3
#
#
#
# Elastic Constant Matrix: (Units=GPa)
#
#
# Indices 1 2 3 4 5 6 
#
# 1 23.8471 24.6284 13.5316 0.0000 -3.3352 0.0000
# 2 24.6284 166.9215 44.8541 0.0000 -1.9128 0.0000
# 3 13.5316 44.8541 97.2443 0.0000 9.7762 0.0000
# 4 0.0000 0.0000 0.0000 28.0004 0.0000 3.5198
# 5 -3.3352 -1.9128 9.7762 0.0000 28.7174 0.0000
# 6 0.0000 0.0000 0.0000 3.5198 0.0000 10.3244
#
#
#
# Elastic Compliance Matrix: (Units=1/GPa)
#
#
# Indices 1 2 3 4 5 6 
#
# 1 0.052352 -0.006257 -0.005144 0.000000 0.007415 0.000000
# 2 -0.006257 0.007657 -0.002733 0.000000 0.000714 0.000000
# 3 -0.005144 -0.002733 0.012775 0.000000 -0.005129 0.000000
# 4 0.000000 0.000000 0.000000 0.037313 0.000000 -0.012721
# 5 0.007415 0.000714 -0.005129 0.000000 0.037477 0.000000
# 6 0.000000 0.000000 0.000000 -0.012721 0.000000 0.101195
#
#
# Mechanical properties :
#
#
# Convention : Reuss Voigt Hill
#
# Bulk Modulus (GPa) = 22.46382 50.44901 36.45642
# Shear Modulus (GPa) = 17.13068 27.07501 22.10285
#
# Velocity S-wave (km/s) = 3.05411 3.83957 3.46914
# Velocity P-wave (km/s) = 4.96672 6.86482 5.99141
#
# Compressibility (1/GPa) = 0.04451602
#
# Stress axis : x y z
#
# Youngs Moduli (GPa) = 19.10152 130.60786 78.27659
#
# Poissons Ratio (x) = 0.81721 0.40266
# Poissons Ratio (y) = 0.11952 0.21390
# Poissons Ratio (z) = 0.09826 0.35691
#
# Static dielectric constant tensor:
#      x y z
#    x 1.681310 0.000000 0.041140 
#    y 0.000000 1.635730 0.000000 
#    z 0.041140 0.000000 1.745670 
# 
# From -- ./inp_files/7490.got.cif
#   From: 2010.05.17/outbox.cif.g08.bks.cpg/sg10_4_cif.got.tgz:7490.got - 2010.06.03 11:33:40.
