data_PCOD9142052
_publ_section_title
;
Structure prediction by ZEFSAII (Michael W. Deem and Ramdas Pophale) SiO2 
 PCOD9142052
Probable space group: P 2/M
;
_chemical_formula_sum "Si O2"
_cell_formula_units_Z 32
_cell_length_a 21.523391
_cell_length_b 8.480373
_cell_length_c 11.556879
_cell_angle_alpha 90.000000
_cell_angle_beta 53.800056
_cell_angle_gamma 90.000000
_cell_volume 1702.231813
_symmetry_space_group_name_H-M "P 2/M"
_symmetry_group_IT_number 10
_symmetry_cell_setting 'monoclinic'
loop_
_space_group_symop_operation_xyz
x,y,z
-x,y,-z
-x,-y,-z
x,-y,z
loop_
_atom_site_type_symbol
_atom_site_label
_atom_site_fract_x
_atom_site_fract_y
_atom_site_fract_z
Si Si1 0.753774 0.687245 0.066016
Si Si2 0.071720 0.312430 0.775082
Si Si3 0.769108 0.691311 0.490399
Si Si4 0.908193 0.184717 0.991750
Si Si5 0.370309 0.187134 0.953121
Si Si6 0.660973 0.309876 0.394160
Si Si7 0.531251 0.188820 0.686891
Si Si8 0.369385 0.689045 0.206400
O O1 0.764610 0.500000 0.063743
O O2 0.835777 0.768358 0.993777
O O3 0.707602 0.729556 0.001675
O O4 0.697926 0.740270 0.232795
O O5 0.061785 0.500000 0.772221
O O6 0.143078 0.255606 0.618421
O O7 0.095158 0.278560 0.882844
O O8 0.990240 0.229057 0.845956
O O9 0.771015 0.500000 0.486729
O O10 0.721050 0.738779 0.429042
O O11 0.716563 0.737060 0.656726
O O12 0.906733 0.000000 0.020144
O O13 0.442546 0.238977 0.794392
O O14 0.361272 0.000000 0.951710
O O15 0.389467 0.230716 0.063861
O O16 0.655626 0.500000 0.401356
O O17 0.578775 0.242171 0.522351
O O18 0.574888 0.261413 0.750179
O O19 0.534244 0.000000 0.692203
O O20 0.372484 0.500000 0.190431
#
# Coordination Sequence:
#
# PCOD9142052 Si02
#       8
#     4   4   4   4   4   4   4   4
#     4  11  22  38  57  76 104 145 185 220 263 321
#     4  10  17  31  54  79 109 144 179 215 260 312
#     4   8  15  30  53  80 107 133 171 223 265 304
#     4  11  21  32  48  79 115 143 174 216 263 316
#     4  11  24  39  53  76 108 143 180 221 271 324
#     4   9  18  34  54  78 106 137 179 222 264 315
#     4  10  21  36  55  79 109 140 173 220 277 323
#     4  10  20  36  58  82 105 136 182 229 266 308
#
# _framework density 18.798850000000002
#
# number of rings (size 3 to 8) (size 9 to 14) (size 15 to 20)
#    0.000    2.000    1.250    4.875    0.000    5.000 
#    0.000    4.375    0.000    0.750    0.000    5.250 
#    0.000    0.000    0.000    0.000    0.000    0.000 
#
# Total GULP energy -178637.684561 kJ/mol
# GULP energy per Si atom -5582.427643 kJ/mol
# Density = 1.875606 g / cm^3
# Si number density = 18.798850 Si / 1000 Ang^3
#
#
#
# Elastic Constant Matrix: (Units=GPa)
#
#
# Indices 1 2 3 4 5 6 
#
# 1 63.9862 5.6175 10.4066 0.0000 -25.1996 0.0000
# 2 5.6175 28.8848 3.8643 0.0000 -6.0363 0.0000
# 3 10.4066 3.8643 50.4124 0.0000 -27.7864 0.0000
# 4 0.0000 0.0000 0.0000 56.3045 0.0000 2.0275
# 5 -25.1996 -6.0363 -27.7864 0.0000 29.4213 0.0000
# 6 0.0000 0.0000 0.0000 2.0275 0.0000 18.9924
#
#
#
# Elastic Compliance Matrix: (Units=1/GPa)
#
#
# Indices 1 2 3 4 5 6 
#
# 1 0.028596 0.000593 0.015891 0.000000 0.039622 0.000000
# 2 0.000593 0.036367 0.003092 0.000000 0.010889 0.000000
# 3 0.015891 0.003092 0.050414 0.000000 0.061857 0.000000
# 4 0.000000 0.000000 0.000000 0.017829 0.000000 -0.001903
# 5 0.039622 0.010889 0.061857 0.000000 0.128580 0.000000
# 6 0.000000 0.000000 0.000000 -0.001903 0.000000 0.052856
#
#
# Mechanical properties :
#
#
# Convention : Reuss Voigt Hill
#
# Bulk Modulus (GPa) = 6.47134 20.34002 13.40568
# Shear Modulus (GPa) = 15.29049 29.16998 22.23024
#
# Velocity S-wave (km/s) = 2.85507 3.94342 3.44253
# Velocity P-wave (km/s) = 3.78397 5.61938 4.79040
#
# Compressibility (1/GPa) = 0.15452760
#
# Stress axis : x y z
#
# Youngs Moduli (GPa) = 34.96955 27.49754 19.83585
#
# Poissons Ratio (x) = -0.01630 -0.31520
# Poissons Ratio (y) = -0.02073 -0.06133
# Poissons Ratio (z) = -0.55569 -0.08502
#
# Static dielectric constant tensor:
#      x y z
#    x 1.633310 0.000000 -0.024220 
#    y 0.000000 1.633460 0.000000 
#    z -0.024220 0.000000 1.671150 
# 
# From -- ./inp_files/55210.got.cif
#   From: 2010.05.17/outbox.cif.g08.bks.cpg/sg10_28_cif.got.tgz:55210.got - 2010.06.03 11:33:40.
