data_PCOD9142558
_publ_section_title
;
Structure prediction by ZEFSAII (Michael W. Deem and Ramdas Pophale) SiO2 
 PCOD9142558
Probable space group: P 2/M
;
_chemical_formula_sum "Si O2"
_cell_formula_units_Z 32
_cell_length_a 9.162469
_cell_length_b 14.861436
_cell_length_c 27.996622
_cell_angle_alpha 90.000000
_cell_angle_beta 152.081088
_cell_angle_gamma 90.000000
_cell_volume 1784.967359
_symmetry_space_group_name_H-M "P 2/M"
_symmetry_group_IT_number 10
_symmetry_cell_setting 'monoclinic'
loop_
_space_group_symop_operation_xyz
x,y,z
-x,y,-z
-x,-y,-z
x,-y,z
loop_
_atom_site_type_symbol
_atom_site_label
_atom_site_fract_x
_atom_site_fract_y
_atom_site_fract_z
Si Si1 0.120872 0.896922 0.892194
Si Si2 0.849539 0.401723 0.758270
Si Si3 0.685059 0.769440 0.597058
Si Si4 0.236304 0.396225 0.152323
Si Si5 0.116763 0.779673 0.982538
Si Si6 0.139233 0.218201 0.805993
Si Si7 0.972388 0.601123 0.353280
Si Si8 0.248075 0.342890 0.532218
O O1 0.029700 0.843989 0.818087
O O2 0.015115 0.000000 0.862470
O O3 0.500000 0.897392 0.000000
O O4 0.020197 0.842257 0.910021
O O5 0.996246 0.500000 0.793377
O O6 0.802163 0.388236 0.801305
O O7 0.514938 0.399321 0.635784
O O8 0.040240 0.319906 0.790877
O O9 0.500000 0.814941 0.500000
O O10 0.426428 0.741438 0.560815
O O11 0.966625 0.812606 0.707777
O O12 0.834551 0.676794 0.618963
O O13 0.156399 0.500000 0.116538
O O14 0.600786 0.382198 0.244435
O O15 0.023470 0.319846 0.067164
O O16 0.490490 0.781027 0.091420
O O17 0.000000 0.812625 0.000000
O O18 0.036623 0.500000 0.353904
O O19 0.082505 0.607724 0.440165
O O20 0.000000 0.316463 0.500000
#
# Coordination Sequence:
#
# PCOD9142558 Si02
#       8
#     4   4   4   4   4   4   4   4
#     4   9  19  37  60  82 103 130 169 215 265 315
#     4  10  19  30  48  74 102 138 183 222 254 298
#     4   9  20  33  49  74 104 138 176 217 265 316
#     4  10  20  32  48  72 105 144 182 215 251 302
#     4  11  22  36  55  80 109 140 173 215 260 309
#     4  10  20  37  56  77 106 141 175 215 258 309
#     4  10  19  31  45  66 104 145 182 224 266 303
#     4  10  18  29  46  69  96 135 187 234 266 296
#
# _framework density 17.927499000000001
#
# number of rings (size 3 to 8) (size 9 to 14) (size 15 to 20)
#    0.000    2.125    2.500    1.125    0.000    5.750 
#    0.000    1.250    0.000    0.375    0.000    0.000 
#    0.000   52.000    0.000    0.000    0.000    0.750 
#
# Total GULP energy -178460.858415 kJ/mol
# GULP energy per Si atom -5576.901825 kJ/mol
# Density = 1.788670 g / cm^3
# Si number density = 17.927499 Si / 1000 Ang^3
#
#
#
# Elastic Constant Matrix: (Units=GPa)
#
#
# Indices 1 2 3 4 5 6 
#
# 1 101.5898 31.9603 32.7778 0.0000 -7.7449 0.0000
# 2 31.9603 65.5426 34.0375 0.0000 -5.9064 0.0000
# 3 32.7778 34.0375 94.9579 0.0000 -16.4420 0.0000
# 4 0.0000 0.0000 0.0000 6.1140 0.0000 1.4503
# 5 -7.7449 -5.9064 -16.4420 0.0000 30.6509 0.0000
# 6 0.0000 0.0000 0.0000 1.4503 0.0000 2.8649
#
#
#
# Elastic Compliance Matrix: (Units=1/GPa)
#
#
# Indices 1 2 3 4 5 6 
#
# 1 0.012126 -0.004594 -0.002383 0.000000 0.000900 0.000000
# 2 -0.004594 0.020488 -0.005815 0.000000 -0.000332 0.000000
# 3 -0.002383 -0.005815 0.014485 0.000000 0.006047 0.000000
# 4 0.000000 0.000000 0.000000 0.185880 0.000000 -0.094101
# 5 0.000900 -0.000332 0.006047 0.000000 0.036033 0.000000
# 6 0.000000 0.000000 0.000000 -0.094101 0.000000 0.396690
#
#
# Mechanical properties :
#
#
# Convention : Reuss Voigt Hill
#
# Bulk Modulus (GPa) = 46.48242 51.07127 48.77684
# Shear Modulus (GPa) = 7.15861 18.81362 12.98611
#
# Velocity S-wave (km/s) = 2.00044 3.24300 2.69433
# Velocity P-wave (km/s) = 5.59642 6.52474 6.07833
#
# Compressibility (1/GPa) = 0.02151351
#
# Stress axis : x y z
#
# Youngs Moduli (GPa) = 82.46418 48.80968 69.03591
#
# Poissons Ratio (x) = 0.22426 0.16452
# Poissons Ratio (y) = 0.37888 0.40147
# Poissons Ratio (z) = 0.19652 0.28385
#
# Static dielectric constant tensor:
#      x y z
#    x 1.616890 0.000000 -0.024230 
#    y 0.000000 1.595630 0.000000 
#    z -0.024230 0.000000 1.647190 
# 
# From -- ./inp_files/92390.got.cif
#   From: 2010.05.17/outbox.cif.g08.bks.cpg/sg10_47_cif.got.tgz:92390.got - 2010.06.03 11:33:40.
