data_PCOD9142974
_publ_section_title
;
Structure prediction by ZEFSAII (Michael W. Deem and Ramdas Pophale) SiO2 
 PCOD9142974
Probable space group: P 2/M
;
_chemical_formula_sum "Si O2"
_cell_formula_units_Z 32
_cell_length_a 16.092331
_cell_length_b 16.451551
_cell_length_c 5.629062
_cell_angle_alpha 90.000000
_cell_angle_beta 120.722443
_cell_angle_gamma 90.000000
_cell_volume 1281.104711
_symmetry_space_group_name_H-M "P 2/M"
_symmetry_group_IT_number 10
_symmetry_cell_setting 'monoclinic'
loop_
_space_group_symop_operation_xyz
x,y,z
-x,y,-z
-x,-y,-z
x,-y,z
loop_
_atom_site_type_symbol
_atom_site_label
_atom_site_fract_x
_atom_site_fract_y
_atom_site_fract_z
Si Si1 0.338568 0.809386 0.834617
Si Si2 0.903791 0.651956 0.096279
Si Si3 0.393943 0.635171 0.895440
Si Si4 0.331256 0.410253 0.303971
Si Si5 0.864118 0.095406 0.454618
Si Si6 0.891272 0.164058 0.996035
Si Si7 0.121171 0.593086 0.440140
Si Si8 0.664536 0.788823 0.668817
O O1 0.321383 0.711980 0.797655
O O2 0.239873 0.860289 0.701279
O O3 0.384052 0.821813 0.642519
O O4 0.384850 0.818648 0.160890
O O5 0.851714 0.634303 0.269640
O O6 0.004400 0.603100 0.255886
O O7 0.929799 0.745947 0.111472
O O8 0.848533 0.626555 0.774520
O O9 0.371081 0.583392 0.630332
O O10 0.500000 0.670514 0.000000
O O11 0.391230 0.590165 0.142776
O O12 0.277253 0.500000 0.197567
O O13 0.322057 0.309033 0.296945
O O14 0.914665 0.133569 0.763246
O O15 0.855071 0.000000 0.483419
O O16 0.907212 0.109784 0.253715
O O17 0.774456 0.177768 0.820137
O O18 0.148366 0.500000 0.496435
#
# Coordination Sequence:
#
# PCOD9142974 Si02
#       8
#     4   4   4   4   4   4   4   4
#     4   8  16  30  47  65  88 117 147 180 226 285
#     4  10  18  30  50  73 100 132 161 201 241 278
#     4  10  19  30  45  63  85 117 154 192 229 269
#     4  10  19  30  42  60  88 120 154 192 232 269
#     4  10  19  33  53  76  98 120 149 194 244 289
#     4  10  19  32  51  76  98 122 160 195 235 294
#     4  10  19  33  50  73 101 133 173 207 234 262
#     4   8  16  30  45  61  88 120 150 185 226 274
#
# _framework density 24.978442000000001
#
# number of rings (size 3 to 8) (size 9 to 14) (size 15 to 20)
#    0.000    2.500    0.000    3.750    0.000    1.500 
#    0.000    1.875    0.000    0.375    0.000   35.000 
#    0.000   12.000    0.000    0.000    0.000    2.000 
#
# Total GULP energy -178267.518445 kJ/mol
# GULP energy per Si atom -5570.859951 kJ/mol
# Density = 2.492159 g / cm^3
# Si number density = 24.978442 Si / 1000 Ang^3
#
#
#
# Elastic Constant Matrix: (Units=GPa)
#
#
# Indices 1 2 3 4 5 6 
#
# 1 59.6799 24.5821 46.0404 0.0000 -24.8385 0.0000
# 2 24.5821 124.0147 62.4052 0.0000 -15.5870 0.0000
# 3 46.0404 62.4052 229.2367 0.0000 -88.4545 0.0000
# 4 0.0000 0.0000 0.0000 23.0914 0.0000 6.7943
# 5 -24.8385 -15.5870 -88.4545 0.0000 51.0426 0.0000
# 6 0.0000 0.0000 0.0000 6.7943 0.0000 3.2077
#
#
#
# Elastic Compliance Matrix: (Units=1/GPa)
#
#
# Indices 1 2 3 4 5 6 
#
# 1 0.022170 -0.003366 0.000694 0.000000 0.010963 0.000000
# 2 -0.003366 0.010242 -0.004640 0.000000 -0.006552 0.000000
# 3 0.000694 -0.004640 0.015302 0.000000 0.025438 0.000000
# 4 0.000000 0.000000 0.000000 0.114939 0.000000 -0.243453
# 5 0.010963 -0.006552 0.025438 0.000000 0.067008 0.000000
# 6 0.000000 0.000000 0.000000 -0.243453 0.000000 0.827414
#
#
# Mechanical properties :
#
#
# Convention : Reuss Voigt Hill
#
# Bulk Modulus (GPa) = 30.22103 75.44295 52.83199
# Shear Modulus (GPa) = 4.61796 34.12857 19.37326
#
# Velocity S-wave (km/s) = 1.36117 3.70039 2.78798
# Velocity P-wave (km/s) = 3.82041 6.96606 5.61789
#
# Compressibility (1/GPa) = 0.03308954
#
# Stress axis : x y z
#
# Youngs Moduli (GPa) = 45.10627 97.63421 65.35174
#
# Poissons Ratio (x) = 0.32861 -0.04534
# Poissons Ratio (y) = 0.15182 0.30325
# Poissons Ratio (z) = -0.03130 0.45305
#
# Static dielectric constant tensor:
#      x y z
#    x 2.168120 0.000000 -0.006110 
#    y 0.000000 1.907000 0.000000 
#    z -0.006110 0.000000 2.060990 
# 
# From -- ./inp_files/12719.got.cif
#   From: 2010.05.17/outbox.cif.g08.bks.cpg/sg10_7_cif.got.tgz:12719.got - 2010.06.03 11:33:40.
