data_PCOD9142451
_publ_section_title
;
Structure prediction by ZEFSAII (Michael W. Deem and Ramdas Pophale) SiO2 
 PCOD9142451
Probable space group: P 2/M
;
_chemical_formula_sum "Si O2"
_cell_formula_units_Z 30
_cell_length_a 5.468994
_cell_length_b 16.058460
_cell_length_c 16.681424
_cell_angle_alpha 90.000000
_cell_angle_beta 71.753488
_cell_angle_gamma 90.000000
_cell_volume 1391.359053
_symmetry_space_group_name_H-M "P 2/M"
_symmetry_group_IT_number 10
_symmetry_cell_setting 'monoclinic'
loop_
_space_group_symop_operation_xyz
x,y,z
-x,y,-z
-x,-y,-z
x,-y,z
loop_
_atom_site_type_symbol
_atom_site_label
_atom_site_fract_x
_atom_site_fract_y
_atom_site_fract_z
Si Si1 0.000000 0.365074 0.000000
Si Si2 0.451508 0.870260 0.730769
Si Si3 0.847911 0.907080 0.832744
Si Si4 0.760997 0.271472 0.884093
Si Si5 0.416854 0.409719 0.836123
Si Si6 0.288910 0.878852 0.461356
Si Si7 0.777686 0.312070 0.467731
Si Si8 0.244817 0.694595 0.719295
O O1 0.839807 0.413737 0.083234
O O2 0.187058 0.308989 0.034397
O O3 0.646901 0.897642 0.779853
O O4 0.589083 0.898780 0.636150
O O5 0.438334 0.770567 0.717649
O O6 0.152244 0.896880 0.776017
O O7 0.755045 0.828118 0.894240
O O8 0.822595 0.000000 0.869725
O O9 0.554114 0.329304 0.860660
O O10 0.002150 0.284565 0.799767
O O11 0.550264 0.500000 0.830066
O O12 0.358849 0.387949 0.749348
O O13 0.500000 0.911150 0.500000
O O14 0.264815 0.779374 0.486386
O O15 0.000000 0.909635 0.500000
O O16 0.500000 0.355381 0.500000
O O17 0.830959 0.305187 0.366739
O O18 0.000000 0.350985 0.500000
#
# Coordination Sequence:
#
# PCOD9142451 Si02
#       8
#     2   4   4   4   4   4   4   4
#     4  10  23  44  65 102 138 168 209 266 337 414
#     4  11  20  37  62  91 124 171 230 282 330 395
#     4  11  24  41  65  94 131 176 225 279 335 391
#     4  10  23  39  68  96 132 175 222 270 332 403
#     4  11  23  41  69 101 138 173 211 268 335 411
#     4  10  18  28  51  87 116 163 220 274 329 388
#     4  10  20  30  56  93 125 170 229 280 328 384
#     4  10  21  37  60  97 130 171 231 276 327 401
#
# _framework density 21.561651999999999
#
# number of rings (size 3 to 8) (size 9 to 14) (size 15 to 20)
#    0.000    1.600    4.000    1.800    7.467    3.200 
#    0.000    0.333    0.000   10.400    0.000    0.000 
#    0.000    0.000    0.000    0.000    0.000    0.000 
#
# Total GULP energy -167084.619101 kJ/mol
# GULP energy per Si atom -5569.487303 kJ/mol
# Density = 2.151258 g / cm^3
# Si number density = 21.561652 Si / 1000 Ang^3
#
#
#
# Elastic Constant Matrix: (Units=GPa)
#
#
# Indices 1 2 3 4 5 6 
#
# 1 135.3104 27.1395 9.3318 0.0000 3.4473 0.0000
# 2 27.1395 112.2311 29.2512 0.0000 2.6288 0.0000
# 3 9.3318 29.2512 59.4904 0.0000 11.8116 0.0000
# 4 0.0000 0.0000 0.0000 -41.0772 0.0000 -63.7673
# 5 3.4473 2.6288 11.8116 0.0000 34.1795 0.0000
# 6 0.0000 0.0000 0.0000 -63.7673 0.0000 -81.2093
#
#
#
# Elastic Compliance Matrix: (Units=1/GPa)
#
#
# Indices 1 2 3 4 5 6 
#
# 1 0.007783 -0.001812 -0.000216 0.000000 -0.000571 0.000000
# 2 -0.001812 0.010675 -0.005194 0.000000 0.001157 0.000000
# 3 -0.000216 -0.005194 0.020737 0.000000 -0.006745 0.000000
# 4 0.000000 0.000000 0.000000 0.111182 0.000000 -0.087303
# 5 -0.000571 0.001157 -0.006745 0.000000 0.031557 0.000000
# 6 0.000000 0.000000 0.000000 -0.087303 0.000000 0.056238
#
#
# Mechanical properties :
#
#
# Convention : Reuss Voigt Hill
#
# Bulk Modulus (GPa) = 40.40596 48.71965 44.56281
# Shear Modulus (GPa) = 19.16680 -1.53409 8.81636
#
# Velocity S-wave (km/s) = 2.98473 -0.84441 2.02430
# Velocity P-wave (km/s) = 5.53702 4.65767 5.11627
#
# Compressibility (1/GPa) = 0.02474882
#
# Stress axis : x y z
#
# Youngs Moduli (GPa) = 128.47861 93.67536 48.22406
#
# Poissons Ratio (x) = 0.16978 0.01044
# Poissons Ratio (y) = 0.23285 0.25049
# Poissons Ratio (z) = 0.02781 0.48658
#
# Static dielectric constant tensor:
#      x y z
#    x 1.858990 0.000000 0.001000 
#    y 0.000000 1.843500 0.000000 
#    z 0.001000 0.000000 1.761300 
# 
# From -- ./inp_files/73510.got.cif
#   From: 2010.05.17/outbox.cif.g08.bks.cpg/sg10_37_cif.got.tgz:73510.got - 2010.06.03 11:33:40.
