data_PCOD9142767
_publ_section_title
;
Structure prediction by ZEFSAII (Michael W. Deem and Ramdas Pophale) SiO2 
 PCOD9142767
Probable space group: P 2/M
;
_chemical_formula_sum "Si O2"
_cell_formula_units_Z 32
_cell_length_a 31.094632
_cell_length_b 13.653006
_cell_length_c 9.578856
_cell_angle_alpha 90.000000
_cell_angle_beta 151.604234
_cell_angle_gamma 90.000000
_cell_volume 1933.890761
_symmetry_space_group_name_H-M "P 2/M"
_symmetry_group_IT_number 10
_symmetry_cell_setting 'monoclinic'
loop_
_space_group_symop_operation_xyz
x,y,z
-x,y,-z
-x,-y,-z
x,-y,z
loop_
_atom_site_type_symbol
_atom_site_label
_atom_site_fract_x
_atom_site_fract_y
_atom_site_fract_z
Si Si1 0.451449 0.614536 0.710795
Si Si2 0.857722 0.885005 0.168461
Si Si3 0.238679 0.384525 0.784608
Si Si4 0.204021 0.615936 0.271339
Si Si5 0.952588 0.885109 0.140341
Si Si6 0.257480 0.701800 0.137314
Si Si7 0.088961 0.292722 0.169386
Si Si8 0.625538 0.617388 0.053205
O O1 0.425366 0.500000 0.606626
O O2 0.363290 0.681382 0.463250
O O3 0.500000 0.613969 0.000000
O O4 0.526709 0.651310 0.815854
O O5 0.890026 0.871113 0.099511
O O6 0.945482 0.862477 0.515334
O O7 0.836885 0.000000 0.125998
O O8 0.776234 0.812978 0.972968
O O9 0.217806 0.500000 0.698279
O O10 0.170029 0.314078 0.507430
O O11 0.336928 0.365803 0.994951
O O12 0.234854 0.359277 0.934676
O O13 0.211014 0.500000 0.280518
O O14 0.205222 0.660822 0.122382
O O15 0.117127 0.643927 0.114633
O O16 0.294209 0.651022 0.612979
O O17 0.948938 0.000000 0.093271
O O18 0.923964 0.815358 0.931969
O O19 0.000000 0.321619 0.000000
O O20 0.620481 0.500000 0.057524
#
# Coordination Sequence:
#
# PCOD9142767 Si02
#       8
#     4   4   4   4   4   4   4   4
#     4  10  18  29  52  83 108 136 181 228 261 305
#     4   9  19  36  58  82 106 129 168 233 289 315
#     4  10  22  35  49  75 116 153 178 215 260 311
#     4  10  19  32  51  73 104 144 183 219 252 307
#     4   9  18  36  60  81 100 129 176 234 280 315
#     4  12  20  33  55  81 104 138 183 224 267 322
#     4  11  21  35  52  75 106 146 180 213 266 325
#     4   8  16  32  48  70 106 142 175 215 263 298
#
# _framework density 16.546952999999998
#
# number of rings (size 3 to 8) (size 9 to 14) (size 15 to 20)
#    0.000    2.125    2.500    3.750    0.000    1.750 
#    0.000    2.500    0.000    2.625    0.000    2.625 
#    0.000    0.000    0.000    0.000    0.000    0.000 
#
# Total GULP energy -178312.077043 kJ/mol
# GULP energy per Si atom -5572.252408 kJ/mol
# Density = 1.650929 g / cm^3
# Si number density = 16.546953 Si / 1000 Ang^3
#
#
#
# Elastic Constant Matrix: (Units=GPa)
#
#
# Indices 1 2 3 4 5 6 
#
# 1 94.3825 27.3868 36.0961 0.0000 4.6294 0.0000
# 2 27.3868 71.6485 45.9433 0.0000 9.4341 0.0000
# 3 36.0961 45.9433 62.0916 0.0000 6.8498 0.0000
# 4 0.0000 0.0000 0.0000 19.8268 0.0000 -1.0893
# 5 4.6294 9.4341 6.8498 0.0000 32.3993 0.0000
# 6 0.0000 0.0000 0.0000 -1.0893 0.0000 25.3860
#
#
#
# Elastic Compliance Matrix: (Units=1/GPa)
#
#
# Indices 1 2 3 4 5 6 
#
# 1 0.013628 -0.000217 -0.007735 0.000000 -0.000249 0.000000
# 2 -0.000217 0.026993 -0.019437 0.000000 -0.003720 0.000000
# 3 -0.007735 -0.019437 0.035055 0.000000 -0.000646 0.000000
# 4 0.000000 0.000000 0.000000 0.050556 0.000000 0.002169
# 5 -0.000249 -0.003720 -0.000646 0.000000 0.032120 0.000000
# 6 0.000000 0.000000 0.000000 0.002169 0.000000 0.039485
#
#
# Mechanical properties :
#
#
# Convention : Reuss Voigt Hill
#
# Bulk Modulus (GPa) = 47.84710 49.66391 48.75551
# Shear Modulus (GPa) = 19.26186 23.43550 21.34868
#
# Velocity S-wave (km/s) = 3.41555 3.76746 3.59582
# Velocity P-wave (km/s) = 6.67333 7.00029 6.83877
#
# Compressibility (1/GPa) = 0.02089991
#
# Stress axis : x y z
#
# Youngs Moduli (GPa) = 73.37591 37.04665 28.52675
#
# Poissons Ratio (x) = 0.00803 0.22065
# Poissons Ratio (y) = 0.01590 0.55446
# Poissons Ratio (z) = 0.56756 0.72006
#
# Static dielectric constant tensor:
#      x y z
#    x 1.594410 0.000000 -0.001310 
#    y 0.000000 1.537030 0.000000 
#    z -0.001310 0.000000 1.577160 
# 
# From -- ./inp_files/38312.got.cif
#   From: 2010.05.17/outbox.cif.g08.bks.cpg/sg10_20_cif.got.tgz:38312.got - 2010.06.03 11:33:40.
