data_PCOD9142917
_publ_section_title
;
Structure prediction by ZEFSAII (Michael W. Deem and Ramdas Pophale) SiO2 
 PCOD9142917
Probable space group: P 2/M
;
_chemical_formula_sum "Si O2"
_cell_formula_units_Z 32
_cell_length_a 27.499684
_cell_length_b 9.169826
_cell_length_c 19.405942
_cell_angle_alpha 90.000000
_cell_angle_beta 155.351516
_cell_angle_gamma 90.000000
_cell_volume 2040.852878
_symmetry_space_group_name_H-M "P 2/M"
_symmetry_group_IT_number 10
_symmetry_cell_setting 'monoclinic'
loop_
_space_group_symop_operation_xyz
x,y,z
-x,y,-z
-x,-y,-z
x,-y,z
loop_
_atom_site_type_symbol
_atom_site_label
_atom_site_fract_x
_atom_site_fract_y
_atom_site_fract_z
Si Si1 0.096837 0.174342 0.183120
Si Si2 0.977411 0.826839 0.634450
Si Si3 0.721653 0.673541 0.808952
Si Si4 0.593749 0.174692 0.771506
Si Si5 0.003314 0.326321 0.812478
Si Si6 0.670130 0.174189 0.598250
Si Si7 0.226453 0.826859 0.880877
Si Si8 0.126947 0.667823 0.626224
O O1 0.222780 0.211640 0.313867
O O2 0.065685 0.259691 0.212022
O O3 0.092505 0.000000 0.190572
O O4 0.000000 0.206929 0.000000
O O5 0.967790 0.749367 0.695409
O O6 0.108818 0.802038 0.774330
O O7 0.890828 0.758589 0.466361
O O8 0.960711 0.000000 0.618809
O O9 0.703809 0.500000 0.785167
O O10 0.649864 0.745263 0.778516
O O11 0.684070 0.742764 0.688172
O O12 0.859009 0.702640 0.997667
O O13 0.456293 0.204829 0.596633
O O14 0.609578 0.000000 0.782881
O O15 0.664560 0.216081 0.931346
O O16 0.987387 0.500000 0.787702
O O17 0.677352 0.000000 0.621093
O O18 0.212605 0.740432 0.792004
O O19 0.231640 0.000000 0.873193
O O20 0.156559 0.500000 0.650304
O O21 0.000000 0.670271 0.500000
#
# Coordination Sequence:
#
# PCOD9142917 Si02
#       8
#     4   4   4   4   4   4   4   4
#     4  10  20  35  54  72  92 125 169 213 252 293
#     4  10  18  30  49  71  97 129 165 201 238 289
#     4  11  22  33  48  71 101 132 165 204 248 296
#     4  10  20  34  51  72  99 132 168 205 243 290
#     4  11  22  33  49  73 100 131 165 205 251 295
#     4  10  21  36  53  71  94 128 171 212 249 290
#     4   9  17  29  46  69  97 130 164 195 235 288
#     4   9  17  28  44  68 100 132 159 193 238 288
#
# _framework density 15.67972
#
# number of rings (size 3 to 8) (size 9 to 14) (size 15 to 20)
#    0.000    2.000    2.500    1.875    0.000    6.250 
#    0.000    0.000    0.000    0.000    0.000    0.875 
#    0.000    7.000    0.000    0.000    0.000    0.000 
#
# Total GULP energy -178579.610904 kJ/mol
# GULP energy per Si atom -5580.612841 kJ/mol
# Density = 1.564403 g / cm^3
# Si number density = 15.679720 Si / 1000 Ang^3
#
#
#
# Elastic Constant Matrix: (Units=GPa)
#
#
# Indices 1 2 3 4 5 6 
#
# 1 94.1790 61.5903 91.8866 0.0000 -21.6535 0.0000
# 2 61.5903 61.1498 68.2284 0.0000 -15.1781 0.0000
# 3 91.8866 68.2284 123.3586 0.0000 -13.4652 0.0000
# 4 0.0000 0.0000 0.0000 15.3463 0.0000 3.7528
# 5 -21.6535 -15.1781 -13.4652 0.0000 28.5550 0.0000
# 6 0.0000 0.0000 0.0000 3.7528 0.0000 6.0400
#
#
#
# Elastic Compliance Matrix: (Units=1/GPa)
#
#
# Indices 1 2 3 4 5 6 
#
# 1 0.055161 -0.019381 -0.028388 0.000000 0.018141 0.000000
# 2 -0.019381 0.053964 -0.014637 0.000000 0.007085 0.000000
# 3 -0.028388 -0.014637 0.036002 0.000000 -0.012331 0.000000
# 4 0.000000 0.000000 0.000000 0.076837 0.000000 -0.047740
# 5 0.018141 0.007085 -0.012331 0.000000 0.046728 0.000000
# 6 0.000000 0.000000 0.000000 -0.047740 0.000000 0.195226
#
#
# Mechanical properties :
#
#
# Convention : Reuss Voigt Hill
#
# Bulk Modulus (GPa) = 49.22767 80.23311 64.73039
# Shear Modulus (GPa) = 8.39629 13.78705 11.09167
#
# Velocity S-wave (km/s) = 2.31657 2.96850 2.66256
# Velocity P-wave (km/s) = 6.21444 7.93917 7.12915
#
# Compressibility (1/GPa) = 0.02031378
#
# Stress axis : x y z
#
# Youngs Moduli (GPa) = 18.12877 18.53092 27.77626
#
# Poissons Ratio (x) = 0.35915 0.78852
# Poissons Ratio (y) = 0.35135 0.40657
# Poissons Ratio (z) = 0.51465 0.27124
#
# Static dielectric constant tensor:
#      x y z
#    x 1.486710 0.000000 -0.001480 
#    y 0.000000 1.521180 0.000000 
#    z -0.001480 0.000000 1.518530 
# 
# From -- ./inp_files/75997.got.cif
#   From: 2010.05.17/outbox.cif.g08.bks.cpg/sg10_38_cif.got.tgz:75997.got - 2010.06.03 11:33:40.
