data_PCOD9142200
_publ_section_title
;
Structure prediction by ZEFSAII (Michael W. Deem and Ramdas Pophale) SiO2 
 PCOD9142200
Probable space group: P 2/M
;
_chemical_formula_sum "Si O2"
_cell_formula_units_Z 28
_cell_length_a 17.187839
_cell_length_b 14.063471
_cell_length_c 8.717877
_cell_angle_alpha 90.000000
_cell_angle_beta 61.266652
_cell_angle_gamma 90.000000
_cell_volume 1847.813005
_symmetry_space_group_name_H-M "P 2/M"
_symmetry_group_IT_number 10
_symmetry_cell_setting 'monoclinic'
loop_
_space_group_symop_operation_xyz
x,y,z
-x,y,-z
-x,-y,-z
x,-y,z
loop_
_atom_site_type_symbol
_atom_site_label
_atom_site_fract_x
_atom_site_fract_y
_atom_site_fract_z
Si Si1 0.301737 0.115178 0.505146
Si Si2 0.145268 0.112824 0.167523
Si Si3 0.976821 0.742113 0.849827
Si Si4 0.325044 0.884990 0.837186
Si Si5 0.853749 0.222461 0.525256
Si Si6 0.493907 0.884649 0.181911
Si Si7 0.097808 0.391829 0.328799
O O1 0.301295 0.140955 0.685587
O O2 0.228721 0.174436 0.481748
O O3 0.399390 0.137096 0.346485
O O4 0.286844 0.000000 0.503574
O O5 0.082031 0.162751 0.104205
O O6 0.120580 0.153593 0.357468
O O7 0.137717 0.000000 0.171421
O O8 0.246332 0.140369 0.028688
O O9 0.920324 0.661751 0.814158
O O10 0.065722 0.763203 0.669022
O O11 0.000000 0.715408 0.000000
O O12 0.420977 0.850318 0.802644
O O13 0.329329 0.000000 0.832587
O O14 0.841948 0.324389 0.620986
O O15 0.498987 0.000000 0.175031
O O16 0.500000 0.852404 0.000000
O O17 0.128660 0.500000 0.284144
O O18 0.000000 0.393535 0.500000
#
# Coordination Sequence:
#
# PCOD9142200 Si02
#       7
#     4   4   4   4   4   4   4
#     4  10  18  27  41  62  90 120 147 179 217 253
#     4  10  19  30  43  59  85 121 154 181 210 249
#     4  10  20  31  44  65  89 113 144 180 215 255
#     4   9  17  28  41  59  85 118 153 187 218 245
#     4  10  19  30  45  64  86 113 146 178 212 259
#     4   9  16  26  40  58  82 115 153 186 215 249
#     4   8  16  32  50  65  83 108 138 176 220 260
#
# _framework density 15.153048999999999
#
# number of rings (size 3 to 8) (size 9 to 14) (size 15 to 20)
#    0.000    2.571    0.000    3.857    0.000    6.286 
#    0.000    0.000    0.000    0.000    0.000    0.000 
#    0.000   16.571    0.000    0.000    0.000    3.714 
#
# Total GULP energy -155959.183050 kJ/mol
# GULP energy per Si atom -5569.970823 kJ/mol
# Density = 1.511856 g / cm^3
# Si number density = 15.153049 Si / 1000 Ang^3
#
#
#
# Elastic Constant Matrix: (Units=GPa)
#
#
# Indices 1 2 3 4 5 6 
#
# 1 96.9906 38.6229 30.0422 0.0000 10.8684 0.0000
# 2 38.6229 76.6819 23.7087 0.0000 0.4706 0.0000
# 3 30.0422 23.7087 64.4566 0.0000 4.5390 0.0000
# 4 0.0000 0.0000 0.0000 4.8546 0.0000 3.9872
# 5 10.8684 0.4706 4.5390 0.0000 19.6415 0.0000
# 6 0.0000 0.0000 0.0000 3.9872 0.0000 11.3999
#
#
#
# Elastic Compliance Matrix: (Units=1/GPa)
#
#
# Indices 1 2 3 4 5 6 
#
# 1 0.014841 -0.006147 -0.004156 0.000000 -0.007105 0.000000
# 2 -0.006147 0.017276 -0.003761 0.000000 0.003856 0.000000
# 3 -0.004156 -0.003761 0.018975 0.000000 -0.001995 0.000000
# 4 0.000000 0.000000 0.000000 0.289012 0.000000 -0.101083
# 5 -0.007105 0.003856 -0.001995 0.000000 0.055212 0.000000
# 6 0.000000 0.000000 0.000000 -0.101083 0.000000 0.123074
#
#
# Mechanical properties :
#
#
# Convention : Reuss Voigt Hill
#
# Bulk Modulus (GPa) = 43.54502 46.98629 45.26566
# Shear Modulus (GPa) = 9.02244 16.89623 12.95933
#
# Velocity S-wave (km/s) = 2.44277 3.34284 2.92760
# Velocity P-wave (km/s) = 6.06262 6.78046 6.43156
#
# Compressibility (1/GPa) = 0.02296474
#
# Stress axis : x y z
#
# Youngs Moduli (GPa) = 67.37901 57.88348 52.69973
#
# Poissons Ratio (x) = 0.35579 0.21903
# Poissons Ratio (y) = 0.41416 0.19822
# Poissons Ratio (z) = 0.28004 0.21772
#
# Static dielectric constant tensor:
#      x y z
#    x 1.507740 0.000000 0.005080 
#    y 0.000000 1.487720 0.000000 
#    z 0.005080 0.000000 1.518690 
# 
# From -- ./inp_files/28824.got.cif
#   From: 2010.05.17/outbox.cif.g08.bks.cpg/sg10_15_cif.got.tgz:28824.got - 2010.06.03 11:33:40.
