data_PCOD9142370
_publ_section_title
;
Structure prediction by ZEFSAII (Michael W. Deem and Ramdas Pophale) SiO2 
 PCOD9142370
Probable space group: P 2/M
;
_chemical_formula_sum "Si O2"
_cell_formula_units_Z 32
_cell_length_a 15.988705
_cell_length_b 7.583251
_cell_length_c 21.763136
_cell_angle_alpha 90.000000
_cell_angle_beta 146.505714
_cell_angle_gamma 90.000000
_cell_volume 1456.177279
_symmetry_space_group_name_H-M "P 2/M"
_symmetry_group_IT_number 10
_symmetry_cell_setting 'monoclinic'
loop_
_space_group_symop_operation_xyz
x,y,z
-x,y,-z
-x,-y,-z
x,-y,z
loop_
_atom_site_type_symbol
_atom_site_label
_atom_site_fract_x
_atom_site_fract_y
_atom_site_fract_z
Si Si1 0.120742 0.790895 0.880853
Si Si2 0.119195 0.714847 0.661908
Si Si3 0.013120 0.711167 0.077031
Si Si4 0.330036 0.292360 0.900988
Si Si5 0.589233 0.300114 0.396771
Si Si6 0.667364 0.285593 0.670744
Si Si7 0.788379 0.715892 0.415865
Si Si8 0.803821 0.794039 0.629670
O O1 0.260191 0.725053 0.926052
O O2 0.112388 0.750970 0.948213
O O3 0.963598 0.722807 0.753426
O O4 0.116968 0.000000 0.872530
O O5 0.112754 0.500000 0.660262
O O6 0.208121 0.778960 0.776603
O O7 0.205881 0.764099 0.652080
O O8 0.946056 0.773396 0.544528
O O9 0.020423 0.500000 0.077555
O O10 0.172597 0.771130 0.202510
O O11 0.000000 0.780808 0.000000
O O12 0.341945 0.500000 0.893965
O O13 0.500000 0.217894 0.000000
O O14 0.537418 0.500000 0.352211
O O15 0.462132 0.218720 0.362781
O O16 0.645139 0.219877 0.367259
O O17 0.738958 0.302980 0.531018
O O18 0.656853 0.500000 0.661599
O O19 0.680594 0.225282 0.608736
O O20 0.786738 0.500000 0.417109
O O21 0.820464 0.000000 0.625112
#
# Coordination Sequence:
#
# PCOD9142370 Si02
#       8
#     4   4   4   4   4   4   4   4
#     4  10  21  36  54  76 101 136 178 213 252 309
#     4   8  14  27  46  69  98 127 161 202 247 300
#     4   9  18  35  56  77 102 134 172 218 264 304
#     4  10  20  34  53  81 108 132 166 216 271 312
#     4  10  18  28  45  72 100 129 163 201 250 304
#     4   9  18  31  46  70 101 130 164 204 253 307
#     4   8  14  25  44  69  95 128 163 198 243 296
#     4  10  20  32  48  70  97 132 170 206 248 295
#
# _framework density 21.975346999999999
#
# number of rings (size 3 to 8) (size 9 to 14) (size 15 to 20)
#    0.000    2.750    0.000    2.625    0.000    5.000 
#    2.250    0.000    0.000    0.750    0.000    3.500 
#    0.000    0.000    0.000    0.000    0.000    0.000 
#
# Total GULP energy -178523.004200 kJ/mol
# GULP energy per Si atom -5578.843881 kJ/mol
# Density = 2.192533 g / cm^3
# Si number density = 21.975347 Si / 1000 Ang^3
#
#
#
# Elastic Constant Matrix: (Units=GPa)
#
#
# Indices 1 2 3 4 5 6 
#
# 1 165.4405 -10.4897 33.0243 0.0000 3.2341 0.0000
# 2 -10.4897 49.6319 -2.4607 0.0000 0.2811 0.0000
# 3 33.0243 -2.4607 40.5448 0.0000 -11.9908 0.0000
# 4 0.0000 0.0000 0.0000 3.7804 0.0000 -7.3938
# 5 3.2341 0.2811 -11.9908 0.0000 27.4209 0.0000
# 6 0.0000 0.0000 0.0000 -7.3938 0.0000 92.6659
#
#
#
# Elastic Compliance Matrix: (Units=1/GPa)
#
#
# Indices 1 2 3 4 5 6 
#
# 1 0.007687 0.001281 -0.007414 0.000000 -0.004162 0.000000
# 2 0.001281 0.020426 0.000103 0.000000 -0.000315 0.000000
# 3 -0.007414 0.000103 0.035567 0.000000 0.016427 0.000000
# 4 0.000000 0.000000 0.000000 0.313431 0.000000 0.025009
# 5 -0.004162 -0.000315 0.016427 0.000000 0.044146 0.000000
# 6 0.000000 0.000000 0.000000 0.025009 0.000000 0.012787
#
#
# Mechanical properties :
#
#
# Convention : Reuss Voigt Hill
#
# Bulk Modulus (GPa) = 19.37245 32.86278 26.11762
# Shear Modulus (GPa) = 10.79188 40.47634 25.63411
#
# Velocity S-wave (km/s) = 2.21846 4.29639 3.41910
# Velocity P-wave (km/s) = 3.92387 6.29276 5.24383
#
# Compressibility (1/GPa) = 0.05161969
#
# Stress axis : x y z
#
# Youngs Moduli (GPa) = 130.08927 48.95749 28.11560
#
# Poissons Ratio (x) = -0.06270 0.20846
# Poissons Ratio (y) = -0.16660 -0.00291
# Poissons Ratio (z) = 0.96452 -0.00506
#
# Static dielectric constant tensor:
#      x y z
#    x 1.838480 0.000000 0.005150 
#    y 0.000000 1.816510 0.000000 
#    z 0.005150 0.000000 1.808070 
# 
# From -- ./inp_files/84761.got.cif
#   From: 2010.05.17/outbox.cif.g08.bks.cpg/sg10_43_cif.got.tgz:84761.got - 2010.06.03 11:33:40.
