data_PCOD9142327
_publ_section_title
;
Structure prediction by ZEFSAII (Michael W. Deem and Ramdas Pophale) SiO2 
 PCOD9142327
Probable space group: P 2/M
;
_chemical_formula_sum "Si O2"
_cell_formula_units_Z 32
_cell_length_a 14.553293
_cell_length_b 7.803829
_cell_length_c 15.550241
_cell_angle_alpha 90.000000
_cell_angle_beta 88.431257
_cell_angle_gamma 90.000000
_cell_volume 1765.400873
_symmetry_space_group_name_H-M "P 2/M"
_symmetry_group_IT_number 10
_symmetry_cell_setting 'monoclinic'
loop_
_space_group_symop_operation_xyz
x,y,z
-x,y,-z
-x,-y,-z
x,-y,z
loop_
_atom_site_type_symbol
_atom_site_label
_atom_site_fract_x
_atom_site_fract_y
_atom_site_fract_z
Si Si1 0.390558 0.795440 0.753831
Si Si2 0.216951 0.293367 0.845190
Si Si3 0.462554 0.799651 0.123532
Si Si4 0.297673 0.701156 0.023673
Si Si5 0.322335 0.202708 0.289223
Si Si6 0.479707 0.789543 0.403853
Si Si7 0.019518 0.298115 0.903482
Si Si8 0.165317 0.198735 0.179795
O O1 0.283003 0.762128 0.766301
O O2 0.445200 0.724051 0.836512
O O3 0.441502 0.735338 0.666140
O O4 0.404968 0.000000 0.756115
O O5 0.216880 0.500000 0.843193
O O6 0.112313 0.230255 0.856618
O O7 0.267478 0.234950 0.931535
O O8 0.404091 0.724396 0.046551
O O9 0.392566 0.785788 0.206800
O O10 0.476101 0.000000 0.103432
O O11 0.275779 0.500000 0.029134
O O12 0.233747 0.790152 0.096314
O O13 0.381397 0.269453 0.367829
O O14 0.225649 0.274744 0.257036
O O15 0.307165 0.000000 0.304473
O O16 0.500000 0.734030 0.500000
O O17 0.478166 0.000000 0.403519
O O18 0.036986 0.500000 0.916265
O O19 0.930047 0.279721 0.846841
O O20 0.000000 0.225294 0.000000
O O21 0.146856 0.000000 0.198427
#
# Coordination Sequence:
#
# PCOD9142327 Si02
#       8
#     4   4   4   4   4   4   4   4
#     4   9  18  31  46  66  93 118 145 186 226 266
#     4  10  21  33  44  59  85 120 154 190 230 266
#     4   8  15  28  42  59  86 118 148 182 224 260
#     4  10  18  29  43  60  83 118 159 192 222 259
#     4   7  12  23  39  63  93 116 138 175 219 263
#     4   8  13  25  48  74  96 119 144 171 215 274
#     4  10  19  34  48  60  84 118 159 202 233 263
#     4  10  18  28  44  66  91 117 149 192 236 269
#
# _framework density 18.126196
#
# number of rings (size 3 to 8) (size 9 to 14) (size 15 to 20)
#    0.000    3.000    1.250    3.000    0.000    2.750 
#    0.000    2.500    0.000    0.375    0.000    0.875 
#    0.000    7.000    0.000    0.000    0.000    0.000 
#
# Total GULP energy -178211.353051 kJ/mol
# GULP energy per Si atom -5569.104783 kJ/mol
# Density = 1.808494 g / cm^3
# Si number density = 18.126196 Si / 1000 Ang^3
#
#
#
# Elastic Constant Matrix: (Units=GPa)
#
#
# Indices 1 2 3 4 5 6 
#
# 1 140.9024 -2.7981 60.1929 0.0000 6.0099 0.0000
# 2 -2.7981 18.5688 -3.2694 0.0000 -0.8111 0.0000
# 3 60.1929 -3.2694 88.9567 0.0000 16.1315 0.0000
# 4 0.0000 0.0000 0.0000 27.9211 0.0000 -4.3707
# 5 6.0099 -0.8111 16.1315 0.0000 20.0962 0.0000
# 6 0.0000 0.0000 0.0000 -4.3707 0.0000 32.9622
#
#
#
# Elastic Compliance Matrix: (Units=1/GPa)
#
#
# Indices 1 2 3 4 5 6 
#
# 1 0.010127 0.000356 -0.007365 0.000000 0.002898 0.000000
# 2 0.000356 0.054225 0.001609 0.000000 0.000791 0.000000
# 3 -0.007365 0.001609 0.018577 0.000000 -0.012645 0.000000
# 4 0.000000 0.000000 0.000000 0.036574 0.000000 0.004850
# 5 0.002898 0.000791 -0.012645 0.000000 0.059076 0.000000
# 6 0.000000 0.000000 0.000000 0.004850 0.000000 0.030981
#
#
# Mechanical properties :
#
#
# Convention : Reuss Voigt Hill
#
# Bulk Modulus (GPa) = 13.86409 39.63095 26.74752
# Shear Modulus (GPa) = 20.45800 29.14939 24.80369
#
# Velocity S-wave (km/s) = 3.36317 4.01451 3.70319
# Velocity P-wave (km/s) = 4.76933 6.58785 5.75092
#
# Compressibility (1/GPa) = 0.07212880
#
# Stress axis : x y z
#
# Youngs Moduli (GPa) = 98.74846 18.44158 53.83040
#
# Poissons Ratio (x) = -0.00656 0.39644
# Poissons Ratio (y) = -0.03514 -0.08660
# Poissons Ratio (z) = 0.72725 -0.02967
#
# Static dielectric constant tensor:
#      x y z
#    x 1.664870 0.000000 0.016530 
#    y 0.000000 1.670660 0.000000 
#    z 0.016530 0.000000 1.627000 
# 
# From -- ./inp_files/66157.got.cif
#   From: 2010.05.17/outbox.cif.g08.bks.cpg/sg10_34_cif.got.tgz:66157.got - 2010.06.03 11:33:40.
