data_PCOD9142678
_publ_section_title
;
Structure prediction by ZEFSAII (Michael W. Deem and Ramdas Pophale) SiO2 
 PCOD9142678
Probable space group: P 2/M
;
_chemical_formula_sum "Si O2"
_cell_formula_units_Z 20
_cell_length_a 19.514940
_cell_length_b 10.703519
_cell_length_c 5.258948
_cell_angle_alpha 90.000000
_cell_angle_beta 92.328239
_cell_angle_gamma 90.000000
_cell_volume 1097.574531
_symmetry_space_group_name_H-M "P 2/M"
_symmetry_group_IT_number 10
_symmetry_cell_setting 'monoclinic'
loop_
_space_group_symop_operation_xyz
x,y,z
-x,y,-z
-x,-y,-z
x,-y,z
loop_
_atom_site_type_symbol
_atom_site_label
_atom_site_fract_x
_atom_site_fract_y
_atom_site_fract_z
Si Si1 0.873912 0.138656 0.025014
Si Si2 0.422033 0.651739 0.951391
Si Si3 0.661469 0.651262 0.561572
Si Si4 0.936197 0.639662 0.303553
Si Si5 0.189207 0.764102 0.497840
O O1 0.926761 0.250322 0.097181
O O2 0.819173 0.154565 0.247050
O O3 0.904047 0.000000 0.039084
O O4 0.838209 0.162861 0.751338
O O5 0.424519 0.500000 0.954670
O O6 0.388185 0.686865 0.679054
O O7 0.500000 0.696010 0.000000
O O8 0.373793 0.688507 0.178954
O O9 0.668743 0.500000 0.561090
O O10 0.735543 0.711900 0.535000
O O11 0.940143 0.500000 0.196658
O O12 0.866157 0.654183 0.456688
O O13 0.000000 0.660636 0.500000
#
# Coordination Sequence:
#
# PCOD9142678 Si02
#       5
#     4   4   4   4   4
#     4  10  22  39  59  80 111 148 190 238 283 331
#     4   9  17  28  44  70 109 150 181 214 268 338
#     4  10  18  29  48  75 108 145 182 223 276 328
#     4   9  21  39  59  84 115 150 187 232 284 335
#     4  10  21  36  56  80 110 144 193 229 277 329
#
# _framework density 18.221997000000002
#
# number of rings (size 3 to 8) (size 9 to 14) (size 15 to 20)
#    1.200    1.200    0.000    3.000    0.000    5.200 
#    0.000    3.000    0.000    0.000    0.000    0.000 
#    0.000   56.000    0.000    0.000    0.000    0.000 
#
# Total GULP energy -111413.199451 kJ/mol
# GULP energy per Si atom -5570.659973 kJ/mol
# Density = 1.818052 g / cm^3
# Si number density = 18.221997 Si / 1000 Ang^3
#
#
#
# Elastic Constant Matrix: (Units=GPa)
#
#
# Indices 1 2 3 4 5 6 
#
# 1 67.4322 8.6610 -14.0699 0.0000 0.9866 0.0000
# 2 8.6610 78.8533 19.9149 0.0000 7.9140 0.0000
# 3 -14.0699 19.9149 65.7228 0.0000 -14.1212 0.0000
# 4 0.0000 0.0000 0.0000 6.8503 0.0000 16.0140
# 5 0.9866 7.9140 -14.1212 0.0000 28.2054 0.0000
# 6 0.0000 0.0000 0.0000 16.0140 0.0000 5.0950
#
#
#
# Elastic Compliance Matrix: (Units=1/GPa)
#
#
# Indices 1 2 3 4 5 6 
#
# 1 0.016296 -0.003388 0.005151 0.000000 0.002960 0.000000
# 2 -0.003388 0.015649 -0.007155 0.000000 -0.007855 0.000000
# 3 0.005151 -0.007155 0.021154 0.000000 0.012418 0.000000
# 4 0.000000 0.000000 0.000000 -0.022998 0.000000 0.072283
# 5 0.002960 -0.007855 0.012418 0.000000 0.043772 0.000000
# 6 0.000000 0.000000 0.000000 0.072283 0.000000 -0.030920
#
#
# Mechanical properties :
#
#
# Convention : Reuss Voigt Hill
#
# Bulk Modulus (GPa) = 23.63127 26.78004 25.20566
# Shear Modulus (GPa) = 73.69993 21.19695 47.44844
#
# Velocity S-wave (km/s) = 6.36658 3.41436 5.10839
# Velocity P-wave (km/s) = 8.18787 5.50203 6.97544
#
# Compressibility (1/GPa) = 0.04231681
#
# Stress axis : x y z
#
# Youngs Moduli (GPa) = 61.36342 63.90101 47.27142
#
# Poissons Ratio (x) = 0.21649 -0.24350
# Poissons Ratio (y) = 0.20790 0.33822
# Poissons Ratio (z) = -0.31609 0.45720
#
# Static dielectric constant tensor:
#      x y z
#    x 1.608200 0.000000 -0.023830 
#    y 0.000000 1.622160 0.000000 
#    z -0.023830 0.000000 1.623580 
# 
# From -- ./inp_files/10840.got.cif
#   From: 2010.05.17/outbox.cif.g08.bks.cpg/sg10_6_cif.got.tgz:10840.got - 2010.06.03 11:33:40.
