data_PCOD9142176
_publ_section_title
;
Structure prediction by ZEFSAII (Michael W. Deem and Ramdas Pophale) SiO2 
 PCOD9142176
Probable space group: P 2/M
;
_chemical_formula_sum "Si O2"
_cell_formula_units_Z 30
_cell_length_a 14.399795
_cell_length_b 7.577837
_cell_length_c 17.866081
_cell_angle_alpha 90.000000
_cell_angle_beta 128.257838
_cell_angle_gamma 90.000000
_cell_volume 1530.837124
_symmetry_space_group_name_H-M "P 2/M"
_symmetry_group_IT_number 10
_symmetry_cell_setting 'monoclinic'
loop_
_space_group_symop_operation_xyz
x,y,z
-x,y,-z
-x,-y,-z
x,-y,z
loop_
_atom_site_type_symbol
_atom_site_label
_atom_site_fract_x
_atom_site_fract_y
_atom_site_fract_z
Si Si1 0.549480 0.288554 0.138610
Si Si2 0.685466 0.284800 0.061370
Si Si3 0.194833 0.290893 0.311676
Si Si4 0.506292 0.789503 0.280228
Si Si5 0.753830 0.205425 0.828841
Si Si6 0.000000 0.746748 0.000000
Si Si7 0.056641 0.284041 0.864686
Si Si8 0.408465 0.210811 0.517239
O O1 0.546888 0.500000 0.132070
O O2 0.643108 0.227866 0.122894
O O3 0.572740 0.243421 0.235979
O O4 0.419128 0.226163 0.046931
O O5 0.686621 0.500000 0.061094
O O6 0.816441 0.230363 0.103312
O O7 0.201834 0.500000 0.304723
O O8 0.248079 0.208537 0.262347
O O9 0.276504 0.243624 0.422059
O O10 0.055878 0.244817 0.244158
O O11 0.371314 0.723990 0.205641
O O12 0.563453 0.720992 0.385565
O O13 0.494499 0.000000 0.282492
O O14 0.866256 0.314247 0.913475
O O15 0.772808 0.000000 0.861387
O O16 0.970782 0.807944 0.069905
O O17 0.057260 0.500000 0.878390
O O18 0.500000 0.280630 0.500000
O O19 0.424868 0.000000 0.527685
#
# Coordination Sequence:
#
# PCOD9142176 Si02
#       8
#     4   4   4   4   4   2   4   4
#     4   9  17  30  51  76  96 123 166 205 235 276
#     4   8  15  30  50  70  99 135 162 189 236 295
#     4  10  20  31  47  72  96 123 162 203 237 278
#     4  10  20  32  49  70  96 127 158 197 247 294
#     4  10  19  32  45  64  97 134 163 189 233 293
#     4  10  18  26  46  72  95 128 167 202 223 270
#     4   9  17  29  45  69 103 133 155 192 248 295
#     4  10  19  35  53  67  92 133 165 192 246 304
#
# _framework density 19.59712
#
# number of rings (size 3 to 8) (size 9 to 14) (size 15 to 20)
#    0.000    2.533    1.333    2.400    0.000    1.867 
#    0.000    1.333    0.000    6.400    0.000    5.600 
#    0.000    0.000    0.000    0.000    0.000    0.000 
#
# Total GULP energy -167102.157444 kJ/mol
# GULP energy per Si atom -5570.071915 kJ/mol
# Density = 1.955252 g / cm^3
# Si number density = 19.597120 Si / 1000 Ang^3
#
#
#
# Elastic Constant Matrix: (Units=GPa)
#
#
# Indices 1 2 3 4 5 6 
#
# 1 134.6395 6.9578 80.9294 0.0000 3.4105 0.0000
# 2 6.9578 56.5056 9.1208 0.0000 0.5327 0.0000
# 3 80.9294 9.1208 154.1995 0.0000 -9.2211 0.0000
# 4 0.0000 0.0000 0.0000 32.7137 0.0000 16.8007
# 5 3.4105 0.5327 -9.2211 0.0000 24.9352 0.0000
# 6 0.0000 0.0000 0.0000 16.8007 0.0000 5.2347
#
#
#
# Elastic Compliance Matrix: (Units=1/GPa)
#
#
# Indices 1 2 3 4 5 6 
#
# 1 0.011196 -0.000362 -0.006080 0.000000 -0.003772 0.000000
# 2 -0.000362 0.017895 -0.000909 0.000000 -0.000669 0.000000
# 3 -0.006080 -0.000909 0.010002 0.000000 0.004550 0.000000
# 4 0.000000 0.000000 0.000000 -0.047152 0.000000 0.151334
# 5 -0.003772 -0.000669 0.004550 0.000000 0.042317 0.000000
# 6 0.000000 0.000000 0.000000 0.151334 0.000000 -0.294672
#
#
# Mechanical properties :
#
#
# Convention : Reuss Voigt Hill
#
# Bulk Modulus (GPa) = 40.99720 59.92897 50.46308
# Shear Modulus (GPa) = -21.04534 29.13250 4.04358
#
# Velocity S-wave (km/s) = -3.28060 3.85979 1.43800
# Velocity P-wave (km/s) = 2.57210 7.10710 5.34446
#
# Compressibility (1/GPa) = 0.02439191
#
# Stress axis : x y z
#
# Youngs Moduli (GPa) = 89.31524 55.88192 99.97858
#
# Poissons Ratio (x) = 0.02021 0.60791
# Poissons Ratio (y) = 0.03230 0.09085
# Poissons Ratio (z) = 0.54307 0.05078
#
# Static dielectric constant tensor:
#      x y z
#    x 1.675900 0.000000 0.003320 
#    y 0.000000 1.798950 0.000000 
#    z 0.003320 0.000000 1.691240 
# 
# From -- ./inp_files/77568.got.cif
#   From: 2010.05.17/outbox.cif.g08.bks.cpg/sg10_39_cif.got.tgz:77568.got - 2010.06.03 11:33:40.
