data_PCOD9142098
_publ_section_title
;
Structure prediction by ZEFSAII (Michael W. Deem and Ramdas Pophale) SiO2 
 PCOD9142098
Probable space group: P 2/M
;
_chemical_formula_sum "Si O2"
_cell_formula_units_Z 26
_cell_length_a 14.114388
_cell_length_b 12.977977
_cell_length_c 7.123888
_cell_angle_alpha 90.000000
_cell_angle_beta 63.922072
_cell_angle_gamma 90.000000
_cell_volume 1172.081277
_symmetry_space_group_name_H-M "P 2/M"
_symmetry_group_IT_number 10
_symmetry_cell_setting 'monoclinic'
loop_
_space_group_symop_operation_xyz
x,y,z
-x,y,-z
-x,-y,-z
x,-y,z
loop_
_atom_site_type_symbol
_atom_site_label
_atom_site_fract_x
_atom_site_fract_y
_atom_site_fract_z
Si Si1 0.818508 0.888270 0.928469
Si Si2 0.921726 0.349924 0.352539
Si Si3 0.686177 0.613159 0.640386
Si Si4 0.135586 0.654902 0.024306
Si Si5 0.368173 0.613524 0.753652
Si Si6 0.604711 0.786425 0.993727
Si Si7 0.000000 0.160335 0.500000
O O1 0.852694 0.779925 0.993555
O O2 0.700587 0.862500 0.959258
O O3 0.906699 0.894937 0.689833
O O4 0.819024 0.000000 0.027952
O O5 0.813830 0.386472 0.539412
O O6 0.937300 0.232699 0.406166
O O7 0.046270 0.381092 0.249734
O O8 0.897640 0.372233 0.156514
O O9 0.648318 0.500000 0.733954
O O10 0.652725 0.627041 0.450550
O O11 0.644143 0.705342 0.802480
O O12 0.252109 0.613061 0.950674
O O13 0.416566 0.500000 0.740067
O O14 0.420968 0.712255 0.804616
O O15 0.500000 0.836652 0.000000
#
# Coordination Sequence:
#
# PCOD9142098 Si02
#       7
#     4   4   4   4   4   4   2
#     4  10  20  36  57  81 104 137 181 224 275 329
#     4   9  16  31  50  77 113 145 178 211 267 327
#     4  10  20  35  56  81 111 148 187 223 267 320
#     4   8  17  31  52  76 111 147 175 221 267 320
#     4   9  19  35  55  81 111 144 184 225 268 321
#     4  11  23  39  57  78 111 146 182 231 275 318
#     4  10  17  32  57  80 110 138 167 224 273 326
#
# _framework density 22.182760999999999
#
# number of rings (size 3 to 8) (size 9 to 14) (size 15 to 20)
#    0.000    2.462    1.538    0.692    0.000    2.769 
#    0.000   11.923    0.000    0.000    0.000    4.308 
#    0.000    0.000    0.000    0.000    0.000    0.000 
#
# Total GULP energy -144833.230557 kJ/mol
# GULP energy per Si atom -5570.508868 kJ/mol
# Density = 2.213227 g / cm^3
# Si number density = 22.182761 Si / 1000 Ang^3
#
#
#
# Elastic Constant Matrix: (Units=GPa)
#
#
# Indices 1 2 3 4 5 6 
#
# 1 97.1811 -0.9219 7.1541 0.0000 -7.3689 0.0000
# 2 -0.9219 104.4562 2.6710 0.0000 -2.8548 0.0000
# 3 7.1541 2.6710 57.0579 0.0000 -7.4740 0.0000
# 4 0.0000 0.0000 0.0000 -6.5035 0.0000 32.2733
# 5 -7.3689 -2.8548 -7.4740 0.0000 33.8614 0.0000
# 6 0.0000 0.0000 0.0000 32.2733 0.0000 -71.4459
#
#
#
# Elastic Compliance Matrix: (Units=1/GPa)
#
#
# Indices 1 2 3 4 5 6 
#
# 1 0.010527 0.000177 -0.001057 0.000000 0.002072 0.000000
# 2 0.000177 0.009605 -0.000371 0.000000 0.000766 0.000000
# 3 -0.001057 -0.000371 0.018167 0.000000 0.003749 0.000000
# 4 0.000000 0.000000 0.000000 0.123841 0.000000 0.055941
# 5 0.002072 0.000766 0.003749 0.000000 0.030875 0.000000
# 6 0.000000 0.000000 0.000000 0.055941 0.000000 0.011273
#
#
# Mechanical properties :
#
#
# Convention : Reuss Voigt Hill
#
# Bulk Modulus (GPa) = 27.93607 30.72239 29.32923
# Shear Modulus (GPa) = 22.85998 7.83519 15.34758
#
# Velocity S-wave (km/s) = 3.21367 1.88143 2.63320
# Velocity P-wave (km/s) = 5.13723 4.31271 4.74292
#
# Compressibility (1/GPa) = 0.03579601
#
# Stress axis : x y z
#
# Youngs Moduli (GPa) = 94.99671 104.10824 55.04503
#
# Poissons Ratio (x) = -0.01838 0.05816
# Poissons Ratio (y) = -0.01677 0.02044
# Poissons Ratio (z) = 0.10038 0.03867
#
# Static dielectric constant tensor:
#      x y z
#    x 1.888000 0.000000 -0.016830 
#    y 0.000000 1.805180 0.000000 
#    z -0.016830 0.000000 1.844510 
# 
# From -- ./inp_files/28112.got.cif
#   From: 2010.05.17/outbox.cif.g08.bks.cpg/sg10_15_cif.got.tgz:28112.got - 2010.06.03 11:33:40.
