data_PCOD9142080
_publ_section_title
;
Structure prediction by ZEFSAII (Michael W. Deem and Ramdas Pophale) SiO2 
 PCOD9142080
Probable space group: P 2/M
;
_chemical_formula_sum "Si O2"
_cell_formula_units_Z 20
_cell_length_a 10.904858
_cell_length_b 12.852097
_cell_length_c 8.700808
_cell_angle_alpha 90.000000
_cell_angle_beta 121.565996
_cell_angle_gamma 90.000000
_cell_volume 1038.992558
_symmetry_space_group_name_H-M "P 2/M"
_symmetry_group_IT_number 10
_symmetry_cell_setting 'monoclinic'
loop_
_space_group_symop_operation_xyz
x,y,z
-x,y,-z
-x,-y,-z
x,-y,z
loop_
_atom_site_type_symbol
_atom_site_label
_atom_site_fract_x
_atom_site_fract_y
_atom_site_fract_z
Si Si1 0.833301 0.121472 0.568860
Si Si2 0.572476 0.887356 0.878483
Si Si3 0.335877 0.618178 0.830758
Si Si4 0.161857 0.821493 0.786071
Si Si5 0.405521 0.720326 0.571763
O O1 0.811632 0.132331 0.368602
O O2 0.718572 0.200548 0.566059
O O3 0.994086 0.162567 0.705520
O O4 0.818861 0.000000 0.600650
O O5 0.511616 0.795886 0.736616
O O6 0.535103 0.000000 0.787239
O O7 0.500000 0.880180 0.000000
O O8 0.740598 0.878465 0.024768
O O9 0.293894 0.500000 0.837976
O O10 0.225960 0.704449 0.823008
O O11 0.342311 0.639714 0.652445
O O12 0.500000 0.633159 0.000000
O O13 0.500000 0.671571 0.500000
#
# Coordination Sequence:
#
# PCOD9142080 Si02
#       5
#     4   4   4   4   4
#     4  10  19  31  51  80 114 143 170 214 268 314
#     4  11  18  30  53  77 103 139 184 219 255 312
#     4  10  19  36  61  83 100 130 183 234 272 309
#     4  10  17  32  52  81 105 134 173 225 273 306
#     4  11  22  36  51  77 113 147 179 217 261 317
#
# _framework density 19.249417000000001
#
# number of rings (size 3 to 8) (size 9 to 14) (size 15 to 20)
#    0.000    1.600    6.000    3.000    0.000    2.000 
#    0.000    9.000    0.000    2.400    0.000    2.800 
#    0.000    0.000    0.000    0.000    0.000    0.000 
#
# Total GULP energy -111612.432059 kJ/mol
# GULP energy per Si atom -5580.621603 kJ/mol
# Density = 1.920560 g / cm^3
# Si number density = 19.249417 Si / 1000 Ang^3
#
#
#
# Elastic Constant Matrix: (Units=GPa)
#
#
# Indices 1 2 3 4 5 6 
#
# 1 57.2124 4.2452 9.6096 0.0000 17.6333 0.0000
# 2 4.2452 108.8952 5.7750 0.0000 8.7825 0.0000
# 3 9.6096 5.7750 38.2218 0.0000 29.1996 0.0000
# 4 0.0000 0.0000 0.0000 16.7611 0.0000 9.8970
# 5 17.6333 8.7825 29.1996 0.0000 29.6950 0.0000
# 6 0.0000 0.0000 0.0000 9.8970 0.0000 12.3639
#
#
#
# Elastic Compliance Matrix: (Units=1/GPa)
#
#
# Indices 1 2 3 4 5 6 
#
# 1 0.024779 0.000774 0.020374 0.000000 -0.034978 0.000000
# 2 0.000774 0.009509 0.003490 0.000000 -0.006704 0.000000
# 3 0.020374 0.003490 0.122769 0.000000 -0.133851 0.000000
# 4 0.000000 0.000000 0.000000 0.113139 0.000000 -0.090565
# 5 -0.034978 -0.006704 -0.133851 0.000000 0.188046 0.000000
# 6 0.000000 0.000000 0.000000 -0.090565 0.000000 0.153376
#
#
# Mechanical properties :
#
#
# Convention : Reuss Voigt Hill
#
# Bulk Modulus (GPa) = 4.84650 27.06547 15.95599
# Shear Modulus (GPa) = 7.92244 24.07731 15.99987
#
# Velocity S-wave (km/s) = 2.03091 3.54051 2.88616
# Velocity P-wave (km/s) = 2.83244 5.55019 4.40609
#
# Compressibility (1/GPa) = 0.20633434
#
# Stress axis : x y z
#
# Youngs Moduli (GPa) = 40.35599 105.16861 8.14538
#
# Poissons Ratio (x) = -0.08145 -0.16595
# Poissons Ratio (y) = -0.03125 -0.02843
# Poissons Ratio (z) = -0.82222 -0.36706
#
# Static dielectric constant tensor:
#      x y z
#    x 1.708230 0.000000 0.005580 
#    y 0.000000 1.666350 0.000000 
#    z 0.005580 0.000000 1.689990 
# 
# From -- ./inp_files/24748.got.cif
#   From: 2010.05.17/outbox.cif.g08.bks.cpg/sg10_13_cif.got.tgz:24748.got - 2010.06.03 11:33:40.
