data_PCOD9142077
_publ_section_title
;
Structure prediction by ZEFSAII (Michael W. Deem and Ramdas Pophale) SiO2 
 PCOD9142077
Probable space group: P 2/M
;
_chemical_formula_sum "Si O2"
_cell_formula_units_Z 32
_cell_length_a 12.589439
_cell_length_b 14.298657
_cell_length_c 12.260347
_cell_angle_alpha 90.000000
_cell_angle_beta 123.335475
_cell_angle_gamma 90.000000
_cell_volume 1843.884991
_symmetry_space_group_name_H-M "P 2/M"
_symmetry_group_IT_number 10
_symmetry_cell_setting 'monoclinic'
loop_
_space_group_symop_operation_xyz
x,y,z
-x,y,-z
-x,-y,-z
x,-y,z
loop_
_atom_site_type_symbol
_atom_site_label
_atom_site_fract_x
_atom_site_fract_y
_atom_site_fract_z
Si Si1 0.389034 0.203756 0.200889
Si Si2 0.306013 0.607098 0.809547
Si Si3 0.353703 0.109567 0.577073
Si Si4 0.032289 0.892102 0.741031
Si Si5 0.400500 0.606593 0.102450
Si Si6 0.684719 0.107124 0.057251
Si Si7 0.207578 0.797413 0.681672
Si Si8 0.784375 0.108787 0.727114
O O1 0.518065 0.166278 0.327888
O O2 0.380827 0.314535 0.180868
O O3 0.272079 0.165592 0.205082
O O4 0.385308 0.160613 0.077378
O O5 0.262107 0.500000 0.769305
O O6 0.451298 0.611878 0.848959
O O7 0.225448 0.686707 0.703915
O O8 0.317850 0.625573 0.946363
O O9 0.242668 0.157537 0.586390
O O10 0.314933 0.112209 0.429077
O O11 0.367791 0.000000 0.616353
O O12 0.163750 0.893370 0.883354
O O13 0.075734 0.832836 0.660306
O O14 0.916700 0.857944 0.748941
O O15 0.003983 0.000000 0.692353
O O16 0.374942 0.500000 0.122268
O O17 0.686292 0.158637 0.174617
O O18 0.643578 0.000000 0.043906
O O19 0.799842 0.000000 0.768180
#
# Coordination Sequence:
#
# PCOD9142077 Si02
#       8
#     4   4   4   4   4   4   4   4
#     4  12  20  32  51  74 106 135 165 203 256 306
#     4   9  16  29  49  76 106 130 159 203 259 318
#     4  11  22  33  49  73 104 139 171 206 248 300
#     4   8  17  34  51  72 100 131 173 210 245 293
#     4   9  17  30  49  74 102 133 165 202 254 312
#     4   9  18  30  47  77 106 130 157 201 259 303
#     4  10  17  32  51  77 102 126 160 213 261 300
#     4  10  22  37  50  68  99 146 187 205 225 286
#
# _framework density 17.354662999999999
#
# number of rings (size 3 to 8) (size 9 to 14) (size 15 to 20)
#    0.750    1.500    2.500    3.000    0.000    2.500 
#    0.000    5.000    0.000    3.000    0.000    3.500 
#    0.000    0.000    0.000    0.000    0.000    0.000 
#
# Total GULP energy -178337.981663 kJ/mol
# GULP energy per Si atom -5573.061927 kJ/mol
# Density = 1.731516 g / cm^3
# Si number density = 17.354663 Si / 1000 Ang^3
#
#
#
# Elastic Constant Matrix: (Units=GPa)
#
#
# Indices 1 2 3 4 5 6 
#
# 1 70.4727 22.2639 3.1669 0.0000 -11.8203 0.0000
# 2 22.2639 109.4854 13.9142 0.0000 -15.2668 0.0000
# 3 3.1669 13.9142 25.1758 0.0000 -4.4803 0.0000
# 4 0.0000 0.0000 0.0000 13.3791 0.0000 -3.0898
# 5 -11.8203 -15.2668 -4.4803 0.0000 18.4596 0.0000
# 6 0.0000 0.0000 0.0000 -3.0898 0.0000 10.4623
#
#
#
# Elastic Compliance Matrix: (Units=1/GPa)
#
#
# Indices 1 2 3 4 5 6 
#
# 1 0.016327 -0.002181 0.000722 0.000000 0.008826 0.000000
# 2 -0.002181 0.011098 -0.004677 0.000000 0.006647 0.000000
# 3 0.000722 -0.004677 0.043487 0.000000 0.007150 0.000000
# 4 0.000000 0.000000 0.000000 0.080214 0.000000 0.023689
# 5 0.008826 0.006647 0.007150 0.000000 0.067057 0.000000
# 6 0.000000 0.000000 0.000000 0.023689 0.000000 0.102578
#
#
# Mechanical properties :
#
#
# Convention : Reuss Voigt Hill
#
# Bulk Modulus (GPa) = 17.05279 31.53599 24.29439
# Shear Modulus (GPa) = 14.18124 19.51280 16.84702
#
# Velocity S-wave (km/s) = 2.86167 3.35678 3.11906
# Velocity P-wave (km/s) = 4.55700 5.76497 5.19621
#
# Compressibility (1/GPa) = 0.05864143
#
# Stress axis : x y z
#
# Youngs Moduli (GPa) = 61.24871 90.10322 22.99547
#
# Poissons Ratio (x) = 0.19653 -0.01661
# Poissons Ratio (y) = 0.13359 0.10754
# Poissons Ratio (z) = -0.04425 0.42137
#
# Static dielectric constant tensor:
#      x y z
#    x 1.599890 0.000000 0.020020 
#    y 0.000000 1.593260 0.000000 
#    z 0.020020 0.000000 1.602750 
# 
# From -- ./inp_files/47422.got.cif
#   From: 2010.05.17/outbox.cif.g08.bks.cpg/sg10_24_cif.got.tgz:47422.got - 2010.06.03 11:33:40.
