data_PCOD9142700
_publ_section_title
;
Structure prediction by ZEFSAII (Michael W. Deem and Ramdas Pophale) SiO2 
 PCOD9142700
Probable space group: P 2/M
;
_chemical_formula_sum "Si O2"
_cell_formula_units_Z 32
_cell_length_a 19.881526
_cell_length_b 9.125194
_cell_length_c 11.406461
_cell_angle_alpha 90.000000
_cell_angle_beta 60.574105
_cell_angle_gamma 90.000000
_cell_volume 1802.423480
_symmetry_space_group_name_H-M "P 2/M"
_symmetry_group_IT_number 10
_symmetry_cell_setting 'monoclinic'
loop_
_space_group_symop_operation_xyz
x,y,z
-x,y,-z
-x,-y,-z
x,-y,z
loop_
_atom_site_type_symbol
_atom_site_label
_atom_site_fract_x
_atom_site_fract_y
_atom_site_fract_z
Si Si1 0.731242 0.327580 0.018372
Si Si2 0.118256 0.673389 0.971988
Si Si3 0.023728 0.173941 0.258658
Si Si4 0.250196 0.825126 0.450300
Si Si5 0.590187 0.822115 0.793347
Si Si6 0.416479 0.176574 0.927366
Si Si7 0.828073 0.173518 0.732094
Si Si8 0.123916 0.674182 0.696088
O O1 0.718798 0.500000 0.015226
O O2 0.776099 0.264178 0.866857
O O3 0.791695 0.305053 0.072272
O O4 0.649638 0.246781 0.094702
O O5 0.100202 0.500000 0.007160
O O6 0.104594 0.707957 0.848268
O O7 0.069102 0.769811 0.104080
O O8 0.082578 0.205712 0.315079
O O9 0.942635 0.255717 0.326990
O O10 0.010952 0.000000 0.265073
O O11 0.337021 0.774307 0.345694
O O12 0.200639 0.800485 0.374114
O O13 0.205807 0.741678 0.590162
O O14 0.251088 0.000000 0.471874
O O15 0.504663 0.778216 0.825496
O O16 0.591513 0.000000 0.792186
O O17 0.598799 0.780861 0.923081
O O18 0.411953 0.000000 0.925086
O O19 0.816187 0.000000 0.767141
O O20 0.124991 0.500000 0.682181
#
# Coordination Sequence:
#
# PCOD9142700 Si02
#       8
#     4   4   4   4   4   4   4   4
#     4  10  18  29  49  76 102 128 161 205 247 288
#     4   9  20  37  53  70  98 133 167 204 250 295
#     4  10  20  34  55  80  99 120 161 214 254 290
#     4  10  19  34  53  72  99 133 168 202 237 288
#     4   8  15  28  50  74 100 133 163 193 237 296
#     4   9  15  28  50  76 102 130 162 194 242 298
#     4   9  18  33  52  73 100 132 161 196 249 300
#     4  11  23  37  51  69  97 136 171 202 247 297
#
# _framework density 17.753875000000001
#
# number of rings (size 3 to 8) (size 9 to 14) (size 15 to 20)
#    0.000    2.500    1.250    2.250    0.000    4.500 
#    0.000    4.375    0.000    0.750    0.000    5.250 
#    0.000    0.000    0.000    0.000    0.000    0.000 
#
# Total GULP energy -178469.069146 kJ/mol
# GULP energy per Si atom -5577.158411 kJ/mol
# Density = 1.771347 g / cm^3
# Si number density = 17.753875 Si / 1000 Ang^3
#
#
#
# Elastic Constant Matrix: (Units=GPa)
#
#
# Indices 1 2 3 4 5 6 
#
# 1 66.3568 19.8688 5.2590 0.0000 -22.6828 0.0000
# 2 19.8688 19.7562 9.0882 0.0000 -4.6935 0.0000
# 3 5.2590 9.0882 34.7367 0.0000 -22.7715 0.0000
# 4 0.0000 0.0000 0.0000 -18.4354 0.0000 26.2248
# 5 -22.6828 -4.6935 -22.7715 0.0000 26.6391 0.0000
# 6 0.0000 0.0000 0.0000 26.2248 0.0000 -0.5963
#
#
#
# Elastic Compliance Matrix: (Units=1/GPa)
#
#
# Indices 1 2 3 4 5 6 
#
# 1 0.106055 -0.126521 0.140187 0.000000 0.187847 0.000000
# 2 -0.126521 0.208934 -0.186518 0.000000 -0.230357 0.000000
# 3 0.140187 -0.186518 0.257195 0.000000 0.306359 0.000000
# 4 0.000000 0.000000 0.000000 0.000881 0.000000 0.038751
# 5 0.187847 -0.230357 0.306359 0.000000 0.418782 0.000000
# 6 0.000000 0.000000 0.000000 0.038751 0.000000 0.027241
#
#
# Mechanical properties :
#
#
# Convention : Reuss Voigt Hill
#
# Bulk Modulus (GPa) = 4.41540 21.03131 12.72335
# Shear Modulus (GPa) = 3.47154 7.29705 5.38429
#
# Velocity S-wave (km/s) = 1.39986 2.02954 1.74337
# Velocity P-wave (km/s) = 2.25947 4.16699 3.35179
#
# Compressibility (1/GPa) = 0.22648016
#
# Stress axis : x y z
#
# Youngs Moduli (GPa) = 9.42909 4.78619 3.88811
#
# Poissons Ratio (x) = 0.60555 -0.54506
# Poissons Ratio (y) = 1.19298 0.72520
# Poissons Ratio (z) = -1.32184 0.89271
#
# Static dielectric constant tensor:
#      x y z
#    x 1.631840 0.000000 -0.021800 
#    y 0.000000 1.587850 0.000000 
#    z -0.021800 0.000000 1.597330 
# 
# From -- ./inp_files/52788.got.cif
#   From: 2010.05.17/outbox.cif.g08.bks.cpg/sg10_27_cif.got.tgz:52788.got - 2010.06.03 11:33:40.
