data_PCOD9142954
_publ_section_title
;
Structure prediction by ZEFSAII (Michael W. Deem and Ramdas Pophale) SiO2 
 PCOD9142954
Probable space group: P 2/M
;
_chemical_formula_sum "Si O2"
_cell_formula_units_Z 24
_cell_length_a 18.061895
_cell_length_b 12.212168
_cell_length_c 13.287062
_cell_angle_alpha 90.000000
_cell_angle_beta 27.041583
_cell_angle_gamma 90.000000
_cell_volume 1332.446737
_symmetry_space_group_name_H-M "P 2/M"
_symmetry_group_IT_number 10
_symmetry_cell_setting 'monoclinic'
loop_
_space_group_symop_operation_xyz
x,y,z
-x,y,-z
-x,-y,-z
x,-y,z
loop_
_atom_site_type_symbol
_atom_site_label
_atom_site_fract_x
_atom_site_fract_y
_atom_site_fract_z
Si Si1 0.174490 0.371422 0.342144
Si Si2 0.973924 0.130332 0.913242
Si Si3 0.109315 0.500000 0.766418
Si Si4 0.435152 0.633149 0.855657
Si Si5 0.686414 0.500000 0.307721
Si Si6 0.331131 0.723520 0.764657
Si Si7 0.199338 0.704462 0.534427
O O1 0.200007 0.500000 0.338159
O O2 0.179456 0.304857 0.439176
O O3 0.000000 0.362127 0.500000
O O4 0.313009 0.339407 0.094954
O O5 0.121426 0.186302 0.673884
O O6 0.972435 0.000000 0.903169
O O7 0.000000 0.156240 0.000000
O O8 0.803107 0.182611 0.083596
O O9 0.285438 0.500000 0.608215
O O10 0.100644 0.605841 0.707881
O O11 0.000000 0.500000 0.000000
O O12 0.429208 0.500000 0.855534
O O13 0.375149 0.687845 0.824537
O O14 0.613309 0.679846 0.665407
O O15 0.500000 0.500000 0.500000
O O16 0.746701 0.614449 0.191358
O O17 0.500000 0.747970 0.500000
#
# Coordination Sequence:
#
# PCOD9142954 Si02
#       7
#     4   4   2   4   2   4   4
#     4  10  21  36  57  88 126 163 196 233 297 372
#     4  11  25  43  60  83 117 163 214 254 292 347
#     4  12  22  30  51  85 115 147 189 233 298 360
#     4  11  21  36  60  93 130 157 190 238 303 378
#     4  10  18  30  49  81 118 143 174 227 296 356
#     4  11  21  36  61  89 124 159 194 248 304 360
#     4  12  21  38  59  86 122 159 196 248 300 357
#
# _framework density 18.011977999999999
#
# number of rings (size 3 to 8) (size 9 to 14) (size 15 to 20)
#    0.000    1.000    2.500    7.000    0.000    1.667 
#    0.000    0.833    0.000    6.500    0.000    0.000 
#    0.000    0.000    0.000    0.000    0.000    0.000 
#
# Total GULP energy -134065.593938 kJ/mol
# GULP energy per Si atom -5586.066414 kJ/mol
# Density = 1.797098 g / cm^3
# Si number density = 18.011978 Si / 1000 Ang^3
#
#
#
# Elastic Constant Matrix: (Units=GPa)
#
#
# Indices 1 2 3 4 5 6 
#
# 1 116.6173 50.3938 60.7458 0.0000 18.8177 0.0000
# 2 50.3938 85.9689 53.9763 0.0000 4.6874 0.0000
# 3 60.7458 53.9763 164.8060 0.0000 10.2113 0.0000
# 4 0.0000 0.0000 0.0000 10.9835 0.0000 -2.5580
# 5 18.8177 4.6874 10.2113 0.0000 39.5066 0.0000
# 6 0.0000 0.0000 0.0000 -2.5580 0.0000 21.8994
#
#
#
# Elastic Compliance Matrix: (Units=1/GPa)
#
#
# Indices 1 2 3 4 5 6 
#
# 1 0.013293 -0.005839 -0.002681 0.000000 -0.004946 0.000000
# 2 -0.005839 0.017218 -0.003590 0.000000 0.001666 0.000000
# 3 -0.002681 -0.003590 0.008258 0.000000 -0.000432 0.000000
# 4 0.000000 0.000000 0.000000 0.093592 0.000000 0.010932
# 5 -0.004946 0.001666 -0.000432 0.000000 0.027582 0.000000
# 6 0.000000 0.000000 0.000000 0.010932 0.000000 0.046940
#
#
# Mechanical properties :
#
#
# Convention : Reuss Voigt Hill
#
# Bulk Modulus (GPa) = 68.73243 77.51378 73.12311
# Shear Modulus (GPa) = 21.19060 27.96298 24.57679
#
# Velocity S-wave (km/s) = 3.43370 3.94441 3.69788
# Velocity P-wave (km/s) = 7.34592 7.99203 7.67577
#
# Compressibility (1/GPa) = 0.01454917
#
# Stress axis : x y z
#
# Youngs Moduli (GPa) = 75.22836 58.07773 121.08881
#
# Poissons Ratio (x) = 0.33913 0.32460
# Poissons Ratio (y) = 0.43928 0.43473
# Poissons Ratio (z) = 0.20167 0.20851
#
# Static dielectric constant tensor:
#      x y z
#    x 1.637720 0.000000 -0.049380 
#    y 0.000000 1.596160 0.000000 
#    z -0.049380 0.000000 1.685780 
# 
# From -- ./inp_files/53617.got.cif
#   From: 2010.05.17/outbox.cif.g08.bks.cpg/sg10_27_cif.got.tgz:53617.got - 2010.06.03 11:33:40.
