data_PCOD9142144
_publ_section_title
;
Structure prediction by ZEFSAII (Michael W. Deem and Ramdas Pophale) SiO2 
 PCOD9142144
Probable space group: P 2/M
;
_chemical_formula_sum "Si O2"
_cell_formula_units_Z 32
_cell_length_a 31.632459
_cell_length_b 9.112739
_cell_length_c 20.758124
_cell_angle_alpha 90.000000
_cell_angle_beta 20.907222
_cell_angle_gamma 90.000000
_cell_volume 2135.318621
_symmetry_space_group_name_H-M "P 2/M"
_symmetry_group_IT_number 10
_symmetry_cell_setting 'monoclinic'
loop_
_space_group_symop_operation_xyz
x,y,z
-x,y,-z
-x,-y,-z
x,-y,z
loop_
_atom_site_type_symbol
_atom_site_label
_atom_site_fract_x
_atom_site_fract_y
_atom_site_fract_z
Si Si1 0.953253 0.324028 0.719956
Si Si2 0.887776 0.329008 0.072714
Si Si3 0.218997 0.828365 0.508242
Si Si4 0.831500 0.671059 0.292856
Si Si5 0.939217 0.171664 0.872395
Si Si6 0.197180 0.174711 0.325285
Si Si7 0.640734 0.327545 0.804510
Si Si8 0.860389 0.332298 0.717917
O O1 0.971137 0.500000 0.695696
O O2 0.912154 0.263905 0.847059
O O3 0.863553 0.291669 0.788628
O O4 0.077674 0.245752 0.525568
O O5 0.859783 0.500000 0.100108
O O6 0.821123 0.281887 0.233043
O O7 0.873963 0.233338 0.028577
O O8 0.027920 0.323735 0.890816
O O9 0.229790 0.768143 0.565507
O O10 0.296793 0.735410 0.348164
O O11 0.080787 0.812804 0.684315
O O12 0.248906 0.000000 0.461745
O O13 0.796118 0.500000 0.348459
O O14 0.915107 0.000000 0.897079
O O15 0.304814 0.239190 0.213179
O O16 0.201535 0.226777 0.244908
O O17 0.190742 0.000000 0.339643
O O18 0.668883 0.500000 0.771525
O O19 0.500000 0.310471 0.000000
O O20 0.817987 0.500000 0.770312
O O21 0.000000 0.332307 0.500000
#
# Coordination Sequence:
#
# PCOD9142144 Si02
#       8
#     4   4   4   4   4   4   4   4
#     4  10  18  28  43  60  82 113 144 173 203 244
#     4   8  14  24  37  54  76 106 140 170 201 238
#     4  10  19  29  42  60  80 105 135 174 220 254
#     4   8  14  25  40  55  74 103 139 172 201 242
#     4  10  18  25  37  59  85 111 139 173 212 247
#     4  11  20  30  45  63  82 105 133 173 220 256
#     4  11  23  36  49  62  78 107 145 182 218 255
#     4   8  16  29  43  60  80 106 139 170 203 245
#
# _framework density 14.986053
#
# number of rings (size 3 to 8) (size 9 to 14) (size 15 to 20)
#    0.000    2.500    1.250    4.125    0.000    5.250 
#    0.000    2.500    0.000    0.000    0.000    0.000 
#    0.000    0.000    0.000    1.125    0.000   21.750 
#
# Total GULP energy -178278.928500 kJ/mol
# GULP energy per Si atom -5571.216516 kJ/mol
# Density = 1.495194 g / cm^3
# Si number density = 14.986053 Si / 1000 Ang^3
#
#
#
# Elastic Constant Matrix: (Units=GPa)
#
#
# Indices 1 2 3 4 5 6 
#
# 1 131.0387 75.7253 26.9127 0.0000 19.7199 0.0000
# 2 75.7253 103.7210 29.4414 0.0000 7.5237 0.0000
# 3 26.9127 29.4414 18.7140 0.0000 2.0511 0.0000
# 4 0.0000 0.0000 0.0000 7.8589 0.0000 3.0900
# 5 19.7199 7.5237 2.0511 0.0000 12.8204 0.0000
# 6 0.0000 0.0000 0.0000 3.0900 0.0000 5.7937
#
#
#
# Elastic Compliance Matrix: (Units=1/GPa)
#
#
# Indices 1 2 3 4 5 6 
#
# 1 0.017754 -0.008781 -0.009456 0.000000 -0.020643 0.000000
# 2 -0.008781 0.022220 -0.022780 0.000000 0.004111 0.000000
# 3 -0.009456 -0.022780 0.101595 0.000000 0.011659 0.000000
# 4 0.000000 0.000000 0.000000 0.161007 0.000000 -0.085871
# 5 -0.020643 0.004111 0.011659 0.000000 0.105475 0.000000
# 6 0.000000 0.000000 0.000000 -0.085871 0.000000 0.218401
#
#
# Mechanical properties :
#
#
# Convention : Reuss Voigt Hill
#
# Bulk Modulus (GPa) = 16.79661 57.51472 37.15566
# Shear Modulus (GPa) = 6.86502 13.38755 10.12628
#
# Velocity S-wave (km/s) = 2.14264 2.99211 2.60227
# Velocity P-wave (km/s) = 4.16577 7.09923 5.82034
#
# Compressibility (1/GPa) = 0.05953583
#
# Stress axis : x y z
#
# Youngs Moduli (GPa) = 56.32519 45.00490 9.84303
#
# Poissons Ratio (x) = 0.39517 0.09307
# Poissons Ratio (y) = 0.49457 0.22422
# Poissons Ratio (z) = 0.53260 1.02521
#
# Static dielectric constant tensor:
#      x y z
#    x 1.526560 0.000000 0.016830 
#    y 0.000000 1.497880 0.000000 
#    z 0.016830 0.000000 1.464320 
# 
# From -- ./inp_files/87197.got.cif
#   From: 2010.05.17/outbox.cif.g08.bks.cpg/sg10_44_cif.got.tgz:87197.got - 2010.06.03 11:33:40.
