data_PCOD9142484
_publ_section_title
;
Structure prediction by ZEFSAII (Michael W. Deem and Ramdas Pophale) SiO2 
 PCOD9142484
Probable space group: P 2/M
;
_chemical_formula_sum "Si O2"
_cell_formula_units_Z 32
_cell_length_a 13.629203
_cell_length_b 7.439222
_cell_length_c 26.992782
_cell_angle_alpha 90.000000
_cell_angle_beta 34.739708
_cell_angle_gamma 90.000000
_cell_volume 1559.572397
_symmetry_space_group_name_H-M "P 2/M"
_symmetry_group_IT_number 10
_symmetry_cell_setting 'monoclinic'
loop_
_space_group_symop_operation_xyz
x,y,z
-x,y,-z
-x,-y,-z
x,-y,z
loop_
_atom_site_type_symbol
_atom_site_label
_atom_site_fract_x
_atom_site_fract_y
_atom_site_fract_z
Si Si1 0.285820 0.287838 0.956698
Si Si2 0.225124 0.780581 0.601077
Si Si3 0.420809 0.779905 0.724505
Si Si4 0.562808 0.282324 0.920612
Si Si5 0.554637 0.781112 0.399008
Si Si6 0.850382 0.790088 0.726591
Si Si7 0.425357 0.215418 0.239776
Si Si8 0.074063 0.795519 0.919167
O O1 0.262690 0.500000 0.972302
O O2 0.418717 0.220247 0.942038
O O3 0.390134 0.256835 0.862392
O O4 0.100678 0.201138 0.039488
O O5 0.378366 0.730067 0.499995
O O6 0.288660 0.724817 0.629705
O O7 0.040189 0.715310 0.658484
O O8 0.218576 0.000000 0.604789
O O9 0.442886 0.719484 0.658856
O O10 0.558509 0.724698 0.709762
O O11 0.234579 0.720782 0.822808
O O12 0.423015 0.000000 0.722250
O O13 0.567156 0.500000 0.918974
O O14 0.742149 0.223068 0.822403
O O15 0.500000 0.221533 0.000000
O O16 0.558571 0.000000 0.396458
O O17 0.726646 0.715075 0.733695
O O18 0.873417 0.000000 0.704830
O O19 0.409526 0.000000 0.246817
O O20 0.124792 0.000000 0.911704
O O21 0.000000 0.705829 0.000000
#
# Coordination Sequence:
#
# PCOD9142484 Si02
#       8
#     4   4   4   4   4   4   4   4
#     4  10  19  30  45  64  86 117 155 187 220 265
#     4   8  14  26  42  65  94 116 141 183 230 265
#     4   9  16  26  41  60  84 120 155 175 212 275
#     4   9  19  34  47  62  90 124 153 183 224 271
#     4   8  14  25  42  63  91 121 143 175 225 275
#     4   9  17  28  47  70  89 113 148 189 226 260
#     4   9  16  29  44  61  89 119 146 180 221 266
#     4  10  18  29  44  63  89 120 152 185 221 264
#
# _framework density 20.518443999999999
#
# number of rings (size 3 to 8) (size 9 to 14) (size 15 to 20)
#    0.000    3.000    1.250    1.125    0.000    2.000 
#    0.000    1.875    0.000    3.750    0.000    3.500 
#    0.000    4.000    0.000    0.000    0.000    0.000 
#
# Total GULP energy -178284.947975 kJ/mol
# GULP energy per Si atom -5571.404624 kJ/mol
# Density = 2.047174 g / cm^3
# Si number density = 20.518444 Si / 1000 Ang^3
#
#
#
# Elastic Constant Matrix: (Units=GPa)
#
#
# Indices 1 2 3 4 5 6 
#
# 1 154.9070 4.3374 98.5932 0.0000 3.2196 0.0000
# 2 4.3374 65.7048 0.0620 0.0000 -1.2212 0.0000
# 3 98.5932 0.0620 103.9255 0.0000 3.2284 0.0000
# 4 0.0000 0.0000 0.0000 98.3596 0.0000 -4.2323
# 5 3.2196 -1.2212 3.2284 0.0000 46.3175 0.0000
# 6 0.0000 0.0000 0.0000 -4.2323 0.0000 -2.6271
#
#
#
# Elastic Compliance Matrix: (Units=1/GPa)
#
#
# Indices 1 2 3 4 5 6 
#
# 1 0.016369 -0.001067 -0.015525 0.000000 -0.000084 0.000000
# 2 -0.001067 0.015297 0.000991 0.000000 0.000408 0.000000
# 3 -0.015525 0.000991 0.024369 0.000000 -0.000593 0.000000
# 4 0.000000 0.000000 0.000000 0.009508 0.000000 -0.015317
# 5 -0.000084 0.000408 -0.000593 0.000000 0.021648 0.000000
# 6 0.000000 0.000000 0.000000 -0.015317 0.000000 -0.355969
#
#
# Mechanical properties :
#
#
# Convention : Reuss Voigt Hill
#
# Bulk Modulus (GPa) = 40.27364 58.94696 49.61030
# Shear Modulus (GPa) = -21.80565 43.17964 10.68700
#
# Velocity S-wave (km/s) = -3.26350 4.59238 2.28469
# Velocity P-wave (km/s) = 2.33882 7.54395 5.58485
#
# Compressibility (1/GPa) = 0.02483014
#
# Stress axis : x y z
#
# Youngs Moduli (GPa) = 61.09270 65.37355 41.03578
#
# Poissons Ratio (x) = 0.06978 0.63710
# Poissons Ratio (y) = 0.06521 -0.04066
# Poissons Ratio (z) = 0.94849 -0.06478
#
# Static dielectric constant tensor:
#      x y z
#    x 1.804320 0.000000 0.005250 
#    y 0.000000 1.771470 0.000000 
#    z 0.005250 0.000000 1.700070 
# 
# From -- ./inp_files/93123.got.cif
#   From: 2010.05.17/outbox.cif.g08.bks.cpg/sg10_47_cif.got.tgz:93123.got - 2010.06.03 11:33:40.
