data_PCOD9142875
_publ_section_title
;
Structure prediction by ZEFSAII (Michael W. Deem and Ramdas Pophale) SiO2 
 PCOD9142875
Probable space group: P 2/M
;
_chemical_formula_sum "Si O2"
_cell_formula_units_Z 32
_cell_length_a 28.205335
_cell_length_b 9.414807
_cell_length_c 22.117334
_cell_angle_alpha 90.000000
_cell_angle_beta 18.988181
_cell_angle_gamma 90.000000
_cell_volume 1910.984272
_symmetry_space_group_name_H-M "P 2/M"
_symmetry_group_IT_number 10
_symmetry_cell_setting 'monoclinic'
loop_
_space_group_symop_operation_xyz
x,y,z
-x,y,-z
-x,-y,-z
x,-y,z
loop_
_atom_site_type_symbol
_atom_site_label
_atom_site_fract_x
_atom_site_fract_y
_atom_site_fract_z
Si Si1 0.766726 0.664520 0.804441
Si Si2 0.367001 0.830665 0.929161
Si Si3 0.583322 0.835568 0.336223
Si Si4 0.619387 0.830748 0.535209
Si Si5 0.879920 0.331511 0.965149
Si Si6 0.936185 0.169332 0.776260
Si Si7 0.078649 0.669087 0.843001
Si Si8 0.924044 0.665578 0.497073
O O1 0.721348 0.500000 0.857506
O O2 0.802816 0.710735 0.692402
O O3 0.922120 0.669397 0.652167
O O4 0.659653 0.755605 0.974773
O O5 0.512673 0.785613 0.718510
O O6 0.371629 0.000000 0.931839
O O7 0.225786 0.802498 0.056606
O O8 0.500000 0.822798 0.500000
O O9 0.472080 0.807885 0.415863
O O10 0.634539 0.000000 0.267835
O O11 0.719191 0.731202 0.169023
O O12 0.770375 0.749170 0.349497
O O13 0.644810 0.000000 0.510064
O O14 0.875197 0.500000 0.958716
O O15 0.944942 0.248260 0.829467
O O16 0.973395 0.307250 0.912860
O O17 0.051081 0.235407 0.590427
O O18 0.952346 0.000000 0.762443
O O19 0.105903 0.500000 0.815097
O O20 0.000000 0.715211 0.000000
O O21 0.899371 0.500000 0.510383
#
# Coordination Sequence:
#
# PCOD9142875 Si02
#       8
#     4   4   4   4   4   4   4   4
#     4   8  14  24  40  64  97 135 171 205 244 297
#     4   9  17  29  45  69 103 133 165 212 252 297
#     4  10  20  35  55  78 104 131 165 210 257 310
#     4  10  20  35  53  77 104 133 171 212 257 307
#     4  11  22  35  53  76 103 135 171 213 260 309
#     4  10  18  30  48  71 103 136 170 212 254 302
#     4  10  23  41  56  74 102 133 171 218 261 309
#     4   8  14  25  40  64  99 134 170 208 246 294
#
# _framework density 16.745297000000001
#
# number of rings (size 3 to 8) (size 9 to 14) (size 15 to 20)
#    0.000    2.500    1.250    2.250    0.000    3.500 
#    0.000    2.500    0.000    0.000    0.000    0.875 
#    0.000    7.000    0.000    0.000    0.000    0.000 
#
# Total GULP energy -178411.508193 kJ/mol
# GULP energy per Si atom -5575.359631 kJ/mol
# Density = 1.670718 g / cm^3
# Si number density = 16.745297 Si / 1000 Ang^3
#
#
#
# Elastic Constant Matrix: (Units=GPa)
#
#
# Indices 1 2 3 4 5 6 
#
# 1 78.5382 58.8306 48.2097 0.0000 22.7281 0.0000
# 2 58.8306 64.5457 45.5472 0.0000 9.4894 0.0000
# 3 48.2097 45.5472 74.4218 0.0000 14.9952 0.0000
# 4 0.0000 0.0000 0.0000 32.2432 0.0000 13.1483
# 5 22.7281 9.4894 14.9952 0.0000 25.2018 0.0000
# 6 0.0000 0.0000 0.0000 13.1483 0.0000 -11.9502
#
#
#
# Elastic Compliance Matrix: (Units=1/GPa)
#
#
# Indices 1 2 3 4 5 6 
#
# 1 0.060572 -0.048143 -0.002749 0.000000 -0.034863 0.000000
# 2 -0.048143 0.065538 -0.014430 0.000000 0.027326 0.000000
# 3 -0.002749 -0.014430 0.025513 0.000000 -0.007268 0.000000
# 4 0.000000 0.000000 0.000000 0.021409 0.000000 0.023555
# 5 -0.034863 0.027326 -0.007268 0.000000 0.065156 0.000000
# 6 0.000000 0.000000 0.000000 0.023555 0.000000 -0.057764
#
#
# Mechanical properties :
#
#
# Convention : Reuss Voigt Hill
#
# Bulk Modulus (GPa) = 47.66476 58.07564 52.87020
# Shear Modulus (GPa) = 15.72027 13.42684 14.57356
#
# Velocity S-wave (km/s) = 3.06729 2.83473 2.95330
# Velocity P-wave (km/s) = 6.40864 6.74324 6.57807
#
# Compressibility (1/GPa) = 0.02097986
#
# Stress axis : x y z
#
# Youngs Moduli (GPa) = 16.50941 15.25822 39.19536
#
# Poissons Ratio (x) = 0.73458 0.10774
# Poissons Ratio (y) = 0.79482 0.56558
# Poissons Ratio (z) = 0.04538 0.22017
#
# Static dielectric constant tensor:
#      x y z
#    x 1.559500 0.000000 0.019990 
#    y 0.000000 1.557430 0.000000 
#    z 0.019990 0.000000 1.556840 
# 
# From -- ./inp_files/86853.got.cif
#   From: 2010.05.17/outbox.cif.g08.bks.cpg/sg10_44_cif.got.tgz:86853.got - 2010.06.03 11:33:40.
