data_PCOD9142764
_publ_section_title
;
Structure prediction by ZEFSAII (Michael W. Deem and Ramdas Pophale) SiO2 
 PCOD9142764
Probable space group: P 2/M
;
_chemical_formula_sum "Si O2"
_cell_formula_units_Z 28
_cell_length_a 9.615963
_cell_length_b 14.181531
_cell_length_c 12.484418
_cell_angle_alpha 90.000000
_cell_angle_beta 51.787448
_cell_angle_gamma 90.000000
_cell_volume 1337.681694
_symmetry_space_group_name_H-M "P 2/M"
_symmetry_group_IT_number 10
_symmetry_cell_setting 'monoclinic'
loop_
_space_group_symop_operation_xyz
x,y,z
-x,y,-z
-x,-y,-z
x,-y,z
loop_
_atom_site_type_symbol
_atom_site_label
_atom_site_fract_x
_atom_site_fract_y
_atom_site_fract_z
Si Si1 0.450944 0.394060 0.863664
Si Si2 0.112133 0.395555 0.172848
Si Si3 0.926755 0.192908 0.743555
Si Si4 0.354760 0.108505 0.973116
Si Si5 0.261742 0.605411 0.724900
Si Si6 0.360857 0.212695 0.280265
Si Si7 0.682876 0.787956 0.448733
O O1 0.524068 0.500000 0.836681
O O2 0.355533 0.384381 0.794090
O O3 0.591929 0.311087 0.800731
O O4 0.299660 0.384526 0.025231
O O5 0.103476 0.500000 0.226665
O O6 0.066291 0.306562 0.267291
O O7 0.951346 0.392721 0.163529
O O8 0.806048 0.164037 0.699595
O O9 0.128686 0.160261 0.656987
O O10 0.814010 0.164585 0.902096
O O11 0.460275 0.152578 0.823737
O O12 0.308730 0.000000 0.977346
O O13 0.500000 0.113535 0.000000
O O14 0.306181 0.500000 0.661560
O O15 0.311588 0.691021 0.622997
O O16 0.325682 0.230437 0.420579
O O17 0.500000 0.836930 0.500000
#
# Coordination Sequence:
#
# PCOD9142764 Si02
#       7
#     4   4   4   4   4   4   4
#     4  10  18  29  51  83 117 152 191 233 279 330
#     4   9  17  30  50  81 115 151 189 233 282 331
#     4  10  21  37  59  84 117 147 186 236 282 335
#     4   9  19  39  66  90 112 143 186 232 282 344
#     4   9  18  32  50  75 112 157 205 236 261 320
#     4  11  21  36  56  89 117 147 185 234 287 330
#     4  11  22  37  56  83 112 157 192 229 276 334
#
# _framework density 20.931736000000001
#
# number of rings (size 3 to 8) (size 9 to 14) (size 15 to 20)
#    0.000    2.143    2.857    0.857    0.000    3.143 
#    0.000    2.857    0.000   10.286    0.000    0.000 
#    0.000    0.000    0.000    0.000    0.000    0.000 
#
# Total GULP energy -156166.429327 kJ/mol
# GULP energy per Si atom -5577.372476 kJ/mol
# Density = 2.088409 g / cm^3
# Si number density = 20.931736 Si / 1000 Ang^3
#
#
#
# Elastic Constant Matrix: (Units=GPa)
#
#
# Indices 1 2 3 4 5 6 
#
# 1 115.0681 -4.9363 22.7947 0.0000 -27.5794 0.0000
# 2 -4.9363 46.7499 8.7410 0.0000 -6.5723 0.0000
# 3 22.7947 8.7410 71.7497 0.0000 -8.5475 0.0000
# 4 0.0000 0.0000 0.0000 5.6897 0.0000 2.3061
# 5 -27.5794 -6.5723 -8.5475 0.0000 39.0601 0.0000
# 6 0.0000 0.0000 0.0000 2.3061 0.0000 7.4293
#
#
#
# Elastic Compliance Matrix: (Units=1/GPa)
#
#
# Indices 1 2 3 4 5 6 
#
# 1 0.011272 0.002845 -0.003001 0.000000 0.007781 0.000000
# 2 0.002845 0.022999 -0.003086 0.000000 0.005203 0.000000
# 3 -0.003001 -0.003086 0.015353 0.000000 0.000722 0.000000
# 4 0.000000 0.000000 0.000000 0.201051 0.000000 -0.062407
# 5 0.007781 0.005203 0.000722 0.000000 0.032129 0.000000
# 6 0.000000 0.000000 0.000000 -0.062407 0.000000 0.153974
#
#
# Mechanical properties :
#
#
# Convention : Reuss Voigt Hill
#
# Bulk Modulus (GPa) = 23.17996 31.86297 27.52146
# Shear Modulus (GPa) = 10.92560 24.23370 17.57965
#
# Velocity S-wave (km/s) = 2.28713 3.40626 2.90117
# Velocity P-wave (km/s) = 4.25120 5.54306 4.93955
#
# Compressibility (1/GPa) = 0.04314072
#
# Stress axis : x y z
#
# Youngs Moduli (GPa) = 88.71605 43.47952 65.13564
#
# Poissons Ratio (x) = -0.12370 0.19546
# Poissons Ratio (y) = -0.25241 0.20100
# Poissons Ratio (z) = 0.26621 0.13418
#
# Static dielectric constant tensor:
#      x y z
#    x 1.814530 0.000000 -0.038040 
#    y 0.000000 1.761480 0.000000 
#    z -0.038040 0.000000 1.731770 
# 
# From -- ./inp_files/35318.got.cif
#   From: 2010.05.17/outbox.cif.g08.bks.cpg/sg10_18_cif.got.tgz:35318.got - 2010.06.03 11:33:40.
