data_PCOD9142814
_publ_section_title
;
Structure prediction by ZEFSAII (Michael W. Deem and Ramdas Pophale) SiO2 
 PCOD9142814
Probable space group: P 2/M
;
_chemical_formula_sum "Si O2"
_cell_formula_units_Z 32
_cell_length_a 15.275071
_cell_length_b 8.301963
_cell_length_c 21.516026
_cell_angle_alpha 90.000000
_cell_angle_beta 42.165333
_cell_angle_gamma 90.000000
_cell_volume 1831.575304
_symmetry_space_group_name_H-M "P 2/M"
_symmetry_group_IT_number 10
_symmetry_cell_setting 'monoclinic'
loop_
_space_group_symop_operation_xyz
x,y,z
-x,y,-z
-x,-y,-z
x,-y,z
loop_
_atom_site_type_symbol
_atom_site_label
_atom_site_fract_x
_atom_site_fract_y
_atom_site_fract_z
Si Si1 0.157875 0.309240 0.963429
Si Si2 0.873123 0.305243 0.883756
Si Si3 0.862554 0.186403 0.294628
Si Si4 0.426289 0.305467 0.976926
Si Si5 0.608740 0.310103 0.492984
Si Si6 0.510258 0.810496 0.322273
Si Si7 0.796353 0.689895 0.195129
Si Si8 0.550628 0.191319 0.166907
O O1 0.132477 0.500000 0.974012
O O2 0.135858 0.250023 0.904552
O O3 0.311914 0.280447 0.893931
O O4 0.099405 0.248912 0.059298
O O5 0.875140 0.500000 0.883348
O O6 0.726164 0.253709 0.943861
O O7 0.988312 0.244911 0.779200
O O8 0.752524 0.279961 0.390807
O O9 0.827795 0.215851 0.240738
O O10 0.852428 0.000000 0.315723
O O11 0.426456 0.500000 0.976032
O O12 0.500000 0.250518 0.000000
O O13 0.493334 0.246974 0.877850
O O14 0.500000 0.250375 0.500000
O O15 0.586150 0.500000 0.512342
O O16 0.587267 0.228430 0.570866
O O17 0.641654 0.710447 0.266152
O O18 0.468566 0.776515 0.272857
O O19 0.544526 0.000000 0.306971
O O20 0.826735 0.500000 0.188059
O O21 0.574897 0.000000 0.151509
#
# Coordination Sequence:
#
# PCOD9142814 Si02
#       8
#     4   4   4   4   4   4   4   4
#     4   8  16  30  48  66  90 128 168 205 241 282
#     4   9  18  34  51  69  97 129 162 202 243 290
#     4  12  24  34  46  66  96 131 167 209 254 297
#     4   9  18  34  57  82 105 132 165 199 239 291
#     4  11  22  35  52  71  91 126 176 221 256 294
#     4  10  19  31  48  71 100 131 165 209 255 295
#     4  10  18  30  47  67  91 126 172 211 246 287
#     4   9  17  28  46  75 106 132 159 196 245 297
#
# _framework density 17.471298999999998
#
# number of rings (size 3 to 8) (size 9 to 14) (size 15 to 20)
#    0.000    2.250    1.250    3.375    0.000    5.250 
#    0.000    2.500    0.000    0.000    0.000    0.875 
#    0.000    7.000    0.000    0.000    0.000    0.000 
#
# Total GULP energy -178389.749493 kJ/mol
# GULP energy per Si atom -5574.679672 kJ/mol
# Density = 1.743153 g / cm^3
# Si number density = 17.471299 Si / 1000 Ang^3
#
#
#
# Elastic Constant Matrix: (Units=GPa)
#
#
# Indices 1 2 3 4 5 6 
#
# 1 90.2425 12.0630 39.5856 0.0000 18.1952 0.0000
# 2 12.0630 24.4783 4.8414 0.0000 4.3034 0.0000
# 3 39.5856 4.8414 114.2967 0.0000 17.5564 0.0000
# 4 0.0000 0.0000 0.0000 3.8621 0.0000 37.8791
# 5 18.1952 4.3034 17.5564 0.0000 21.7300 0.0000
# 6 0.0000 0.0000 0.0000 37.8791 0.0000 -65.4235
#
#
#
# Elastic Compliance Matrix: (Units=1/GPa)
#
#
# Indices 1 2 3 4 5 6 
#
# 1 0.015145 -0.005210 -0.003694 0.000000 -0.008665 0.000000
# 2 -0.005210 0.044151 0.000693 0.000000 -0.004942 0.000000
# 3 -0.003694 0.000693 0.010897 0.000000 -0.005849 0.000000
# 4 0.000000 0.000000 0.000000 0.038770 0.000000 0.022447
# 5 -0.008665 -0.004942 -0.005849 0.000000 0.058979 0.000000
# 6 0.000000 0.000000 0.000000 0.022447 0.000000 -0.002289
#
#
# Mechanical properties :
#
#
# Convention : Reuss Voigt Hill
#
# Bulk Modulus (GPa) = 18.59641 37.99973 28.29807
# Shear Modulus (GPa) = 25.00016 3.53557 14.26787
#
# Velocity S-wave (km/s) = 3.78686 1.42409 2.86080
# Velocity P-wave (km/s) = 5.45780 4.94986 5.21002
#
# Compressibility (1/GPa) = 0.05377381
#
# Stress axis : x y z
#
# Youngs Moduli (GPa) = 66.02812 22.64934 91.76447
#
# Poissons Ratio (x) = 0.11799 0.33894
# Poissons Ratio (y) = 0.34398 -0.06361
# Poissons Ratio (z) = 0.24388 -0.01570
#
# Static dielectric constant tensor:
#      x y z
#    x 1.611720 0.000000 0.007960 
#    y 0.000000 1.609770 0.000000 
#    z 0.007960 0.000000 1.631240 
# 
# From -- ./inp_files/84718.got.cif
#   From: 2010.05.17/outbox.cif.g08.bks.cpg/sg10_43_cif.got.tgz:84718.got - 2010.06.03 11:33:40.
