data_PCOD9142513
_publ_section_title
;
Structure prediction by ZEFSAII (Michael W. Deem and Ramdas Pophale) SiO2 
 PCOD9142513
Probable space group: P 2/M
;
_chemical_formula_sum "Si O2"
_cell_formula_units_Z 28
_cell_length_a 20.038223
_cell_length_b 7.540092
_cell_length_c 17.190279
_cell_angle_alpha 90.000000
_cell_angle_beta 157.243641
_cell_angle_gamma 90.000000
_cell_volume 1004.662485
_symmetry_space_group_name_H-M "P 2/M"
_symmetry_group_IT_number 10
_symmetry_cell_setting 'monoclinic'
loop_
_space_group_symop_operation_xyz
x,y,z
-x,y,-z
-x,-y,-z
x,-y,z
loop_
_atom_site_type_symbol
_atom_site_label
_atom_site_fract_x
_atom_site_fract_y
_atom_site_fract_z
Si Si1 0.738081 0.712743 0.758516
Si Si2 0.392788 0.210378 0.223217
Si Si3 0.405028 0.209980 0.992329
Si Si4 0.850343 0.212216 0.405018
Si Si5 0.100889 0.282333 0.223644
Si Si6 0.882500 0.215173 0.188012
Si Si7 0.684163 0.702469 0.412832
O O1 0.736196 0.500000 0.750878
O O2 0.600159 0.756698 0.677068
O O3 0.764501 0.777317 0.698836
O O4 0.916503 0.771460 0.992274
O O5 0.539366 0.290689 0.326200
O O6 0.400851 0.000000 0.219071
O O7 0.209159 0.277397 0.989804
O O8 0.322864 0.283735 0.823518
O O9 0.265810 0.263179 0.908101
O O10 0.390822 0.000000 0.966110
O O11 0.588061 0.230347 0.232586
O O12 0.000000 0.235140 0.500000
O O13 0.940238 0.279798 0.581141
O O14 0.832160 0.000000 0.396112
O O15 0.102024 0.500000 0.227705
O O16 0.156475 0.212674 0.368198
O O17 0.891508 0.000000 0.196027
O O18 0.720968 0.500000 0.438129
#
# Coordination Sequence:
#
# PCOD9142513 Si02
#       7
#     4   4   4   4   4   4   4
#     4   9  17  34  54  67  82 110 150 189 220 255
#     4  10  19  30  44  68  97 119 142 177 222 264
#     4   8  13  22  37  59  85 111 142 180 218 252
#     4   7   9  16  33  54  76 109 147 174 203 247
#     4   8  17  33  52  68  83 111 151 186 215 259
#     4   7  11  20  35  55  82 114 144 172 205 251
#     4  10  18  29  45  66  91 119 148 177 216 264
#
# _framework density 27.870056999999999
#
# number of rings (size 3 to 8) (size 9 to 14) (size 15 to 20)
#    0.000    3.571    0.000    4.286    0.000    0.571 
#    0.000    7.143    0.000   11.571    0.000    1.000 
#    0.000    8.000    0.000    0.000    0.000    0.000 
#
# Total GULP energy -156436.920429 kJ/mol
# GULP energy per Si atom -5587.032872 kJ/mol
# Density = 2.780662 g / cm^3
# Si number density = 27.870057 Si / 1000 Ang^3
#
#
#
# Elastic Constant Matrix: (Units=GPa)
#
#
# Indices 1 2 3 4 5 6 
#
# 1 138.0986 7.9017 17.9406 0.0000 -48.8392 0.0000
# 2 7.9017 86.0570 -1.4330 0.0000 -6.8740 0.0000
# 3 17.9406 -1.4330 144.9710 0.0000 -35.0043 0.0000
# 4 0.0000 0.0000 0.0000 -1.2849 0.0000 17.3448
# 5 -48.8392 -6.8740 -35.0043 0.0000 76.8495 0.0000
# 6 0.0000 0.0000 0.0000 17.3448 0.0000 4.2874
#
#
#
# Elastic Compliance Matrix: (Units=1/GPa)
#
#
# Indices 1 2 3 4 5 6 
#
# 1 0.009365 -0.000371 0.000299 0.000000 0.006055 0.000000
# 2 -0.000371 0.011741 0.000403 0.000000 0.000998 0.000000
# 3 0.000299 0.000403 0.007775 0.000000 0.003768 0.000000
# 4 0.000000 0.000000 0.000000 -0.013995 0.000000 0.056618
# 5 0.006055 0.000998 0.003768 0.000000 0.018666 0.000000
# 6 0.000000 0.000000 0.000000 0.056618 0.000000 0.004194
#
#
# Mechanical properties :
#
#
# Convention : Reuss Voigt Hill
#
# Bulk Modulus (GPa) = 33.85004 46.43836 40.14420
# Shear Modulus (GPa) = 106.54080 38.95153 72.74617
#
# Velocity S-wave (km/s) = 6.18956 3.74252 5.11455
# Velocity P-wave (km/s) = 7.95317 5.94760 7.02235
#
# Compressibility (1/GPa) = 0.02954206
#
# Stress axis : x y z
#
# Youngs Moduli (GPa) = 106.78277 85.17381 128.62461
#
# Poissons Ratio (x) = 0.03162 -0.03850
# Poissons Ratio (y) = 0.03964 -0.05182
# Poissons Ratio (z) = -0.03196 -0.03432
#
# Static dielectric constant tensor:
#      x y z
#    x 2.271820 0.000000 0.077510 
#    y 0.000000 2.004470 0.000000 
#    z 0.077510 0.000000 2.311040 
# 
# From -- ./inp_files/86710.got.cif
#   From: 2010.05.17/outbox.cif.g08.bks.cpg/sg10_44_cif.got.tgz:86710.got - 2010.06.03 11:33:40.
