data_PCOD9142580
_publ_section_title
;
Structure prediction by ZEFSAII (Michael W. Deem and Ramdas Pophale) SiO2 
 PCOD9142580
Probable space group: P 2/M
;
_chemical_formula_sum "Si O2"
_cell_formula_units_Z 20
_cell_length_a 27.175271
_cell_length_b 7.812281
_cell_length_c 8.774890
_cell_angle_alpha 90.000000
_cell_angle_beta 32.366462
_cell_angle_gamma 90.000000
_cell_volume 997.279777
_symmetry_space_group_name_H-M "P 2/M"
_symmetry_group_IT_number 10
_symmetry_cell_setting 'monoclinic'
loop_
_space_group_symop_operation_xyz
x,y,z
-x,y,-z
-x,-y,-z
x,-y,z
loop_
_atom_site_type_symbol
_atom_site_label
_atom_site_fract_x
_atom_site_fract_y
_atom_site_fract_z
Si Si1 0.994209 0.000000 0.698483
Si Si2 0.105797 0.000000 0.671019
Si Si3 0.404604 0.000000 0.547123
Si Si4 0.752857 0.297895 0.694709
Si Si5 0.273455 0.306297 0.870036
Si Si6 0.386046 0.000000 0.965869
Si Si7 0.909670 0.683707 0.843352
O O1 0.936061 0.832842 0.887706
O O2 0.000000 0.000000 0.500000
O O3 0.091636 0.000000 0.523479
O O4 0.160394 0.826032 0.564739
O O5 0.000000 0.000000 0.000000
O O6 0.349954 0.833657 0.633586
O O7 0.395794 0.000000 0.755415
O O8 0.512379 0.000000 0.230541
O O9 0.754645 0.500000 0.642041
O O10 0.669403 0.175909 0.853312
O O11 0.744655 0.301833 0.900934
O O12 0.302713 0.500000 0.755605
O O13 0.178640 0.273787 0.027694
O O14 0.894240 0.500000 0.957786
O O15 0.000000 0.667453 0.500000
#
# Coordination Sequence:
#
# PCOD9142580 Si02
#       7
#     2   2   2   4   4   2   4
#     4  10  18  29  47  65  86 122 158 185 223 270
#     4  11  23  34  46  70  98 123 158 198 234 275
#     4   9  15  25  37  58  95 124 149 193 241 277
#     4   9  17  31  47  61  85 122 159 193 232 279
#     4   9  16  25  41  65  91 122 157 191 232 280
#     4   8  16  26  40  62  85 119 163 195 225 282
#     4   9  16  25  39  61  86 114 152 188 216 258
#
# _framework density 20.054552999999999
#
# number of rings (size 3 to 8) (size 9 to 14) (size 15 to 20)
#    0.000    2.800    0.000    3.600    0.000    3.600 
#    0.000    4.000    0.000    0.000    0.000    0.000 
#    0.000   12.800    0.000   24.800    0.000   11.200 
#
# Total GULP energy -111347.795451 kJ/mol
# GULP energy per Si atom -5567.389773 kJ/mol
# Density = 2.000891 g / cm^3
# Si number density = 20.054553 Si / 1000 Ang^3
#
#
#
# Elastic Constant Matrix: (Units=GPa)
#
#
# Indices 1 2 3 4 5 6 
#
# 1 50.8674 46.9843 41.8528 0.0000 -33.2535 0.0000
# 2 46.9843 212.9434 78.0037 0.0000 -45.2091 0.0000
# 3 41.8528 78.0037 97.1876 0.0000 -41.0044 0.0000
# 4 0.0000 0.0000 0.0000 12.1808 0.0000 -24.1917
# 5 -33.2535 -45.2091 -41.0044 0.0000 42.6146 0.0000
# 6 0.0000 0.0000 0.0000 -24.1917 0.0000 17.6997
#
#
#
# Elastic Compliance Matrix: (Units=1/GPa)
#
#
# Indices 1 2 3 4 5 6 
#
# 1 0.043475 -0.001752 -0.006375 0.000000 0.025933 0.000000
# 2 -0.001752 0.006998 -0.003883 0.000000 0.002321 0.000000
# 3 -0.006375 -0.003883 0.020730 0.000000 0.010853 0.000000
# 4 0.000000 0.000000 0.000000 -0.047884 0.000000 -0.065447
# 5 0.025933 0.002321 0.010853 0.000000 0.056607 0.000000
# 6 0.000000 0.000000 0.000000 -0.065447 0.000000 -0.032953
#
#
# Mechanical properties :
#
#
# Convention : Reuss Voigt Hill
#
# Bulk Modulus (GPa) = 21.19378 77.18667 49.19022
# Shear Modulus (GPa) = 57.65699 27.44286 42.54992
#
# Velocity S-wave (km/s) = 5.36773 3.70322 4.61120
# Velocity P-wave (km/s) = 7.00055 7.54036 7.27546
#
# Compressibility (1/GPa) = 0.04718366
#
# Stress axis : x y z
#
# Youngs Moduli (GPa) = 23.00175 142.90606 48.23890
#
# Poissons Ratio (x) = 0.25030 0.30753
# Poissons Ratio (y) = 0.04029 0.18731
# Poissons Ratio (z) = 0.14664 0.55490
#
# Static dielectric constant tensor:
#      x y z
#    x 1.746730 0.000000 0.053920 
#    y 0.000000 1.743560 0.000000 
#    z 0.053920 0.000000 1.752730 
# 
# From -- ./inp_files/36645.got.cif
#   From: 2010.05.17/outbox.cif.g08.bks.cpg/sg10_19_cif.got.tgz:36645.got - 2010.06.03 11:33:40.
