data_PCOD9142766
_publ_section_title
;
Structure prediction by ZEFSAII (Michael W. Deem and Ramdas Pophale) SiO2 
 PCOD9142766
Probable space group: P 2/M
;
_chemical_formula_sum "Si O2"
_cell_formula_units_Z 26
_cell_length_a 25.310495
_cell_length_b 12.533904
_cell_length_c 5.321170
_cell_angle_alpha 90.000000
_cell_angle_beta 128.794587
_cell_angle_gamma 90.000000
_cell_volume 1315.688127
_symmetry_space_group_name_H-M "P 2/M"
_symmetry_group_IT_number 10
_symmetry_cell_setting 'monoclinic'
loop_
_space_group_symop_operation_xyz
x,y,z
-x,y,-z
-x,-y,-z
x,-y,z
loop_
_atom_site_type_symbol
_atom_site_label
_atom_site_fract_x
_atom_site_fract_y
_atom_site_fract_z
Si Si1 0.240131 0.500000 0.679950
Si Si2 0.140917 0.728080 0.914436
Si Si3 0.655604 0.885571 0.474966
Si Si4 0.044743 0.122954 0.885488
Si Si5 0.850459 0.500000 0.091420
Si Si6 0.277937 0.281194 0.598441
Si Si7 0.454948 0.000000 0.613594
Si Si8 0.211821 0.120084 0.789109
O O1 0.204501 0.500000 0.844805
O O2 0.282890 0.392079 0.761010
O O3 0.181841 0.500000 0.287516
O O4 0.103216 0.789669 0.024444
O O5 0.110278 0.612565 0.762543
O O6 0.149429 0.814951 0.720772
O O7 0.218887 0.699726 0.216911
O O8 0.656662 0.776202 0.324910
O O9 0.650086 0.000000 0.311383
O O10 0.596624 0.900012 0.505593
O O11 0.728571 0.888452 0.825505
O O12 0.000000 0.135344 0.500000
O O13 0.069629 0.000000 0.958895
O O14 0.000000 0.138415 0.000000
O O15 0.245769 0.189699 0.675580
O O16 0.500000 0.000000 0.500000
O O17 0.500000 0.000000 0.000000
O O18 0.193782 0.000000 0.661509
#
# Coordination Sequence:
#
# PCOD9142766 Si02
#       8
#     2   4   4   4   2   4   2   4
#     4  10  20  34  52  81 112 148 183 212 291 326
#     4  10  21  36  53  79 105 146 186 218 293 330
#     4   8  19  32  49  81 116 141 183 227 267 319
#     4  10  23  40  57  76 107 141 184 235 273 331
#     4  10  20  36  54  79 110 139 179 237 259 348
#     4  10  19  32  54  79 113 147 177 233 273 336
#     4  10  22  36  56  80 118 160 186 216 270 328
#     4  10  18  29  52  79 113 142 172 225 278 330
#
# _framework density 19.761523
#
# number of rings (size 3 to 8) (size 9 to 14) (size 15 to 20)
#    0.462    1.846    1.538    0.923    4.308    1.846 
#    0.000    0.769    0.000    0.000    0.000    1.077 
#    0.000    0.000    0.000    0.000    0.000    0.000 
#
# Total GULP energy -144773.346604 kJ/mol
# GULP energy per Si atom -5568.205639 kJ/mol
# Density = 1.971654 g / cm^3
# Si number density = 19.761523 Si / 1000 Ang^3
#
#
#
# Elastic Constant Matrix: (Units=GPa)
#
#
# Indices 1 2 3 4 5 6 
#
# 1 110.6522 69.0536 18.1799 0.0000 -22.5403 0.0000
# 2 69.0536 168.9063 7.0517 0.0000 -17.8447 0.0000
# 3 18.1799 7.0517 44.8003 0.0000 -11.3534 0.0000
# 4 0.0000 0.0000 0.0000 9.0987 0.0000 -12.3130
# 5 -22.5403 -17.8447 -11.3534 0.0000 29.0945 0.0000
# 6 0.0000 0.0000 0.0000 -12.3130 0.0000 13.0211
#
#
#
# Elastic Compliance Matrix: (Units=1/GPa)
#
#
# Indices 1 2 3 4 5 6 
#
# 1 0.013945 -0.004874 -0.003231 0.000000 0.006553 0.000000
# 2 -0.004874 0.008034 0.001115 0.000000 0.001587 0.000000
# 3 -0.003231 0.001115 0.025519 0.000000 0.008139 0.000000
# 4 0.000000 0.000000 0.000000 -0.392978 0.000000 -0.371607
# 5 0.006553 0.001587 0.008139 0.000000 0.043597 0.000000
# 6 0.000000 0.000000 0.000000 -0.371607 0.000000 -0.274600
#
#
# Mechanical properties :
#
#
# Convention : Reuss Voigt Hill
#
# Bulk Modulus (GPa) = 29.83314 56.99216 43.41265
# Shear Modulus (GPa) = -9.06896 25.58110 8.25607
#
# Velocity S-wave (km/s) = -2.14457 3.60181 2.04620
# Velocity P-wave (km/s) = 2.99952 6.79705 5.25343
#
# Compressibility (1/GPa) = 0.03351977
#
# Stress axis : x y z
#
# Youngs Moduli (GPa) = 71.71270 124.47032 39.18574
#
# Poissons Ratio (x) = 0.60663 0.12660
# Poissons Ratio (y) = 0.34951 -0.04371
# Poissons Ratio (z) = 0.23169 -0.13883
#
# Static dielectric constant tensor:
#      x y z
#    x 1.718870 0.000000 -0.018240 
#    y 0.000000 1.795970 0.000000 
#    z -0.018240 0.000000 1.768770 
# 
# From -- ./inp_files/12313.got.cif
#   From: 2010.05.17/outbox.cif.g08.bks.cpg/sg10_7_cif.got.tgz:12313.got - 2010.06.03 11:33:40.
