data_PCOD9142725
_publ_section_title
;
Structure prediction by ZEFSAII (Michael W. Deem and Ramdas Pophale) SiO2 
 PCOD9142725
Probable space group: P 2/M
;
_chemical_formula_sum "Si O2"
_cell_formula_units_Z 28
_cell_length_a 12.988308
_cell_length_b 8.303354
_cell_length_c 22.766888
_cell_angle_alpha 90.000000
_cell_angle_beta 138.679512
_cell_angle_gamma 90.000000
_cell_volume 1621.181141
_symmetry_space_group_name_H-M "P 2/M"
_symmetry_group_IT_number 10
_symmetry_cell_setting 'monoclinic'
loop_
_space_group_symop_operation_xyz
x,y,z
-x,y,-z
-x,-y,-z
x,-y,z
loop_
_atom_site_type_symbol
_atom_site_label
_atom_site_fract_x
_atom_site_fract_y
_atom_site_fract_z
Si Si1 0.486147 0.692345 0.400980
Si Si2 0.976685 0.805112 0.107142
Si Si3 0.316057 0.692445 0.212288
Si Si4 0.071775 0.196386 0.777909
Si Si5 0.742282 0.807435 0.593638
Si Si6 0.419403 0.803196 0.904061
Si Si7 0.660054 0.194345 0.908339
O O1 0.496225 0.500000 0.404052
O O2 0.428189 0.752202 0.312883
O O3 0.648931 0.758368 0.495462
O O4 0.355892 0.739939 0.393343
O O5 0.140030 0.744617 0.152232
O O6 0.952677 0.755268 0.164619
O O7 0.980153 0.000000 0.107604
O O8 0.828165 0.751254 0.005341
O O9 0.321946 0.500000 0.214951
O O10 0.360952 0.753568 0.167389
O O11 0.240036 0.250913 0.827206
O O12 0.920682 0.247790 0.676270
O O13 0.074595 0.000000 0.778831
O O14 0.738784 0.000000 0.596924
O O15 0.524709 0.749500 0.894618
O O16 0.419031 0.000000 0.903309
O O17 0.500000 0.755832 0.000000
O O18 0.661478 0.000000 0.911021
#
# Coordination Sequence:
#
# PCOD9142725 Si02
#       7
#     4   4   4   4   4   4   4
#     4  10  20  33  48  68  97 132 166 201 243 296
#     4  10  18  31  50  75 103 131 164 201 242 293
#     4  11  23  35  48  68 101 140 169 202 247 292
#     4   9  16  27  48  77 106 127 153 199 249 294
#     4  10  18  29  50  77 100 125 155 201 254 293
#     4   9  15  28  50  76 102 128 161 201 245 288
#     4  10  20  32  52  76  99 133 171 204 239 289
#
# _framework density 17.271357999999999
#
# number of rings (size 3 to 8) (size 9 to 14) (size 15 to 20)
#    0.000    2.143    2.857    2.571    0.000    4.000 
#    0.000    0.000    0.000    3.857    0.000    6.000 
#    0.000    0.000    0.000    0.000    0.000    0.000 
#
# Total GULP energy -156219.303790 kJ/mol
# GULP energy per Si atom -5579.260850 kJ/mol
# Density = 1.723205 g / cm^3
# Si number density = 17.271358 Si / 1000 Ang^3
#
#
#
# Elastic Constant Matrix: (Units=GPa)
#
#
# Indices 1 2 3 4 5 6 
#
# 1 142.5225 24.6465 110.1962 0.0000 -4.1063 0.0000
# 2 24.6465 28.6364 29.8177 0.0000 2.1983 0.0000
# 3 110.1962 29.8177 192.5168 0.0000 8.2898 0.0000
# 4 0.0000 0.0000 0.0000 13.7709 0.0000 -13.5078
# 5 -4.1063 2.1983 8.2898 0.0000 27.1293 0.0000
# 6 0.0000 0.0000 0.0000 -13.5078 0.0000 -20.0746
#
#
#
# Elastic Compliance Matrix: (Units=1/GPa)
#
#
# Indices 1 2 3 4 5 6 
#
# 1 0.013526 -0.004444 -0.007253 0.000000 0.004624 0.000000
# 2 -0.004444 0.043150 -0.004013 0.000000 -0.002943 0.000000
# 3 -0.007253 -0.004013 0.010134 0.000000 -0.003869 0.000000
# 4 0.000000 0.000000 0.000000 0.043745 0.000000 -0.029435
# 5 0.004624 -0.002943 -0.003869 0.000000 0.038981 0.000000
# 6 0.000000 0.000000 0.000000 -0.029435 0.000000 -0.030008
#
#
# Mechanical properties :
#
#
# Convention : Reuss Voigt Hill
#
# Bulk Modulus (GPa) = 28.25651 76.99962 52.62807
# Shear Modulus (GPa) = 30.72308 17.43280 24.07794
#
# Velocity S-wave (km/s) = 4.22221 3.18047 3.73781
# Velocity P-wave (km/s) = 6.33761 7.62668 7.01183
#
# Compressibility (1/GPa) = 0.03539007
#
# Stress axis : x y z
#
# Youngs Moduli (GPa) = 73.93048 23.17518 98.67641
#
# Poissons Ratio (x) = 0.10300 0.71571
# Poissons Ratio (y) = 0.32856 0.39595
# Poissons Ratio (z) = 0.53623 0.09299
#
# Static dielectric constant tensor:
#      x y z
#    x 1.558690 0.000000 0.008010 
#    y 0.000000 1.599610 0.000000 
#    z 0.008010 0.000000 1.603640 
# 
# From -- ./inp_files/55011.got.cif
#   From: 2010.05.17/outbox.cif.g08.bks.cpg/sg10_28_cif.got.tgz:55011.got - 2010.06.03 11:33:40.
