data_PCOD9142957
_publ_section_title
;
Structure prediction by ZEFSAII (Michael W. Deem and Ramdas Pophale) SiO2 
 PCOD9142957
Probable space group: P 2/M
;
_chemical_formula_sum "Si O2"
_cell_formula_units_Z 32
_cell_length_a 14.665148
_cell_length_b 8.812701
_cell_length_c 15.979120
_cell_angle_alpha 90.000000
_cell_angle_beta 89.954441
_cell_angle_gamma 90.000000
_cell_volume 2065.133856
_symmetry_space_group_name_H-M "P 2/M"
_symmetry_group_IT_number 10
_symmetry_cell_setting 'monoclinic'
loop_
_space_group_symop_operation_xyz
x,y,z
-x,y,-z
-x,-y,-z
x,-y,z
loop_
_atom_site_type_symbol
_atom_site_label
_atom_site_fract_x
_atom_site_fract_y
_atom_site_fract_z
Si Si1 0.405824 0.317339 0.095306
Si Si2 0.893222 0.316981 0.007833
Si Si3 0.110642 0.825216 0.498560
Si Si4 0.102047 0.316827 0.322926
Si Si5 0.597416 0.817982 0.090569
Si Si6 0.212372 0.315611 0.160163
Si Si7 0.111287 0.318616 0.674323
Si Si8 0.789874 0.818791 0.166915
O O1 0.412792 0.500000 0.092689
O O2 0.501449 0.246075 0.123499
O O3 0.318110 0.273207 0.150196
O O4 0.389365 0.256674 0.000993
O O5 0.884613 0.500000 0.015222
O O6 0.841063 0.267847 0.923600
O O7 0.848663 0.242957 0.089072
O O8 0.000000 0.281203 0.000000
O O9 0.136616 0.748153 0.411057
O O10 0.140047 0.740674 0.582884
O O11 0.000000 0.820300 0.500000
O O12 0.139233 0.000000 0.500676
O O13 0.104953 0.500000 0.326750
O O14 0.161403 0.263909 0.243887
O O15 0.995346 0.273949 0.311872
O O16 0.684530 0.780453 0.147129
O O17 0.591897 0.000000 0.080948
O O18 0.208902 0.500000 0.160978
O O19 0.115139 0.500000 0.675983
O O20 0.172035 0.251475 0.748046
O O21 0.797714 0.000000 0.170509
#
# Coordination Sequence:
#
# PCOD9142957 Si02
#       8
#     4   4   4   4   4   4   4   4
#     4  10  18  30  50  70  89 118 158 203 243 277
#     4  10  19  32  48  65  92 130 166 196 228 272
#     4   9  17  30  47  69  97 125 156 196 238 276
#     4   9  17  31  49  70  96 126 160 194 232 278
#     4  10  20  33  47  65  92 123 156 197 245 288
#     4   9  17  29  46  70  95 121 157 198 234 273
#     4  10  19  31  50  71  94 127 164 198 232 277
#     4  11  22  33  46  67  96 128 159 197 241 284
#
# _framework density 15.495362
#
# number of rings (size 3 to 8) (size 9 to 14) (size 15 to 20)
#    0.000    2.250    1.250    3.375    0.000    5.750 
#    0.000    1.875    0.000    0.000    0.000    0.875 
#    0.000    7.000    0.000    0.000    0.000    0.000 
#
# Total GULP energy -178468.496213 kJ/mol
# GULP energy per Si atom -5577.140507 kJ/mol
# Density = 1.546009 g / cm^3
# Si number density = 15.495362 Si / 1000 Ang^3
#
#
#
# Elastic Constant Matrix: (Units=GPa)
#
#
# Indices 1 2 3 4 5 6 
#
# 1 105.3029 40.8574 71.3158 0.0000 13.2012 0.0000
# 2 40.8574 43.2406 41.0366 0.0000 8.4831 0.0000
# 3 71.3158 41.0366 138.0339 0.0000 11.6264 0.0000
# 4 0.0000 0.0000 0.0000 12.7874 0.0000 13.1453
# 5 13.2012 8.4831 11.6264 0.0000 9.6499 0.0000
# 6 0.0000 0.0000 0.0000 13.1453 0.0000 11.4569
#
#
#
# Elastic Compliance Matrix: (Units=1/GPa)
#
#
# Indices 1 2 3 4 5 6 
#
# 1 0.018531 -0.010202 -0.005744 0.000000 -0.009462 0.000000
# 2 -0.010202 0.041170 -0.005671 0.000000 -0.015403 0.000000
# 3 -0.005744 -0.005671 0.012038 0.000000 -0.001660 0.000000
# 4 0.000000 0.000000 0.000000 -0.435706 0.000000 0.499916
# 5 -0.009462 -0.015403 -0.001660 0.000000 0.132112 0.000000
# 6 0.000000 0.000000 0.000000 0.499916 0.000000 -0.486305
#
#
# Mechanical properties :
#
#
# Convention : Reuss Voigt Hill
#
# Bulk Modulus (GPa) = 35.08251 65.88854 50.48553
# Shear Modulus (GPa) = -7.51403 15.67002 4.07800
#
# Velocity S-wave (km/s) = -2.20448 3.18350 1.62403
# Velocity P-wave (km/s) = 4.02618 7.49177 6.01402
#
# Compressibility (1/GPa) = 0.02850423
#
# Stress axis : x y z
#
# Youngs Moduli (GPa) = 53.96274 24.28938 83.06841
#
# Poissons Ratio (x) = 0.24781 0.47717
# Poissons Ratio (y) = 0.55054 0.47111
# Poissons Ratio (z) = 0.30998 0.13775
#
# Static dielectric constant tensor:
#      x y z
#    x 1.515770 0.000000 0.000190 
#    y 0.000000 1.521900 0.000000 
#    z 0.000190 0.000000 1.494310 
# 
# From -- ./inp_files/66186.got.cif
#   From: 2010.05.17/outbox.cif.g08.bks.cpg/sg10_34_cif.got.tgz:66186.got - 2010.06.03 11:33:40.
