data_PCOD9142431
_publ_section_title
;
Structure prediction by ZEFSAII (Michael W. Deem and Ramdas Pophale) SiO2 
 PCOD9142431
Probable space group: P 2/M
;
_chemical_formula_sum "Si O2"
_cell_formula_units_Z 32
_cell_length_a 16.138832
_cell_length_b 17.138577
_cell_length_c 12.314980
_cell_angle_alpha 90.000000
_cell_angle_beta 156.290388
_cell_angle_gamma 90.000000
_cell_volume 1369.670617
_symmetry_space_group_name_H-M "P 2/M"
_symmetry_group_IT_number 10
_symmetry_cell_setting 'monoclinic'
loop_
_space_group_symop_operation_xyz
x,y,z
-x,y,-z
-x,-y,-z
x,-y,z
loop_
_atom_site_type_symbol
_atom_site_label
_atom_site_fract_x
_atom_site_fract_y
_atom_site_fract_z
Si Si1 0.881551 0.082505 0.471577
Si Si2 0.291264 0.760167 0.790330
Si Si3 0.924052 0.585924 0.801561
Si Si4 0.344723 0.089429 0.446474
Si Si5 0.536535 0.412609 0.674065
Si Si6 0.479791 0.754341 0.242822
Si Si7 0.074976 0.877288 0.920938
Si Si8 0.072352 0.281592 0.334140
O O1 0.728145 0.154677 0.288881
O O2 0.044060 0.087284 0.764599
O O3 0.000000 0.088018 0.500000
O O4 0.771863 0.000000 0.347480
O O5 0.105289 0.720248 0.502926
O O6 0.500000 0.719837 0.000000
O O7 0.320569 0.768401 0.952972
O O8 0.016259 0.500000 0.912480
O O9 0.682679 0.580053 0.527696
O O10 0.989470 0.633129 0.776741
O O11 0.000000 0.630354 0.000000
O O12 0.482214 0.164479 0.646444
O O13 0.136091 0.099219 0.269106
O O14 0.421469 0.000000 0.555215
O O15 0.259882 0.098036 0.221224
O O16 0.500000 0.408513 0.500000
O O17 0.632768 0.500000 0.811182
O O18 0.591996 0.324164 0.780435
O O19 0.704184 0.735477 0.456290
O O20 0.069009 0.785100 0.887702
#
# Coordination Sequence:
#
# PCOD9142431 Si02
#       8
#     4   4   4   4   4   4   4   4
#     4  10  20  34  50  70  99 133 170 212 253 296
#     4   9  18  34  50  70  95 131 169 207 242 297
#     4   9  17  28  48  78 105 125 155 205 259 303
#     4  10  18  28  48  76 103 131 168 215 257 298
#     4   9  18  34  52  71  98 132 167 200 242 303
#     4   9  18  31  48  72 100 125 166 208 250 291
#     4   9  17  29  48  71  99 134 174 209 249 301
#     4   8  16  28  48  69  99 129 161 205 250 290
#
# _framework density 23.363281000000001
#
# number of rings (size 3 to 8) (size 9 to 14) (size 15 to 20)
#    0.000    2.875    0.000    2.250    5.250    0.750 
#    2.250    0.625    0.000    4.125    0.000    0.000 
#    0.000    7.000    0.000    0.000    0.000    0.000 
#
# Total GULP energy -178424.214111 kJ/mol
# GULP energy per Si atom -5575.756691 kJ/mol
# Density = 2.331011 g / cm^3
# Si number density = 23.363281 Si / 1000 Ang^3
#
#
#
# Elastic Constant Matrix: (Units=GPa)
#
#
# Indices 1 2 3 4 5 6 
#
# 1 81.7523 25.4444 33.2975 0.0000 -3.3778 0.0000
# 2 25.4444 186.0505 74.6333 0.0000 -27.8423 0.0000
# 3 33.2975 74.6333 125.0460 0.0000 -36.5515 0.0000
# 4 0.0000 0.0000 0.0000 0.0543 0.0000 13.5027
# 5 -3.3778 -27.8423 -36.5515 0.0000 46.1657 0.0000
# 6 0.0000 0.0000 0.0000 13.5027 0.0000 15.6306
#
#
#
# Elastic Compliance Matrix: (Units=1/GPa)
#
#
# Indices 1 2 3 4 5 6 
#
# 1 0.013999 -0.000663 -0.004098 0.000000 -0.002620 0.000000
# 2 -0.000663 0.007150 -0.003701 0.000000 0.001333 0.000000
# 3 -0.004098 -0.003701 0.013736 0.000000 0.008344 0.000000
# 4 0.000000 0.000000 0.000000 -0.086131 0.000000 0.074406
# 5 -0.002620 0.001333 0.008344 0.000000 0.028879 0.000000
# 6 0.000000 0.000000 0.000000 0.074406 0.000000 -0.000299
#
#
# Mechanical properties :
#
#
# Convention : Reuss Voigt Hill
#
# Bulk Modulus (GPa) = 55.67527 73.28879 64.48203
# Shear Modulus (GPa) = 20441.72475 29.66836 10235.69655
#
# Velocity S-wave (km/s) = 93.64029 3.56739 66.26172
# Velocity P-wave (km/s) = 108.23687 6.95742 76.69298
#
# Compressibility (1/GPa) = 0.01796129
#
# Stress axis : x y z
#
# Youngs Moduli (GPa) = 71.43270 139.86578 72.80063
#
# Poissons Ratio (x) = 0.09269 0.29834
# Poissons Ratio (y) = 0.04734 0.26944
# Poissons Ratio (z) = 0.29273 0.51766
#
# Static dielectric constant tensor:
#      x y z
#    x 1.897730 0.000000 0.047210 
#    y 0.000000 1.919830 0.000000 
#    z 0.047210 0.000000 1.884210 
# 
# From -- ./inp_files/56092.got.cif
#   From: 2010.05.17/outbox.cif.g08.bks.cpg/sg10_29_cif.got.tgz:56092.got - 2010.06.03 11:33:40.
