data_PCOD9142706
_publ_section_title
;
Structure prediction by ZEFSAII (Michael W. Deem and Ramdas Pophale) SiO2 
 PCOD9142706
Probable space group: P 2/M
;
_chemical_formula_sum "Si O2"
_cell_formula_units_Z 24
_cell_length_a 13.183628
_cell_length_b 13.977231
_cell_length_c 22.547470
_cell_angle_alpha 90.000000
_cell_angle_beta 18.572500
_cell_angle_gamma 90.000000
_cell_volume 1323.333494
_symmetry_space_group_name_H-M "P 2/M"
_symmetry_group_IT_number 10
_symmetry_cell_setting 'monoclinic'
loop_
_space_group_symop_operation_xyz
x,y,z
-x,y,-z
-x,-y,-z
x,-y,z
loop_
_atom_site_type_symbol
_atom_site_label
_atom_site_fract_x
_atom_site_fract_y
_atom_site_fract_z
Si Si1 0.380072 0.112718 0.785062
Si Si2 0.797558 0.608343 0.967839
Si Si3 0.720550 0.390564 0.196579
Si Si4 0.292155 0.756082 0.298336
Si Si5 0.172486 0.388893 0.644029
Si Si6 0.220492 0.752373 0.508098
O O1 0.545605 0.163151 0.750382
O O2 0.528137 0.162008 0.643708
O O3 0.446816 0.000000 0.748157
O O4 0.000000 0.126319 0.000000
O O5 0.677329 0.500000 0.041225
O O6 0.552276 0.680407 0.133157
O O7 0.126426 0.613262 0.822959
O O8 0.889097 0.623959 0.848848
O O9 0.666039 0.500000 0.209678
O O10 0.402462 0.331616 0.371063
O O11 0.000000 0.351609 0.000000
O O12 0.000000 0.717768 0.500000
O O13 0.105648 0.786025 0.341740
O O14 0.500000 0.384674 0.500000
O O15 0.153085 0.500000 0.630748
O O16 0.166798 0.302744 0.599752
#
# Coordination Sequence:
#
# PCOD9142706 Si02
#       6
#     4   4   4   4   4   4
#     4  10  22  41  65  88 109 140 186 241 301 360
#     4  10  20  34  52  78 118 162 200 235 272 327
#     4  10  18  29  49  77 109 149 193 234 278 328
#     4  10  22  36  55  87 118 148 186 236 297 349
#     4  10  20  35  56  83 117 164 208 235 268 322
#     4  11  20  33  56  83 114 150 188 236 285 338
#
# _framework density 18.136018
#
# number of rings (size 3 to 8) (size 9 to 14) (size 15 to 20)
#    0.000    1.833    1.667    4.000    0.000    5.333 
#    0.000    4.167    0.000    1.500    0.000    5.833 
#    0.000    0.000    0.000    0.000    0.000    0.000 
#
# Total GULP energy -133676.806455 kJ/mol
# GULP energy per Si atom -5569.866936 kJ/mol
# Density = 1.809474 g / cm^3
# Si number density = 18.136018 Si / 1000 Ang^3
#
#
#
# Elastic Constant Matrix: (Units=GPa)
#
#
# Indices 1 2 3 4 5 6 
#
# 1 88.1154 48.4813 34.9436 0.0000 10.4734 0.0000
# 2 48.4813 126.3031 53.9298 0.0000 12.4652 0.0000
# 3 34.9436 53.9298 73.0946 0.0000 4.1529 0.0000
# 4 0.0000 0.0000 0.0000 107.4542 0.0000 -10.4365
# 5 10.4734 12.4652 4.1529 0.0000 27.1109 0.0000
# 6 0.0000 0.0000 0.0000 -10.4365 0.0000 27.1035
#
#
#
# Elastic Compliance Matrix: (Units=1/GPa)
#
#
# Indices 1 2 3 4 5 6 
#
# 1 0.015612 -0.003701 -0.004526 0.000000 -0.003636 0.000000
# 2 -0.003701 0.012893 -0.007553 0.000000 -0.003341 0.000000
# 3 -0.004526 -0.007553 0.021306 0.000000 0.001958 0.000000
# 4 0.000000 0.000000 0.000000 0.009668 0.000000 0.003723
# 5 -0.003636 -0.003341 0.001958 0.000000 0.039527 0.000000
# 6 0.000000 0.000000 0.000000 0.003723 0.000000 0.038329
#
#
# Mechanical properties :
#
#
# Convention : Reuss Voigt Hill
#
# Bulk Modulus (GPa) = 54.79414 62.46918 58.63166
# Shear Modulus (GPa) = 28.57460 42.34428 35.45944
#
# Velocity S-wave (km/s) = 3.97365 4.83724 4.42655
# Velocity P-wave (km/s) = 7.16461 8.10667 7.65016
#
# Compressibility (1/GPa) = 0.01825013
#
# Stress axis : x y z
#
# Youngs Moduli (GPa) = 64.05190 77.56053 46.93416
#
# Poissons Ratio (x) = 0.28707 0.21243
# Poissons Ratio (y) = 0.23707 0.35451
# Poissons Ratio (z) = 0.28991 0.58585
#
# Static dielectric constant tensor:
#      x y z
#    x 1.707750 0.000000 -0.004040 
#    y 0.000000 1.620480 0.000000 
#    z -0.004040 0.000000 1.652320 
# 
# From -- ./inp_files/29265.got.cif
#   From: 2010.05.17/outbox.cif.g08.bks.cpg/sg10_15_cif.got.tgz:29265.got - 2010.06.03 11:33:40.
