data_PCOD9142510
_publ_section_title
;
Structure prediction by ZEFSAII (Michael W. Deem and Ramdas Pophale) SiO2 
 PCOD9142510
Probable space group: P 2/M
;
_chemical_formula_sum "Si O2"
_cell_formula_units_Z 32
_cell_length_a 14.982611
_cell_length_b 9.149962
_cell_length_c 14.355649
_cell_angle_alpha 90.000000
_cell_angle_beta 91.327720
_cell_angle_gamma 90.000000
_cell_volume 1967.492152
_symmetry_space_group_name_H-M "P 2/M"
_symmetry_group_IT_number 10
_symmetry_cell_setting 'monoclinic'
loop_
_space_group_symop_operation_xyz
x,y,z
-x,y,-z
-x,-y,-z
x,-y,z
loop_
_atom_site_type_symbol
_atom_site_label
_atom_site_fract_x
_atom_site_fract_y
_atom_site_fract_z
Si Si1 0.531689 0.670181 0.695752
Si Si2 0.801028 0.831725 0.676161
Si Si3 0.674980 0.175863 0.831389
Si Si4 0.896183 0.327068 0.518320
Si Si5 0.336119 0.329591 0.779168
Si Si6 0.377162 0.167993 0.457105
Si Si7 0.605623 0.323829 0.010961
Si Si8 0.751116 0.824802 0.385063
O O1 0.558073 0.500000 0.698044
O O2 0.593746 0.759632 0.768410
O O3 0.431487 0.681385 0.729746
O O4 0.550537 0.735577 0.594316
O O5 0.765794 0.785485 0.777142
O O6 0.868975 0.733863 0.619457
O O7 0.710459 0.829886 0.611872
O O8 0.832186 0.000000 0.680320
O O9 0.669616 0.000000 0.833171
O O10 0.661584 0.244469 0.932197
O O11 0.877916 0.500000 0.514069
O O12 0.834672 0.246411 0.440306
O O13 0.000000 0.301681 0.500000
O O14 0.309043 0.500000 0.776731
O O15 0.355907 0.287230 0.886258
O O16 0.266673 0.234777 0.718424
O O17 0.335959 0.215395 0.554252
O O18 0.406472 0.000000 0.463143
O O19 0.610113 0.500000 0.999146
O O20 0.500000 0.284640 0.000000
O O21 0.758827 0.000000 0.387522
#
# Coordination Sequence:
#
# PCOD9142510 Si02
#       8
#     4   4   4   4   4   4   4   4
#     4  10  18  29  45  65  90 127 169 207 247 288
#     4   8  16  30  47  71 102 131 160 196 241 292
#     4  10  19  30  46  70  98 128 167 213 251 286
#     4  10  20  34  55  82 106 127 156 194 237 293
#     4  10  21  34  47  65  94 129 168 212 249 287
#     4   8  16  30  44  63  92 125 162 202 239 280
#     4  10  19  34  50  67  94 130 174 217 255 293
#     4  10  21  35  50  69  97 130 162 198 242 295
#
# _framework density 16.264361000000001
#
# number of rings (size 3 to 8) (size 9 to 14) (size 15 to 20)
#    0.000    2.500    1.250    3.000    0.000    8.750 
#    0.000    2.500    0.000    0.000    0.000    0.875 
#    0.000    7.000    0.000    0.000    0.000    0.000 
#
# Total GULP energy -178391.478285 kJ/mol
# GULP energy per Si atom -5574.733696 kJ/mol
# Density = 1.622734 g / cm^3
# Si number density = 16.264361 Si / 1000 Ang^3
#
#
#
# Elastic Constant Matrix: (Units=GPa)
#
#
# Indices 1 2 3 4 5 6 
#
# 1 61.7572 48.3043 49.1744 0.0000 -11.0093 0.0000
# 2 48.3043 60.7150 62.4571 0.0000 -5.8317 0.0000
# 3 49.1744 62.4571 139.4959 0.0000 -8.1282 0.0000
# 4 0.0000 0.0000 0.0000 43.4632 0.0000 9.5015
# 5 -11.0093 -5.8317 -8.1282 0.0000 18.0408 0.0000
# 6 0.0000 0.0000 0.0000 9.5015 0.0000 33.9770
#
#
#
# Elastic Compliance Matrix: (Units=1/GPa)
#
#
# Indices 1 2 3 4 5 6 
#
# 1 0.047657 -0.037082 0.000821 0.000000 0.017465 0.000000
# 2 -0.037082 0.059645 -0.014201 0.000000 -0.009747 0.000000
# 3 0.000821 -0.014201 0.013350 0.000000 0.001925 0.000000
# 4 0.000000 0.000000 0.000000 0.024506 0.000000 -0.006853
# 5 0.017465 -0.009747 0.001925 0.000000 0.063805 0.000000
# 6 0.000000 0.000000 0.000000 -0.006853 0.000000 0.031348
#
#
# Mechanical properties :
#
#
# Convention : Reuss Voigt Hill
#
# Bulk Modulus (GPa) = 50.69242 64.64886 57.67064
# Shear Modulus (GPa) = 14.37567 25.89837 20.13702
#
# Velocity S-wave (km/s) = 2.97623 3.99474 3.52249
# Velocity P-wave (km/s) = 6.56095 7.81744 7.21659
#
# Compressibility (1/GPa) = 0.01972681
#
# Stress axis : x y z
#
# Youngs Moduli (GPa) = 20.98344 16.76592 74.90801
#
# Poissons Ratio (x) = 0.62172 -0.06150
# Poissons Ratio (y) = 0.77811 1.06377
# Poissons Ratio (z) = -0.01723 0.23809
#
# Static dielectric constant tensor:
#      x y z
#    x 1.532050 0.000000 -0.006320 
#    y 0.000000 1.547120 0.000000 
#    z -0.006320 0.000000 1.578030 
# 
# From -- ./inp_files/66162.got.cif
#   From: 2010.05.17/outbox.cif.g08.bks.cpg/sg10_34_cif.got.tgz:66162.got - 2010.06.03 11:33:40.
