data_PCOD9142335
_publ_section_title
;
Structure prediction by ZEFSAII (Michael W. Deem and Ramdas Pophale) SiO2 
 PCOD9142335
Probable space group: P 2/M
;
_chemical_formula_sum "Si O2"
_cell_formula_units_Z 32
_cell_length_a 12.212808
_cell_length_b 8.372131
_cell_length_c 20.287423
_cell_angle_alpha 90.000000
_cell_angle_beta 120.375711
_cell_angle_gamma 90.000000
_cell_volume 1789.585196
_symmetry_space_group_name_H-M "P 2/M"
_symmetry_group_IT_number 10
_symmetry_cell_setting 'monoclinic'
loop_
_space_group_symop_operation_xyz
x,y,z
-x,y,-z
-x,-y,-z
x,-y,z
loop_
_atom_site_type_symbol
_atom_site_label
_atom_site_fract_x
_atom_site_fract_y
_atom_site_fract_z
Si Si1 0.851141 0.693144 0.589336
Si Si2 0.418799 0.695022 0.539530
Si Si3 0.600960 0.810110 0.231081
Si Si4 0.128308 0.687862 0.673811
Si Si5 0.885025 0.192736 0.181085
Si Si6 0.421086 0.309545 0.286198
Si Si7 0.390384 0.805679 0.918374
Si Si8 0.837024 0.190403 0.735957
O O1 0.854491 0.500000 0.588350
O O2 0.727034 0.747811 0.512005
O O3 0.830659 0.741541 0.659492
O O4 0.990425 0.749344 0.607550
O O5 0.500000 0.742760 0.500000
O O6 0.417721 0.500000 0.539873
O O7 0.490909 0.750641 0.626592
O O8 0.736749 0.762010 0.304164
O O9 0.485692 0.746025 0.238867
O O10 0.594888 0.752527 0.153199
O O11 0.596271 0.000000 0.227789
O O12 0.135713 0.500000 0.662268
O O13 0.119914 0.721390 0.749688
O O14 0.754253 0.234506 0.104914
O O15 0.022611 0.231148 0.193717
O O16 0.881969 0.000000 0.192214
O O17 0.422040 0.500000 0.288858
O O18 0.278910 0.252621 0.256480
O O19 0.398267 0.000000 0.920472
O O20 0.500000 0.745650 0.000000
O O21 0.828112 0.000000 0.728459
#
# Coordination Sequence:
#
# PCOD9142335 Si02
#       8
#     4   4   4   4   4   4   4   4
#     4   9  16  29  48  69  91 120 161 206 242 274
#     4   9  16  29  48  68  91 120 161 207 242 271
#     4  10  20  34  50  70  99 126 153 192 238 286
#     4   9  16  27  47  70  92 121 159 196 233 281
#     4   8  15  27  45  71 100 125 151 191 235 274
#     4  11  21  33  50  68  92 128 166 200 236 281
#     4   8  14  28  53  79  97 118 151 190 231 275
#     4  10  18  28  44  69  99 127 157 194 240 283
#
# _framework density 17.881238
#
# number of rings (size 3 to 8) (size 9 to 14) (size 15 to 20)
#    0.000    2.750    1.250    2.250    0.000    1.000 
#    0.000    2.500    0.000   13.875    0.000    5.250 
#    0.000    0.000    0.000    0.000    0.000    0.000 
#
# Total GULP energy -178209.313036 kJ/mol
# GULP energy per Si atom -5569.041032 kJ/mol
# Density = 1.784054 g / cm^3
# Si number density = 17.881238 Si / 1000 Ang^3
#
#
#
# Elastic Constant Matrix: (Units=GPa)
#
#
# Indices 1 2 3 4 5 6 
#
# 1 131.2090 15.1630 54.6920 0.0000 27.4079 0.0000
# 2 15.1630 9.8926 9.7270 0.0000 8.7844 0.0000
# 3 54.6920 9.7270 80.2012 0.0000 28.4154 0.0000
# 4 0.0000 0.0000 0.0000 11.1248 0.0000 1.7940
# 5 27.4079 8.7844 28.4154 0.0000 25.7701 0.0000
# 6 0.0000 0.0000 0.0000 1.7940 0.0000 30.2348
#
#
#
# Elastic Compliance Matrix: (Units=1/GPa)
#
#
# Indices 1 2 3 4 5 6 
#
# 1 0.011774 -0.009900 -0.005888 0.000000 -0.002656 0.000000
# 2 -0.009900 0.153288 0.004829 0.000000 -0.047047 0.000000
# 3 -0.005888 0.004829 0.023407 0.000000 -0.021194 0.000000
# 4 0.000000 0.000000 0.000000 0.090758 0.000000 -0.005385
# 5 -0.002656 -0.047047 -0.021194 0.000000 0.081036 0.000000
# 6 0.000000 0.000000 0.000000 -0.005385 0.000000 0.033394
#
#
# Mechanical properties :
#
#
# Convention : Reuss Voigt Hill
#
# Bulk Modulus (GPa) = 6.00412 42.27408 24.13910
# Shear Modulus (GPa) = 10.61363 22.87400 16.74382
#
# Velocity S-wave (km/s) = 2.43896 3.58050 3.06337
# Velocity P-wave (km/s) = 3.36101 6.38641 5.10307
#
# Compressibility (1/GPa) = 0.16655234
#
# Stress axis : x y z
#
# Youngs Moduli (GPa) = 84.92944 6.52367 42.72233
#
# Poissons Ratio (x) = 0.06458 0.25153
# Poissons Ratio (y) = 0.84077 -0.20630
# Poissons Ratio (z) = 0.50004 -0.03150
#
# Static dielectric constant tensor:
#      x y z
#    x 1.639760 0.000000 0.037470 
#    y 0.000000 1.624130 0.000000 
#    z 0.037470 0.000000 1.617980 
# 
# From -- ./inp_files/52736.got.cif
#   From: 2010.05.17/outbox.cif.g08.bks.cpg/sg10_27_cif.got.tgz:52736.got - 2010.06.03 11:33:40.
