data_PCOD9142448
_publ_section_title
;
Structure prediction by ZEFSAII (Michael W. Deem and Ramdas Pophale) SiO2 
 PCOD9142448
Probable space group: P 2/M
;
_chemical_formula_sum "Si O2"
_cell_formula_units_Z 28
_cell_length_a 8.508143
_cell_length_b 18.460119
_cell_length_c 15.137964
_cell_angle_alpha 90.000000
_cell_angle_beta 139.018952
_cell_angle_gamma 90.000000
_cell_volume 1559.244971
_symmetry_space_group_name_H-M "P 2/M"
_symmetry_group_IT_number 10
_symmetry_cell_setting 'monoclinic'
loop_
_space_group_symop_operation_xyz
x,y,z
-x,y,-z
-x,-y,-z
x,-y,z
loop_
_atom_site_type_symbol
_atom_site_label
_atom_site_fract_x
_atom_site_fract_y
_atom_site_fract_z
Si Si1 0.377421 0.581581 0.353064
Si Si2 0.621723 0.782165 0.800131
Si Si3 0.552594 0.414852 0.917518
Si Si4 0.736840 0.821807 0.051498
Si Si5 0.979264 0.313825 0.130921
Si Si6 0.276416 0.653264 0.644221
Si Si7 0.863300 0.082141 0.846652
O O1 0.500000 0.582453 0.500000
O O2 0.303100 0.500000 0.299243
O O3 0.564567 0.609716 0.359801
O O4 0.148281 0.632921 0.256431
O O5 0.668352 0.799389 0.922316
O O6 0.383789 0.734830 0.689081
O O7 0.649038 0.859805 0.763821
O O8 0.839092 0.733507 0.852505
O O9 0.591389 0.500000 0.914211
O O10 0.342861 0.383042 0.766637
O O11 0.500000 0.408750 0.000000
O O12 0.785523 0.364481 0.999621
O O13 0.500000 0.845543 0.000000
O O14 0.842016 0.745861 0.131647
O O15 0.939900 0.882805 0.134655
O O16 0.000000 0.650315 0.500000
O O17 0.796070 0.000000 0.796935
O O18 0.000000 0.081398 0.000000
#
# Coordination Sequence:
#
# PCOD9142448 Si02
#       7
#     4   4   4   4   4   4   4
#     4  10  23  38  54  76 104 143 188 239 288 332
#     4   9  19  34  53  77 106 141 183 222 267 331
#     4  11  24  37  56  84 110 146 188 238 295 338
#     4  10  18  28  50  79 110 141 175 224 273 320
#     4  10  19  35  55  74 102 141 187 228 273 325
#     4  11  24  39  57  78 110 148 186 234 287 340
#     4   8  15  29  50  77 110 144 175 216 266 321
#
# _framework density 17.957411
#
# number of rings (size 3 to 8) (size 9 to 14) (size 15 to 20)
#    0.000    2.143    1.429    2.571    4.000    1.429 
#    0.000    2.143    0.000    0.429    0.000    0.000 
#    0.000   47.429    0.000    0.000    0.000    0.000 
#
# Total GULP energy -156155.560331 kJ/mol
# GULP energy per Si atom -5576.984298 kJ/mol
# Density = 1.791654 g / cm^3
# Si number density = 17.957411 Si / 1000 Ang^3
#
#
#
# Elastic Constant Matrix: (Units=GPa)
#
#
# Indices 1 2 3 4 5 6 
#
# 1 50.9317 32.6997 15.3193 0.0000 -1.3728 0.0000
# 2 32.6997 161.5459 36.4843 0.0000 7.8370 0.0000
# 3 15.3193 36.4843 76.7494 0.0000 8.4750 0.0000
# 4 0.0000 0.0000 0.0000 15.6755 0.0000 3.8116
# 5 -1.3728 7.8370 8.4750 0.0000 20.5172 0.0000
# 6 0.0000 0.0000 0.0000 3.8116 0.0000 13.5979
#
#
#
# Elastic Compliance Matrix: (Units=1/GPa)
#
#
# Indices 1 2 3 4 5 6 
#
# 1 0.023432 -0.004249 -0.003153 0.000000 0.004493 0.000000
# 2 -0.004249 0.007741 -0.002592 0.000000 -0.002170 0.000000
# 3 -0.003153 -0.002592 0.015513 0.000000 -0.005629 0.000000
# 4 0.000000 0.000000 0.000000 0.068460 0.000000 -0.019190
# 5 0.004493 -0.002170 -0.005629 0.000000 0.052194 0.000000
# 6 0.000000 0.000000 0.000000 -0.019190 0.000000 0.078920
#
#
# Mechanical properties :
#
#
# Convention : Reuss Voigt Hill
#
# Bulk Modulus (GPa) = 37.45798 50.91485 44.18641
# Shear Modulus (GPa) = 18.17215 23.60637 20.88926
#
# Velocity S-wave (km/s) = 3.18458 3.62964 3.41437
# Velocity P-wave (km/s) = 5.86743 6.78088 6.34063
#
# Compressibility (1/GPa) = 0.02669658
#
# Stress axis : x y z
#
# Youngs Moduli (GPa) = 42.67739 129.18379 64.46383
#
# Poissons Ratio (x) = 0.54887 0.20328
# Poissons Ratio (y) = 0.18133 0.16709
# Poissons Ratio (z) = 0.13458 0.33485
#
# Static dielectric constant tensor:
#      x y z
#    x 1.644300 0.000000 -0.012430 
#    y 0.000000 1.640170 0.000000 
#    z -0.012430 0.000000 1.601070 
# 
# From -- ./inp_files/62360.got.cif
#   From: 2010.05.17/outbox.cif.g08.bks.cpg/sg10_32_cif.got.tgz:62360.got - 2010.06.03 11:33:40.
