data_PCOD9142688
_publ_section_title
;
Structure prediction by ZEFSAII (Michael W. Deem and Ramdas Pophale) SiO2 
 PCOD9142688
Probable space group: P 2/M
;
_chemical_formula_sum "Si O2"
_cell_formula_units_Z 28
_cell_length_a 13.176065
_cell_length_b 8.145786
_cell_length_c 19.761216
_cell_angle_alpha 90.000000
_cell_angle_beta 48.805040
_cell_angle_gamma 90.000000
_cell_volume 1595.964488
_symmetry_space_group_name_H-M "P 2/M"
_symmetry_group_IT_number 10
_symmetry_cell_setting 'monoclinic'
loop_
_space_group_symop_operation_xyz
x,y,z
-x,y,-z
-x,-y,-z
x,-y,z
loop_
_atom_site_type_symbol
_atom_site_label
_atom_site_fract_x
_atom_site_fract_y
_atom_site_fract_z
Si Si1 0.090015 0.198271 0.897305
Si Si2 0.530628 0.799388 0.094968
Si Si3 0.287412 0.802741 0.109495
Si Si4 0.466351 0.807194 0.408688
Si Si5 0.602073 0.798821 0.214310
Si Si6 0.292791 0.306038 0.602690
Si Si7 0.009879 0.695500 0.783240
O O1 0.244909 0.254134 0.836701
O O2 0.029240 0.248983 0.852206
O O3 0.091051 0.000000 0.898965
O O4 0.000000 0.256210 0.000000
O O5 0.388370 0.747134 0.124657
O O6 0.558683 0.744451 0.158716
O O7 0.531889 0.000000 0.095533
O O8 0.646247 0.747619 0.990935
O O9 0.133068 0.753133 0.182172
O O10 0.293299 0.000000 0.106431
O O11 0.502511 0.745279 0.318033
O O12 0.602274 0.782665 0.393341
O O13 0.347875 0.722589 0.503037
O O14 0.436098 0.000000 0.418707
O O15 0.602356 0.000000 0.214995
O O16 0.301333 0.500000 0.613823
O O17 0.141706 0.247011 0.683917
O O18 0.010497 0.500000 0.781423
#
# Coordination Sequence:
#
# PCOD9142688 Si02
#       7
#     4   4   4   4   4   4   4
#     4  10  19  31  49  72  99 131 161 192 237 292
#     4   8  15  30  51  76  99 124 160 202 245 285
#     4   9  17  31  54  75  95 127 168 204 234 283
#     4  10  18  29  49  73  95 122 158 205 246 286
#     4   9  16  27  46  74 102 122 151 199 248 289
#     4  10  20  33  47  65  95 132 163 197 239 291
#     4  11  22  33  47  69 101 134 162 199 243 286
#
# _framework density 17.544250000000002
#
# number of rings (size 3 to 8) (size 9 to 14) (size 15 to 20)
#    0.000    2.429    1.429    3.857    0.000    4.286 
#    0.000    1.429    0.000    4.286    0.000    6.000 
#    0.000    0.000    0.000    0.000    0.000    0.000 
#
# Total GULP energy -156166.223731 kJ/mol
# GULP energy per Si atom -5577.365133 kJ/mol
# Density = 1.750432 g / cm^3
# Si number density = 17.544250 Si / 1000 Ang^3
#
#
#
# Elastic Constant Matrix: (Units=GPa)
#
#
# Indices 1 2 3 4 5 6 
#
# 1 63.4973 -1.7565 32.1293 0.0000 -12.5394 0.0000
# 2 -1.7565 7.0118 -0.6552 0.0000 -2.0310 0.0000
# 3 32.1293 -0.6552 96.4933 0.0000 -17.6784 0.0000
# 4 0.0000 0.0000 0.0000 8.1260 0.0000 -6.6440
# 5 -12.5394 -2.0310 -17.6784 0.0000 27.6833 0.0000
# 6 0.0000 0.0000 0.0000 -6.6440 0.0000 -8.3670
#
#
#
# Elastic Compliance Matrix: (Units=1/GPa)
#
#
# Indices 1 2 3 4 5 6 
#
# 1 0.019870 0.006189 -0.005484 0.000000 0.005953 0.000000
# 2 0.006189 0.148598 0.001652 0.000000 0.014761 0.000000
# 3 -0.005484 0.001652 0.013327 0.000000 0.006148 0.000000
# 4 0.000000 0.000000 0.000000 0.074616 0.000000 -0.059251
# 5 0.005953 0.014761 0.006148 0.000000 0.043828 0.000000
# 6 0.000000 0.000000 0.000000 -0.059251 0.000000 -0.072467
#
#
# Mechanical properties :
#
#
# Convention : Reuss Voigt Hill
#
# Bulk Modulus (GPa) = 5.36162 25.15975 15.26068
# Shear Modulus (GPa) = 17.52997 14.64077 16.08537
#
# Velocity S-wave (km/s) = 3.16442 2.89191 3.03123
# Velocity P-wave (km/s) = 4.05143 5.05201 4.57913
#
# Compressibility (1/GPa) = 0.18651086
#
# Stress axis : x y z
#
# Youngs Moduli (GPa) = 50.32699 6.72958 75.03676
#
# Poissons Ratio (x) = -0.04165 0.41146
# Poissons Ratio (y) = -0.31149 -0.12398
# Poissons Ratio (z) = 0.27597 -0.01112
#
# Static dielectric constant tensor:
#      x y z
#    x 1.577580 0.000000 -0.002740 
#    y 0.000000 1.616170 0.000000 
#    z -0.002740 0.000000 1.615750 
# 
# From -- ./inp_files/83313.got.cif
#   From: 2010.05.17/outbox.cif.g08.bks.cpg/sg10_42_cif.got.tgz:83313.got - 2010.06.03 11:33:40.
