data_PCOD9142918
_publ_section_title
;
Structure prediction by ZEFSAII (Michael W. Deem and Ramdas Pophale) SiO2 
 PCOD9142918
Probable space group: P 2/M
;
_chemical_formula_sum "Si O2"
_cell_formula_units_Z 32
_cell_length_a 21.834014
_cell_length_b 8.795801
_cell_length_c 31.482374
_cell_angle_alpha 90.000000
_cell_angle_beta 19.491963
_cell_angle_gamma 90.000000
_cell_volume 2017.435416
_symmetry_space_group_name_H-M "P 2/M"
_symmetry_group_IT_number 10
_symmetry_cell_setting 'monoclinic'
loop_
_space_group_symop_operation_xyz
x,y,z
-x,y,-z
-x,-y,-z
x,-y,z
loop_
_atom_site_type_symbol
_atom_site_label
_atom_site_fract_x
_atom_site_fract_y
_atom_site_fract_z
Si Si1 0.386686 0.824377 0.618544
Si Si2 0.951517 0.815527 0.464567
Si Si3 0.334230 0.680967 0.982368
Si Si4 0.714325 0.679986 0.448339
Si Si5 0.701810 0.184105 0.705689
Si Si6 0.943816 0.183127 0.219864
Si Si7 0.664953 0.182819 0.924128
Si Si8 0.061071 0.183426 0.624261
O O1 0.500000 0.821574 0.500000
O O2 0.506639 0.727887 0.572652
O O3 0.184499 0.773074 0.736331
O O4 0.380658 0.000000 0.636565
O O5 0.790871 0.771482 0.602255
O O6 0.930506 0.764405 0.430047
O O7 0.145736 0.772014 0.358657
O O8 0.952408 0.000000 0.463414
O O9 0.323544 0.500000 0.988382
O O10 0.509945 0.740546 0.841924
O O11 0.351879 0.737520 0.019510
O O12 0.147294 0.752073 0.086184
O O13 0.734460 0.500000 0.432850
O O14 0.843861 0.755504 0.327594
O O15 0.785518 0.742437 0.446474
O O16 0.683757 0.000000 0.718503
O O17 0.945730 0.000000 0.220838
O O18 0.860860 0.219033 0.774763
O O19 0.657608 0.000000 0.935688
O O20 0.500000 0.222976 0.000000
O O21 0.080545 0.000000 0.612758
#
# Coordination Sequence:
#
# PCOD9142918 Si02
#       8
#     4   4   4   4   4   4   4   4
#     4   8  16  30  48  67  90 124 164 200 238 283
#     4   8  16  32  56  78  91 119 169 218 249 282
#     4  12  23  32  46  72 104 133 162 198 247 298
#     4  11  20  29  44  70 102 132 160 194 241 295
#     4   9  17  34  56  74  94 122 167 215 252 288
#     4  10  19  33  50  68  93 129 168 204 239 283
#     4  10  20  33  50  69  93 131 170 200 239 290
#     4  10  18  30  49  71  98 129 164 203 244 288
#
# _framework density 15.861720999999999
#
# number of rings (size 3 to 8) (size 9 to 14) (size 15 to 20)
#    0.000    2.250    1.250    4.875    0.000    5.000 
#    0.000    3.750    0.000    0.000    0.000    0.875 
#    0.000    7.000    0.000    0.000    0.000    0.000 
#
# Total GULP energy -178488.633262 kJ/mol
# GULP energy per Si atom -5577.769789 kJ/mol
# Density = 1.582562 g / cm^3
# Si number density = 15.861721 Si / 1000 Ang^3
#
#
#
# Elastic Constant Matrix: (Units=GPa)
#
#
# Indices 1 2 3 4 5 6 
#
# 1 92.9292 37.0459 65.5576 0.0000 -19.8643 0.0000
# 2 37.0459 48.8803 40.0700 0.0000 -9.1536 0.0000
# 3 65.5576 40.0700 111.4454 0.0000 -19.3530 0.0000
# 4 0.0000 0.0000 0.0000 6.5886 0.0000 -0.0496
# 5 -19.8643 -9.1536 -19.3530 0.0000 23.8044 0.0000
# 6 0.0000 0.0000 0.0000 -0.0496 0.0000 -8.4971
#
#
#
# Elastic Compliance Matrix: (Units=1/GPa)
#
#
# Indices 1 2 3 4 5 6 
#
# 1 0.021628 -0.007937 -0.008459 0.000000 0.008119 0.000000
# 2 -0.007937 0.032120 -0.006853 0.000000 0.000157 0.000000
# 3 -0.008459 -0.006853 0.017151 0.000000 0.004250 0.000000
# 4 0.000000 0.000000 0.000000 0.151771 0.000000 -0.000886
# 5 0.008119 0.000157 0.004250 0.000000 0.052299 0.000000
# 6 0.000000 0.000000 0.000000 -0.000886 0.000000 -0.117682
#
#
# Mechanical properties :
#
#
# Convention : Reuss Voigt Hill
#
# Bulk Modulus (GPa) = 40.98037 59.84467 50.41252
# Shear Modulus (GPa) = 23.59397 11.75128 17.67263
#
# Velocity S-wave (km/s) = 3.86097 2.72482 3.34154
# Velocity P-wave (km/s) = 6.76522 6.90727 6.83662
#
# Compressibility (1/GPa) = 0.02440193
#
# Stress axis : x y z
#
# Youngs Moduli (GPa) = 46.23693 31.13295 58.30617
#
# Poissons Ratio (x) = 0.24709 0.49321
# Poissons Ratio (y) = 0.36697 0.39956
# Poissons Ratio (z) = 0.39112 0.21335
#
# Static dielectric constant tensor:
#      x y z
#    x 1.529850 0.000000 -0.016890 
#    y 0.000000 1.524240 0.000000 
#    z -0.016890 0.000000 1.520840 
# 
# From -- ./inp_files/95649.got.cif
#   From: 2010.05.17/outbox.cif.g08.bks.cpg/sg10_48_cif.got.tgz:95649.got - 2010.06.03 11:33:40.
