data_PCOD9142733
_publ_section_title
;
Structure prediction by ZEFSAII (Michael W. Deem and Ramdas Pophale) SiO2 
 PCOD9142733
Probable space group: P 2/M
;
_chemical_formula_sum "Si O2"
_cell_formula_units_Z 32
_cell_length_a 14.603873
_cell_length_b 7.431426
_cell_length_c 14.582540
_cell_angle_alpha 90.000000
_cell_angle_beta 118.833606
_cell_angle_gamma 90.000000
_cell_volume 1386.402612
_symmetry_space_group_name_H-M "P 2/M"
_symmetry_group_IT_number 10
_symmetry_cell_setting 'monoclinic'
loop_
_space_group_symop_operation_xyz
x,y,z
-x,y,-z
-x,-y,-z
x,-y,z
loop_
_atom_site_type_symbol
_atom_site_label
_atom_site_fract_x
_atom_site_fract_y
_atom_site_fract_z
Si Si1 0.103058 0.789392 0.097093
Si Si2 0.322222 0.280550 0.676040
Si Si3 0.290430 0.716137 0.049389
Si Si4 0.454939 0.716507 0.273422
Si Si5 0.163929 0.784083 0.327373
Si Si6 0.900468 0.715035 0.507962
Si Si7 0.612357 0.795777 0.569025
Si Si8 0.383600 0.719883 0.911152
O O1 0.197163 0.777861 0.069744
O O2 0.129524 0.714760 0.211047
O O3 0.081503 0.000000 0.103410
O O4 0.000000 0.710170 0.000000
O O5 0.321194 0.500000 0.674772
O O6 0.424331 0.226983 0.666529
O O7 0.211203 0.216432 0.584086
O O8 0.347890 0.224071 0.792721
O O9 0.283056 0.500000 0.044695
O O10 0.399702 0.762959 0.151594
O O11 0.301267 0.776506 0.949928
O O12 0.450819 0.500000 0.280268
O O13 0.385061 0.798954 0.319396
O O14 0.091543 0.749108 0.379464
O O15 0.279430 0.710768 0.409028
O O16 0.177113 0.000000 0.325842
O O17 0.897917 0.500000 0.494090
O O18 0.000000 0.784650 0.500000
O O19 0.500000 0.705340 0.500000
O O20 0.605597 0.000000 0.530538
O O21 0.386211 0.500000 0.910544
O O22 0.500000 0.775272 0.000000
#
# Coordination Sequence:
#
# PCOD9142733 Si02
#       8
#     4   4   4   4   4   4   4   4
#     4  10  22  40  59  78 106 146 183 215 263 325
#     4   9  17  31  51  77 111 146 179 218 266 321
#     4  10  19  31  53  84 109 136 178 224 267 312
#     4  10  18  29  50  79 108 138 175 217 266 320
#     4  10  21  38  58  79 104 140 181 218 263 318
#     4  10  22  38  56  80 109 142 180 223 269 312
#     4  10  20  33  51  77 107 140 178 218 265 319
#     4   9  15  27  49  77 109 142 176 217 266 321
#
# _framework density 23.081320000000002
#
# number of rings (size 3 to 8) (size 9 to 14) (size 15 to 20)
#    0.000    2.250    2.500    0.750    0.000    2.750 
#    0.000    1.250    0.000    1.875    0.000    0.000 
#    0.000    0.000    0.000    0.000    0.000    0.000 
#
# Total GULP energy -178707.311554 kJ/mol
# GULP energy per Si atom -5584.603486 kJ/mol
# Density = 2.302879 g / cm^3
# Si number density = 23.081320 Si / 1000 Ang^3
#
#
#
# Elastic Constant Matrix: (Units=GPa)
#
#
# Indices 1 2 3 4 5 6 
#
# 1 158.6582 1.8516 65.4072 0.0000 -7.1382 0.0000
# 2 1.8516 73.9429 5.4739 0.0000 5.5694 0.0000
# 3 65.4072 5.4739 107.6827 0.0000 -10.5445 0.0000
# 4 0.0000 0.0000 0.0000 7.9427 0.0000 -16.0127
# 5 -7.1382 5.5694 -10.5445 0.0000 43.2945 0.0000
# 6 0.0000 0.0000 0.0000 -16.0127 0.0000 -13.6051
#
#
#
# Elastic Compliance Matrix: (Units=1/GPa)
#
#
# Indices 1 2 3 4 5 6 
#
# 1 0.008411 0.000158 -0.005105 0.000000 0.000123 0.000000
# 2 0.000158 0.013743 -0.000989 0.000000 -0.001983 0.000000
# 3 -0.005105 -0.000989 0.012670 0.000000 0.002371 0.000000
# 4 0.000000 0.000000 0.000000 0.037329 0.000000 -0.043934
# 5 0.000123 -0.001983 0.002371 0.000000 0.023950 0.000000
# 6 0.000000 0.000000 0.000000 -0.043934 0.000000 -0.021793
#
#
# Mechanical properties :
#
#
# Convention : Reuss Voigt Hill
#
# Bulk Modulus (GPa) = 43.56893 53.97215 48.77054
# Shear Modulus (GPa) = 53.28687 25.36315 39.32501
#
# Velocity S-wave (km/s) = 4.81006 3.31850 4.13214
# Velocity P-wave (km/s) = 7.05452 6.17394 6.62887
#
# Compressibility (1/GPa) = 0.02295214
#
# Stress axis : x y z
#
# Youngs Moduli (GPa) = 118.89090 72.76684 78.92804
#
# Poissons Ratio (x) = -0.01150 0.40292
# Poissons Ratio (y) = -0.01879 0.07804
# Poissons Ratio (z) = 0.60693 0.07194
#
# Static dielectric constant tensor:
#      x y z
#    x 1.847870 0.000000 0.003690 
#    y 0.000000 1.864200 0.000000 
#    z 0.003690 0.000000 1.901800 
# 
# From -- ./inp_files/47044.got.cif
#   From: 2010.05.17/outbox.cif.g08.bks.cpg/sg10_24_cif.got.tgz:47044.got - 2010.06.03 11:33:40.
