data_PCOD9142101
_publ_section_title
;
Structure prediction by ZEFSAII (Michael W. Deem and Ramdas Pophale) SiO2 
 PCOD9142101
Probable space group: P 2/M
;
_chemical_formula_sum "Si O2"
_cell_formula_units_Z 26
_cell_length_a 9.367700
_cell_length_b 11.007448
_cell_length_c 20.472354
_cell_angle_alpha 90.000000
_cell_angle_beta 36.936667
_cell_angle_gamma 90.000000
_cell_volume 1268.564738
_symmetry_space_group_name_H-M "P 2/M"
_symmetry_group_IT_number 10
_symmetry_cell_setting 'monoclinic'
loop_
_space_group_symop_operation_xyz
x,y,z
-x,y,-z
-x,-y,-z
x,-y,z
loop_
_atom_site_type_symbol
_atom_site_label
_atom_site_fract_x
_atom_site_fract_y
_atom_site_fract_z
Si Si1 0.341434 0.255894 0.620102
Si Si2 0.589087 0.000000 0.819887
Si Si3 0.080857 0.270270 0.065812
Si Si4 0.131344 0.000000 0.067273
Si Si5 0.831557 0.358582 0.826671
Si Si6 0.077074 0.000000 0.712601
Si Si7 0.519823 0.730369 0.820248
Si Si8 0.438831 0.638116 0.715394
O O1 0.500000 0.284989 0.500000
O O2 0.476294 0.274979 0.639581
O O3 0.110735 0.341794 0.709782
O O4 0.236760 0.120239 0.651418
O O5 0.526702 0.124949 0.806984
O O6 0.865814 0.000000 0.737221
O O7 0.411407 0.000000 0.947655
O O8 0.031627 0.126595 0.075898
O O9 0.208953 0.290945 0.089372
O O10 0.836482 0.341658 0.162642
O O11 0.261457 0.306777 0.943103
O O12 0.061545 0.000000 0.168070
O O13 0.770041 0.500000 0.856070
O O14 0.694104 0.300696 0.816198
O O15 0.578253 0.667181 0.730785
O O16 0.477253 0.500000 0.681076
#
# Coordination Sequence:
#
# PCOD9142101 Si02
#       8
#     4   2   4   2   4   2   4   4
#     4  11  24  42  66  88 113 151 207 262 308 347
#     4  10  21  35  61  94 125 160 189 234 307 354
#     4  10  20  35  58  88 124 164 201 235 289 357
#     4  10  17  32  60  91 122 154 192 240 291 348
#     4  11  22  36  58  86 118 161 206 246 291 351
#     4  12  18  39  67  92 120 149 198 257 294 357
#     4  11  22  37  59  90 127 160 194 240 299 365
#     4  11  24  40  59  87 124 165 200 243 299 354
#
# _framework density 20.495605000000001
#
# number of rings (size 3 to 8) (size 9 to 14) (size 15 to 20)
#    0.000    1.231    4.615    3.692    0.000    8.615 
#    0.000    3.077    0.000    2.769    0.000    0.000 
#    0.000    0.000    0.000    0.000    0.000    0.000 
#
# Total GULP energy -145248.960681 kJ/mol
# GULP energy per Si atom -5586.498488 kJ/mol
# Density = 2.044896 g / cm^3
# Si number density = 20.495605 Si / 1000 Ang^3
#
#
#
# Elastic Constant Matrix: (Units=GPa)
#
#
# Indices 1 2 3 4 5 6 
#
# 1 86.6402 3.0337 20.1493 0.0000 21.3942 0.0000
# 2 3.0337 87.8881 8.0100 0.0000 0.7251 0.0000
# 3 20.1493 8.0100 72.6876 0.0000 25.8908 0.0000
# 4 0.0000 0.0000 0.0000 7.1912 0.0000 11.3874
# 5 21.3942 0.7251 25.8908 0.0000 21.6349 0.0000
# 6 0.0000 0.0000 0.0000 11.3874 0.0000 25.5021
#
#
#
# Elastic Compliance Matrix: (Units=1/GPa)
#
#
# Indices 1 2 3 4 5 6 
#
# 1 0.015468 -0.000580 0.002122 0.000000 -0.017816 0.000000
# 2 -0.000580 0.011564 -0.002056 0.000000 0.002647 0.000000
# 3 0.002122 -0.002056 0.024608 0.000000 -0.031479 0.000000
# 4 0.000000 0.000000 0.000000 0.474741 0.000000 -0.211984
# 5 -0.017816 0.002647 -0.031479 0.000000 0.101422 0.000000
# 6 0.000000 0.000000 0.000000 -0.211984 0.000000 0.133869
#
#
# Mechanical properties :
#
#
# Convention : Reuss Voigt Hill
#
# Bulk Modulus (GPa) = 19.75849 34.40022 27.07936
# Shear Modulus (GPa) = 6.41378 25.26716 15.84047
#
# Velocity S-wave (km/s) = 1.77091 3.51495 2.78307
# Velocity P-wave (km/s) = 3.72059 5.77007 4.85472
#
# Compressibility (1/GPa) = 0.05061116
#
# Stress axis : x y z
#
# Youngs Moduli (GPa) = 64.64880 86.47745 40.63663
#
# Poissons Ratio (x) = 0.05019 -0.08624
# Poissons Ratio (y) = 0.03752 0.08356
# Poissons Ratio (z) = -0.13719 0.17782
#
# Static dielectric constant tensor:
#      x y z
#    x 1.798930 0.000000 -0.013420 
#    y 0.000000 1.737090 0.000000 
#    z -0.013420 0.000000 1.695730 
# 
# From -- ./inp_files/82592.got.cif
#   From: 2010.05.17/outbox.cif.g08.bks.cpg/sg10_42_cif.got.tgz:82592.got - 2010.06.03 11:33:40.
