data_PCOD9142292
_publ_section_title
;
Structure prediction by ZEFSAII (Michael W. Deem and Ramdas Pophale) SiO2 
 PCOD9142292
Probable space group: P 2/M
;
_chemical_formula_sum "Si O2"
_cell_formula_units_Z 20
_cell_length_a 5.396947
_cell_length_b 11.633618
_cell_length_c 14.429320
_cell_angle_alpha 90.000000
_cell_angle_beta 67.666099
_cell_angle_gamma 90.000000
_cell_volume 837.999048
_symmetry_space_group_name_H-M "P 2/M"
_symmetry_group_IT_number 10
_symmetry_cell_setting 'monoclinic'
loop_
_space_group_symop_operation_xyz
x,y,z
-x,y,-z
-x,-y,-z
x,-y,z
loop_
_atom_site_type_symbol
_atom_site_label
_atom_site_fract_x
_atom_site_fract_y
_atom_site_fract_z
Si Si1 0.819800 0.130206 0.932625
Si Si2 0.471152 0.312181 0.288788
Si Si3 0.706737 0.159761 0.541536
Si Si4 0.326440 0.632806 0.117573
Si Si5 0.144550 0.377266 0.602040
O O1 0.854018 0.249665 0.868775
O O2 0.880286 0.000000 0.884488
O O3 0.500000 0.127750 0.000000
O O4 0.000000 0.139817 0.000000
O O5 0.418378 0.185128 0.340002
O O6 0.525278 0.334116 0.174014
O O7 0.691009 0.363710 0.326172
O O8 0.170913 0.364800 0.336466
O O9 0.500000 0.107902 0.500000
O O10 0.764249 0.281762 0.482435
O O11 0.000000 0.109489 0.500000
O O12 0.218972 0.500000 0.145930
O O13 0.500000 0.626507 0.000000
O O14 0.202559 0.500000 0.552332
#
# Coordination Sequence:
#
# PCOD9142292 Si02
#       5
#     4   4   4   4   4
#     4   9  19  37  58  76  97 131 175 219 258 296
#     4  10  20  31  43  63  94 128 160 199 247 296
#     4   8  16  27  41  60  84 118 159 200 243 291
#     4  10  21  35  52  77 109 142 174 209 254 309
#     4  10  18  28  43  62  87 123 164 203 246 295
#
# _framework density 23.866374
#
# number of rings (size 3 to 8) (size 9 to 14) (size 15 to 20)
#    0.000    2.600    0.000    1.800    0.000   11.600 
#    0.000    4.000    0.000    0.000    0.000    0.000 
#    0.000   14.400    0.000    0.000    0.000   16.800 
#
# Total GULP energy -111372.920502 kJ/mol
# GULP energy per Si atom -5568.646025 kJ/mol
# Density = 2.381205 g / cm^3
# Si number density = 23.866374 Si / 1000 Ang^3
#
#
#
# Elastic Constant Matrix: (Units=GPa)
#
#
# Indices 1 2 3 4 5 6 
#
# 1 169.6496 23.9026 34.7123 0.0000 45.1207 0.0000
# 2 23.9026 222.0691 30.0444 0.0000 24.5350 0.0000
# 3 34.7123 30.0444 130.6652 0.0000 35.3684 0.0000
# 4 0.0000 0.0000 0.0000 14.0251 0.0000 -15.6031
# 5 45.1207 24.5350 35.3684 0.0000 46.4313 0.0000
# 6 0.0000 0.0000 0.0000 -15.6031 0.0000 -35.2860
#
#
#
# Elastic Compliance Matrix: (Units=1/GPa)
#
#
# Indices 1 2 3 4 5 6 
#
# 1 0.007949 -0.000001 -0.000026 0.000000 -0.007704 0.000000
# 2 -0.000001 0.004811 -0.000527 0.000000 -0.002140 0.000000
# 3 -0.000026 -0.000527 0.009699 0.000000 -0.007084 0.000000
# 4 0.000000 0.000000 0.000000 0.047790 0.000000 -0.021132
# 5 -0.007704 -0.002140 -0.007084 0.000000 0.035551 0.000000
# 6 0.000000 0.000000 0.000000 -0.021132 0.000000 -0.018995
#
#
# Mechanical properties :
#
#
# Convention : Reuss Voigt Hill
#
# Bulk Modulus (GPa) = 46.83551 77.74474 62.29013
# Shear Modulus (GPa) = 52.61529 33.94908 43.28218
#
# Velocity S-wave (km/s) = 4.70039 3.77565 4.26317
# Velocity P-wave (km/s) = 7.00891 7.18701 7.09852
#
# Compressibility (1/GPa) = 0.02135132
#
# Stress axis : x y z
#
# Youngs Moduli (GPa) = 125.80138 207.86135 103.10631
#
# Poissons Ratio (x) = 0.00018 0.00269
# Poissons Ratio (y) = 0.00011 0.05430
# Poissons Ratio (z) = 0.00329 0.10947
#
# Static dielectric constant tensor:
#      x y z
#    x 2.041110 0.000000 -0.004020 
#    y 0.000000 2.001060 0.000000 
#    z -0.004020 0.000000 1.988030 
# 
# From -- ./inp_files/58828.got.cif
#   From: 2010.05.17/outbox.cif.g08.bks.cpg/sg10_30_cif.got.tgz:58828.got - 2010.06.03 11:33:40.
