data_PCOD9142962
_publ_section_title
;
Structure prediction by ZEFSAII (Michael W. Deem and Ramdas Pophale) SiO2 
 PCOD9142962
Probable space group: P 2/M
;
_chemical_formula_sum "Si O2"
_cell_formula_units_Z 18
_cell_length_a 15.055485
_cell_length_b 5.717548
_cell_length_c 22.145427
_cell_angle_alpha 90.000000
_cell_angle_beta 158.497160
_cell_angle_gamma 90.000000
_cell_volume 698.744989
_symmetry_space_group_name_H-M "P 2/M"
_symmetry_group_IT_number 10
_symmetry_cell_setting 'monoclinic'
loop_
_space_group_symop_operation_xyz
x,y,z
-x,y,-z
-x,-y,-z
x,-y,z
loop_
_atom_site_type_symbol
_atom_site_label
_atom_site_fract_x
_atom_site_fract_y
_atom_site_fract_z
Si Si1 0.955915 0.500000 0.731296
Si Si2 0.294031 0.249555 0.690500
Si Si3 0.986170 0.000000 0.269165
Si Si4 0.994980 0.500000 0.892662
Si Si5 0.491038 0.000000 0.631640
Si Si6 0.976842 0.000000 0.057579
Si Si7 0.495000 0.500000 0.646913
Si Si8 0.659351 0.000000 0.162371
O O1 0.093824 0.747222 0.806642
O O2 0.890755 0.500000 0.759739
O O3 0.720842 0.500000 0.539481
O O4 0.381959 0.500000 0.723788
O O5 0.000000 0.253281 0.500000
O O6 0.372420 0.000000 0.713799
O O7 0.360190 0.215723 0.803678
O O8 0.273902 0.000000 0.446442
O O9 0.925349 0.000000 0.301562
O O10 0.123096 0.248543 0.982977
O O11 0.770309 0.500000 0.796709
O O12 0.472526 0.761298 0.657985
O O13 0.734774 0.000000 0.745418
O O14 0.000000 0.000000 0.000000
O O15 0.500000 0.000000 0.000000
#
# Coordination Sequence:
#
# PCOD9142962 Si02
#       8
#     2   4   2   2   2   2   2   2
#     4  10  19  33  48  70 104 134 162 196 253 319
#     4   8  16  32  53  76 101 130 166 215 263 317
#     4  10  21  33  49  74 104 138 161 204 264 316
#     4  10  18  30  50  71  99 132 166 202 250 307
#     4   8  16  30  45  68 100 127 158 203 246 293
#     4  10  19  31  50  76  94 130 177 222 250 279
#     4   8  15  27  47  71  92 122 162 196 232 288
#     4  10  21  34  55  84 108 137 178 229 279 326
#
# _framework density 25.760469000000001
#
# number of rings (size 3 to 8) (size 9 to 14) (size 15 to 20)
#    0.667    2.222    0.000    1.333    1.556    0.444 
#    0.000    6.667    0.000    5.333    0.000    0.000 
#    0.000    0.000    0.000    0.000    0.000    0.000 
#
# Total GULP energy -100264.779326 kJ/mol
# GULP energy per Si atom -5570.265518 kJ/mol
# Density = 2.570184 g / cm^3
# Si number density = 25.760469 Si / 1000 Ang^3
#
#
#
# Elastic Constant Matrix: (Units=GPa)
#
#
# Indices 1 2 3 4 5 6 
#
# 1 35.5962 46.3978 21.6214 0.0000 -13.0709 0.0000
# 2 46.3978 359.7788 29.3044 0.0000 -6.9472 0.0000
# 3 21.6214 29.3044 114.4338 0.0000 -3.5410 0.0000
# 4 0.0000 0.0000 0.0000 -5.6706 0.0000 10.5708
# 5 -13.0709 -6.9472 -3.5410 0.0000 26.4654 0.0000
# 6 0.0000 0.0000 0.0000 10.5708 0.0000 39.4325
#
#
#
# Elastic Compliance Matrix: (Units=1/GPa)
#
#
# Indices 1 2 3 4 5 6 
#
# 1 0.046391 -0.005026 -0.006838 0.000000 0.020677 0.000000
# 2 -0.005026 0.003395 0.000031 0.000000 -0.001587 0.000000
# 3 -0.006838 0.000031 0.009960 0.000000 -0.002037 0.000000
# 4 0.000000 0.000000 0.000000 -0.117587 0.000000 0.031522
# 5 0.020677 -0.001587 -0.002037 0.000000 0.047308 0.000000
# 6 0.000000 0.000000 0.000000 0.031522 0.000000 0.016910
#
#
# Mechanical properties :
#
#
# Convention : Reuss Voigt Hill
#
# Bulk Modulus (GPa) = 27.71738 78.27290 52.99514
# Shear Modulus (GPa) = 118.85255 39.54445 79.19850
#
# Velocity S-wave (km/s) = 6.79983 3.92226 5.55076
# Velocity P-wave (km/s) = 8.51078 7.13884 7.85482
#
# Compressibility (1/GPa) = 0.03607844
#
# Stress axis : x y z
#
# Youngs Moduli (GPa) = 21.55598 294.59401 100.40502
#
# Poissons Ratio (x) = 1.48075 0.68659
# Poissons Ratio (y) = 0.10835 -0.00314
# Poissons Ratio (z) = 0.14740 -0.00923
#
# Static dielectric constant tensor:
#      x y z
#    x 1.963430 0.000000 0.059820 
#    y 0.000000 2.096420 0.000000 
#    z 0.059820 0.000000 2.104230 
# 
# From -- ./inp_files/83105.got.cif
#   From: 2010.05.17/outbox.cif.g08.bks.cpg/sg10_42_cif.got.tgz:83105.got - 2010.06.03 11:33:40.
