data_PCOD9142593
_publ_section_title
;
Structure prediction by ZEFSAII (Michael W. Deem and Ramdas Pophale) SiO2 
 PCOD9142593
Probable space group: P 2/M
;
_chemical_formula_sum "Si O2"
_cell_formula_units_Z 28
_cell_length_a 15.957473
_cell_length_b 7.835976
_cell_length_c 19.529009
_cell_angle_alpha 90.000000
_cell_angle_beta 142.017095
_cell_angle_gamma 90.000000
_cell_volume 1502.842598
_symmetry_space_group_name_H-M "P 2/M"
_symmetry_group_IT_number 10
_symmetry_cell_setting 'monoclinic'
loop_
_space_group_symop_operation_xyz
x,y,z
-x,y,-z
-x,-y,-z
x,-y,z
loop_
_atom_site_type_symbol
_atom_site_label
_atom_site_fract_x
_atom_site_fract_y
_atom_site_fract_z
Si Si1 0.105587 0.804819 0.908687
Si Si2 0.612066 0.708639 0.126378
Si Si3 0.598434 0.709266 0.273790
Si Si4 0.678187 0.299040 0.840430
Si Si5 0.115282 0.302682 0.133428
Si Si6 0.095336 0.291354 0.497196
Si Si7 0.099026 0.294715 0.746318
O O1 0.097237 0.750097 0.824816
O O2 0.958763 0.783160 0.850464
O O3 0.146669 0.000000 0.938147
O O4 0.219073 0.711832 0.028382
O O5 0.612413 0.500000 0.126308
O O6 0.580655 0.761271 0.183336
O O7 0.760716 0.765473 0.197953
O O8 0.500000 0.765656 0.000000
O O9 0.596431 0.500000 0.273858
O O10 0.469360 0.770204 0.234425
O O11 0.748573 0.763783 0.394103
O O12 0.662154 0.500000 0.815773
O O13 0.754855 0.226347 0.822738
O O14 0.141295 0.500000 0.168975
O O15 0.000000 0.302732 0.000000
O O16 0.096752 0.500000 0.499393
O O17 0.000000 0.239637 0.500000
O O18 0.025151 0.235134 0.381316
O O19 0.099470 0.500000 0.742578
#
# Coordination Sequence:
#
# PCOD9142593 Si02
#       7
#     4   4   4   4   4   4   4
#     4  11  21  31  46  69  97 127 160 196 235 282
#     4   9  15  22  38  67  97 123 150 183 226 276
#     4   9  15  25  44  72 101 122 151 194 236 281
#     4   9  17  30  50  74  99 125 152 189 239 289
#     4   8  15  29  48  70  95 122 153 190 236 288
#     4   9  15  26  45  73  99 120 156 204 240 268
#     4  10  18  29  47  69  96 127 159 196 236 276
#
# _framework density 18.631359
#
# number of rings (size 3 to 8) (size 9 to 14) (size 15 to 20)
#    0.000    2.714    1.429    3.000    0.000    4.857 
#    0.000    0.000    0.000    6.000    0.000    6.000 
#    0.000    0.000    0.000    0.000    0.000    0.000 
#
# Total GULP energy -156063.345525 kJ/mol
# GULP energy per Si atom -5573.690912 kJ/mol
# Density = 1.858895 g / cm^3
# Si number density = 18.631359 Si / 1000 Ang^3
#
#
#
# Elastic Constant Matrix: (Units=GPa)
#
#
# Indices 1 2 3 4 5 6 
#
# 1 111.8211 -0.0252 29.6092 0.0000 34.4900 0.0000
# 2 -0.0252 18.0363 -3.9039 0.0000 2.9743 0.0000
# 3 29.6092 -3.9039 63.0041 0.0000 30.6011 0.0000
# 4 0.0000 0.0000 0.0000 -10.3338 0.0000 10.6333
# 5 34.4900 2.9743 30.6011 0.0000 24.3389 0.0000
# 6 0.0000 0.0000 0.0000 10.6333 0.0000 -46.5100
#
#
#
# Elastic Compliance Matrix: (Units=1/GPa)
#
#
# Indices 1 2 3 4 5 6 
#
# 1 0.019810 0.011046 0.014550 0.000000 -0.047716 0.000000
# 2 0.011046 0.071556 0.028491 0.000000 -0.060218 0.000000
# 3 0.014550 0.028491 0.057804 0.000000 -0.096776 0.000000
# 4 0.000000 0.000000 0.000000 -0.126538 0.000000 -0.028930
# 5 -0.047716 -0.060218 -0.096776 0.000000 0.237737 0.000000
# 6 0.000000 0.000000 0.000000 -0.028930 0.000000 -0.028115
#
#
# Mechanical properties :
#
#
# Convention : Reuss Voigt Hill
#
# Bulk Modulus (GPa) = 3.88588 27.13576 15.51082
# Shear Modulus (GPa) = 23.82515 4.64447 14.23481
#
# Velocity S-wave (km/s) = 3.57986 1.58058 2.76710
# Velocity P-wave (km/s) = 4.37920 4.23405 4.30724
#
# Compressibility (1/GPa) = 0.25734222
#
# Stress axis : x y z
#
# Youngs Moduli (GPa) = 50.47964 13.97505 17.29997
#
# Poissons Ratio (x) = -0.15436 -0.25172
# Poissons Ratio (y) = -0.55758 -0.49289
# Poissons Ratio (z) = -0.73448 -0.39816
#
# Static dielectric constant tensor:
#      x y z
#    x 1.665240 0.000000 0.015380 
#    y 0.000000 1.672090 0.000000 
#    z 0.015380 0.000000 1.629450 
# 
# From -- ./inp_files/77801.got.cif
#   From: 2010.05.17/outbox.cif.g08.bks.cpg/sg10_39_cif.got.tgz:77801.got - 2010.06.03 11:33:40.
