data_PCOD9142379
_publ_section_title
;
Structure prediction by ZEFSAII (Michael W. Deem and Ramdas Pophale) SiO2 
 PCOD9142379
Probable space group: P 2/M
;
_chemical_formula_sum "Si O2"
_cell_formula_units_Z 32
_cell_length_a 31.570891
_cell_length_b 7.762249
_cell_length_c 22.515544
_cell_angle_alpha 90.000000
_cell_angle_beta 17.654398
_cell_angle_gamma 90.000000
_cell_volume 1673.374272
_symmetry_space_group_name_H-M "P 2/M"
_symmetry_group_IT_number 10
_symmetry_cell_setting 'monoclinic'
loop_
_space_group_symop_operation_xyz
x,y,z
-x,y,-z
-x,-y,-z
x,-y,z
loop_
_atom_site_type_symbol
_atom_site_label
_atom_site_fract_x
_atom_site_fract_y
_atom_site_fract_z
Si Si1 0.168242 0.702775 0.038839
Si Si2 0.132843 0.201640 0.594103
Si Si3 0.536839 0.298836 0.131963
Si Si4 0.633588 0.289190 0.124380
Si Si5 0.218038 0.299317 0.606394
Si Si6 0.430605 0.202428 0.151813
Si Si7 0.325981 0.710592 0.582897
Si Si8 0.659057 0.710725 0.303866
O O1 0.201992 0.500000 0.993866
O O2 0.003549 0.721203 0.253402
O O3 0.241830 0.771527 0.999888
O O4 0.240614 0.773578 0.882564
O O5 0.132149 0.222365 0.666622
O O6 0.279339 0.275749 0.373304
O O7 0.130276 0.000000 0.585151
O O8 0.568134 0.500000 0.081248
O O9 0.631635 0.228217 0.058735
O O10 0.379508 0.287279 0.368914
O O11 0.529799 0.216494 0.076795
O O12 0.634163 0.500000 0.120123
O O13 0.485786 0.243046 0.352549
O O14 0.178461 0.500000 0.662139
O O15 0.224794 0.229367 0.664635
O O16 0.407436 0.000000 0.171619
O O17 0.500000 0.278021 0.000000
O O18 0.320491 0.500000 0.588853
O O19 0.298982 0.767961 0.686073
O O20 0.500000 0.757902 0.500000
O O21 0.662706 0.500000 0.300514
#
# Coordination Sequence:
#
# PCOD9142379 Si02
#       8
#     4   4   4   4   4   4   4   4
#     4  10  18  28  46  69  94 124 154 184 221 266
#     4  10  20  33  47  64  90 119 148 183 224 272
#     4   8  14  25  44  71  96 114 140 180 223 264
#     4   8  13  23  41  67  95 120 146 182 224 260
#     4   8  14  26  45  65  87 115 148 187 226 264
#     4   9  18  33  52  71  89 112 145 185 226 266
#     4   8  12  21  40  67  92 112 145 195 235 256
#     4   9  14  22  40  69  96 116 149 194 230 257
#
# _framework density 19.123037
#
# number of rings (size 3 to 8) (size 9 to 14) (size 15 to 20)
#    0.000    3.250    1.250    1.875    0.000    0.750 
#    0.000    1.250    0.000    6.375    0.000    5.250 
#    0.000    0.000    0.000    0.000    0.000    0.000 
#
# Total GULP energy -178167.165644 kJ/mol
# GULP energy per Si atom -5567.723926 kJ/mol
# Density = 1.907951 g / cm^3
# Si number density = 19.123037 Si / 1000 Ang^3
#
#
#
# Elastic Constant Matrix: (Units=GPa)
#
#
# Indices 1 2 3 4 5 6 
#
# 1 145.0340 0.7283 61.1146 0.0000 3.9872 0.0000
# 2 0.7283 17.1282 -1.9002 0.0000 2.8082 0.0000
# 3 61.1146 -1.9002 50.9944 0.0000 0.9582 0.0000
# 4 0.0000 0.0000 0.0000 3.6139 0.0000 5.7983
# 5 3.9872 2.8082 0.9582 0.0000 24.9124 0.0000
# 6 0.0000 0.0000 0.0000 5.7983 0.0000 23.6252
#
#
#
# Elastic Compliance Matrix: (Units=1/GPa)
#
#
# Indices 1 2 3 4 5 6 
#
# 1 0.014077 -0.002256 -0.016930 0.000000 -0.001348 0.000000
# 2 -0.002256 0.060125 0.005068 0.000000 -0.006612 0.000000
# 3 -0.016930 0.005068 0.040077 0.000000 0.000597 0.000000
# 4 0.000000 0.000000 0.000000 0.456440 0.000000 -0.112024
# 5 -0.001348 -0.006612 0.000597 0.000000 0.041079 0.000000
# 6 0.000000 0.000000 0.000000 -0.112024 0.000000 0.069822
#
#
# Mechanical properties :
#
#
# Convention : Reuss Voigt Hill
#
# Bulk Modulus (GPa) = 11.62178 37.00467 24.31323
# Shear Modulus (GPa) = 6.77015 20.64456 13.70736
#
# Velocity S-wave (km/s) = 1.88361 3.28924 2.68021
# Velocity P-wave (km/s) = 3.28956 5.81535 4.72438
#
# Compressibility (1/GPa) = 0.08604533
#
# Stress axis : x y z
#
# Youngs Moduli (GPa) = 71.03720 16.63188 24.95193
#
# Poissons Ratio (x) = 0.03752 0.42243
# Poissons Ratio (y) = 0.16025 -0.12646
# Poissons Ratio (z) = 1.20263 -0.08430
#
# Static dielectric constant tensor:
#      x y z
#    x 1.707060 0.000000 0.006930 
#    y 0.000000 1.707700 0.000000 
#    z 0.006930 0.000000 1.656770 
# 
# From -- ./inp_files/87183.got.cif
#   From: 2010.05.17/outbox.cif.g08.bks.cpg/sg10_44_cif.got.tgz:87183.got - 2010.06.03 11:33:40.
