data_PCOD9142517
_publ_section_title
;
Structure prediction by ZEFSAII (Michael W. Deem and Ramdas Pophale) SiO2 
 PCOD9142517
Probable space group: P 2/M
;
_chemical_formula_sum "Si O2"
_cell_formula_units_Z 32
_cell_length_a 14.849246
_cell_length_b 7.378043
_cell_length_c 28.677864
_cell_angle_alpha 90.000000
_cell_angle_beta 29.771153
_cell_angle_gamma 90.000000
_cell_volume 1560.069695
_symmetry_space_group_name_H-M "P 2/M"
_symmetry_group_IT_number 10
_symmetry_cell_setting 'monoclinic'
loop_
_space_group_symop_operation_xyz
x,y,z
-x,y,-z
-x,-y,-z
x,-y,z
loop_
_atom_site_type_symbol
_atom_site_label
_atom_site_fract_x
_atom_site_fract_y
_atom_site_fract_z
Si Si1 0.797763 0.720085 0.104521
Si Si2 0.008714 0.711477 0.147512
Si Si3 0.700780 0.281114 0.799986
Si Si4 0.353852 0.279509 0.727002
Si Si5 0.313788 0.721295 0.943025
Si Si6 0.739492 0.279053 0.583663
Si Si7 0.862373 0.279173 0.628835
Si Si8 0.294596 0.791403 0.097638
O O1 0.799781 0.500000 0.105174
O O2 0.727920 0.775147 0.186018
O O3 0.676226 0.774538 0.115254
O O4 0.000000 0.777493 0.000000
O O5 0.988352 0.500000 0.145285
O O6 0.135674 0.719648 0.135776
O O7 0.801718 0.780995 0.239653
O O8 0.133309 0.787175 0.049765
O O9 0.706260 0.500000 0.797257
O O10 0.491648 0.221864 0.890341
O O11 0.796959 0.218948 0.709161
O O12 0.766013 0.222803 0.821414
O O13 0.367260 0.500000 0.718544
O O14 0.562078 0.216849 0.635397
O O15 0.310654 0.500000 0.945221
O O16 0.738261 0.500000 0.584628
O O17 0.746076 0.224361 0.635429
O O18 0.930539 0.225420 0.475031
O O19 0.855478 0.500000 0.632597
O O20 0.311513 0.000000 0.076379
O O21 0.500000 0.711044 0.000000
#
# Coordination Sequence:
#
# PCOD9142517 Si02
#       8
#     4   4   4   4   4   4   4   4
#     4   9  13  18  29  54  92 123 143 170 211 262
#     4  10  18  29  45  67  91 119 154 191 228 267
#     4  10  18  29  48  70  91 119 155 194 231 268
#     4   9  15  22  37  62  94 127 154 183 223 268
#     4   9  15  22  36  61  92 118 143 179 222 262
#     4   8  13  23  39  66 105 134 149 176 224 279
#     4   8  14  24  41  68 101 131 153 179 225 277
#     4  11  23  36  48  64  88 121 157 194 240 286
#
# _framework density 20.511904000000001
#
# number of rings (size 3 to 8) (size 9 to 14) (size 15 to 20)
#    0.000    2.750    2.500    1.875    0.000    3.500 
#    0.000    0.000    0.000    0.750    0.000   13.125 
#    0.000    0.000    0.000    0.000    0.000    0.000 
#
# Total GULP energy -178417.196700 kJ/mol
# GULP energy per Si atom -5575.537397 kJ/mol
# Density = 2.046522 g / cm^3
# Si number density = 20.511904 Si / 1000 Ang^3
#
#
#
# Elastic Constant Matrix: (Units=GPa)
#
#
# Indices 1 2 3 4 5 6 
#
# 1 135.8359 -4.1725 56.0148 0.0000 -22.0799 0.0000
# 2 -4.1725 67.8242 2.3445 0.0000 -3.0638 0.0000
# 3 56.0148 2.3445 90.8149 0.0000 -18.4388 0.0000
# 4 0.0000 0.0000 0.0000 -30.1836 0.0000 -109.2591
# 5 -22.0799 -3.0638 -18.4388 0.0000 37.6539 0.0000
# 6 0.0000 0.0000 0.0000 -109.2591 0.0000 -554.4802
#
#
#
# Elastic Compliance Matrix: (Units=1/GPa)
#
#
# Indices 1 2 3 4 5 6 
#
# 1 0.010278 0.000979 -0.005691 0.000000 0.003320 0.000000
# 2 0.000979 0.014894 -0.000695 0.000000 0.001446 0.000000
# 3 -0.005691 -0.000695 0.015380 0.000000 0.004138 0.000000
# 4 0.000000 0.000000 0.000000 -0.115549 0.000000 0.022769
# 5 0.003320 0.001446 0.004138 0.000000 0.030648 0.000000
# 6 0.000000 0.000000 0.000000 0.022769 0.000000 -0.006290
#
#
# Mechanical properties :
#
#
# Convention : Reuss Voigt Hill
#
# Bulk Modulus (GPa) = 33.62692 44.76096 39.19394
# Shear Modulus (GPa) = -167.14732 -93.38276 -130.26504
#
# Velocity S-wave (km/s) = -9.03686 -6.75463 -7.97778
# Velocity P-wave (km/s) = 9.61546 6.24211 8.10620
#
# Compressibility (1/GPa) = 0.02973808
#
# Stress axis : x y z
#
# Youngs Moduli (GPa) = 97.29231 67.14312 65.02127
#
# Poissons Ratio (x) = -0.06573 0.37003
# Poissons Ratio (y) = -0.09525 0.04518
# Poissons Ratio (z) = 0.55368 0.04665
#
# Static dielectric constant tensor:
#      x y z
#    x 1.751280 0.000000 -0.036040 
#    y 0.000000 1.810090 0.000000 
#    z -0.036040 0.000000 1.724890 
# 
# From -- ./inp_files/95246.got.cif
#   From: 2010.05.17/outbox.cif.g08.bks.cpg/sg10_48_cif.got.tgz:95246.got - 2010.06.03 11:33:40.
