data_PCOD9142223
_publ_section_title
;
Structure prediction by ZEFSAII (Michael W. Deem and Ramdas Pophale) SiO2 
 PCOD9142223
Probable space group: P 2/M
;
_chemical_formula_sum "Si O2"
_cell_formula_units_Z 32
_cell_length_a 22.767548
_cell_length_b 7.470794
_cell_length_c 17.428698
_cell_angle_alpha 90.000000
_cell_angle_beta 148.315074
_cell_angle_gamma 90.000000
_cell_volume 1557.084575
_symmetry_space_group_name_H-M "P 2/M"
_symmetry_group_IT_number 10
_symmetry_cell_setting 'monoclinic'
loop_
_space_group_symop_operation_xyz
x,y,z
-x,y,-z
-x,-y,-z
x,-y,z
loop_
_atom_site_type_symbol
_atom_site_label
_atom_site_fract_x
_atom_site_fract_y
_atom_site_fract_z
Si Si1 0.877629 0.718240 0.651387
Si Si2 0.364347 0.284901 0.647588
Si Si3 0.779677 0.293485 0.204204
Si Si4 0.791964 0.217512 0.969947
Si Si5 0.624378 0.280781 0.164655
Si Si6 0.385857 0.790158 0.115805
Si Si7 0.950674 0.792635 0.022793
Si Si8 0.036835 0.706787 0.702293
O O1 0.884193 0.500000 0.658870
O O2 0.749809 0.774794 0.518993
O O3 0.955122 0.784500 0.806396
O O4 0.927101 0.779174 0.623414
O O5 0.361220 0.500000 0.646064
O O6 0.361007 0.223218 0.731920
O O7 0.482606 0.236190 0.742841
O O8 0.807255 0.500000 0.252170
O O9 0.720922 0.216156 0.214238
O O10 0.891793 0.214589 0.289342
O O11 0.681653 0.294514 0.030430
O O12 0.670588 0.268600 0.866917
O O13 0.799918 0.000000 0.977504
O O14 0.840734 0.282943 0.943313
O O15 0.874534 0.284949 0.128804
O O16 0.626836 0.500000 0.164883
O O17 0.500000 0.227545 0.000000
O O18 0.362327 0.000000 0.081194
O O19 0.924744 0.000000 0.976065
O O20 0.000000 0.710445 0.000000
O O21 0.012624 0.500000 0.655946
#
# Coordination Sequence:
#
# PCOD9142223 Si02
#       8
#     4   4   4   4   4   4   4   4
#     4   9  18  31  46  67  94 120 147 182 221 263
#     4  10  19  31  45  61  88 125 157 184 222 267
#     4   9  15  26  44  62  83 114 151 189 228 267
#     4   8  15  27  43  66  92 113 138 177 219 258
#     4   9  15  25  42  62  84 115 156 193 224 260
#     4  10  18  27  42  65  90 115 148 188 224 257
#     4   9  17  31  53  76  94 114 141 174 216 268
#     4   8  14  25  42  63  85 111 146 184 220 262
#
# _framework density 20.551227000000001
#
# number of rings (size 3 to 8) (size 9 to 14) (size 15 to 20)
#    0.000    3.000    1.250    0.375    0.000    1.250 
#    0.000    1.875    0.000    4.500    0.000    5.250 
#    0.000   11.000    0.000    0.000    0.000    0.000 
#
# Total GULP energy -178245.005611 kJ/mol
# GULP energy per Si atom -5570.156425 kJ/mol
# Density = 2.050445 g / cm^3
# Si number density = 20.551227 Si / 1000 Ang^3
#
#
#
# Elastic Constant Matrix: (Units=GPa)
#
#
# Indices 1 2 3 4 5 6 
#
# 1 196.9221 1.9211 33.7039 0.0000 23.2604 0.0000
# 2 1.9211 61.9033 -8.2885 0.0000 -1.6711 0.0000
# 3 33.7039 -8.2885 35.5215 0.0000 15.6616 0.0000
# 4 0.0000 0.0000 0.0000 8.2152 0.0000 -3.6094
# 5 23.2604 -1.6711 15.6616 0.0000 23.5656 0.0000
# 6 0.0000 0.0000 0.0000 -3.6094 0.0000 11.8015
#
#
#
# Elastic Compliance Matrix: (Units=1/GPa)
#
#
# Indices 1 2 3 4 5 6 
#
# 1 0.006273 -0.000923 -0.004821 0.000000 -0.003053 0.000000
# 2 -0.000923 0.016877 0.005494 0.000000 -0.001544 0.000000
# 3 -0.004821 0.005494 0.044893 0.000000 -0.024688 0.000000
# 4 0.000000 0.000000 0.000000 0.140620 0.000000 0.043007
# 5 -0.003053 -0.001544 -0.024688 0.000000 0.061746 0.000000
# 6 0.000000 0.000000 0.000000 0.043007 0.000000 0.097888
#
#
# Mechanical properties :
#
#
# Convention : Reuss Voigt Hill
#
# Bulk Modulus (GPa) = 14.80519 38.78000 26.79259
# Shear Modulus (GPa) = 12.77754 26.51717 19.64736
#
# Velocity S-wave (km/s) = 2.49618 3.59597 3.09531
# Velocity P-wave (km/s) = 3.94050 6.01267 5.08329
#
# Compressibility (1/GPa) = 0.06754390
#
# Stress axis : x y z
#
# Youngs Moduli (GPa) = 159.41529 59.25288 22.27498
#
# Poissons Ratio (x) = 0.05467 0.10739
# Poissons Ratio (y) = 0.14708 -0.12238
# Poissons Ratio (z) = 0.76857 -0.32554
#
# Static dielectric constant tensor:
#      x y z
#    x 1.799800 0.000000 0.042110 
#    y 0.000000 1.951530 0.000000 
#    z 0.042110 0.000000 1.694380 
# 
# From -- ./inp_files/52702.got.cif
#   From: 2010.05.17/outbox.cif.g08.bks.cpg/sg10_27_cif.got.tgz:52702.got - 2010.06.03 11:33:40.
