data_PCOD9142801
_publ_section_title
;
Structure prediction by ZEFSAII (Michael W. Deem and Ramdas Pophale) SiO2 
 PCOD9142801
Probable space group: P 2/M
;
_chemical_formula_sum "Si O2"
_cell_formula_units_Z 30
_cell_length_a 12.031560
_cell_length_b 9.945944
_cell_length_c 31.372356
_cell_angle_alpha 90.000000
_cell_angle_beta 150.966268
_cell_angle_gamma 90.000000
_cell_volume 1821.995336
_symmetry_space_group_name_H-M "P 2/M"
_symmetry_group_IT_number 10
_symmetry_cell_setting 'monoclinic'
loop_
_space_group_symop_operation_xyz
x,y,z
-x,y,-z
-x,-y,-z
x,-y,z
loop_
_atom_site_type_symbol
_atom_site_label
_atom_site_fract_x
_atom_site_fract_y
_atom_site_fract_z
Si Si1 0.757267 0.341554 0.602264
Si Si2 0.829852 0.155516 0.280239
Si Si3 0.305600 0.846724 0.865056
Si Si4 0.000000 0.747574 0.000000
Si Si5 0.168492 0.844456 0.966676
Si Si6 0.214024 0.343446 0.200538
Si Si7 0.102780 0.657272 0.254590
Si Si8 0.459863 0.346991 0.198521
O O1 0.500000 0.320130 0.500000
O O2 0.815550 0.500000 0.614825
O O3 0.778738 0.315613 0.660312
O O4 0.937310 0.242257 0.640223
O O5 0.755452 0.152944 0.205652
O O6 0.633022 0.236919 0.238724
O O7 0.854113 0.000000 0.302161
O O8 0.124040 0.747527 0.825193
O O9 0.281947 0.000000 0.873141
O O10 0.570580 0.805979 0.956402
O O11 0.212225 0.667314 0.092153
O O12 0.888230 0.828652 0.001896
O O13 0.992746 0.750546 0.883251
O O14 0.137756 0.000000 0.944946
O O15 0.146477 0.500000 0.173069
O O16 0.259010 0.319627 0.265455
O O17 0.414083 0.322963 0.233308
O O18 0.037481 0.500000 0.233036
O O19 0.542205 0.500000 0.219332
#
# Coordination Sequence:
#
# PCOD9142801 Si02
#       8
#     4   4   4   2   4   4   4   4
#     4   9  18  34  58  84 102 121 156 202 253 307
#     4  10  19  32  50  75 105 132 162 203 252 300
#     4   9  18  31  45  67  95 126 162 205 247 286
#     4  10  18  30  46  68  96 132 174 218 252 280
#     4  10  19  30  45  65  93 130 172 210 245 283
#     4   9  20  34  46  66  96 131 170 203 240 288
#     4   9  18  34  52  70  95 127 158 197 246 298
#     4  10  19  31  48  70  98 133 171 211 247 285
#
# _framework density 16.465464999999998
#
# number of rings (size 3 to 8) (size 9 to 14) (size 15 to 20)
#    0.000    2.533    1.333    0.800    0.000    5.067 
#    0.000    2.667    0.000    0.800    0.000    5.600 
#    0.000    0.000    0.000    0.000    0.000    0.000 
#
# Total GULP energy -167140.409452 kJ/mol
# GULP energy per Si atom -5571.346982 kJ/mol
# Density = 1.642799 g / cm^3
# Si number density = 16.465465 Si / 1000 Ang^3
#
#
#
# Elastic Constant Matrix: (Units=GPa)
#
#
# Indices 1 2 3 4 5 6 
#
# 1 93.8573 52.7940 28.3011 0.0000 -0.9005 0.0000
# 2 52.7940 81.5878 37.3012 0.0000 9.9525 0.0000
# 3 28.3011 37.3012 49.6157 0.0000 9.6874 0.0000
# 4 0.0000 0.0000 0.0000 15.6241 0.0000 -3.6941
# 5 -0.9005 9.9525 9.6874 0.0000 15.7731 0.0000
# 6 0.0000 0.0000 0.0000 -3.6941 0.0000 -11.3078
#
#
#
# Elastic Compliance Matrix: (Units=1/GPa)
#
#
# Indices 1 2 3 4 5 6 
#
# 1 0.018345 -0.011330 -0.004030 0.000000 0.010671 0.000000
# 2 -0.011330 0.025855 -0.010980 0.000000 -0.010217 0.000000
# 3 -0.004030 -0.010980 0.033406 0.000000 -0.013819 0.000000
# 4 0.000000 0.000000 0.000000 0.059415 0.000000 -0.019410
# 5 0.010671 -0.010217 -0.013819 0.000000 0.078943 0.000000
# 6 0.000000 0.000000 0.000000 -0.019410 0.000000 -0.082094
#
#
# Mechanical properties :
#
#
# Convention : Reuss Voigt Hill
#
# Bulk Modulus (GPa) = 40.11788 51.31706 45.71747
# Shear Modulus (GPa) = 25.65975 11.12883 18.39429
#
# Velocity S-wave (km/s) = 3.95194 2.60261 3.34600
# Velocity P-wave (km/s) = 6.72618 6.34552 6.53862
#
# Compressibility (1/GPa) = 0.02492654
#
# Stress axis : x y z
#
# Youngs Moduli (GPa) = 54.51051 38.67794 29.93449
#
# Poissons Ratio (x) = 0.43823 0.12063
# Poissons Ratio (y) = 0.61762 0.32868
# Poissons Ratio (z) = 0.21966 0.42468
#
# Static dielectric constant tensor:
#      x y z
#    x 1.576470 0.000000 -0.020370 
#    y 0.000000 1.555980 0.000000 
#    z -0.020370 0.000000 1.521270 
# 
# From -- ./inp_files/52647.got.cif
#   From: 2010.05.17/outbox.cif.g08.bks.cpg/sg10_27_cif.got.tgz:52647.got - 2010.06.03 11:33:40.
