data_PCOD9142104
_publ_section_title
;
Structure prediction by ZEFSAII (Michael W. Deem and Ramdas Pophale) SiO2 
 PCOD9142104
Probable space group: P 2/M
;
_chemical_formula_sum "Si O2"
_cell_formula_units_Z 26
_cell_length_a 12.199757
_cell_length_b 13.392532
_cell_length_c 19.861582
_cell_angle_alpha 90.000000
_cell_angle_beta 154.078630
_cell_angle_gamma 90.000000
_cell_volume 1418.552941
_symmetry_space_group_name_H-M "P 2/M"
_symmetry_group_IT_number 10
_symmetry_cell_setting 'monoclinic'
loop_
_space_group_symop_operation_xyz
x,y,z
-x,y,-z
-x,-y,-z
x,-y,z
loop_
_atom_site_type_symbol
_atom_site_label
_atom_site_fract_x
_atom_site_fract_y
_atom_site_fract_z
Si Si1 0.449515 0.303728 0.641007
Si Si2 0.760719 0.197875 0.014961
Si Si3 0.771825 0.389122 0.926783
Si Si4 0.010102 0.618981 0.312558
Si Si5 0.500000 0.727255 0.000000
Si Si6 0.260466 0.266731 0.329273
Si Si7 0.702295 0.113292 0.844686
O O1 0.527605 0.375012 0.745213
O O2 0.173637 0.325875 0.460728
O O3 0.632614 0.319711 0.678106
O O4 0.527078 0.193212 0.710088
O O5 0.052296 0.185241 0.195324
O O6 0.764426 0.306045 0.979830
O O7 0.602077 0.206743 0.994739
O O8 0.664324 0.124778 0.904003
O O9 0.791886 0.500000 0.965800
O O10 0.000000 0.373085 0.000000
O O11 0.023969 0.500000 0.327970
O O12 0.135781 0.654754 0.311643
O O13 0.727463 0.659153 0.152648
O O14 0.500000 0.222306 0.500000
O O15 0.662458 0.000000 0.800400
O O16 0.000000 0.138117 0.000000
#
# Coordination Sequence:
#
# PCOD9142104 Si02
#       7
#     4   4   4   4   2   4   4
#     4  10  17  33  51  79 114 135 174 228 282 324
#     4  10  18  36  52  76 109 143 182 224 268 325
#     4  10  18  27  47  75 104 138 174 220 274 323
#     4  10  21  33  51  77 111 154 194 222 252 310
#     4  10  23  38  55  70 106 160 193 222 259 310
#     4   9  17  28  48  73 107 142 173 220 266 316
#     4  10  19  34  63  90 109 134 171 226 290 344
#
# _framework density 18.328537000000001
#
# number of rings (size 3 to 8) (size 9 to 14) (size 15 to 20)
#    0.000    2.154    3.077    1.615    0.000    6.462 
#    0.000    3.462    0.000   19.385    0.000    0.000 
#    0.000    0.000    0.000    0.000    0.000    0.000 
#
# Total GULP energy -144919.330176 kJ/mol
# GULP energy per Si atom -5573.820391 kJ/mol
# Density = 1.828682 g / cm^3
# Si number density = 18.328537 Si / 1000 Ang^3
#
#
#
# Elastic Constant Matrix: (Units=GPa)
#
#
# Indices 1 2 3 4 5 6 
#
# 1 60.7401 -4.1133 24.8801 0.0000 -1.4592 0.0000
# 2 -4.1133 69.4826 21.2545 0.0000 3.1353 0.0000
# 3 24.8801 21.2545 137.5903 0.0000 3.8128 0.0000
# 4 0.0000 0.0000 0.0000 13.5677 0.0000 0.4927
# 5 -1.4592 3.1353 3.8128 0.0000 25.4792 0.0000
# 6 0.0000 0.0000 0.0000 0.4927 0.0000 6.2191
#
#
#
# Elastic Compliance Matrix: (Units=1/GPa)
#
#
# Indices 1 2 3 4 5 6 
#
# 1 0.018132 0.002129 -0.003644 0.000000 0.001322 0.000000
# 2 0.002129 0.015414 -0.002728 0.000000 -0.001367 0.000000
# 3 -0.003644 -0.002728 0.008380 0.000000 -0.001127 0.000000
# 4 0.000000 0.000000 0.000000 0.073917 0.000000 -0.005856
# 5 0.001322 -0.001367 -0.001127 0.000000 0.039660 0.000000
# 6 0.000000 0.000000 0.000000 -0.005856 0.000000 0.161259
#
#
# Mechanical properties :
#
#
# Convention : Reuss Voigt Hill
#
# Bulk Modulus (GPa) = 29.90581 39.09509 34.50045
# Shear Modulus (GPa) = 14.86340 24.10596 19.48468
#
# Velocity S-wave (km/s) = 2.85080 3.63052 3.26403
# Velocity P-wave (km/s) = 5.21421 6.24105 5.75060
#
# Compressibility (1/GPa) = 0.03343832
#
# Stress axis : x y z
#
# Youngs Moduli (GPa) = 55.15045 64.87483 119.33737
#
# Poissons Ratio (x) = -0.13809 0.43489
# Poissons Ratio (y) = -0.11739 0.32557
# Poissons Ratio (z) = 0.20098 0.17699
#
# Static dielectric constant tensor:
#      x y z
#    x 1.640420 0.000000 -0.008700 
#    y 0.000000 1.606690 0.000000 
#    z -0.008700 0.000000 1.684310 
# 
# From -- ./inp_files/76844.got.cif
#   From: 2010.05.17/outbox.cif.g08.bks.cpg/sg10_39_cif.got.tgz:76844.got - 2010.06.03 11:33:40.
