data_PCOD9142710
_publ_section_title
;
Structure prediction by ZEFSAII (Michael W. Deem and Ramdas Pophale) SiO2 
 PCOD9142710
Probable space group: P 2/M
;
_chemical_formula_sum "Si O2"
_cell_formula_units_Z 32
_cell_length_a 21.272285
_cell_length_b 15.277403
_cell_length_c 14.520523
_cell_angle_alpha 90.000000
_cell_angle_beta 20.509222
_cell_angle_gamma 90.000000
_cell_volume 1653.324672
_symmetry_space_group_name_H-M "P 2/M"
_symmetry_group_IT_number 10
_symmetry_cell_setting 'monoclinic'
loop_
_space_group_symop_operation_xyz
x,y,z
-x,y,-z
-x,-y,-z
x,-y,z
loop_
_atom_site_type_symbol
_atom_site_label
_atom_site_fract_x
_atom_site_fract_y
_atom_site_fract_z
Si Si1 0.868380 0.100649 0.552167
Si Si2 0.285186 0.596583 0.161873
Si Si3 0.448550 0.218670 0.962163
Si Si4 0.512873 0.903103 0.593463
Si Si5 0.740923 0.907170 0.516139
Si Si6 0.186343 0.216110 0.036522
Si Si7 0.911881 0.403649 0.764703
Si Si8 0.096409 0.837090 0.952089
O O1 0.727563 0.156922 0.805086
O O2 0.781645 0.092827 0.569442
O O3 0.042618 0.160019 0.293135
O O4 0.900524 0.000000 0.538873
O O5 0.368239 0.500000 0.062486
O O6 0.409344 0.681158 0.991877
O O7 0.182707 0.594065 0.205130
O O8 0.125110 0.608587 0.455746
O O9 0.500000 0.218522 0.000000
O O10 0.608202 0.173975 0.685819
O O11 0.500000 0.907415 0.500000
O O12 0.457274 0.000000 0.702511
O O13 0.376397 0.825589 0.803855
O O14 0.719137 0.882187 0.333248
O O15 0.933712 0.900841 0.203728
O O16 0.652419 0.000000 0.615721
O O17 0.166472 0.318489 0.080662
O O18 0.146760 0.204769 0.981492
O O19 0.883586 0.500000 0.846215
O O20 0.000000 0.785352 0.000000
#
# Coordination Sequence:
#
# PCOD9142710 Si02
#       8
#     4   4   4   4   4   4   4   4
#     4   9  16  28  47  74 109 144 174 206 250 309
#     4   9  18  33  52  77 108 137 171 217 260 306
#     4  10  18  29  49  78 112 145 175 208 253 318
#     4   9  18  32  51  78 108 139 180 227 268 306
#     4   9  18  30  46  71 105 147 184 210 248 306
#     4  10  18  33  58  81 104 140 180 222 272 319
#     4   9  18  34  57  79 100 133 176 218 262 318
#     4  10  21  35  52  75 106 142 183 230 272 311
#
# _framework density 19.354939000000002
#
# number of rings (size 3 to 8) (size 9 to 14) (size 15 to 20)
#    0.000    2.625    1.250    1.875    0.000    6.750 
#    0.000    0.000    0.000    6.750    0.000    0.000 
#    0.000    0.000    0.000    0.000    0.000    0.000 
#
# Total GULP energy -178289.257830 kJ/mol
# GULP energy per Si atom -5571.539307 kJ/mol
# Density = 1.931089 g / cm^3
# Si number density = 19.354939 Si / 1000 Ang^3
#
#
#
# Elastic Constant Matrix: (Units=GPa)
#
#
# Indices 1 2 3 4 5 6 
#
# 1 57.3659 17.3315 15.3857 0.0000 -12.9117 0.0000
# 2 17.3315 197.4411 81.2439 0.0000 -5.9657 0.0000
# 3 15.3857 81.2439 95.5954 0.0000 -9.7326 0.0000
# 4 0.0000 0.0000 0.0000 21.1399 0.0000 11.7160
# 5 -12.9117 -5.9657 -9.7326 0.0000 16.9034 0.0000
# 6 0.0000 0.0000 0.0000 11.7160 0.0000 116.5589
#
#
#
# Elastic Compliance Matrix: (Units=1/GPa)
#
#
# Indices 1 2 3 4 5 6 
#
# 1 0.021492 -0.000990 -0.001043 0.000000 0.015467 0.000000
# 2 -0.000990 0.007854 -0.006704 0.000000 -0.001844 0.000000
# 3 -0.001043 -0.006704 0.017000 0.000000 0.006626 0.000000
# 4 0.000000 0.000000 0.000000 0.050095 0.000000 -0.005035
# 5 0.015467 -0.001844 0.006626 0.000000 0.074138 0.000000
# 6 0.000000 0.000000 0.000000 -0.005035 0.000000 0.009085
#
#
# Mechanical properties :
#
#
# Convention : Reuss Voigt Hill
#
# Bulk Modulus (GPa) = 34.63378 64.25830 49.44604
# Shear Modulus (GPa) = 24.18224 46.68318 35.43271
#
# Velocity S-wave (km/s) = 3.53853 4.91649 4.28329
# Velocity P-wave (km/s) = 5.88454 8.09328 7.07563
#
# Compressibility (1/GPa) = 0.02887355
#
# Stress axis : x y z
#
# Youngs Moduli (GPa) = 46.52889 127.31631 58.82189
#
# Poissons Ratio (x) = 0.12606 0.06135
# Poissons Ratio (y) = 0.04607 0.39432
# Poissons Ratio (z) = 0.04853 0.85349
#
# Static dielectric constant tensor:
#      x y z
#    x 1.749450 0.000000 0.001240 
#    y 0.000000 1.661490 0.000000 
#    z 0.001240 0.000000 1.687230 
# 
# From -- ./inp_files/70750.got.cif
#   From: 2010.05.17/outbox.cif.g08.bks.cpg/sg10_36_cif.got.tgz:70750.got - 2010.06.03 11:33:40.
