data_PCOD9142613
_publ_section_title
;
Structure prediction by ZEFSAII (Michael W. Deem and Ramdas Pophale) SiO2 
 PCOD9142613
Probable space group: P 2/M
;
_chemical_formula_sum "Si O2"
_cell_formula_units_Z 32
_cell_length_a 16.063956
_cell_length_b 12.976695
_cell_length_c 14.589070
_cell_angle_alpha 90.000000
_cell_angle_beta 38.569267
_cell_angle_gamma 90.000000
_cell_volume 1896.064117
_symmetry_space_group_name_H-M "P 2/M"
_symmetry_group_IT_number 10
_symmetry_cell_setting 'monoclinic'
loop_
_space_group_symop_operation_xyz
x,y,z
-x,y,-z
-x,-y,-z
x,-y,z
loop_
_atom_site_type_symbol
_atom_site_label
_atom_site_fract_x
_atom_site_fract_y
_atom_site_fract_z
Si Si1 0.938681 0.876247 0.405572
Si Si2 0.471077 0.185815 0.327001
Si Si3 0.200858 0.121565 0.661873
Si Si4 0.574625 0.618717 0.338242
Si Si5 0.337762 0.875278 0.259410
Si Si6 0.851549 0.731383 0.120191
Si Si7 0.235023 0.125171 0.161923
Si Si8 0.755269 0.883024 0.057449
O O1 0.901858 0.852298 0.332107
O O2 0.811916 0.849727 0.576409
O O3 0.083485 0.837668 0.310249
O O4 0.946347 0.000000 0.404018
O O5 0.347096 0.142082 0.491940
O O6 0.505068 0.301505 0.328770
O O7 0.433084 0.174174 0.252897
O O8 0.607038 0.123176 0.227755
O O9 0.177877 0.194210 0.768077
O O10 0.188465 0.000000 0.694763
O O11 0.500000 0.630514 0.500000
O O12 0.564523 0.500000 0.318474
O O13 0.728978 0.652350 0.217091
O O14 0.336633 0.842720 0.154195
O O15 0.357976 0.000000 0.248027
O O16 0.845364 0.805711 0.036980
O O17 0.000000 0.686212 0.000000
O O18 0.235941 0.000000 0.166451
O O19 0.261580 0.150085 0.033593
O O20 0.806495 0.000000 0.015494
#
# Coordination Sequence:
#
# PCOD9142613 Si02
#       8
#     4   4   4   4   4   4   4   4
#     4   8  14  24  39  60  91 131 173 205 232 274
#     4  10  19  33  49  73  95 127 170 211 248 297
#     4  10  18  29  47  71 107 144 169 198 237 285
#     4  10  21  40  60  75  95 124 161 212 267 311
#     4   9  16  26  44  67  97 131 168 206 239 285
#     4  11  22  34  51  78 104 132 168 207 248 301
#     4   9  16  26  39  61  95 139 175 204 237 270
#     4  10  20  30  43  66 104 143 175 202 233 287
#
# _framework density 16.877067
#
# number of rings (size 3 to 8) (size 9 to 14) (size 15 to 20)
#    0.000    2.375    1.250    3.375    0.000    4.250 
#    0.000    3.750    0.000    0.000    0.000    7.000 
#    0.000    9.000    0.000    0.000    0.000    0.125 
#
# Total GULP energy -178396.617290 kJ/mol
# GULP energy per Si atom -5574.894290 kJ/mol
# Density = 1.683865 g / cm^3
# Si number density = 16.877067 Si / 1000 Ang^3
#
#
#
# Elastic Constant Matrix: (Units=GPa)
#
#
# Indices 1 2 3 4 5 6 
#
# 1 75.2166 22.8870 18.8250 0.0000 -0.9367 0.0000
# 2 22.8870 50.8790 0.5815 0.0000 2.6732 0.0000
# 3 18.8250 0.5815 36.6552 0.0000 -12.3017 0.0000
# 4 0.0000 0.0000 0.0000 4.1553 0.0000 -3.7400
# 5 -0.9367 2.6732 -12.3017 0.0000 30.1383 0.0000
# 6 0.0000 0.0000 0.0000 -3.7400 0.0000 3.4444
#
#
#
# Elastic Compliance Matrix: (Units=1/GPa)
#
#
# Indices 1 2 3 4 5 6 
#
# 1 0.018226 -0.007930 -0.010207 0.000000 -0.002896 0.000000
# 2 -0.007930 0.023231 0.003395 0.000000 -0.000921 0.000000
# 3 -0.010207 0.003395 0.037383 0.000000 0.014640 0.000000
# 4 0.000000 0.000000 0.000000 10.593882 0.000000 11.502873
# 5 -0.002896 -0.000921 0.014640 0.000000 0.039148 0.000000
# 6 0.000000 0.000000 0.000000 11.502873 0.000000 12.780184
#
#
# Mechanical properties :
#
#
# Convention : Reuss Voigt Hill
#
# Bulk Modulus (GPa) = 20.26071 27.48196 23.87134
# Shear Modulus (GPa) = 0.21242 15.57808 7.89525
#
# Velocity S-wave (km/s) = 0.35516 3.04144 2.16524
# Velocity P-wave (km/s) = 3.49272 5.35283 4.51951
#
# Compressibility (1/GPa) = 0.04935660
#
# Stress axis : x y z
#
# Youngs Moduli (GPa) = 54.86582 43.04546 26.75041
#
# Poissons Ratio (x) = 0.34135 0.27303
# Poissons Ratio (y) = 0.43508 -0.09081
# Poissons Ratio (z) = 0.56000 -0.14613
#
# Static dielectric constant tensor:
#      x y z
#    x 1.600560 0.000000 -0.006110 
#    y 0.000000 1.515770 0.000000 
#    z -0.006110 0.000000 1.632240 
# 
# From -- ./inp_files/67315.got.cif
#   From: 2010.05.17/outbox.cif.g08.bks.cpg/sg10_34_cif.got.tgz:67315.got - 2010.06.03 11:33:40.
