data_PCOD9142265
_publ_section_title
;
Structure prediction by ZEFSAII (Michael W. Deem and Ramdas Pophale) SiO2 
 PCOD9142265
Probable space group: P 2/M
;
_chemical_formula_sum "Si O2"
_cell_formula_units_Z 30
_cell_length_a 14.972080
_cell_length_b 9.016744
_cell_length_c 12.383243
_cell_angle_alpha 90.000000
_cell_angle_beta 90.000014
_cell_angle_gamma 90.000000
_cell_volume 1671.730530
_symmetry_space_group_name_H-M "P 2/M"
_symmetry_group_IT_number 10
_symmetry_cell_setting 'monoclinic'
loop_
_space_group_symop_operation_xyz
x,y,z
-x,y,-z
-x,-y,-z
x,-y,z
loop_
_atom_site_type_symbol
_atom_site_label
_atom_site_fract_x
_atom_site_fract_y
_atom_site_fract_z
Si Si1 0.294422 0.167865 1.000000
Si Si2 0.500000 0.762550 0.000000
Si Si3 0.805470 0.679415 0.197733
Si Si4 0.000000 0.680400 0.125373
Si Si5 0.805470 0.320585 0.802267
Si Si6 0.327281 0.680932 0.376536
Si Si7 0.500000 0.673982 0.752819
Si Si8 0.672719 0.319068 0.376536
O O1 0.256175 0.253102 0.896117
O O2 0.260532 0.000000 1.000000
O O3 0.402113 0.163397 1.000000
O O4 0.256175 0.253102 0.103883
O O5 0.500000 0.685521 0.882165
O O6 0.802094 0.500000 0.187401
O O7 0.907575 0.727474 0.180314
O O8 0.762236 0.721058 0.312043
O O9 1.000000 0.500000 0.126152
O O10 0.092425 0.727473 0.180314
O O11 0.000000 0.726673 0.000000
O O12 0.802093 0.500000 0.812600
O O13 0.762236 0.278942 0.687957
O O14 0.330028 0.500000 0.378727
O O15 0.411236 0.734748 0.304935
O O16 0.331774 0.731896 0.500000
O O17 0.500000 0.500000 0.728067
O O18 0.411236 0.734748 0.695066
O O19 0.669973 0.500000 0.378727
#
# Coordination Sequence:
#
# PCOD9142265 Si02
#       8
#     4   2   4   4   4   4   4   4
#     4  12  24  36  51  75 108 141 167 210 263 309
#     4  12  22  34  48  72 103 142 165 206 259 320
#     4  10  19  34  55  78 103 138 175 211 254 309
#     4   9  16  28  51  79 107 132 165 212 263 305
#     4  10  19  34  55  78 103 138 175 211 254 309
#     4   9  17  29  47  74 106 137 171 213 254 294
#     4  10  18  27  48  78 105 131 171 215 255 304
#     4   9  17  29  47  74 106 137 171 213 254 294
#
# _framework density 17.945475999999999
#
# number of rings (size 3 to 8) (size 9 to 14) (size 15 to 20)
#    0.000    2.000    4.000    1.200    0.000    2.667 
#    0.000    2.000    0.000    4.800    0.000    1.867 
#    0.000    2.133    0.000    0.000    0.000    0.000 
#
# Total GULP energy -167106.389875 kJ/mol
# GULP energy per Si atom -5570.212996 kJ/mol
# Density = 1.790463 g / cm^3
# Si number density = 17.945476 Si / 1000 Ang^3
#
#
#
# Elastic Constant Matrix: (Units=GPa)
#
#
# Indices 1 2 3 4 5 6 
#
# 1 166.7172 13.9831 79.4929 0.0000 -0.0002 0.0000
# 2 13.9831 9.8867 4.9388 0.0000 0.0000 0.0000
# 3 79.4929 4.9388 150.1424 0.0000 -0.0001 0.0000
# 4 0.0000 0.0000 0.0000 -3.3163 0.0000 0.0000
# 5 -0.0002 0.0000 -0.0001 0.0000 20.6462 0.0000
# 6 0.0000 0.0000 0.0000 0.0000 0.0000 -2.3479
#
#
#
# Elastic Compliance Matrix: (Units=1/GPa)
#
#
# Indices 1 2 3 4 5 6 
#
# 1 0.008982 -0.010500 -0.004410 0.000000 0.000000 0.000000
# 2 -0.010500 0.115110 0.001773 0.000000 0.000000 0.000000
# 3 -0.004410 0.001773 0.008937 0.000000 0.000000 0.000000
# 4 0.000000 0.000000 0.000000 -0.301541 0.000000 -0.000004
# 5 0.000000 0.000000 0.000000 0.000000 0.048435 0.000000
# 6 0.000000 0.000000 0.000000 -0.000004 0.000000 -0.425906
#
#
# Mechanical properties :
#
#
# Convention : Reuss Voigt Hill
#
# Bulk Modulus (GPa) = 9.36728 58.17509 33.77118
# Shear Modulus (GPa) = -10.32794 18.21849 3.94528
#
# Velocity S-wave (km/s) = -2.40160 3.18970 1.48434
# Velocity P-wave (km/s) = 1.56813 6.78628 4.66876
#
# Compressibility (1/GPa) = 0.10675463
#
# Stress axis : x y z
#
# Youngs Moduli (GPa) = 111.33960 8.68731 111.89628
#
# Poissons Ratio (x) = 0.09122 0.49345
# Poissons Ratio (y) = 1.16905 -0.19836
# Poissons Ratio (z) = 0.49100 -0.01540
#
# Static dielectric constant tensor:
#      x y z
#    x 1.634270 0.000000 0.000000 
#    y 0.000000 1.601210 0.000000 
#    z 0.000000 0.000000 1.601500 
# 
# From -- ./inp_files/49270.got.cif
#   From: 2010.05.17/outbox.cif.g08.bks.cpg/sg10_25_cif.got.tgz:49270.got - 2010.06.03 11:33:40.
