data_PCOD9142343
_publ_section_title
;
Structure prediction by ZEFSAII (Michael W. Deem and Ramdas Pophale) SiO2 
 PCOD9142343
Probable space group: P 2/M
;
_chemical_formula_sum "Si O2"
_cell_formula_units_Z 32
_cell_length_a 18.990769
_cell_length_b 22.950476
_cell_length_c 13.683756
_cell_angle_alpha 90.000000
_cell_angle_beta 18.509995
_cell_angle_gamma 90.000000
_cell_volume 1893.400009
_symmetry_space_group_name_H-M "P 2/M"
_symmetry_group_IT_number 10
_symmetry_cell_setting 'monoclinic'
loop_
_space_group_symop_operation_xyz
x,y,z
-x,y,-z
-x,-y,-z
x,-y,z
loop_
_atom_site_type_symbol
_atom_site_label
_atom_site_fract_x
_atom_site_fract_y
_atom_site_fract_z
Si Si1 0.955037 0.707564 0.175368
Si Si2 0.171040 0.065082 0.683341
Si Si3 0.247161 0.565041 0.129276
Si Si4 0.489505 0.147600 0.353951
Si Si5 0.543451 0.732209 0.186770
Si Si6 0.298849 0.327432 0.193923
Si Si7 0.125241 0.164763 0.003659
Si Si8 0.154712 0.346488 0.090355
O O1 0.690311 0.702483 0.532143
O O2 0.086951 0.659901 0.066422
O O3 0.000000 0.706755 0.000000
O O4 0.026871 0.770225 0.126270
O O5 0.407040 0.088427 0.412064
O O6 0.183481 0.000000 0.624980
O O7 0.000000 0.061931 0.000000
O O8 0.063771 0.115973 0.759173
O O9 0.343339 0.500000 0.002622
O O10 0.350904 0.612772 0.065708
O O11 0.233760 0.593719 0.038832
O O12 0.000000 0.560909 0.500000
O O13 0.495552 0.201147 0.271829
O O14 0.294832 0.160959 0.688661
O O15 0.721500 0.149549 0.105568
O O16 0.708065 0.721137 0.880612
O O17 0.656979 0.700788 0.130073
O O18 0.071241 0.332148 0.552586
O O19 0.500000 0.314522 0.000000
#
# Coordination Sequence:
#
# PCOD9142343 Si02
#       8
#     4   4   4   4   4   4   4   4
#     4  12  20  30  50  75 102 133 171 206 249 297
#     4   9  17  29  42  61  93 132 169 208 249 295
#     4   8  16  32  52  73 101 133 164 201 251 301
#     4  10  18  28  45  66  95 130 167 201 247 298
#     4  11  19  31  50  70 104 137 159 204 254 300
#     4  10  19  32  51  78 106 131 162 205 256 299
#     4  10  18  29  43  67  97 129 166 207 244 297
#     4  10  21  34  50  75 106 132 162 207 251 301
#
# _framework density 16.900814
#
# number of rings (size 3 to 8) (size 9 to 14) (size 15 to 20)
#    0.000    2.000    5.000    1.500    0.000    1.250 
#    0.000    2.500    0.000    0.375    0.000    3.500 
#    0.000    6.500    0.000    0.000    0.000    0.500 
#
# Total GULP energy -178140.952245 kJ/mol
# GULP energy per Si atom -5566.904758 kJ/mol
# Density = 1.686235 g / cm^3
# Si number density = 16.900814 Si / 1000 Ang^3
#
#
#
# Elastic Constant Matrix: (Units=GPa)
#
#
# Indices 1 2 3 4 5 6 
#
# 1 86.5615 20.7888 11.8332 0.0000 -6.9394 0.0000
# 2 20.7888 73.6967 5.4967 0.0000 5.6874 0.0000
# 3 11.8332 5.4967 27.3861 0.0000 -10.2740 0.0000
# 4 0.0000 0.0000 0.0000 16.2198 0.0000 -3.8379
# 5 -6.9394 5.6874 -10.2740 0.0000 19.6697 0.0000
# 6 0.0000 0.0000 0.0000 -3.8379 0.0000 5.9348
#
#
#
# Elastic Compliance Matrix: (Units=1/GPa)
#
#
# Indices 1 2 3 4 5 6 
#
# 1 0.013254 -0.003784 -0.003486 0.000000 0.003949 0.000000
# 2 -0.003784 0.015616 -0.004594 0.000000 -0.008250 0.000000
# 3 -0.003486 -0.004594 0.048480 0.000000 0.025421 0.000000
# 4 0.000000 0.000000 0.000000 0.072791 0.000000 0.047072
# 5 0.003949 -0.008250 0.025421 0.000000 0.067896 0.000000
# 6 0.000000 0.000000 0.000000 0.047072 0.000000 0.198938
#
#
# Mechanical properties :
#
#
# Convention : Reuss Voigt Hill
#
# Bulk Modulus (GPa) = 18.64906 29.32019 23.98462
# Shear Modulus (GPa) = 10.90329 18.33324 14.61827
#
# Velocity S-wave (km/s) = 2.54270 3.29714 2.94418
# Velocity P-wave (km/s) = 4.43608 5.64631 5.07739
#
# Compressibility (1/GPa) = 0.05362201
#
# Stress axis : x y z
#
# Youngs Moduli (GPa) = 75.44711 64.03777 20.62711
#
# Poissons Ratio (x) = 0.24230 0.07191
# Poissons Ratio (y) = 0.28546 0.09477
# Poissons Ratio (z) = 0.26301 0.29421
#
# Static dielectric constant tensor:
#      x y z
#    x 1.609250 0.000000 0.001160 
#    y 0.000000 1.582390 0.000000 
#    z 0.001160 0.000000 1.572340 
# 
# From -- ./inp_files/54263.got.cif
#   From: 2010.05.17/outbox.cif.g08.bks.cpg/sg10_28_cif.got.tgz:54263.got - 2010.06.03 11:33:40.
