data_PCOD9142368
_publ_section_title
;
Structure prediction by ZEFSAII (Michael W. Deem and Ramdas Pophale) SiO2 
 PCOD9142368
Probable space group: P 2/M
;
_chemical_formula_sum "Si O2"
_cell_formula_units_Z 32
_cell_length_a 23.752487
_cell_length_b 9.008255
_cell_length_c 29.817102
_cell_angle_alpha 90.000000
_cell_angle_beta 16.678270
_cell_angle_gamma 90.000000
_cell_volume 1831.019227
_symmetry_space_group_name_H-M "P 2/M"
_symmetry_group_IT_number 10
_symmetry_cell_setting 'monoclinic'
loop_
_space_group_symop_operation_xyz
x,y,z
-x,y,-z
-x,-y,-z
x,-y,z
loop_
_atom_site_type_symbol
_atom_site_label
_atom_site_fract_x
_atom_site_fract_y
_atom_site_fract_z
Si Si1 0.036495 0.822117 0.252336
Si Si2 0.198299 0.177741 0.480302
Si Si3 0.031296 0.674188 0.870240
Si Si4 0.612406 0.322960 0.061817
Si Si5 0.839880 0.677551 0.586407
Si Si6 0.401558 0.828929 0.624905
Si Si7 0.228205 0.326132 0.621153
Si Si8 0.352206 0.177895 0.867693
O O1 0.941684 0.779346 0.372116
O O2 0.891435 0.765887 0.324036
O O3 0.054797 0.000000 0.236213
O O4 0.243759 0.745172 0.084609
O O5 0.140746 0.250924 0.477260
O O6 0.426289 0.214546 0.316771
O O7 0.190094 0.000000 0.481411
O O8 0.016145 0.500000 0.892018
O O9 0.190202 0.753456 0.780643
O O10 0.119448 0.687695 0.752336
O O11 0.819976 0.751594 0.030380
O O12 0.642453 0.500000 0.043019
O O13 0.383289 0.293643 0.227547
O O14 0.662643 0.246090 0.070976
O O15 0.860720 0.500000 0.565892
O O16 0.000000 0.730695 0.500000
O O17 0.500000 0.828138 0.500000
O O18 0.553449 0.737781 0.539251
O O19 0.386532 0.000000 0.650699
O O20 0.230996 0.500000 0.607377
O O21 0.329727 0.000000 0.886779
#
# Coordination Sequence:
#
# PCOD9142368 Si02
#       8
#     4   4   4   4   4   4   4   4
#     4  11  21  34  52  75 107 140 174 213 257 307
#     4   9  21  37  53  78 107 138 174 213 255 305
#     4  10  18  28  45  71 102 131 170 218 263 310
#     4  10  19  32  52  79 106 133 171 213 254 302
#     4   9  19  37  60  83 107 137 172 210 253 303
#     4   9  17  28  43  66  97 133 174 214 261 312
#     4  10  19  30  46  70 102 135 171 213 263 311
#     4  10  18  31  51  73 100 133 173 217 262 306
#
# _framework density 17.476606
#
# number of rings (size 3 to 8) (size 9 to 14) (size 15 to 20)
#    0.000    2.250    1.250    2.250    0.000    4.750 
#    0.000    0.625    0.000    4.500    0.000    5.250 
#    0.000    0.000    0.000    0.000    0.000    0.000 
#
# Total GULP energy -178563.008920 kJ/mol
# GULP energy per Si atom -5580.094029 kJ/mol
# Density = 1.743683 g / cm^3
# Si number density = 17.476606 Si / 1000 Ang^3
#
#
#
# Elastic Constant Matrix: (Units=GPa)
#
#
# Indices 1 2 3 4 5 6 
#
# 1 40.9816 22.5295 41.6835 0.0000 -7.1804 0.0000
# 2 22.5295 64.0587 43.4017 0.0000 -0.0045 0.0000
# 3 41.6835 43.4017 99.8554 0.0000 0.5956 0.0000
# 4 0.0000 0.0000 0.0000 0.8867 0.0000 -17.4082
# 5 -7.1804 -0.0045 0.5956 0.0000 29.4260 0.0000
# 6 0.0000 0.0000 0.0000 -17.4082 0.0000 15.2832
#
#
#
# Elastic Compliance Matrix: (Units=1/GPa)
#
#
# Indices 1 2 3 4 5 6 
#
# 1 0.046975 -0.004517 -0.017717 0.000000 0.011821 0.000000
# 2 -0.004517 0.022562 -0.007915 0.000000 -0.000939 0.000000
# 3 -0.017717 -0.007915 0.020879 0.000000 -0.004747 0.000000
# 4 0.000000 0.000000 0.000000 -0.052793 0.000000 -0.060133
# 5 0.011821 -0.000939 -0.004747 0.000000 0.036964 0.000000
# 6 0.000000 0.000000 0.000000 -0.060133 0.000000 -0.003063
#
#
# Mechanical properties :
#
#
# Convention : Reuss Voigt Hill
#
# Bulk Modulus (GPa) = 33.20217 46.68056 39.94137
# Shear Modulus (GPa) = 35.24562 15.60459 25.42510
#
# Velocity S-wave (km/s) = 4.49568 2.99136 3.81833
# Velocity P-wave (km/s) = 6.78140 6.22087 6.50718
#
# Compressibility (1/GPa) = 0.03011851
#
# Stress axis : x y z
#
# Youngs Moduli (GPa) = 21.28770 44.32203 47.89553
#
# Poissons Ratio (x) = 0.20020 0.84855
# Poissons Ratio (y) = 0.09616 0.37911
# Poissons Ratio (z) = 0.37715 0.35083
#
# Static dielectric constant tensor:
#      x y z
#    x 1.564940 0.000000 -0.002550 
#    y 0.000000 1.581870 0.000000 
#    z -0.002550 0.000000 1.606110 
# 
# From -- ./inp_files/86982.got.cif
#   From: 2010.05.17/outbox.cif.g08.bks.cpg/sg10_44_cif.got.tgz:86982.got - 2010.06.03 11:33:40.
