data_PCOD9142584
_publ_section_title
;
Structure prediction by ZEFSAII (Michael W. Deem and Ramdas Pophale) SiO2 
 PCOD9142584
Probable space group: P 2/M
;
_chemical_formula_sum "Si O2"
_cell_formula_units_Z 32
_cell_length_a 34.435559
_cell_length_b 7.957473
_cell_length_c 15.551572
_cell_angle_alpha 90.000000
_cell_angle_beta 24.799637
_cell_angle_gamma 90.000000
_cell_volume 1787.446314
_symmetry_space_group_name_H-M "P 2/M"
_symmetry_group_IT_number 10
_symmetry_cell_setting 'monoclinic'
loop_
_space_group_symop_operation_xyz
x,y,z
-x,y,-z
-x,-y,-z
x,-y,z
loop_
_atom_site_type_symbol
_atom_site_label
_atom_site_fract_x
_atom_site_fract_y
_atom_site_fract_z
Si Si1 0.619402 0.303946 0.015765
Si Si2 0.669212 0.704454 0.384931
Si Si3 0.977854 0.805549 0.140103
Si Si4 0.838645 0.306121 0.144655
Si Si5 0.301880 0.802450 0.428718
Si Si6 0.528865 0.806090 0.815783
Si Si7 0.779377 0.301201 0.587568
Si Si8 0.517674 0.705296 0.560958
O O1 0.629710 0.500000 0.015694
O O2 0.720314 0.236010 0.787722
O O3 0.557202 0.287534 0.054128
O O4 0.559368 0.232302 0.215435
O O5 0.662935 0.500000 0.409244
O O6 0.775097 0.751273 0.192183
O O7 0.605867 0.789838 0.585060
O O8 0.618481 0.746722 0.397936
O O9 0.888822 0.725938 0.363868
O O10 0.953471 0.000000 0.175360
O O11 0.069435 0.790471 0.013477
O O12 0.000000 0.733081 0.000000
O O13 0.864489 0.500000 0.080036
O O14 0.768113 0.292142 0.367047
O O15 0.408232 0.746461 0.230418
O O16 0.264111 0.780643 0.409747
O O17 0.299203 0.000000 0.456609
O O18 0.501216 0.000000 0.885026
O O19 0.762295 0.500000 0.615779
O O20 0.500000 0.764393 0.500000
O O21 0.513536 0.500000 0.568468
#
# Coordination Sequence:
#
# PCOD9142584 Si02
#       8
#     4   4   4   4   4   4   4   4
#     4   9  19  33  46  66  94 120 152 190 226 272
#     4   8  15  27  44  70  98 121 150 187 225 270
#     4  11  22  34  48  66  89 118 158 206 240 271
#     4  10  18  29  47  67  91 122 156 196 236 272
#     4  10  19  30  43  63  89 119 159 198 228 266
#     4   9  17  28  44  63  87 122 157 188 225 266
#     4  11  22  33  46  63  87 121 158 196 235 273
#     4   8  13  26  51  77  99 122 146 177 223 277
#
# _framework density 17.902636000000001
#
# number of rings (size 3 to 8) (size 9 to 14) (size 15 to 20)
#    0.000    2.500    1.250    2.625    0.000    4.000 
#    0.000    2.500    0.000    6.000    0.000    0.875 
#    0.000    7.000    0.000    0.000    0.000    0.000 
#
# Total GULP energy -178283.531944 kJ/mol
# GULP energy per Si atom -5571.360373 kJ/mol
# Density = 1.786189 g / cm^3
# Si number density = 17.902636 Si / 1000 Ang^3
#
#
#
# Elastic Constant Matrix: (Units=GPa)
#
#
# Indices 1 2 3 4 5 6 
#
# 1 102.9315 1.3797 49.0810 0.0000 -9.9197 0.0000
# 2 1.3797 21.1891 0.7917 0.0000 0.8630 0.0000
# 3 49.0810 0.7917 103.6970 0.0000 -14.5062 0.0000
# 4 0.0000 0.0000 0.0000 4.9915 0.0000 -10.2109
# 5 -9.9197 0.8630 -14.5062 0.0000 16.6063 0.0000
# 6 0.0000 0.0000 0.0000 -10.2109 0.0000 -1.1284
#
#
#
# Elastic Compliance Matrix: (Units=1/GPa)
#
#
# Indices 1 2 3 4 5 6 
#
# 1 0.012660 -0.000725 -0.005609 0.000000 0.002700 0.000000
# 2 -0.000725 0.047394 -0.000483 0.000000 -0.003318 0.000000
# 3 -0.005609 -0.000483 0.013484 0.000000 0.008454 0.000000
# 4 0.000000 0.000000 0.000000 0.010268 0.000000 -0.092915
# 5 0.002700 -0.003318 0.008454 0.000000 0.069389 0.000000
# 6 0.000000 0.000000 0.000000 -0.092915 0.000000 -0.045421
#
#
# Mechanical properties :
#
#
# Convention : Reuss Voigt Hill
#
# Bulk Modulus (GPa) = 16.69288 36.70250 26.69769
# Shear Modulus (GPa) = 35.36690 15.86489 25.61590
#
# Velocity S-wave (km/s) = 4.44950 2.98010 3.78675
# Velocity P-wave (km/s) = 5.97845 5.69096 5.83647
#
# Compressibility (1/GPa) = 0.05990579
#
# Stress axis : x y z
#
# Youngs Moduli (GPa) = 78.99195 21.09955 74.15967
#
# Poissons Ratio (x) = 0.01529 0.41593
# Poissons Ratio (y) = 0.05725 0.03582
# Poissons Ratio (z) = 0.44303 0.01019
#
# Static dielectric constant tensor:
#      x y z
#    x 1.630540 0.000000 -0.008890 
#    y 0.000000 1.639050 0.000000 
#    z -0.008890 0.000000 1.646580 
# 
# From -- ./inp_files/52734.got.cif
#   From: 2010.05.17/outbox.cif.g08.bks.cpg/sg10_27_cif.got.tgz:52734.got - 2010.06.03 11:33:40.
