data_PCOD9142792
_publ_section_title
;
Structure prediction by ZEFSAII (Michael W. Deem and Ramdas Pophale) SiO2 
 PCOD9142792
Probable space group: P 2/M
;
_chemical_formula_sum "Si O2"
_cell_formula_units_Z 32
_cell_length_a 12.644482
_cell_length_b 8.515215
_cell_length_c 21.985024
_cell_angle_alpha 90.000000
_cell_angle_beta 132.477502
_cell_angle_gamma 90.000000
_cell_volume 1745.865130
_symmetry_space_group_name_H-M "P 2/M"
_symmetry_group_IT_number 10
_symmetry_cell_setting 'monoclinic'
loop_
_space_group_symop_operation_xyz
x,y,z
-x,y,-z
-x,-y,-z
x,-y,z
loop_
_atom_site_type_symbol
_atom_site_label
_atom_site_fract_x
_atom_site_fract_y
_atom_site_fract_z
Si Si1 0.291761 0.317633 0.241584
Si Si2 0.738768 0.820555 0.022598
Si Si3 0.561367 0.186826 0.286757
Si Si4 0.452242 0.189860 0.859320
Si Si5 0.136544 0.689597 0.736862
Si Si6 0.875994 0.310316 0.406542
Si Si7 0.169538 0.326139 0.058724
Si Si8 0.010701 0.689021 0.200635
O O1 0.316305 0.500000 0.267930
O O2 0.443899 0.234918 0.291063
O O3 0.230117 0.312831 0.149341
O O4 0.162235 0.251622 0.232690
O O5 0.868592 0.737456 0.107928
O O6 0.733070 0.000000 0.041755
O O7 0.576414 0.755416 0.954051
O O8 0.782412 0.807434 0.968514
O O9 0.525216 0.242645 0.202850
O O10 0.717574 0.253921 0.362498
O O11 0.568274 0.000000 0.286128
O O12 0.293619 0.245719 0.814671
O O13 0.457251 0.000000 0.861835
O O14 0.144934 0.500000 0.740504
O O15 0.100964 0.741039 0.654499
O O16 0.021736 0.737268 0.742884
O O17 0.876652 0.500000 0.407460
O O18 0.000000 0.254575 0.500000
O O19 0.209478 0.500000 0.049191
O O20 0.000000 0.322111 0.000000
O O21 0.018974 0.500000 0.200031
#
# Coordination Sequence:
#
# PCOD9142792 Si02
#       8
#     4   4   4   4   4   4   4   4
#     4  10  19  31  49  70  98 135 170 210 253 293
#     4  11  21  31  45  68  98 135 177 218 259 293
#     4  10  19  32  51  78 108 132 163 205 250 299
#     4   9  19  33  47  67  99 133 166 212 258 294
#     4   9  19  35  55  75  97 129 166 206 250 303
#     4   9  18  35  60  87 107 124 155 200 252 307
#     4  10  18  30  46  66  93 131 176 221 262 291
#     4  10  21  36  49  68  99 136 178 212 248 297
#
# _framework density 18.329021000000001
#
# number of rings (size 3 to 8) (size 9 to 14) (size 15 to 20)
#    0.000    2.250    2.500    0.750    0.000    3.500 
#    0.000    2.500    0.000    0.750    0.000    5.250 
#    0.000    0.000    0.000    0.000    0.000    0.000 
#
# Total GULP energy -178327.791118 kJ/mol
# GULP energy per Si atom -5572.743472 kJ/mol
# Density = 1.828730 g / cm^3
# Si number density = 18.329021 Si / 1000 Ang^3
#
#
#
# Elastic Constant Matrix: (Units=GPa)
#
#
# Indices 1 2 3 4 5 6 
#
# 1 125.2116 14.5437 56.1931 0.0000 8.9058 0.0000
# 2 14.5437 6.7526 13.2459 0.0000 1.2395 0.0000
# 3 56.1931 13.2459 83.6212 0.0000 20.1249 0.0000
# 4 0.0000 0.0000 0.0000 10.8583 0.0000 -1.2630
# 5 8.9058 1.2395 20.1249 0.0000 16.8279 0.0000
# 6 0.0000 0.0000 0.0000 -1.2630 0.0000 -20.3943
#
#
#
# Elastic Compliance Matrix: (Units=1/GPa)
#
#
# Indices 1 2 3 4 5 6 
#
# 1 0.012476 -0.014070 -0.006762 0.000000 0.002520 0.000000
# 2 -0.014070 0.246408 -0.037913 0.000000 0.034638 0.000000
# 3 -0.006762 -0.037913 0.029452 0.000000 -0.028851 0.000000
# 4 0.000000 0.000000 0.000000 0.091437 0.000000 -0.005662
# 5 0.002520 0.034638 -0.028851 0.000000 0.090043 0.000000
# 6 0.000000 0.000000 0.000000 -0.005662 0.000000 -0.048683
#
#
# Mechanical properties :
#
#
# Convention : Reuss Voigt Hill
#
# Bulk Modulus (GPa) = 5.85322 42.61675 24.23498
# Shear Modulus (GPa) = 8.39531 10.23191 9.31361
#
# Velocity S-wave (km/s) = 2.14249 2.36526 2.25663
# Velocity P-wave (km/s) = 3.05299 5.54624 4.47669
#
# Compressibility (1/GPa) = 0.17084616
#
# Stress axis : x y z
#
# Youngs Moduli (GPa) = 80.15392 4.05831 33.95411
#
# Poissons Ratio (x) = 0.05710 0.22959
# Poissons Ratio (y) = 1.12774 1.28731
# Poissons Ratio (z) = 0.54197 0.15386
#
# Static dielectric constant tensor:
#      x y z
#    x 1.669300 0.000000 -0.002120 
#    y 0.000000 1.652660 0.000000 
#    z -0.002120 0.000000 1.626770 
# 
# From -- ./inp_files/55227.got.cif
#   From: 2010.05.17/outbox.cif.g08.bks.cpg/sg10_28_cif.got.tgz:55227.got - 2010.06.03 11:33:40.
