data_PCOD9142772
_publ_section_title
;
Structure prediction by ZEFSAII (Michael W. Deem and Ramdas Pophale) SiO2 
 PCOD9142772
Probable space group: P 2/M
;
_chemical_formula_sum "Si O2"
_cell_formula_units_Z 30
_cell_length_a 13.963571
_cell_length_b 11.981251
_cell_length_c 7.923453
_cell_angle_alpha 90.000000
_cell_angle_beta 124.467785
_cell_angle_gamma 90.000000
_cell_volume 1092.885310
_symmetry_space_group_name_H-M "P 2/M"
_symmetry_group_IT_number 10
_symmetry_cell_setting 'monoclinic'
loop_
_space_group_symop_operation_xyz
x,y,z
-x,y,-z
-x,-y,-z
x,-y,z
loop_
_atom_site_type_symbol
_atom_site_label
_atom_site_fract_x
_atom_site_fract_y
_atom_site_fract_z
Si Si1 0.000000 0.802080 0.000000
Si Si2 0.160471 0.346324 0.571913
Si Si3 0.148467 0.115305 0.457079
Si Si4 0.920084 0.615401 0.147434
Si Si5 0.643474 0.625138 0.515000
Si Si6 0.583899 0.373915 0.921757
Si Si7 0.627777 0.874539 0.531955
Si Si8 0.586251 0.124306 0.926594
O O1 0.914687 0.720196 0.019551
O O2 0.074371 0.868063 0.211765
O O3 0.132338 0.216701 0.561879
O O4 0.154475 0.385424 0.756659
O O5 0.273509 0.368476 0.570845
O O6 0.051588 0.385541 0.351210
O O7 0.282701 0.118929 0.536978
O O8 0.118234 0.000000 0.508027
O O9 0.898218 0.500000 0.030654
O O10 0.666226 0.500000 0.609503
O O11 0.510046 0.626814 0.322861
O O12 0.659377 0.746572 0.621396
O O13 0.635526 0.500000 0.970089
O O14 0.642703 0.249112 0.984669
O O15 0.500000 0.372961 0.000000
O O16 0.497656 0.874465 0.323624
O O17 0.651562 0.000000 0.631413
O O18 0.645180 0.000000 0.991035
O O19 0.500000 0.124201 0.000000
#
# Coordination Sequence:
#
# PCOD9142772 Si02
#       8
#     2   4   4   4   4   4   4   4
#     4  10  20  30  42  60  78 108 146 176 212 252
#     4   9  17  28  44  63  80 104 138 173 215 260
#     4   9  17  30  44  59  82 110 142 177 211 249
#     4  10  18  30  44  60  83 106 134 176 221 260
#     4   9  14  21  35  54  74 100 133 162 193 238
#     4   8  13  19  27  43  70 101 127 151 184 230
#     4   8  14  23  35  51  74 104 132 161 200 243
#     4   8  12  18  29  46  68  96 128 156 187 235
#
# _framework density 27.450275999999999
#
# number of rings (size 3 to 8) (size 9 to 14) (size 15 to 20)
#    0.000    3.200    0.000    2.000    0.000    0.000 
#    0.000    6.667    0.000    0.000    0.000    0.000 
#    0.000    0.000    0.000   58.800    0.000  661.600 
#
# Total GULP energy -167338.693963 kJ/mol
# GULP energy per Si atom -5577.956465 kJ/mol
# Density = 2.738780 g / cm^3
# Si number density = 27.450276 Si / 1000 Ang^3
#
#
#
# Elastic Constant Matrix: (Units=GPa)
#
#
# Indices 1 2 3 4 5 6 
#
# 1 90.2227 46.9902 18.3498 0.0000 -2.3569 0.0000
# 2 46.9902 342.0672 28.4465 0.0000 5.0457 0.0000
# 3 18.3498 28.4465 89.6412 0.0000 3.4739 0.0000
# 4 0.0000 0.0000 0.0000 -126.4146 0.0000 -47.2302
# 5 -2.3569 5.0457 3.4739 0.0000 55.9369 0.0000
# 6 0.0000 0.0000 0.0000 -47.2302 0.0000 -6.3337
#
#
#
# Elastic Compliance Matrix: (Units=1/GPa)
#
#
# Indices 1 2 3 4 5 6 
#
# 1 0.012323 -0.001533 -0.002067 0.000000 0.000786 0.000000
# 2 -0.001533 0.003196 -0.000688 0.000000 -0.000310 0.000000
# 3 -0.002067 -0.000688 0.011827 0.000000 -0.000759 0.000000
# 4 0.000000 0.000000 0.000000 0.004429 0.000000 -0.033028
# 5 0.000786 -0.000310 -0.000759 0.000000 0.017986 0.000000
# 6 0.000000 0.000000 0.000000 -0.033028 0.000000 0.088400
#
#
# Mechanical properties :
#
#
# Convention : Reuss Voigt Hill
#
# Bulk Modulus (GPa) = 53.27680 78.83378 66.05529
# Shear Modulus (GPa) = 32.68153 13.18070 22.93112
#
# Velocity S-wave (km/s) = 3.45421 2.19365 2.89341
# Velocity P-wave (km/s) = 5.94637 5.93272 5.93955
#
# Compressibility (1/GPa) = 0.01876990
#
# Stress axis : x y z
#
# Youngs Moduli (GPa) = 81.15104 312.91587 84.55573
#
# Poissons Ratio (x) = 0.47955 0.17474
# Poissons Ratio (y) = 0.12437 0.05821
# Poissons Ratio (z) = 0.16771 0.21541
#
# Static dielectric constant tensor:
#      x y z
#    x 2.141830 0.000000 -0.024180 
#    y 0.000000 2.209380 0.000000 
#    z -0.024180 0.000000 2.132290 
# 
# From -- ./inp_files/32448.got.cif
#   From: 2010.05.17/outbox.cif.g08.bks.cpg/sg10_17_cif.got.tgz:32448.got - 2010.06.03 11:33:40.
