data_PCOD9142321
_publ_section_title
;
Structure prediction by ZEFSAII (Michael W. Deem and Ramdas Pophale) SiO2 
 PCOD9142321
Probable space group: P 2/M
;
_chemical_formula_sum "Si O2"
_cell_formula_units_Z 32
_cell_length_a 11.470844
_cell_length_b 9.287115
_cell_length_c 21.226186
_cell_angle_alpha 90.000000
_cell_angle_beta 115.265534
_cell_angle_gamma 90.000000
_cell_volume 2044.935641
_symmetry_space_group_name_H-M "P 2/M"
_symmetry_group_IT_number 10
_symmetry_cell_setting 'monoclinic'
loop_
_space_group_symop_operation_xyz
x,y,z
-x,y,-z
-x,-y,-z
x,-y,z
loop_
_atom_site_type_symbol
_atom_site_label
_atom_site_fract_x
_atom_site_fract_y
_atom_site_fract_z
Si Si1 0.923151 0.666288 0.624773
Si Si2 0.789522 0.328143 0.962775
Si Si3 0.000453 0.828696 0.235052
Si Si4 0.976812 0.672238 0.890692
Si Si5 0.292421 0.828843 0.787866
Si Si6 0.776552 0.334352 0.350352
Si Si7 0.473537 0.173293 0.066040
Si Si8 0.849396 0.833606 0.487356
O O1 0.883818 0.500000 0.622649
O O2 0.845867 0.747915 0.552102
O O3 0.924155 0.751499 0.690624
O O4 0.072706 0.666076 0.636086
O O5 0.767998 0.500000 0.959850
O O6 0.863677 0.296169 0.914659
O O7 0.657248 0.244844 0.940297
O O8 0.889812 0.292977 0.042132
O O9 0.847835 0.803568 0.213309
O O10 0.034104 0.759419 0.175991
O O11 0.022033 0.000000 0.240911
O O12 0.976297 0.500000 0.878523
O O13 0.297306 0.742199 0.723800
O O14 0.405687 0.788257 0.861853
O O15 0.300608 0.000000 0.776758
O O16 0.737741 0.500000 0.349812
O O17 0.772161 0.246147 0.414198
O O18 0.460515 0.000000 0.064172
O O19 0.500000 0.216852 0.000000
O O20 0.000000 0.832963 0.500000
O O21 0.811497 0.000000 0.485614
#
# Coordination Sequence:
#
# PCOD9142321 Si02
#       8
#     4   4   4   4   4   4   4   4
#     4   9  16  25  37  56  84 115 146 181 219 259
#     4   9  19  34  50  67  87 114 148 184 223 268
#     4  10  18  28  44  65  88 117 152 184 219 265
#     4   9  18  33  49  65  88 115 144 183 228 267
#     4   9  18  30  42  60  89 120 148 182 223 265
#     4   9  16  25  38  56  79 111 150 185 217 258
#     4  10  20  33  48  67  92 119 147 183 225 265
#     4   9  15  23  36  54  79 112 147 181 218 260
#
# _framework density 15.648414000000001
#
# number of rings (size 3 to 8) (size 9 to 14) (size 15 to 20)
#    0.000    2.750    0.000    3.000    0.000    7.750 
#    0.000    1.250    0.000    0.000    0.000    0.000 
#    0.000    1.000    0.000   10.500    0.000    8.875 
#
# Total GULP energy -178356.709082 kJ/mol
# GULP energy per Si atom -5573.647159 kJ/mol
# Density = 1.561280 g / cm^3
# Si number density = 15.648414 Si / 1000 Ang^3
#
#
#
# Elastic Constant Matrix: (Units=GPa)
#
#
# Indices 1 2 3 4 5 6 
#
# 1 35.3420 33.1615 44.5433 0.0000 -5.8771 0.0000
# 2 33.1615 91.0476 87.6023 0.0000 -15.5145 0.0000
# 3 44.5433 87.6023 167.2914 0.0000 -22.2403 0.0000
# 4 0.0000 0.0000 0.0000 30.2901 0.0000 -4.6303
# 5 -5.8771 -15.5145 -22.2403 0.0000 19.8363 0.0000
# 6 0.0000 0.0000 0.0000 -4.6303 0.0000 20.4956
#
#
#
# Elastic Compliance Matrix: (Units=1/GPa)
#
#
# Indices 1 2 3 4 5 6 
#
# 1 0.046965 -0.010442 -0.007372 0.000000 -0.002517 0.000000
# 2 -0.010442 0.024901 -0.009497 0.000000 0.005734 0.000000
# 3 -0.007372 -0.009497 0.013674 0.000000 0.005719 0.000000
# 4 0.000000 0.000000 0.000000 0.034195 0.000000 0.007725
# 5 -0.002517 0.005734 0.005719 0.000000 0.060564 0.000000
# 6 0.000000 0.000000 0.000000 0.007725 0.000000 0.050536
#
#
# Mechanical properties :
#
#
# Convention : Reuss Voigt Hill
#
# Bulk Modulus (GPa) = 32.34267 69.36614 50.85441
# Shear Modulus (GPa) = 16.90549 22.68264 19.79407
#
# Velocity S-wave (km/s) = 3.29041 3.81138 3.56044
# Velocity P-wave (km/s) = 5.92865 7.98705 7.03356
#
# Compressibility (1/GPa) = 0.03091890
#
# Stress axis : x y z
#
# Youngs Moduli (GPa) = 21.29249 40.15903 73.13279
#
# Poissons Ratio (x) = 0.41933 0.53912
# Poissons Ratio (y) = 0.22233 0.69453
# Poissons Ratio (z) = 0.15696 0.38138
#
# Static dielectric constant tensor:
#      x y z
#    x 1.490270 0.000000 -0.002710 
#    y 0.000000 1.521840 0.000000 
#    z -0.002710 0.000000 1.514610 
# 
# From -- ./inp_files/54787.got.cif
#   From: 2010.05.17/outbox.cif.g08.bks.cpg/sg10_28_cif.got.tgz:54787.got - 2010.06.03 11:33:40.
