data_PCOD9142024
_publ_section_title
;
Structure prediction by ZEFSAII (Michael W. Deem and Ramdas Pophale) SiO2 
 PCOD9142024
Probable space group: P 2/M
;
_chemical_formula_sum "Si O2"
_cell_formula_units_Z 24
_cell_length_a 17.978198
_cell_length_b 12.452288
_cell_length_c 5.397020
_cell_angle_alpha 90.000000
_cell_angle_beta 98.014163
_cell_angle_gamma 90.000000
_cell_volume 1196.429238
_symmetry_space_group_name_H-M "P 2/M"
_symmetry_group_IT_number 10
_symmetry_cell_setting 'monoclinic'
loop_
_space_group_symop_operation_xyz
x,y,z
-x,y,-z
-x,-y,-z
x,-y,z
loop_
_atom_site_type_symbol
_atom_site_label
_atom_site_fract_x
_atom_site_fract_y
_atom_site_fract_z
Si Si1 0.472405 0.828169 0.737086
Si Si2 0.834923 0.311527 0.376689
Si Si3 0.078559 0.125175 0.388850
Si Si4 0.342977 0.679651 0.676515
Si Si5 0.084427 0.328808 0.091136
Si Si6 0.577365 0.616102 0.786302
O O1 0.500000 0.881698 0.500000
O O2 0.385119 0.795956 0.696171
O O3 0.518641 0.713820 0.758409
O O4 0.500000 0.881545 0.000000
O O5 0.859035 0.186209 0.418079
O O6 0.746273 0.320781 0.360494
O O7 0.878100 0.365416 0.631709
O O8 0.865522 0.350180 0.126339
O O9 0.078258 0.199853 0.144177
O O10 0.000000 0.138219 0.500000
O O11 0.091347 0.000000 0.349317
O O12 0.372290 0.627079 0.436000
O O13 0.373188 0.626599 0.943158
O O14 0.000000 0.367446 0.000000
O O15 0.539503 0.500000 0.767568
#
# Coordination Sequence:
#
# PCOD9142024 Si02
#       6
#     4   4   4   4   4   4
#     4   8  16  27  42  63  89 121 152 180 216 275
#     4  10  19  30  44  65  98 128 153 188 227 273
#     4   9  18  30  48  71  98 125 153 186 228 279
#     4  10  19  30  44  66  97 127 153 188 229 276
#     4  10  17  31  44  65  91 122 155 186 221 271
#     4  10  19  31  48  69  95 126 154 186 231 285
#
# _framework density 20.05969
#
# number of rings (size 3 to 8) (size 9 to 14) (size 15 to 20)
#    1.000    1.500    1.667    2.000    0.000    7.000 
#    0.000    0.000    0.000    0.000    0.000    0.000 
#    0.000   89.333    0.000    0.333    0.000    0.000 
#
# Total GULP energy -133684.725656 kJ/mol
# GULP energy per Si atom -5570.196902 kJ/mol
# Density = 2.001403 g / cm^3
# Si number density = 20.059690 Si / 1000 Ang^3
#
#
#
# Elastic Constant Matrix: (Units=GPa)
#
#
# Indices 1 2 3 4 5 6 
#
# 1 133.6638 11.9052 56.2431 0.0000 -7.6205 0.0000
# 2 11.9052 70.2561 10.3910 0.0000 0.1101 0.0000
# 3 56.2431 10.3910 193.2471 0.0000 -13.8343 0.0000
# 4 0.0000 0.0000 0.0000 -6.8910 0.0000 -0.6735
# 5 -7.6205 0.1101 -13.8343 0.0000 35.2046 0.0000
# 6 0.0000 0.0000 0.0000 -0.6735 0.0000 3.5092
#
#
#
# Elastic Compliance Matrix: (Units=1/GPa)
#
#
# Indices 1 2 3 4 5 6 
#
# 1 0.008638 -0.001112 -0.002387 0.000000 0.000935 0.000000
# 2 -0.001112 0.014495 -0.000490 0.000000 -0.000479 0.000000
# 3 -0.002387 -0.000490 0.006029 0.000000 0.001854 0.000000
# 4 0.000000 0.000000 0.000000 -0.142444 0.000000 -0.027337
# 5 0.000935 -0.000479 0.001854 0.000000 0.029338 0.000000
# 6 0.000000 0.000000 0.000000 -0.027337 0.000000 0.279717
#
#
# Mechanical properties :
#
#
# Convention : Reuss Voigt Hill
#
# Bulk Modulus (GPa) = 47.20719 61.58285 54.39502
# Shear Modulus (GPa) = 23.71772 27.60640 25.66206
#
# Velocity S-wave (km/s) = 3.44227 3.71376 3.58059
# Velocity P-wave (km/s) = 6.27562 7.01112 6.65354
#
# Compressibility (1/GPa) = 0.02118321
#
# Stress axis : x y z
#
# Youngs Moduli (GPa) = 115.76217 68.98772 165.87560
#
# Poissons Ratio (x) = 0.07673 0.39601
# Poissons Ratio (y) = 0.12875 0.08128
# Poissons Ratio (z) = 0.27637 0.03380
#
# Static dielectric constant tensor:
#      x y z
#    x 1.678730 0.000000 0.005590 
#    y 0.000000 1.721110 0.000000 
#    z 0.005590 0.000000 1.778410 
# 
# From -- ./inp_files/10967.got.cif
#   From: 2010.05.17/outbox.cif.g08.bks.cpg/sg10_6_cif.got.tgz:10967.got - 2010.06.03 11:33:40.
