data_PCOD9142046
_publ_section_title
;
Structure prediction by ZEFSAII (Michael W. Deem and Ramdas Pophale) SiO2 
 PCOD9142046
Probable space group: P 2/M
;
_chemical_formula_sum "Si O2"
_cell_formula_units_Z 32
_cell_length_a 9.083576
_cell_length_b 16.671676
_cell_length_c 22.232834
_cell_angle_alpha 90.000000
_cell_angle_beta 31.652469
_cell_angle_gamma 90.000000
_cell_volume 1766.836447
_symmetry_space_group_name_H-M "P 2/M"
_symmetry_group_IT_number 10
_symmetry_cell_setting 'monoclinic'
loop_
_space_group_symop_operation_xyz
x,y,z
-x,y,-z
-x,-y,-z
x,-y,z
loop_
_atom_site_type_symbol
_atom_site_label
_atom_site_fract_x
_atom_site_fract_y
_atom_site_fract_z
Si Si1 0.022249 0.262314 0.903031
Si Si2 0.310175 0.250781 0.673356
Si Si3 0.595843 0.089565 0.579356
Si Si4 0.060918 0.685791 0.541278
Si Si5 0.117486 0.332789 0.266970
Si Si6 0.789446 0.862623 0.645531
Si Si7 0.425606 0.204855 0.862934
Si Si8 0.392596 0.408928 0.970001
O O1 0.148326 0.248641 0.793395
O O2 0.268364 0.258877 0.866790
O O3 0.801452 0.195862 0.005172
O O4 0.845505 0.344758 0.964299
O O5 0.389463 0.159198 0.628078
O O6 0.614621 0.290627 0.573072
O O7 0.133894 0.303923 0.688112
O O8 0.658465 0.105634 0.628868
O O9 0.911986 0.097643 0.443247
O O10 0.489822 0.000000 0.607057
O O11 0.000000 0.641643 0.500000
O O12 0.986544 0.645936 0.630300
O O13 0.878436 0.769002 0.604281
O O14 0.314242 0.254011 0.201978
O O15 0.328921 0.397980 0.166829
O O16 0.561390 0.866801 0.777689
O O17 0.288609 0.500000 0.003395
O O18 0.500000 0.391023 0.000000
#
# Coordination Sequence:
#
# PCOD9142046 Si02
#       8
#     4   4   4   4   4   4   4   4
#     4  10  18  32  53  80 107 141 183 228 266 315
#     4  11  18  31  52  78 111 138 185 226 275 324
#     4  10  18  28  50  78 108 146 182 228 288 332
#     4  10  17  31  53  79 104 137 183 234 267 310
#     4  10  20  32  53  82 108 141 183 229 269 320
#     4   9  14  29  48  73 102 139 182 232 262 315
#     4   9  18  30  50  76 106 136 187 229 261 309
#     4  10  20  36  57  83 116 145 177 222 276 328
#
# _framework density 18.111467000000001
#
# number of rings (size 3 to 8) (size 9 to 14) (size 15 to 20)
#    0.000    2.125    5.000    1.875    0.000    0.000 
#    0.000    5.000    0.000   21.375    0.000    6.125 
#    0.000    1.250    0.000    0.000    0.000    0.000 
#
# Total GULP energy -178189.078773 kJ/mol
# GULP energy per Si atom -5568.408712 kJ/mol
# Density = 1.807024 g / cm^3
# Si number density = 18.111467 Si / 1000 Ang^3
#
#
#
# Elastic Constant Matrix: (Units=GPa)
#
#
# Indices 1 2 3 4 5 6 
#
# 1 58.7416 4.2758 35.5984 0.0000 7.9064 0.0000
# 2 4.2758 36.8974 13.4609 0.0000 -4.6600 0.0000
# 3 35.5984 13.4609 126.9800 0.0000 18.5475 0.0000
# 4 0.0000 0.0000 0.0000 12.1557 0.0000 -0.7413
# 5 7.9064 -4.6600 18.5475 0.0000 38.8083 0.0000
# 6 0.0000 0.0000 0.0000 -0.7413 0.0000 -0.2749
#
#
#
# Elastic Compliance Matrix: (Units=1/GPa)
#
#
# Indices 1 2 3 4 5 6 
#
# 1 0.020606 -0.000601 -0.005471 0.000000 -0.001655 0.000000
# 2 -0.000601 0.029211 -0.003718 0.000000 0.005407 0.000000
# 3 -0.005471 -0.003718 0.010434 0.000000 -0.004318 0.000000
# 4 0.000000 0.000000 0.000000 0.070647 0.000000 -0.190524
# 5 -0.001655 0.005407 -0.004318 0.000000 0.028818 0.000000
# 6 0.000000 0.000000 0.000000 -0.190524 0.000000 -3.124209
#
#
# Mechanical properties :
#
#
# Convention : Reuss Voigt Hill
#
# Bulk Modulus (GPa) = 24.58768 36.58769 30.58768
# Shear Modulus (GPa) = -1.70570 21.42340 9.85885
#
# Velocity S-wave (km/s) = -0.97150 3.44301 2.33565
# Velocity P-wave (km/s) = 3.51380 6.00425 4.91924
#
# Compressibility (1/GPa) = 0.04067077
#
# Stress axis : x y z
#
# Youngs Moduli (GPa) = 48.52955 34.23362 95.84020
#
# Poissons Ratio (x) = 0.02057 0.52437
# Poissons Ratio (y) = 0.02916 0.35632
# Poissons Ratio (z) = 0.26552 0.12728
#
# Static dielectric constant tensor:
#      x y z
#    x 1.645490 0.000000 0.031470 
#    y 0.000000 1.609880 0.000000 
#    z 0.031470 0.000000 1.672900 
# 
# From -- ./inp_files/88313.got.cif
#   From: 2010.05.17/outbox.cif.g08.bks.cpg/sg10_45_cif.got.tgz:88313.got - 2010.06.03 11:33:40.
