data_PCOD9142246
_publ_section_title
;
Structure prediction by ZEFSAII (Michael W. Deem and Ramdas Pophale) SiO2 
 PCOD9142246
Probable space group: P 2/M
;
_chemical_formula_sum "Si O2"
_cell_formula_units_Z 28
_cell_length_a 14.397507
_cell_length_b 7.861538
_cell_length_c 14.947220
_cell_angle_alpha 90.000000
_cell_angle_beta 105.237953
_cell_angle_gamma 90.000000
_cell_volume 1632.344111
_symmetry_space_group_name_H-M "P 2/M"
_symmetry_group_IT_number 10
_symmetry_cell_setting 'monoclinic'
loop_
_space_group_symop_operation_xyz
x,y,z
-x,y,-z
-x,-y,-z
x,-y,z
loop_
_atom_site_type_symbol
_atom_site_label
_atom_site_fract_x
_atom_site_fract_y
_atom_site_fract_z
Si Si1 0.864180 0.705114 0.895896
Si Si2 0.083990 0.303556 0.409765
Si Si3 0.390360 0.207995 0.477630
Si Si4 0.883099 0.701479 0.290505
Si Si5 0.756192 0.804110 0.412943
Si Si6 0.081251 0.292365 0.898249
Si Si7 0.227194 0.200432 0.300934
O O1 0.861884 0.500000 0.894371
O O2 0.784180 0.768679 0.806891
O O3 0.969744 0.757428 0.885391
O O4 0.861147 0.762233 0.998384
O O5 0.078033 0.500000 0.438346
O O6 0.152345 0.210455 0.497219
O O7 0.140644 0.295185 0.330117
O O8 0.978009 0.230954 0.365975
O O9 0.500000 0.266484 0.500000
O O10 0.331974 0.268565 0.550783
O O11 0.325579 0.254214 0.374982
O O12 0.391411 0.000000 0.481344
O O13 0.901058 0.500000 0.287963
O O14 0.790111 0.726365 0.328195
O O15 0.881237 0.767615 0.188494
O O16 0.734758 0.000000 0.390286
O O17 0.082871 0.500000 0.899196
O O18 0.214774 0.000000 0.315636
#
# Coordination Sequence:
#
# PCOD9142246 Si02
#       7
#     4   4   4   4   4   4   4
#     4   9  15  28  46  62  85 119 156 184 207 249
#     4  10  18  29  44  60  84 122 156 176 201 252
#     4   8  16  32  49  63  83 113 145 176 218 273
#     4  10  18  29  43  61  86 121 155 175 202 251
#     4  10  20  30  43  65  88 110 141 184 226 260
#     4   8  15  27  44  62  83 120 162 183 196 242
#     4  10  18  27  44  69  92 112 142 186 229 260
#
# _framework density 17.153248000000001
#
# number of rings (size 3 to 8) (size 9 to 14) (size 15 to 20)
#    0.000    2.714    1.429    3.429    0.000    2.857 
#    0.000    2.143    0.000   15.429    0.000    1.000 
#    0.000    8.000    0.000    0.000    0.000    0.000 
#
# Total GULP energy -156019.092649 kJ/mol
# GULP energy per Si atom -5572.110452 kJ/mol
# Density = 1.711421 g / cm^3
# Si number density = 17.153248 Si / 1000 Ang^3
#
#
#
# Elastic Constant Matrix: (Units=GPa)
#
#
# Indices 1 2 3 4 5 6 
#
# 1 104.7950 3.7141 63.4863 0.0000 -6.0222 0.0000
# 2 3.7141 19.1456 -2.3315 0.0000 0.1977 0.0000
# 3 63.4863 -2.3315 100.5664 0.0000 -18.4315 0.0000
# 4 0.0000 0.0000 0.0000 10.6280 0.0000 -2.6022
# 5 -6.0222 0.1977 -18.4315 0.0000 19.2892 0.0000
# 6 0.0000 0.0000 0.0000 -2.6022 0.0000 13.1438
#
#
#
# Elastic Compliance Matrix: (Units=1/GPa)
#
#
# Indices 1 2 3 4 5 6 
#
# 1 0.016318 -0.004502 -0.011473 0.000000 -0.005822 0.000000
# 2 -0.004502 0.053631 0.004519 0.000000 0.002363 0.000000
# 3 -0.011473 0.004519 0.020156 0.000000 0.015631 0.000000
# 4 0.000000 0.000000 0.000000 0.098885 0.000000 0.019577
# 5 -0.005822 0.002363 0.015631 0.000000 0.064937 0.000000
# 6 0.000000 0.000000 0.000000 0.019577 0.000000 0.079957
#
#
# Mechanical properties :
#
#
# Convention : Reuss Voigt Hill
#
# Bulk Modulus (GPa) = 14.88285 39.36053 27.12169
# Shear Modulus (GPa) = 13.18589 19.25474 16.22032
#
# Velocity S-wave (km/s) = 2.77557 3.35403 3.07842
# Velocity P-wave (km/s) = 4.35511 6.16405 5.33678
#
# Compressibility (1/GPa) = 0.06719145
#
# Stress axis : x y z
#
# Youngs Moduli (GPa) = 61.28324 18.64608 49.61353
#
# Poissons Ratio (x) = 0.08395 0.56919
# Poissons Ratio (y) = 0.27593 -0.22419
# Poissons Ratio (z) = 0.70307 -0.08426
#
# Static dielectric constant tensor:
#      x y z
#    x 1.565550 0.000000 -0.015800 
#    y 0.000000 1.623810 0.000000 
#    z -0.015800 0.000000 1.621990 
# 
# From -- ./inp_files/65773.got.cif
#   From: 2010.05.17/outbox.cif.g08.bks.cpg/sg10_33_cif.got.tgz:65773.got - 2010.06.03 11:33:40.
