data_PCOD9142760
_publ_section_title
;
Structure prediction by ZEFSAII (Michael W. Deem and Ramdas Pophale) SiO2 
 PCOD9142760
Probable space group: P 2/M
;
_chemical_formula_sum "Si O2"
_cell_formula_units_Z 28
_cell_length_a 15.913208
_cell_length_b 7.402179
_cell_length_c 24.234394
_cell_angle_alpha 90.000000
_cell_angle_beta 154.162088
_cell_angle_gamma 90.000000
_cell_volume 1244.123103
_symmetry_space_group_name_H-M "P 2/M"
_symmetry_group_IT_number 10
_symmetry_cell_setting 'monoclinic'
loop_
_space_group_symop_operation_xyz
x,y,z
-x,y,-z
-x,-y,-z
x,-y,z
loop_
_atom_site_type_symbol
_atom_site_label
_atom_site_fract_x
_atom_site_fract_y
_atom_site_fract_z
Si Si1 0.112420 0.284613 0.621468
Si Si2 0.964580 0.780515 0.150261
Si Si3 0.329864 0.292795 0.439395
Si Si4 0.520526 0.781352 0.726603
Si Si5 0.120498 0.780422 0.124041
Si Si6 0.160079 0.294951 0.450865
Si Si7 0.564406 0.216355 0.875706
O O1 0.078745 0.500000 0.602370
O O2 0.342010 0.257993 0.756174
O O3 0.000000 0.214955 0.500000
O O4 0.023512 0.212246 0.626552
O O5 0.125278 0.711196 0.286985
O O6 0.039931 0.723321 0.134550
O O7 0.970729 0.000000 0.157955
O O8 0.740020 0.721556 0.018634
O O9 0.500000 0.215179 0.500000
O O10 0.392333 0.500000 0.486802
O O11 0.272136 0.210323 0.464890
O O12 0.662876 0.726617 0.761782
O O13 0.313699 0.703598 0.591318
O O14 0.597523 0.724389 0.831843
O O15 0.507853 0.000000 0.719797
O O16 0.112551 0.000000 0.119744
O O17 0.000000 0.720718 0.000000
O O18 0.111250 0.500000 0.404706
O O19 0.580831 0.000000 0.885033
#
# Coordination Sequence:
#
# PCOD9142760 Si02
#       7
#     4   4   4   4   4   4   4
#     4  10  20  35  55  79 107 143 184 224 267 322
#     4  10  20  35  56  81 111 145 182 223 268 322
#     4  10  22  40  59  79 108 145 183 225 270 318
#     4  10  18  29  51  81 109 138 174 215 266 323
#     4   9  15  27  48  75 107 139 169 206 259 322
#     4  10  21  37  55  76 106 142 181 223 270 319
#     4  10  20  33  52  82 114 141 172 220 277 323
#
# _framework density 22.505811000000001
#
# number of rings (size 3 to 8) (size 9 to 14) (size 15 to 20)
#    0.000    2.143    2.857    0.857    0.000    2.286 
#    0.000    0.714    0.000    5.143    0.000    0.000 
#    0.000    0.000    0.000    0.000    0.000    0.000 
#
# Total GULP energy -156175.517705 kJ/mol
# GULP energy per Si atom -5577.697061 kJ/mol
# Density = 2.245459 g / cm^3
# Si number density = 22.505811 Si / 1000 Ang^3
#
#
#
# Elastic Constant Matrix: (Units=GPa)
#
#
# Indices 1 2 3 4 5 6 
#
# 1 137.5020 5.9522 38.8280 0.0000 19.9535 0.0000
# 2 5.9522 77.6942 -4.3415 0.0000 -0.7530 0.0000
# 3 38.8280 -4.3415 123.9465 0.0000 16.1119 0.0000
# 4 0.0000 0.0000 0.0000 21.4456 0.0000 2.5605
# 5 19.9535 -0.7530 16.1119 0.0000 39.5469 0.0000
# 6 0.0000 0.0000 0.0000 2.5605 0.0000 1.2070
#
#
#
# Elastic Compliance Matrix: (Units=1/GPa)
#
#
# Indices 1 2 3 4 5 6 
#
# 1 0.008424 -0.000803 -0.002231 0.000000 -0.003357 0.000000
# 2 -0.000803 0.012973 0.000656 0.000000 0.000385 0.000000
# 3 -0.002231 0.000656 0.009125 0.000000 -0.002580 0.000000
# 4 0.000000 0.000000 0.000000 0.062445 0.000000 -0.132461
# 5 -0.003357 0.000385 -0.002580 0.000000 0.028039 0.000000
# 6 0.000000 0.000000 0.000000 -0.132461 0.000000 1.109452
#
#
# Mechanical properties :
#
#
# Convention : Reuss Voigt Hill
#
# Bulk Modulus (GPa) = 38.80901 46.66890 42.73896
# Shear Modulus (GPa) = 4.01993 32.35350 18.18672
#
# Velocity S-wave (km/s) = 1.33793 3.79563 2.84578
# Velocity P-wave (km/s) = 4.43488 6.32380 5.46162
#
# Compressibility (1/GPa) = 0.02576721
#
# Stress axis : x y z
#
# Youngs Moduli (GPa) = 118.70203 77.08417 109.58751
#
# Poissons Ratio (x) = 0.06187 0.24447
# Poissons Ratio (y) = 0.09527 -0.07187
# Poissons Ratio (z) = 0.26480 -0.05055
#
# Static dielectric constant tensor:
#      x y z
#    x 1.874040 0.000000 0.025870 
#    y 0.000000 1.885320 0.000000 
#    z 0.025870 0.000000 1.837020 
# 
# From -- ./inp_files/49177.got.cif
#   From: 2010.05.17/outbox.cif.g08.bks.cpg/sg10_25_cif.got.tgz:49177.got - 2010.06.03 11:33:40.
