data_PCOD9142585
_publ_section_title
;
Structure prediction by ZEFSAII (Michael W. Deem and Ramdas Pophale) SiO2 
 PCOD9142585
Probable space group: P 2/M
;
_chemical_formula_sum "Si O2"
_cell_formula_units_Z 32
_cell_length_a 15.352240
_cell_length_b 7.598434
_cell_length_c 27.293129
_cell_angle_alpha 90.000000
_cell_angle_beta 31.326151
_cell_angle_gamma 90.000000
_cell_volume 1655.299380
_symmetry_space_group_name_H-M "P 2/M"
_symmetry_group_IT_number 10
_symmetry_cell_setting 'monoclinic'
loop_
_space_group_symop_operation_xyz
x,y,z
-x,y,-z
-x,-y,-z
x,-y,z
loop_
_atom_site_type_symbol
_atom_site_label
_atom_site_fract_x
_atom_site_fract_y
_atom_site_fract_z
Si Si1 0.233085 0.798906 0.072014
Si Si2 0.858532 0.787006 0.777722
Si Si3 0.447849 0.300460 0.137193
Si Si4 0.438559 0.785210 0.606487
Si Si5 0.385376 0.211839 0.844290
Si Si6 0.236771 0.214396 0.609608
Si Si7 0.941697 0.215599 0.940653
Si Si8 0.675526 0.784694 0.232515
O O1 0.219353 0.724076 0.132924
O O2 0.116895 0.721948 0.084960
O O3 0.173382 0.000000 0.106077
O O4 0.419648 0.803317 0.960174
O O5 0.739351 0.727640 0.791206
O O6 0.051175 0.727832 0.684677
O O7 0.855791 0.000000 0.777370
O O8 0.497186 0.500000 0.104732
O O9 0.482228 0.260864 0.177485
O O10 0.616665 0.730759 0.498094
O O11 0.296343 0.732199 0.635484
O O12 0.403468 0.724999 0.678335
O O13 0.437571 0.000000 0.607494
O O14 0.410308 0.273365 0.776819
O O15 0.380931 0.000000 0.845372
O O16 0.203221 0.270664 0.952053
O O17 0.235310 0.000000 0.610337
O O18 0.129363 0.268233 0.862694
O O19 0.939137 0.000000 0.941653
O O20 0.672360 0.000000 0.234793
#
# Coordination Sequence:
#
# PCOD9142585 Si02
#       8
#     4   4   4   4   4   4   4   4
#     4   9  17  29  46  67  91 118 147 178 213 259
#     4  10  18  29  47  68  89 117 151 181 213 258
#     4  11  22  33  44  60  86 119 152 188 227 261
#     4   8  13  22  38  67 102 123 136 166 219 271
#     4   9  17  29  44  63  88 119 154 188 218 252
#     4   8  14  24  40  66 100 125 137 165 218 271
#     4   8  13  22  38  63  91 115 142 176 213 255
#     4   9  14  21  40  67  91 116 148 183 216 255
#
# _framework density 19.331849999999999
#
# number of rings (size 3 to 8) (size 9 to 14) (size 15 to 20)
#    0.000    3.000    0.000    4.125    0.000    6.500 
#    0.000    0.000    0.000    6.750    0.000    8.750 
#    0.000    0.000    0.000    0.000    0.000    0.000 
#
# Total GULP energy -178450.631503 kJ/mol
# GULP energy per Si atom -5576.582234 kJ/mol
# Density = 1.928785 g / cm^3
# Si number density = 19.331850 Si / 1000 Ang^3
#
#
#
# Elastic Constant Matrix: (Units=GPa)
#
#
# Indices 1 2 3 4 5 6 
#
# 1 183.5553 4.0906 101.1957 0.0000 6.8397 0.0000
# 2 4.0906 42.0590 -0.9528 0.0000 4.4666 0.0000
# 3 101.1957 -0.9528 79.5897 0.0000 3.9352 0.0000
# 4 0.0000 0.0000 0.0000 -26.5306 0.0000 26.9281
# 5 6.8397 4.4666 3.9352 0.0000 31.2679 0.0000
# 6 0.0000 0.0000 0.0000 26.9281 0.0000 -70.4403
#
#
#
# Elastic Compliance Matrix: (Units=1/GPa)
#
#
# Indices 1 2 3 4 5 6 
#
# 1 0.018461 -0.002246 -0.023462 0.000000 -0.000765 0.000000
# 2 -0.002246 0.024432 0.003317 0.000000 -0.003416 0.000000
# 3 -0.023462 0.003317 0.042469 0.000000 -0.000687 0.000000
# 4 0.000000 0.000000 0.000000 -0.061590 0.000000 -0.023545
# 5 -0.000765 -0.003416 -0.000687 0.000000 0.032723 0.000000
# 6 0.000000 0.000000 0.000000 -0.023545 0.000000 -0.023197
#
#
# Mechanical properties :
#
#
# Convention : Reuss Voigt Hill
#
# Bulk Modulus (GPa) = 24.64194 57.09679 40.86936
# Shear Modulus (GPa) = 54.57989 0.25075 27.41532
#
# Velocity S-wave (km/s) = 5.31925 0.36054 3.76991
# Velocity P-wave (km/s) = 7.10636 5.45642 6.33533
#
# Compressibility (1/GPa) = 0.04058122
#
# Stress axis : x y z
#
# Youngs Moduli (GPa) = 54.16718 40.92911 23.54638
#
# Poissons Ratio (x) = 0.09192 0.55245
# Poissons Ratio (y) = 0.12165 -0.07810
# Poissons Ratio (z) = 1.27088 -0.13576
#
# Static dielectric constant tensor:
#      x y z
#    x 1.682550 0.000000 0.012460 
#    y 0.000000 1.722370 0.000000 
#    z 0.012460 0.000000 1.652610 
# 
# From -- ./inp_files/93118.got.cif
#   From: 2010.05.17/outbox.cif.g08.bks.cpg/sg10_47_cif.got.tgz:93118.got - 2010.06.03 11:33:40.
