data_PCOD9142802
_publ_section_title
;
Structure prediction by ZEFSAII (Michael W. Deem and Ramdas Pophale) SiO2 
 PCOD9142802
Probable space group: P 2/M
;
_chemical_formula_sum "Si O2"
_cell_formula_units_Z 30
_cell_length_a 20.742566
_cell_length_b 15.269987
_cell_length_c 8.351971
_cell_angle_alpha 90.000000
_cell_angle_beta 39.608413
_cell_angle_gamma 90.000000
_cell_volume 1686.535948
_symmetry_space_group_name_H-M "P 2/M"
_symmetry_group_IT_number 10
_symmetry_cell_setting 'monoclinic'
loop_
_space_group_symop_operation_xyz
x,y,z
-x,y,-z
-x,-y,-z
x,-y,z
loop_
_atom_site_type_symbol
_atom_site_label
_atom_site_fract_x
_atom_site_fract_y
_atom_site_fract_z
Si Si1 0.380826 0.707286 0.894570
Si Si2 0.154853 0.602650 0.619712
Si Si3 0.661837 0.733606 0.674814
Si Si4 0.040672 0.600115 0.179742
Si Si5 0.577195 0.097745 0.699670
Si Si6 0.769332 0.603035 0.994518
Si Si7 0.500000 0.154111 0.500000
Si Si8 0.574421 0.398798 0.603624
O O1 0.276962 0.657421 0.061267
O O2 0.406415 0.780948 0.716293
O O3 0.471509 0.636559 0.721951
O O4 0.378435 0.752328 0.071158
O O5 0.189450 0.500000 0.524070
O O6 0.236376 0.678093 0.492943
O O7 0.072104 0.630895 0.644880
O O8 0.097137 0.597567 0.900636
O O9 0.654464 0.822031 0.584837
O O10 0.592618 0.663101 0.718307
O O11 0.026167 0.500000 0.259706
O O12 0.124227 0.637938 0.140834
O O13 0.526033 0.108176 0.620081
O O14 0.622549 0.000000 0.617322
O O15 0.500000 0.101937 0.000000
O O16 0.779466 0.500000 0.938896
O O17 0.676769 0.609207 0.301115
O O18 0.562913 0.500000 0.667207
#
# Coordination Sequence:
#
# PCOD9142802 Si02
#       8
#     4   4   4   4   4   4   2   4
#     4  12  22  32  49  74 114 147 182 219 269 326
#     4   9  17  30  51  77 106 142 189 231 275 323
#     4  12  21  35  51  79 110 141 182 228 270 326
#     4   8  15  30  50  72 100 143 193 238 272 314
#     4  11  23  41  62  84 111 144 182 227 279 333
#     4  10  18  30  46  69 103 148 190 224 262 310
#     4  12  21  40  57  80 110 148 179 232 265 326
#     4  11  20  31  47  69 106 149 183 216 257 314
#
# _framework density 17.787941
#
# number of rings (size 3 to 8) (size 9 to 14) (size 15 to 20)
#    0.000    1.467    5.333    2.200    0.000    3.733 
#    0.000    0.667    0.000    2.400    0.000    1.867 
#    0.000    1.067    0.000    0.000    0.000    0.000 
#
# Total GULP energy -167144.277219 kJ/mol
# GULP energy per Si atom -5571.475907 kJ/mol
# Density = 1.774745 g / cm^3
# Si number density = 17.787941 Si / 1000 Ang^3
#
#
#
# Elastic Constant Matrix: (Units=GPa)
#
#
# Indices 1 2 3 4 5 6 
#
# 1 145.0599 52.7071 29.1540 0.0000 -14.1456 0.0000
# 2 52.7071 104.7838 26.4655 0.0000 -8.9399 0.0000
# 3 29.1540 26.4655 48.7471 0.0000 0.2753 0.0000
# 4 0.0000 0.0000 0.0000 11.2877 0.0000 2.4345
# 5 -14.1456 -8.9399 0.2753 0.0000 40.7985 0.0000
# 6 0.0000 0.0000 0.0000 2.4345 0.0000 22.3086
#
#
#
# Elastic Compliance Matrix: (Units=1/GPa)
#
#
# Indices 1 2 3 4 5 6 
#
# 1 0.009111 -0.003473 -0.003577 0.000000 0.002422 0.000000
# 2 -0.003473 0.012637 -0.004793 0.000000 0.001597 0.000000
# 3 -0.003577 -0.004793 0.025269 0.000000 -0.002461 0.000000
# 4 0.000000 0.000000 0.000000 0.090727 0.000000 -0.009901
# 5 0.002422 0.001597 -0.002461 0.000000 0.025717 0.000000
# 6 0.000000 0.000000 0.000000 -0.009901 0.000000 0.045906
#
#
# Mechanical properties :
#
#
# Convention : Reuss Voigt Hill
#
# Bulk Modulus (GPa) = 42.86010 57.24932 50.05471
# Shear Modulus (GPa) = 20.76149 27.56324 24.16236
#
# Velocity S-wave (km/s) = 3.42009 3.94070 3.68959
# Velocity P-wave (km/s) = 6.30423 7.27734 6.80819
#
# Compressibility (1/GPa) = 0.02333172
#
# Stress axis : x y z
#
# Youngs Moduli (GPa) = 109.76279 79.13227 39.57343
#
# Poissons Ratio (x) = 0.27479 0.14156
# Poissons Ratio (y) = 0.38116 0.18968
# Poissons Ratio (z) = 0.39263 0.37928
#
# Static dielectric constant tensor:
#      x y z
#    x 1.687210 0.000000 0.034700 
#    y 0.000000 1.579460 0.000000 
#    z 0.034700 0.000000 1.680280 
# 
# From -- ./inp_files/32670.got.cif
#   From: 2010.05.17/outbox.cif.g08.bks.cpg/sg10_17_cif.got.tgz:32670.got - 2010.06.03 11:33:40.
