data_PCOD9142803
_publ_section_title
;
Structure prediction by ZEFSAII (Michael W. Deem and Ramdas Pophale) SiO2 
 PCOD9142803
Probable space group: P 2/M
;
_chemical_formula_sum "Si O2"
_cell_formula_units_Z 30
_cell_length_a 12.272912
_cell_length_b 9.215586
_cell_length_c 18.385892
_cell_angle_alpha 90.000000
_cell_angle_beta 57.351740
_cell_angle_gamma 90.000000
_cell_volume 1750.920763
_symmetry_space_group_name_H-M "P 2/M"
_symmetry_group_IT_number 10
_symmetry_cell_setting 'monoclinic'
loop_
_space_group_symop_operation_xyz
x,y,z
-x,y,-z
-x,-y,-z
x,-y,z
loop_
_atom_site_type_symbol
_atom_site_label
_atom_site_fract_x
_atom_site_fract_y
_atom_site_fract_z
Si Si1 0.669400 0.671248 0.302689
Si Si2 0.834834 0.827177 0.751115
Si Si3 0.762864 0.668292 0.632964
Si Si4 0.083144 0.675029 0.702072
Si Si5 0.500000 0.766989 0.500000
Si Si6 0.535817 0.667697 0.207883
Si Si7 0.460272 0.827373 0.094272
Si Si8 0.232375 0.165411 0.521139
O O1 0.677563 0.500000 0.287907
O O2 0.811368 0.721018 0.275525
O O3 0.572033 0.689440 0.406231
O O4 0.616159 0.733721 0.246398
O O5 0.836387 0.750434 0.671463
O O6 0.692097 0.802955 0.835633
O O7 0.945013 0.750450 0.758836
O O8 0.855616 0.000000 0.737340
O O9 0.804706 0.500000 0.609901
O O10 0.612431 0.666891 0.710873
O O11 0.769586 0.757109 0.556004
O O12 0.074030 0.500000 0.703305
O O13 0.146128 0.737074 0.605535
O O14 0.622456 0.839709 0.496618
O O15 0.572795 0.500000 0.181643
O O16 0.537697 0.753068 0.131928
O O17 0.482351 0.000000 0.089509
O O18 0.500000 0.775031 0.000000
O O19 0.184680 0.000000 0.533984
#
# Coordination Sequence:
#
# PCOD9142803 Si02
#       8
#     4   4   4   4   2   4   4   4
#     4   9  17  30  50  74 103 139 178 218 256 298
#     4  10  20  36  55  75 102 131 163 210 260 308
#     4  10  19  32  51  73  99 134 174 216 260 307
#     4  10  21  35  51  71  99 140 181 212 249 302
#     4  10  18  30  46  70 103 142 179 222 257 298
#     4   9  17  31  51  79 107 132 167 214 261 303
#     4   9  19  36  58  83 106 130 160 201 260 323
#     4  11  21  32  46  70 102 137 179 221 259 296
#
# _framework density 17.133842000000001
#
# number of rings (size 3 to 8) (size 9 to 14) (size 15 to 20)
#    0.000    2.267    1.333    2.000    0.000    2.933 
#    0.000    4.000    0.000    0.800    0.000    5.600 
#    0.000    0.000    0.000    0.000    0.000    0.000 
#
# Total GULP energy -167133.129913 kJ/mol
# GULP energy per Si atom -5571.104330 kJ/mol
# Density = 1.709484 g / cm^3
# Si number density = 17.133842 Si / 1000 Ang^3
#
#
#
# Elastic Constant Matrix: (Units=GPa)
#
#
# Indices 1 2 3 4 5 6 
#
# 1 118.8910 51.6709 50.4917 0.0000 21.2859 0.0000
# 2 51.6709 68.5863 30.9867 0.0000 5.9387 0.0000
# 3 50.4917 30.9867 73.6295 0.0000 29.2948 0.0000
# 4 0.0000 0.0000 0.0000 -69.4038 0.0000 -82.8313
# 5 21.2859 5.9387 29.2948 0.0000 23.4470 0.0000
# 6 0.0000 0.0000 0.0000 -82.8313 0.0000 -66.8855
#
#
#
# Elastic Compliance Matrix: (Units=1/GPa)
#
#
# Indices 1 2 3 4 5 6 
#
# 1 0.015242 -0.009092 -0.004050 0.000000 -0.006474 0.000000
# 2 -0.009092 0.024624 -0.009804 0.000000 0.014267 0.000000
# 3 -0.004050 -0.009804 0.035860 0.000000 -0.038644 0.000000
# 4 0.000000 0.000000 0.000000 0.030143 0.000000 -0.037330
# 5 -0.006474 0.014267 -0.038644 0.000000 0.093195 0.000000
# 6 0.000000 0.000000 0.000000 -0.037330 0.000000 0.031278
#
#
# Mechanical properties :
#
#
# Convention : Reuss Voigt Hill
#
# Bulk Modulus (GPa) = 33.51973 58.60060 46.06017
# Shear Modulus (GPa) = 17.47157 -14.03795 1.71681
#
# Velocity S-wave (km/s) = 3.19676 -2.86547 1.00209
# Velocity P-wave (km/s) = 5.76469 4.82991 5.31788
#
# Compressibility (1/GPa) = 0.02983318
#
# Stress axis : x y z
#
# Youngs Moduli (GPa) = 65.60961 40.61034 27.88644
#
# Poissons Ratio (x) = 0.36925 0.11293
# Poissons Ratio (y) = 0.59655 0.27341
# Poissons Ratio (z) = 0.26569 0.39815
#
# Static dielectric constant tensor:
#      x y z
#    x 1.619580 0.000000 0.000300 
#    y 0.000000 1.580350 0.000000 
#    z 0.000300 0.000000 1.558790 
# 
# From -- ./inp_files/49725.got.cif
#   From: 2010.05.17/outbox.cif.g08.bks.cpg/sg10_25_cif.got.tgz:49725.got - 2010.06.03 11:33:40.
