data_PCOD9142219
_publ_section_title
;
Structure prediction by ZEFSAII (Michael W. Deem and Ramdas Pophale) SiO2 
 PCOD9142219
Probable space group: P 2/M
;
_chemical_formula_sum "Si O2"
_cell_formula_units_Z 32
_cell_length_a 20.255209
_cell_length_b 7.929525
_cell_length_c 17.619330
_cell_angle_alpha 90.000000
_cell_angle_beta 44.327440
_cell_angle_gamma 90.000000
_cell_volume 1977.425188
_symmetry_space_group_name_H-M "P 2/M"
_symmetry_group_IT_number 10
_symmetry_cell_setting 'monoclinic'
loop_
_space_group_symop_operation_xyz
x,y,z
-x,y,-z
-x,-y,-z
x,-y,z
loop_
_atom_site_type_symbol
_atom_site_label
_atom_site_fract_x
_atom_site_fract_y
_atom_site_fract_z
Si Si1 0.403240 0.691123 0.170343
Si Si2 0.394743 0.201661 0.937296
Si Si3 0.107824 0.793675 0.412786
Si Si4 0.741542 0.193556 0.829830
Si Si5 0.443554 0.704100 0.727742
Si Si6 0.611514 0.303139 0.385937
Si Si7 0.740844 0.799806 0.589549
Si Si8 0.655540 0.704225 0.510841
O O1 0.396219 0.500000 0.148679
O O2 0.510921 0.735137 0.098112
O O3 0.346111 0.802951 0.157464
O O4 0.345950 0.710166 0.296110
O O5 0.403295 0.246568 0.842077
O O6 0.394358 0.000000 0.944282
O O7 0.302400 0.268976 0.057465
O O8 0.171162 0.731840 0.289522
O O9 0.165152 0.748313 0.442056
O O10 0.000000 0.736313 0.500000
O O11 0.107445 0.000000 0.410211
O O12 0.767686 0.000000 0.824472
O O13 0.445263 0.500000 0.722535
O O14 0.385865 0.768024 0.701329
O O15 0.552584 0.760539 0.627218
O O16 0.500000 0.300171 0.500000
O O17 0.639172 0.500000 0.357681
O O18 0.663480 0.232267 0.417528
O O19 0.733404 0.759600 0.507164
O O20 0.728679 0.000000 0.610154
O O21 0.653907 0.500000 0.509723
#
# Coordination Sequence:
#
# PCOD9142219 Si02
#       8
#     4   4   4   4   4   4   4   4
#     4  11  20  29  41  57  79 110 144 172 197 232
#     4  11  20  28  39  57  85 112 135 167 205 241
#     4   8  15  30  49  63  77 102 136 169 203 249
#     4   9  19  32  44  60  80 104 133 169 211 246
#     4   9  16  26  40  57  79 112 148 172 194 230
#     4   7  12  23  38  55  76 106 143 175 198 226
#     4  10  18  27  42  64  86 107 134 171 211 245
#     4   9  15  25  41  59  81 110 142 172 200 236
#
# _framework density 16.182659000000001
#
# number of rings (size 3 to 8) (size 9 to 14) (size 15 to 20)
#    0.000    2.750    1.250    4.500    0.000    2.500 
#    0.000    0.625    0.000   11.625    0.000    0.000 
#    0.000    1.000    0.000   12.500    0.000    1.000 
#
# Total GULP energy -178186.188815 kJ/mol
# GULP energy per Si atom -5568.318400 kJ/mol
# Density = 1.614583 g / cm^3
# Si number density = 16.182659 Si / 1000 Ang^3
#
#
#
# Elastic Constant Matrix: (Units=GPa)
#
#
# Indices 1 2 3 4 5 6 
#
# 1 80.0671 2.6282 61.4465 0.0000 2.0393 0.0000
# 2 2.6282 27.2087 2.2519 0.0000 -3.9268 0.0000
# 3 61.4465 2.2519 94.8923 0.0000 3.7757 0.0000
# 4 0.0000 0.0000 0.0000 -9.8813 0.0000 17.7395
# 5 2.0393 -3.9268 3.7757 0.0000 20.5973 0.0000
# 6 0.0000 0.0000 0.0000 17.7395 0.0000 13.8717
#
#
#
# Elastic Compliance Matrix: (Units=1/GPa)
#
#
# Indices 1 2 3 4 5 6 
#
# 1 0.024860 -0.001028 -0.016085 0.000000 0.000291 0.000000
# 2 -0.001028 0.037970 -0.000531 0.000000 0.007438 0.000000
# 3 -0.016085 -0.000531 0.021061 0.000000 -0.002369 0.000000
# 4 0.000000 0.000000 0.000000 -0.030706 0.000000 0.039268
# 5 0.000291 0.007438 -0.002369 0.000000 0.050374 0.000000
# 6 0.000000 0.000000 0.000000 0.039268 0.000000 0.021873
#
#
# Mechanical properties :
#
#
# Convention : Reuss Voigt Hill
#
# Bulk Modulus (GPa) = 20.57537 37.20237 28.88887
# Shear Modulus (GPa) = 28.26120 13.97363 21.11741
#
# Velocity S-wave (km/s) = 4.18351 2.94171 3.61632
# Velocity P-wave (km/s) = 6.00648 5.88024 5.94369
#
# Compressibility (1/GPa) = 0.04860180
#
# Stress axis : x y z
#
# Youngs Moduli (GPa) = 40.22499 26.33678 47.48135
#
# Poissons Ratio (x) = 0.02707 0.76374
# Poissons Ratio (y) = 0.04135 0.02523
# Poissons Ratio (z) = 0.64702 0.01399
#
# Static dielectric constant tensor:
#      x y z
#    x 1.558100 0.000000 0.041840 
#    y 0.000000 1.591320 0.000000 
#    z 0.041840 0.000000 1.561910 
# 
# From -- ./inp_files/78510.got.cif
#   From: 2010.05.17/outbox.cif.g08.bks.cpg/sg10_40_cif.got.tgz:78510.got - 2010.06.03 11:33:40.
