data_PCOD9142073
_publ_section_title
;
Structure prediction by ZEFSAII (Michael W. Deem and Ramdas Pophale) SiO2 
 PCOD9142073
Probable space group: P 2/M
;
_chemical_formula_sum "Si O2"
_cell_formula_units_Z 32
_cell_length_a 19.984178
_cell_length_b 16.436720
_cell_length_c 13.613293
_cell_angle_alpha 90.000000
_cell_angle_beta 26.290888
_cell_angle_gamma 90.000000
_cell_volume 1980.607297
_symmetry_space_group_name_H-M "P 2/M"
_symmetry_group_IT_number 10
_symmetry_cell_setting 'monoclinic'
loop_
_space_group_symop_operation_xyz
x,y,z
-x,y,-z
-x,-y,-z
x,-y,z
loop_
_atom_site_type_symbol
_atom_site_label
_atom_site_fract_x
_atom_site_fract_y
_atom_site_fract_z
Si Si1 0.665851 0.903315 0.322584
Si Si2 0.864331 0.296449 0.487482
Si Si3 0.079872 0.410527 0.288614
Si Si4 0.433836 0.230859 0.192177
Si Si5 0.970483 0.147450 0.828403
Si Si6 0.269277 0.906110 0.533258
Si Si7 0.249503 0.740965 0.143965
Si Si8 0.877527 0.912189 0.747798
O O1 0.500000 0.881534 0.500000
O O2 0.682786 0.892934 0.417181
O O3 0.688657 0.000000 0.271177
O O4 0.802587 0.854676 0.092647
O O5 0.700190 0.294138 0.654316
O O6 0.837313 0.264574 0.635741
O O7 0.949557 0.381448 0.385750
O O8 0.967860 0.233870 0.290913
O O9 0.142749 0.500000 0.182772
O O10 0.191139 0.333565 0.154606
O O11 0.000000 0.416381 0.500000
O O12 0.361607 0.154999 0.343081
O O13 0.500000 0.203653 0.000000
O O14 0.573951 0.267057 0.066494
O O15 0.962134 0.094310 0.740253
O O16 0.092568 0.112554 0.744487
O O17 0.298287 0.000000 0.470447
O O18 0.218589 0.829980 0.139353
O O19 0.000000 0.911344 0.500000
O O20 0.795338 0.000000 0.851844
#
# Coordination Sequence:
#
# PCOD9142073 Si02
#       8
#     4   4   4   4   4   4   4   4
#     4  10  22  36  48  66  91 122 167 218 258 289
#     4   9  17  32  48  69  97 128 163 202 242 289
#     4   9  16  28  50  71  94 130 167 200 241 291
#     4   9  20  32  48  69 101 137 157 196 255 295
#     4  11  19  34  51  66  91 131 169 205 249 292
#     4  10  21  35  49  67  94 130 176 214 241 288
#     4  10  17  32  45  69 105 130 161 205 242 285
#     4  11  20  28  45  72  98 131 170 205 241 287
#
# _framework density 16.156662000000001
#
# number of rings (size 3 to 8) (size 9 to 14) (size 15 to 20)
#    0.000    2.125    2.500    1.875    1.750    1.750 
#    0.000    0.625    0.000    3.750    0.000    0.000 
#    0.000   12.500    0.000    0.000    0.000    0.000 
#
# Total GULP energy -178287.557468 kJ/mol
# GULP energy per Si atom -5571.486171 kJ/mol
# Density = 1.611989 g / cm^3
# Si number density = 16.156662 Si / 1000 Ang^3
#
#
#
# Elastic Constant Matrix: (Units=GPa)
#
#
# Indices 1 2 3 4 5 6 
#
# 1 101.9204 40.6830 36.7650 0.0000 -24.6287 0.0000
# 2 40.6830 103.3738 25.0067 0.0000 -18.5559 0.0000
# 3 36.7650 25.0067 76.2508 0.0000 -19.8552 0.0000
# 4 0.0000 0.0000 0.0000 -34.3212 0.0000 14.5372
# 5 -24.6287 -18.5559 -19.8552 0.0000 22.8665 0.0000
# 6 0.0000 0.0000 0.0000 14.5372 0.0000 3.6504
#
#
#
# Elastic Compliance Matrix: (Units=1/GPa)
#
#
# Indices 1 2 3 4 5 6 
#
# 1 0.014814 -0.003130 -0.003389 0.000000 0.010473 0.000000
# 2 -0.003130 0.012159 -0.001017 0.000000 0.005612 0.000000
# 3 -0.003389 -0.001017 0.017983 0.000000 0.011139 0.000000
# 4 0.000000 0.000000 0.000000 -0.010844 0.000000 0.043186
# 5 0.010473 0.005612 0.011139 0.000000 0.069239 0.000000
# 6 0.000000 0.000000 0.000000 0.043186 0.000000 0.101959
#
#
# Mechanical properties :
#
#
# Convention : Reuss Voigt Hill
#
# Bulk Modulus (GPa) = 33.46352 54.05047 43.75700
# Shear Modulus (GPa) = 21.70672 10.37851 16.04261
#
# Velocity S-wave (km/s) = 3.66938 2.53725 3.15452
# Velocity P-wave (km/s) = 6.22168 6.48923 6.35686
#
# Compressibility (1/GPa) = 0.02988329
#
# Stress axis : x y z
#
# Youngs Moduli (GPa) = 67.50164 82.24341 55.60879
#
# Poissons Ratio (x) = 0.25746 0.18847
# Poissons Ratio (y) = 0.21131 0.05654
# Poissons Ratio (z) = 0.22878 0.08363
#
# Static dielectric constant tensor:
#      x y z
#    x 1.571000 0.000000 -0.017820 
#    y 0.000000 1.544950 0.000000 
#    z -0.017820 0.000000 1.540950 
# 
# From -- ./inp_files/54128.got.cif
#   From: 2010.05.17/outbox.cif.g08.bks.cpg/sg10_28_cif.got.tgz:54128.got - 2010.06.03 11:33:40.
