data_PCOD9142048
_publ_section_title
;
Structure prediction by ZEFSAII (Michael W. Deem and Ramdas Pophale) SiO2 
 PCOD9142048
Probable space group: P 2/M
;
_chemical_formula_sum "Si O2"
_cell_formula_units_Z 26
_cell_length_a 20.928217
_cell_length_b 8.056242
_cell_length_c 11.817179
_cell_angle_alpha 90.000000
_cell_angle_beta 139.987744
_cell_angle_gamma 90.000000
_cell_volume 1281.022425
_symmetry_space_group_name_H-M "P 2/M"
_symmetry_group_IT_number 10
_symmetry_cell_setting 'monoclinic'
loop_
_space_group_symop_operation_xyz
x,y,z
-x,y,-z
-x,-y,-z
x,-y,z
loop_
_atom_site_type_symbol
_atom_site_label
_atom_site_fract_x
_atom_site_fract_y
_atom_site_fract_z
Si Si1 0.473231 0.199075 0.836989
Si Si2 0.812549 0.186449 0.397068
Si Si3 0.000000 0.752211 0.500000
Si Si4 0.896989 0.298047 0.920588
Si Si5 0.255127 0.308088 0.469395
Si Si6 0.328882 0.798526 0.996944
Si Si7 0.856874 0.800215 0.120651
O O1 0.362319 0.237583 0.647337
O O2 0.558647 0.260138 0.866124
O O3 0.481246 0.000000 0.852941
O O4 0.500000 0.261272 0.000000
O O5 0.813882 0.289697 0.512940
O O6 0.915208 0.175836 0.468428
O O7 0.782472 0.000000 0.389385
O O8 0.731149 0.251704 0.197909
O O9 0.925186 0.693741 0.299250
O O10 0.895423 0.500000 0.922604
O O11 0.805499 0.236994 0.718642
O O12 0.886254 0.231116 0.032389
O O13 0.000000 0.249342 0.000000
O O14 0.271111 0.500000 0.466929
O O15 0.330382 0.000000 0.998466
O O16 0.257381 0.755153 0.004474
O O17 0.870836 0.000000 0.166163
#
# Coordination Sequence:
#
# PCOD9142048 Si02
#       7
#     4   4   2   4   4   4   4
#     4  10  18  34  59  84 110 147 183 220 276 338
#     4  10  17  31  53  79 110 143 177 218 275 336
#     4  10  19  32  57  88 113 136 173 234 289 324
#     4  10  23  42  57  73 109 155 191 226 270 324
#     4  11  23  36  53  80 111 145 187 234 276 316
#     4   8  16  31  52  80 112 139 169 217 275 328
#     4  10  19  34  57  84 111 139 178 229 279 327
#
# _framework density 20.296289000000002
#
# number of rings (size 3 to 8) (size 9 to 14) (size 15 to 20)
#    0.000    2.154    1.538    3.692    0.000    1.846 
#    0.000    5.385    0.000    4.615    0.000    0.000 
#    0.000    0.000    0.000    0.000    0.000    0.000 
#
# Total GULP energy -144767.447690 kJ/mol
# GULP energy per Si atom -5567.978757 kJ/mol
# Density = 2.025009 g / cm^3
# Si number density = 20.296289 Si / 1000 Ang^3
#
#
#
# Elastic Constant Matrix: (Units=GPa)
#
#
# Indices 1 2 3 4 5 6 
#
# 1 164.2201 15.0381 79.9524 0.0000 5.5044 0.0000
# 2 15.0381 19.7936 13.0038 0.0000 5.0107 0.0000
# 3 79.9524 13.0038 122.5679 0.0000 8.9036 0.0000
# 4 0.0000 0.0000 0.0000 -29.6009 0.0000 11.6176
# 5 5.5044 5.0107 8.9036 0.0000 34.7204 0.0000
# 6 0.0000 0.0000 0.0000 11.6176 0.0000 7.0082
#
#
#
# Elastic Compliance Matrix: (Units=1/GPa)
#
#
# Indices 1 2 3 4 5 6 
#
# 1 0.009121 -0.003353 -0.005629 0.000000 0.000481 0.000000
# 2 -0.003353 0.057009 -0.003365 0.000000 -0.006833 0.000000
# 3 -0.005629 -0.003365 0.012317 0.000000 -0.001781 0.000000
# 4 0.000000 0.000000 0.000000 -0.020467 0.000000 0.033928
# 5 0.000481 -0.006833 -0.001781 0.000000 0.030168 0.000000
# 6 0.000000 0.000000 0.000000 0.033928 0.000000 0.086447
#
#
# Mechanical properties :
#
#
# Convention : Reuss Voigt Hill
#
# Bulk Modulus (GPa) = 18.60347 58.06336 38.33342
# Shear Modulus (GPa) = 23.01962 15.66469 19.34215
#
# Velocity S-wave (km/s) = 3.37141 2.78114 3.09040
# Velocity P-wave (km/s) = 4.93367 6.24364 5.62690
#
# Compressibility (1/GPa) = 0.05375340
#
# Stress axis : x y z
#
# Youngs Moduli (GPa) = 109.63998 17.54097 81.19010
#
# Poissons Ratio (x) = 0.05882 0.45700
# Poissons Ratio (y) = 0.36766 0.27317
# Poissons Ratio (z) = 0.61714 0.05902
#
# Static dielectric constant tensor:
#      x y z
#    x 1.717480 0.000000 0.024930 
#    y 0.000000 1.765260 0.000000 
#    z 0.024930 0.000000 1.721320 
# 
# From -- ./inp_files/55409.got.cif
#   From: 2010.05.17/outbox.cif.g08.bks.cpg/sg10_28_cif.got.tgz:55409.got - 2010.06.03 11:33:40.
