data_PCOD9142817
_publ_section_title
;
Structure prediction by ZEFSAII (Michael W. Deem and Ramdas Pophale) SiO2 
 PCOD9142817
Probable space group: P 2/M
;
_chemical_formula_sum "Si O2"
_cell_formula_units_Z 32
_cell_length_a 13.020005
_cell_length_b 7.590751
_cell_length_c 24.547026
_cell_angle_alpha 90.000000
_cell_angle_beta 46.822160
_cell_angle_gamma 90.000000
_cell_volume 1769.136286
_symmetry_space_group_name_H-M "P 2/M"
_symmetry_group_IT_number 10
_symmetry_cell_setting 'monoclinic'
loop_
_space_group_symop_operation_xyz
x,y,z
-x,y,-z
-x,-y,-z
x,-y,z
loop_
_atom_site_type_symbol
_atom_site_label
_atom_site_fract_x
_atom_site_fract_y
_atom_site_fract_z
Si Si1 0.549799 0.205349 0.585473
Si Si2 0.883067 0.794305 0.994004
Si Si3 0.888353 0.215979 0.168285
Si Si4 0.611876 0.291107 0.686227
Si Si5 0.072327 0.289358 0.418423
Si Si6 0.828482 0.787958 0.424044
Si Si7 0.332092 0.212127 0.844343
Si Si8 0.237794 0.783920 0.672472
O O1 0.563974 0.215255 0.645427
O O2 0.690665 0.280301 0.506650
O O3 0.399243 0.277976 0.621390
O O4 0.545953 0.000000 0.571100
O O5 0.965265 0.721297 0.911855
O O6 0.854892 0.000000 0.992184
O O7 0.743382 0.719670 0.073307
O O8 0.000000 0.789573 0.000000
O O9 0.762295 0.270586 0.173181
O O10 0.851997 0.271704 0.242404
O O11 0.890536 0.000000 0.166549
O O12 0.619586 0.500000 0.675357
O O13 0.767625 0.223646 0.644385
O O14 0.492796 0.256430 0.774228
O O15 0.081411 0.500000 0.420858
O O16 0.000000 0.219339 0.500000
O O17 0.969468 0.255284 0.405530
O O18 0.821529 0.727429 0.364223
O O19 0.819904 0.000000 0.426457
O O20 0.320498 0.000000 0.849912
O O21 0.239405 0.000000 0.672866
#
# Coordination Sequence:
#
# PCOD9142817 Si02
#       8
#     4   4   4   4   4   4   4   4
#     4  10  18  30  47  67  93 122 149 179 222 270
#     4   7  11  19  36  64  92 117 147 175 206 262
#     4   8  12  21  41  67  94 122 146 172 213 267
#     4  11  21  31  46  66  88 118 155 190 226 267
#     4  10  21  37  50  60  84 121 155 190 233 272
#     4  10  20  31  48  71  91 115 153 194 223 260
#     4   9  15  26  44  67  92 118 148 183 221 264
#     4   9  16  27  44  70  99 122 145 178 223 267
#
# _framework density 18.087923
#
# number of rings (size 3 to 8) (size 9 to 14) (size 15 to 20)
#    0.000    2.750    2.500    2.250    0.000    2.750 
#    0.000    0.625    0.000    4.875    0.000    0.875 
#    0.000    7.000    0.000    0.000    0.000    0.000 
#
# Total GULP energy -178358.460055 kJ/mol
# GULP energy per Si atom -5573.701877 kJ/mol
# Density = 1.804675 g / cm^3
# Si number density = 18.087923 Si / 1000 Ang^3
#
#
#
# Elastic Constant Matrix: (Units=GPa)
#
#
# Indices 1 2 3 4 5 6 
#
# 1 118.2010 -2.5854 73.8329 0.0000 -9.7792 0.0000
# 2 -2.5854 37.2495 0.4787 0.0000 -1.8126 0.0000
# 3 73.8329 0.4787 152.7853 0.0000 -24.2102 0.0000
# 4 0.0000 0.0000 0.0000 -5.4409 0.0000 -3.2629
# 5 -9.7792 -1.8126 -24.2102 0.0000 14.2178 0.0000
# 6 0.0000 0.0000 0.0000 -3.2629 0.0000 19.0512
#
#
#
# Elastic Compliance Matrix: (Units=1/GPa)
#
#
# Indices 1 2 3 4 5 6 
#
# 1 0.012195 0.000823 -0.006232 0.000000 -0.002118 0.000000
# 2 0.000823 0.027114 0.000212 0.000000 0.004384 0.000000
# 3 -0.006232 0.000212 0.012163 0.000000 0.016452 0.000000
# 4 0.000000 0.000000 0.000000 -0.166675 0.000000 -0.028547
# 5 -0.002118 0.004384 0.016452 0.000000 0.097450 0.000000
# 6 0.000000 0.000000 0.000000 -0.028547 0.000000 0.047601
#
#
# Mechanical properties :
#
#
# Convention : Reuss Voigt Hill
#
# Bulk Modulus (GPa) = 24.34323 50.18756 37.26540
# Shear Modulus (GPa) = 92.70540 21.33294 57.01917
#
# Velocity S-wave (km/s) = 7.16686 3.43797 5.62066
# Velocity P-wave (km/s) = 9.05388 6.60047 7.92272
#
# Compressibility (1/GPa) = 0.04107917
#
# Stress axis : x y z
#
# Youngs Moduli (GPa) = 81.99787 36.88163 82.21806
#
# Poissons Ratio (x) = -0.03037 0.51235
# Poissons Ratio (y) = -0.06752 -0.01741
# Poissons Ratio (z) = 0.51098 -0.00781
#
# Static dielectric constant tensor:
#      x y z
#    x 1.580340 0.000000 -0.017430 
#    y 0.000000 1.689400 0.000000 
#    z -0.017430 0.000000 1.665540 
# 
# From -- ./inp_files/52756.got.cif
#   From: 2010.05.17/outbox.cif.g08.bks.cpg/sg10_27_cif.got.tgz:52756.got - 2010.06.03 11:33:40.
