data_PCOD9142386
_publ_section_title
;
Structure prediction by ZEFSAII (Michael W. Deem and Ramdas Pophale) SiO2 
 PCOD9142386
Probable space group: P 2/M
;
_chemical_formula_sum "Si O2"
_cell_formula_units_Z 20
_cell_length_a 18.677030
_cell_length_b 9.204499
_cell_length_c 10.504808
_cell_angle_alpha 90.000000
_cell_angle_beta 42.694146
_cell_angle_gamma 90.000000
_cell_volume 1224.559687
_symmetry_space_group_name_H-M "P 2/M"
_symmetry_group_IT_number 10
_symmetry_cell_setting 'monoclinic'
loop_
_space_group_symop_operation_xyz
x,y,z
-x,y,-z
-x,-y,-z
x,-y,z
loop_
_atom_site_type_symbol
_atom_site_label
_atom_site_fract_x
_atom_site_fract_y
_atom_site_fract_z
Si Si1 0.017074 0.667248 0.324008
Si Si2 0.785024 0.675020 0.623498
Si Si3 0.774964 0.173242 0.910730
Si Si4 0.544400 0.825450 0.305356
Si Si5 0.566454 0.326120 0.786397
O O1 0.038132 0.500000 0.261164
O O2 0.118576 0.764655 0.165163
O O3 0.000000 0.670718 0.500000
O O4 0.902532 0.713264 0.421357
O O5 0.785105 0.500000 0.645943
O O6 0.766345 0.753759 0.782501
O O7 0.688573 0.708699 0.656274
O O8 0.782927 0.000000 0.886389
O O9 0.668268 0.209103 0.125907
O O10 0.500000 0.778961 0.500000
O O11 0.480729 0.753226 0.273478
O O12 0.533740 0.000000 0.309906
O O13 0.556718 0.500000 0.782550
O O14 0.500000 0.287189 0.000000
#
# Coordination Sequence:
#
# PCOD9142386 Si02
#       5
#     4   4   4   4   4
#     4   8  15  27  44  66  96 129 155 190 244 294
#     4   9  17  30  47  71 101 127 153 194 249 295
#     4  10  18  28  46  70  96 126 164 204 237 281
#     4  10  22  37  50  69 101 137 168 201 245 294
#     4  10  19  32  53  77 100 126 162 208 248 290
#
# _framework density 16.332401000000001
#
# number of rings (size 3 to 8) (size 9 to 14) (size 15 to 20)
#    0.000    2.600    2.000    1.800    0.000    6.000 
#    0.000    0.000    0.000    1.200    0.000    8.400 
#    0.000    0.000    0.000    0.000    0.000    0.000 
#
# Total GULP energy -111440.896883 kJ/mol
# GULP energy per Si atom -5572.044844 kJ/mol
# Density = 1.629523 g / cm^3
# Si number density = 16.332401 Si / 1000 Ang^3
#
#
#
# Elastic Constant Matrix: (Units=GPa)
#
#
# Indices 1 2 3 4 5 6 
#
# 1 136.7693 45.8026 83.5599 0.0000 -31.4313 0.0000
# 2 45.8026 34.1576 48.2538 0.0000 -13.5256 0.0000
# 3 83.5599 48.2538 106.6201 0.0000 -17.9631 0.0000
# 4 0.0000 0.0000 0.0000 11.8808 0.0000 -4.6226
# 5 -31.4313 -13.5256 -17.9631 0.0000 30.4941 0.0000
# 6 0.0000 0.0000 0.0000 -4.6226 0.0000 21.5325
#
#
#
# Elastic Compliance Matrix: (Units=1/GPa)
#
#
# Indices 1 2 3 4 5 6 
#
# 1 0.017106 -0.006953 -0.008669 0.000000 0.009441 0.000000
# 2 -0.006953 0.091643 -0.033733 0.000000 0.013610 0.000000
# 3 -0.008669 -0.033733 0.030434 0.000000 -0.005970 0.000000
# 4 0.000000 0.000000 0.000000 0.091841 0.000000 0.019716
# 5 0.009441 0.013610 -0.005970 0.000000 0.045045 0.000000
# 6 0.000000 0.000000 0.000000 0.019716 0.000000 0.050674
#
#
# Mechanical properties :
#
#
# Convention : Reuss Voigt Hill
#
# Bulk Modulus (GPa) = 24.70791 70.30883 47.50837
# Shear Modulus (GPa) = 11.39096 19.44353 15.41725
#
# Velocity S-wave (km/s) = 2.64378 3.45409 3.07574
# Velocity P-wave (km/s) = 4.94777 7.68439 6.46259
#
# Compressibility (1/GPa) = 0.04047287
#
# Stress axis : x y z
#
# Youngs Moduli (GPa) = 58.45863 10.91189 32.85771
#
# Poissons Ratio (x) = 0.07587 0.28484
# Poissons Ratio (y) = 0.40646 1.10840
# Poissons Ratio (z) = 0.50677 0.36810
#
# Static dielectric constant tensor:
#      x y z
#    x 1.559880 0.000000 -0.040600 
#    y 0.000000 1.544870 0.000000 
#    z -0.040600 0.000000 1.538020 
# 
# From -- ./inp_files/31114.got.cif
#   From: 2010.05.17/outbox.cif.g08.bks.cpg/sg10_16_cif.got.tgz:31114.got - 2010.06.03 11:33:40.
