data_PCOD9142694
_publ_section_title
;
Structure prediction by ZEFSAII (Michael W. Deem and Ramdas Pophale) SiO2 
 PCOD9142694
Probable space group: P 2/M
;
_chemical_formula_sum "Si O2"
_cell_formula_units_Z 32
_cell_length_a 11.696133
_cell_length_b 7.502667
_cell_length_c 17.804329
_cell_angle_alpha 90.000000
_cell_angle_beta 106.807449
_cell_angle_gamma 90.000000
_cell_volume 1495.627470
_symmetry_space_group_name_H-M "P 2/M"
_symmetry_group_IT_number 10
_symmetry_cell_setting 'monoclinic'
loop_
_space_group_symop_operation_xyz
x,y,z
-x,y,-z
-x,-y,-z
x,-y,z
loop_
_atom_site_type_symbol
_atom_site_label
_atom_site_fract_x
_atom_site_fract_y
_atom_site_fract_z
Si Si1 0.392949 0.283696 0.423773
Si Si2 0.017019 0.218337 0.667476
Si Si3 0.065719 0.206996 0.189415
Si Si4 0.278648 0.295509 0.119859
Si Si5 0.460786 0.290293 0.271200
Si Si6 0.170929 0.205983 0.481455
Si Si7 0.733891 0.215331 0.341535
Si Si8 0.108961 0.715498 0.965736
O O1 0.500000 0.230136 0.500000
O O2 0.389034 0.500000 0.422994
O O3 0.418715 0.219379 0.344329
O O4 0.270630 0.215369 0.435667
O O5 0.950734 0.279477 0.730075
O O6 0.155491 0.268625 0.689803
O O7 0.948164 0.280234 0.579587
O O8 0.012361 0.000000 0.667212
O O9 0.937360 0.220796 0.123338
O O10 0.167119 0.296091 0.157475
O O11 0.099676 0.000000 0.199928
O O12 0.309944 0.500000 0.107842
O O13 0.387991 0.213392 0.186896
O O14 0.226242 0.218591 0.032038
O O15 0.430333 0.500000 0.267132
O O16 0.602910 0.275326 0.293556
O O17 0.229942 0.281631 0.568019
O O18 0.144197 0.000000 0.494660
O O19 0.728486 0.000000 0.342404
O O20 0.113185 0.500000 0.963989
O O21 0.000000 0.767584 0.000000
#
# Coordination Sequence:
#
# PCOD9142694 Si02
#       8
#     4   4   4   4   4   4   4   4
#     4  10  19  31  47  68  99 129 149 187 245 287
#     4   9  19  34  49  69  97 126 158 200 243 278
#     4  10  18  29  49  75 101 125 153 193 238 283
#     4   9  18  32  50  72  99 130 156 187 234 286
#     4  10  20  34  50  69  97 129 161 194 235 284
#     4  10  19  32  52  72  91 122 166 204 232 277
#     4  10  20  34  51  68  91 127 166 201 238 276
#     4   8  15  29  48  70  98 127 154 186 232 286
#
# _framework density 21.395702
#
# number of rings (size 3 to 8) (size 9 to 14) (size 15 to 20)
#    0.000    2.500    1.250    2.250    0.000    5.000 
#    0.000    2.500    0.000    2.250    0.000    5.250 
#    0.000    0.000    0.000    0.000    0.000    0.000 
#
# Total GULP energy -178534.741050 kJ/mol
# GULP energy per Si atom -5579.210658 kJ/mol
# Density = 2.134700 g / cm^3
# Si number density = 21.395702 Si / 1000 Ang^3
#
#
#
# Elastic Constant Matrix: (Units=GPa)
#
#
# Indices 1 2 3 4 5 6 
#
# 1 55.0940 -14.0451 13.5084 0.0000 20.4356 0.0000
# 2 -14.0451 57.1515 -1.0928 0.0000 0.2978 0.0000
# 3 13.5084 -1.0928 115.4487 0.0000 33.3771 0.0000
# 4 0.0000 0.0000 0.0000 12.1597 0.0000 1.2225
# 5 20.4356 0.2978 33.3771 0.0000 29.3097 0.0000
# 6 0.0000 0.0000 0.0000 1.2225 0.0000 19.8751
#
#
#
# Elastic Compliance Matrix: (Units=1/GPa)
#
#
# Indices 1 2 3 4 5 6 
#
# 1 0.027803 0.007025 0.003635 0.000000 -0.023596 0.000000
# 2 0.007025 0.019281 0.001242 0.000000 -0.006509 0.000000
# 3 0.003635 0.001242 0.013395 0.000000 -0.017800 0.000000
# 4 0.000000 0.000000 0.000000 0.082750 0.000000 -0.005090
# 5 -0.023596 -0.006509 -0.017800 0.000000 0.070907 0.000000
# 6 0.000000 0.000000 0.000000 -0.005090 0.000000 0.050627
#
#
# Mechanical properties :
#
#
# Convention : Reuss Voigt Hill
#
# Bulk Modulus (GPa) = 11.86480 24.93725 18.40102
# Shear Modulus (GPa) = 18.58373 27.55716 23.07045
#
# Velocity S-wave (km/s) = 2.95035 3.59273 3.28727
# Velocity P-wave (km/s) = 4.14289 5.37502 4.79867
#
# Compressibility (1/GPa) = 0.08428295
#
# Stress axis : x y z
#
# Youngs Moduli (GPa) = 35.96795 51.86341 74.65750
#
# Poissons Ratio (x) = -0.36434 -0.27138
# Poissons Ratio (y) = -0.25267 -0.09274
# Poissons Ratio (z) = -0.13075 -0.06443
#
# Static dielectric constant tensor:
#      x y z
#    x 1.736090 0.000000 0.027830 
#    y 0.000000 1.820210 0.000000 
#    z 0.027830 0.000000 1.826440 
# 
# From -- ./inp_files/83394.got.cif
#   From: 2010.05.17/outbox.cif.g08.bks.cpg/sg10_42_cif.got.tgz:83394.got - 2010.06.03 11:33:40.
