data_PCOD9142424
_publ_section_title
;
Structure prediction by ZEFSAII (Michael W. Deem and Ramdas Pophale) SiO2 
 PCOD9142424
Probable space group: P 2/M
;
_chemical_formula_sum "Si O2"
_cell_formula_units_Z 32
_cell_length_a 25.037319
_cell_length_b 7.527459
_cell_length_c 18.532312
_cell_angle_alpha 90.000000
_cell_angle_beta 29.822407
_cell_angle_gamma 90.000000
_cell_volume 1736.984271
_symmetry_space_group_name_H-M "P 2/M"
_symmetry_group_IT_number 10
_symmetry_cell_setting 'monoclinic'
loop_
_space_group_symop_operation_xyz
x,y,z
-x,y,-z
-x,-y,-z
x,-y,z
loop_
_atom_site_type_symbol
_atom_site_label
_atom_site_fract_x
_atom_site_fract_y
_atom_site_fract_z
Si Si1 0.033728 0.290865 0.038451
Si Si2 0.739810 0.706610 0.173855
Si Si3 0.416151 0.206718 0.769282
Si Si4 0.372359 0.208899 0.131533
Si Si5 0.640742 0.784334 0.442252
Si Si6 0.425864 0.216967 0.916433
Si Si7 0.672027 0.216992 0.662270
Si Si8 0.189901 0.214602 0.634001
O O1 0.055756 0.500000 0.000547
O O2 0.931217 0.272591 0.209812
O O3 0.143616 0.215652 0.942300
O O4 0.000000 0.214288 0.000000
O O5 0.753457 0.500000 0.140586
O O6 0.678335 0.784529 0.177696
O O7 0.668027 0.724294 0.329848
O O8 0.525760 0.280883 0.606050
O O9 0.389791 0.278470 0.879740
O O10 0.441662 0.000000 0.752246
O O11 0.315135 0.281332 0.270318
O O12 0.344218 0.000000 0.161168
O O13 0.500000 0.218325 0.000000
O O14 0.363668 0.282713 0.060752
O O15 0.734006 0.727949 0.388618
O O16 0.639950 0.000000 0.441387
O O17 0.551875 0.263974 0.776898
O O18 0.420265 0.000000 0.926963
O O19 0.757481 0.275561 0.502660
O O20 0.674291 0.000000 0.661238
O O21 0.191690 0.000000 0.631829
#
# Coordination Sequence:
#
# PCOD9142424 Si02
#       8
#     4   4   4   4   4   4   4   4
#     4  10  21  37  50  61  83 116 152 193 237 270
#     4  11  23  36  48  62  84 117 158 196 226 263
#     4  10  19  31  47  68  96 123 149 181 219 265
#     4   7  10  16  32  59  92 124 146 166 202 257
#     4  10  19  31  47  68  94 121 146 179 224 268
#     4   8  12  21  38  62  93 126 148 167 208 264
#     4   8  12  21  37  64  97 120 143 176 213 257
#     4  10  18  28  48  73  93 116 148 185 223 264
#
# _framework density 18.422733000000001
#
# number of rings (size 3 to 8) (size 9 to 14) (size 15 to 20)
#    0.000    2.750    2.500    2.250    0.000    3.250 
#    0.000    0.000    0.000    0.000    0.000    1.750 
#    0.000   10.000    0.000    0.000    0.000    0.000 
#
# Total GULP energy -178369.766380 kJ/mol
# GULP energy per Si atom -5574.055199 kJ/mol
# Density = 1.838080 g / cm^3
# Si number density = 18.422733 Si / 1000 Ang^3
#
#
#
# Elastic Constant Matrix: (Units=GPa)
#
#
# Indices 1 2 3 4 5 6 
#
# 1 141.3432 -4.6409 70.5795 0.0000 25.8722 0.0000
# 2 -4.6409 39.2849 -7.9372 0.0000 -2.8741 0.0000
# 3 70.5795 -7.9372 72.5441 0.0000 25.1435 0.0000
# 4 0.0000 0.0000 0.0000 11.1660 0.0000 -18.5145
# 5 25.8722 -2.8741 25.1435 0.0000 35.0966 0.0000
# 6 0.0000 0.0000 0.0000 -18.5145 0.0000 -23.5596
#
#
#
# Elastic Compliance Matrix: (Units=1/GPa)
#
#
# Indices 1 2 3 4 5 6 
#
# 1 0.013821 -0.001111 -0.013311 0.000000 -0.000744 0.000000
# 2 -0.001111 0.026120 0.003876 0.000000 0.000181 0.000000
# 3 -0.013311 0.003876 0.031460 0.000000 -0.012408 0.000000
# 4 0.000000 0.000000 0.000000 0.038887 0.000000 -0.030559
# 5 -0.000744 0.000181 -0.012408 0.000000 0.037945 0.000000
# 6 0.000000 0.000000 0.000000 -0.030559 0.000000 -0.018430
#
#
# Mechanical properties :
#
#
# Convention : Reuss Voigt Hill
#
# Bulk Modulus (GPa) = 19.87688 41.01944 30.44816
# Shear Modulus (GPa) = 29.82134 17.55196 23.68665
#
# Velocity S-wave (km/s) = 4.02770 3.08999 3.58960
# Velocity P-wave (km/s) = 5.69584 5.91986 5.80893
#
# Compressibility (1/GPa) = 0.05030970
#
# Stress axis : x y z
#
# Youngs Moduli (GPa) = 72.35159 38.28451 31.78647
#
# Poissons Ratio (x) = 0.04253 0.42311
# Poissons Ratio (y) = 0.08038 -0.12320
# Poissons Ratio (z) = 0.96306 -0.14839
#
# Static dielectric constant tensor:
#      x y z
#    x 1.646750 0.000000 0.033040 
#    y 0.000000 1.701790 0.000000 
#    z 0.033040 0.000000 1.628580 
# 
# From -- ./inp_files/54858.got.cif
#   From: 2010.05.17/outbox.cif.g08.bks.cpg/sg10_28_cif.got.tgz:54858.got - 2010.06.03 11:33:40.
