data_PCOD9142495
_publ_section_title
;
Structure prediction by ZEFSAII (Michael W. Deem and Ramdas Pophale) SiO2 
 PCOD9142495
Probable space group: P 2/M
;
_chemical_formula_sum "Si O2"
_cell_formula_units_Z 26
_cell_length_a 7.981978
_cell_length_b 7.728026
_cell_length_c 26.042878
_cell_angle_alpha 90.000000
_cell_angle_beta 136.610412
_cell_angle_gamma 90.000000
_cell_volume 1103.561801
_symmetry_space_group_name_H-M "P 2/M"
_symmetry_group_IT_number 10
_symmetry_cell_setting 'monoclinic'
loop_
_space_group_symop_operation_xyz
x,y,z
-x,y,-z
-x,-y,-z
x,-y,z
loop_
_atom_site_type_symbol
_atom_site_label
_atom_site_fract_x
_atom_site_fract_y
_atom_site_fract_z
Si Si1 0.773751 0.211705 0.576577
Si Si2 0.715882 0.709037 0.948738
Si Si3 0.002991 0.304980 0.166018
Si Si4 0.744038 0.200988 0.361182
Si Si5 0.281229 0.798909 0.321924
Si Si6 0.547591 0.708574 0.801988
Si Si7 0.500000 0.239966 0.000000
O O1 0.500000 0.257144 0.500000
O O2 0.800095 0.273852 0.641397
O O3 0.984688 0.276208 0.584863
O O4 0.793073 0.000000 0.579646
O O5 0.684564 0.500000 0.953280
O O6 0.555813 0.755260 0.863425
O O7 0.645154 0.818992 0.982236
O O8 0.000000 0.729127 0.000000
O O9 0.075339 0.500000 0.195099
O O10 0.066276 0.206516 0.232024
O O11 0.188409 0.244998 0.163151
O O12 0.733402 0.310774 0.083761
O O13 0.528501 0.274461 0.349722
O O14 0.640879 0.210968 0.279799
O O15 0.768912 0.000000 0.381570
O O16 0.336916 0.000000 0.344256
O O17 0.520860 0.500000 0.794331
#
# Coordination Sequence:
#
# PCOD9142495 Si02
#       7
#     4   4   4   4   4   4   2
#     4   9  18  33  54  80 104 127 163 206 245 293
#     4  10  18  29  44  66  96 126 163 210 250 283
#     4  10  19  32  51  75 101 131 172 212 248 292
#     4   9  18  33  53  75 100 131 162 197 246 296
#     4   9  19  35  53  74 103 134 163 203 250 297
#     4   9  18  32  50  72  99 130 166 208 247 291
#     4  12  21  30  47  72  99 132 171 212 251 286
#
# _framework density 23.560077
#
# number of rings (size 3 to 8) (size 9 to 14) (size 15 to 20)
#    0.000    2.462    1.538    1.385    2.154    0.615 
#    0.000    3.462    0.000    3.231    0.000    4.308 
#    0.000    0.000    0.000    0.000    0.000    0.000 
#
# Total GULP energy -144802.318868 kJ/mol
# GULP energy per Si atom -5569.319956 kJ/mol
# Density = 2.350645 g / cm^3
# Si number density = 23.560077 Si / 1000 Ang^3
#
#
#
# Elastic Constant Matrix: (Units=GPa)
#
#
# Indices 1 2 3 4 5 6 
#
# 1 99.0068 11.9220 7.7814 0.0000 14.8512 0.0000
# 2 11.9220 34.7745 -2.9544 0.0000 -2.3780 0.0000
# 3 7.7814 -2.9544 21.1299 0.0000 20.7200 0.0000
# 4 0.0000 0.0000 0.0000 -54.3518 0.0000 -7.6283
# 5 14.8512 -2.3780 20.7200 0.0000 49.2645 0.0000
# 6 0.0000 0.0000 0.0000 -7.6283 0.0000 -15.2616
#
#
#
# Elastic Compliance Matrix: (Units=1/GPa)
#
#
# Indices 1 2 3 4 5 6 
#
# 1 0.011172 -0.004189 -0.002041 0.000000 -0.002712 0.000000
# 2 -0.004189 0.030681 0.005347 0.000000 0.000495 0.000000
# 3 -0.002041 0.005347 0.081640 0.000000 -0.033463 0.000000
# 4 0.000000 0.000000 0.000000 -0.019787 0.000000 0.009890
# 5 -0.002712 0.000495 -0.033463 0.000000 0.035214 0.000000
# 6 0.000000 0.000000 0.000000 0.009890 0.000000 -0.070467
#
#
# Mechanical properties :
#
#
# Convention : Reuss Voigt Hill
#
# Bulk Modulus (GPa) = 8.21507 20.93438 14.57472
# Shear Modulus (GPa) = 45.12887 5.14102 25.13495
#
# Velocity S-wave (km/s) = 4.38137 1.47879 3.26980
# Velocity P-wave (km/s) = 5.39348 3.43811 4.52273
#
# Compressibility (1/GPa) = 0.12172750
#
# Stress axis : x y z
#
# Youngs Moduli (GPa) = 89.51030 32.59354 12.24893
#
# Poissons Ratio (x) = 0.13653 0.02500
# Poissons Ratio (y) = 0.37496 -0.06550
# Poissons Ratio (z) = 0.18267 -0.17428
#
# Static dielectric constant tensor:
#      x y z
#    x 1.924240 0.000000 0.014620 
#    y 0.000000 1.953980 0.000000 
#    z 0.014620 0.000000 1.857700 
# 
# From -- ./inp_files/91888.got.cif
#   From: 2010.05.17/outbox.cif.g08.bks.cpg/sg10_46_cif.got.tgz:91888.got - 2010.06.03 11:33:40.
