data_PCOD9142789
_publ_section_title
;
Structure prediction by ZEFSAII (Michael W. Deem and Ramdas Pophale) SiO2 
 PCOD9142789
Probable space group: P 2/M
;
_chemical_formula_sum "Si O2"
_cell_formula_units_Z 32
_cell_length_a 12.548799
_cell_length_b 8.917747
_cell_length_c 22.004002
_cell_angle_alpha 90.000000
_cell_angle_beta 132.547829
_cell_angle_gamma 90.000000
_cell_volume 1814.083976
_symmetry_space_group_name_H-M "P 2/M"
_symmetry_group_IT_number 10
_symmetry_cell_setting 'monoclinic'
loop_
_space_group_symop_operation_xyz
x,y,z
-x,y,-z
-x,-y,-z
x,-y,z
loop_
_atom_site_type_symbol
_atom_site_label
_atom_site_fract_x
_atom_site_fract_y
_atom_site_fract_z
Si Si1 0.134335 0.178731 0.732455
Si Si2 0.116205 0.680792 0.595263
Si Si3 0.290482 0.173217 0.241080
Si Si4 0.551977 0.679323 0.283879
Si Si5 0.739296 0.325435 0.020858
Si Si6 0.002799 0.820285 0.195867
Si Si7 0.828821 0.835415 0.941050
Si Si8 0.445294 0.681691 0.856242
O O1 0.090014 0.246700 0.650761
O O2 0.021740 0.211338 0.742754
O O3 0.289331 0.249858 0.810037
O O4 0.151046 0.000000 0.733937
O O5 0.111141 0.500000 0.599907
O O6 0.280787 0.720268 0.640327
O O7 0.000000 0.725889 0.500000
O O8 0.442855 0.255568 0.291603
O O9 0.232140 0.176619 0.149641
O O10 0.157307 0.235425 0.229842
O O11 0.314898 0.000000 0.268275
O O12 0.538840 0.500000 0.279447
O O13 0.521341 0.726881 0.201466
O O14 0.739975 0.500000 0.037561
O O15 0.861888 0.243061 0.106908
O O16 0.786177 0.297286 0.969168
O O17 0.571980 0.273113 0.951908
O O18 0.002545 0.000000 0.186006
O O19 0.784679 0.000000 0.949779
O O20 0.000000 0.836047 0.000000
O O21 0.436638 0.500000 0.853810
#
# Coordination Sequence:
#
# PCOD9142789 Si02
#       8
#     4   4   4   4   4   4   4   4
#     4  10  21  36  56  78 102 133 172 216 251 299
#     4   9  19  38  63  86 109 133 154 192 256 317
#     4  10  19  31  49  70  99 140 176 209 255 305
#     4   9  17  31  51  78 107 129 161 209 254 298
#     4  11  21  31  47  71  98 135 182 229 265 296
#     4  10  22  38  49  67 103 144 181 214 257 304
#     4  10  18  30  46  65  94 136 179 222 264 300
#     4   9  19  34  49  69 103 138 171 219 271 309
#
# _framework density 17.639756999999999
#
# number of rings (size 3 to 8) (size 9 to 14) (size 15 to 20)
#    0.000    2.250    2.500    1.500    0.000    5.500 
#    0.000    2.500    0.000    0.750    0.000    5.250 
#    0.000    0.000    0.000    0.000    0.000    0.000 
#
# Total GULP energy -178324.839772 kJ/mol
# GULP energy per Si atom -5572.651243 kJ/mol
# Density = 1.759961 g / cm^3
# Si number density = 17.639757 Si / 1000 Ang^3
#
#
#
# Elastic Constant Matrix: (Units=GPa)
#
#
# Indices 1 2 3 4 5 6 
#
# 1 116.5278 31.1731 59.0498 0.0000 4.0825 0.0000
# 2 31.1731 14.3639 24.0985 0.0000 2.5846 0.0000
# 3 59.0498 24.0985 85.7114 0.0000 14.5774 0.0000
# 4 0.0000 0.0000 0.0000 -43.2044 0.0000 63.6998
# 5 4.0825 2.5846 14.5774 0.0000 14.5477 0.0000
# 6 0.0000 0.0000 0.0000 63.6998 0.0000 -40.8505
#
#
#
# Elastic Compliance Matrix: (Units=1/GPa)
#
#
# Indices 1 2 3 4 5 6 
#
# 1 0.021242 -0.039688 -0.004414 0.000000 0.005513 0.000000
# 2 -0.039688 0.209314 -0.032640 0.000000 0.006656 0.000000
# 3 -0.004414 -0.032640 0.027349 0.000000 -0.020367 0.000000
# 4 0.000000 0.000000 0.000000 0.017817 0.000000 0.027783
# 5 0.005513 0.006656 -0.020367 0.000000 0.086418 0.000000
# 6 0.000000 0.000000 0.000000 0.027783 0.000000 0.018844
#
#
# Mechanical properties :
#
#
# Convention : Reuss Voigt Hill
#
# Bulk Modulus (GPa) = 9.57652 49.47175 29.52413
# Shear Modulus (GPa) = 8.78311 -7.08267 0.85022
#
# Velocity S-wave (km/s) = 2.23382 -2.00596 0.69501
# Velocity P-wave (km/s) = 3.47764 4.76878 4.17345
#
# Compressibility (1/GPa) = 0.10442209
#
# Stress axis : x y z
#
# Youngs Moduli (GPa) = 47.07605 4.77751 36.56505
#
# Poissons Ratio (x) = 0.18961 0.16138
# Poissons Ratio (y) = 1.86836 1.19347
# Poissons Ratio (z) = 0.20777 0.15594
#
# Static dielectric constant tensor:
#      x y z
#    x 1.634690 0.000000 0.013280 
#    y 0.000000 1.622960 0.000000 
#    z 0.013280 0.000000 1.592630 
# 
# From -- ./inp_files/63778.got.cif
#   From: 2010.05.17/outbox.cif.g08.bks.cpg/sg10_32_cif.got.tgz:63778.got - 2010.06.03 11:33:40.
