data_PCOD9142494
_publ_section_title
;
Structure prediction by ZEFSAII (Michael W. Deem and Ramdas Pophale) SiO2 
 PCOD9142494
Probable space group: P 2/M
;
_chemical_formula_sum "Si O2"
_cell_formula_units_Z 32
_cell_length_a 11.691083
_cell_length_b 14.693906
_cell_length_c 11.669804
_cell_angle_alpha 90.000000
_cell_angle_beta 77.039567
_cell_angle_gamma 90.000000
_cell_volume 1953.658391
_symmetry_space_group_name_H-M "P 2/M"
_symmetry_group_IT_number 10
_symmetry_cell_setting 'monoclinic'
loop_
_space_group_symop_operation_xyz
x,y,z
-x,y,-z
-x,-y,-z
x,-y,z
loop_
_atom_site_type_symbol
_atom_site_label
_atom_site_fract_x
_atom_site_fract_y
_atom_site_fract_z
Si Si1 0.277815 0.891613 0.355002
Si Si2 0.537306 0.108167 0.216649
Si Si3 0.036310 0.601686 0.181529
Si Si4 0.808990 0.601611 0.087239
Si Si5 0.688829 0.893898 0.395969
Si Si6 0.099626 0.893773 0.824836
Si Si7 0.872141 0.210688 0.787424
Si Si8 0.725891 0.789575 0.044844
O O1 0.398823 0.880909 0.257616
O O2 0.301441 0.856551 0.478568
O O3 0.174936 0.839147 0.313965
O O4 0.251089 0.000000 0.365752
O O5 0.595610 0.141580 0.323848
O O6 0.605689 0.159338 0.100744
O O7 0.563706 0.000000 0.201009
O O8 0.047184 0.500000 0.228562
O O9 0.082092 0.686821 0.242736
O O10 0.902809 0.615413 0.168346
O O11 0.113393 0.602904 0.046966
O O12 0.757913 0.500000 0.109129
O O13 0.724062 0.687058 0.094756
O O14 0.813655 0.889541 0.304167
O O15 0.655635 0.000000 0.419486
O O16 0.171171 0.842893 0.908826
O O17 0.979278 0.844368 0.820988
O O18 0.081987 0.000000 0.857362
O O19 0.767612 0.212721 0.904711
#
# Coordination Sequence:
#
# PCOD9142494 Si02
#       8
#     4   4   4   4   4   4   4   4
#     4  10  20  32  46  65  88 119 158 193 223 255
#     4   9  18  32  49  65  85 119 159 192 219 254
#     4   8  14  26  43  63  88 118 150 180 216 262
#     4   8  13  24  44  66  87 113 148 189 221 251
#     4   8  16  32  50  64  81 111 156 202 228 247
#     4  10  19  29  43  65  93 124 151 178 219 267
#     4  11  20  28  42  68  99 124 143 174 223 277
#     4  10  18  29  44  66  96 122 148 180 216 270
#
# _framework density 16.379528000000001
#
# number of rings (size 3 to 8) (size 9 to 14) (size 15 to 20)
#    0.000    2.750    1.250    3.000    0.000    5.000 
#    0.000    3.125    0.000    0.750    0.000    8.750 
#    0.000    5.000    0.000    0.000    0.000    0.000 
#
# Total GULP energy -178251.959340 kJ/mol
# GULP energy per Si atom -5570.373729 kJ/mol
# Density = 1.634225 g / cm^3
# Si number density = 16.379528 Si / 1000 Ang^3
#
#
#
# Elastic Constant Matrix: (Units=GPa)
#
#
# Indices 1 2 3 4 5 6 
#
# 1 23.3698 19.0159 2.7467 0.0000 1.2082 0.0000
# 2 19.0159 85.9022 8.8979 0.0000 0.8385 0.0000
# 3 2.7467 8.8979 16.2761 0.0000 -0.6425 0.0000
# 4 0.0000 0.0000 0.0000 0.2520 0.0000 11.7790
# 5 1.2082 0.8385 -0.6425 0.0000 9.1016 0.0000
# 6 0.0000 0.0000 0.0000 11.7790 0.0000 8.7108
#
#
#
# Elastic Compliance Matrix: (Units=1/GPa)
#
#
# Indices 1 2 3 4 5 6 
#
# 1 0.052640 -0.011286 -0.002956 0.000000 -0.006157 0.000000
# 2 -0.011286 0.014784 -0.006189 0.000000 -0.000301 0.000000
# 3 -0.002956 -0.006189 0.065543 0.000000 0.005589 0.000000
# 4 0.000000 0.000000 0.000000 -0.063792 0.000000 0.086261
# 5 -0.006157 -0.000301 0.005589 0.000000 0.111110 0.000000
# 6 0.000000 0.000000 0.000000 0.086261 0.000000 -0.001845
#
#
# Mechanical properties :
#
#
# Convention : Reuss Voigt Hill
#
# Bulk Modulus (GPa) = 10.85747 20.76323 15.81035
# Shear Modulus (GPa) = 19.99975 9.93873 14.96924
#
# Velocity S-wave (km/s) = 3.49810 2.46596 3.02636
# Velocity P-wave (km/s) = 4.79152 4.56199 4.67817
#
# Compressibility (1/GPa) = 0.09210252
#
# Stress axis : x y z
#
# Youngs Moduli (GPa) = 18.99708 67.64249 15.25722
#
# Poissons Ratio (x) = 0.76344 0.04510
# Poissons Ratio (y) = 0.21441 0.09443
# Poissons Ratio (z) = 0.05616 0.41865
#
# Static dielectric constant tensor:
#      x y z
#    x 1.550570 0.000000 0.000630 
#    y 0.000000 1.564150 0.000000 
#    z 0.000630 0.000000 1.565320 
# 
# From -- ./inp_files/47372.got.cif
#   From: 2010.05.17/outbox.cif.g08.bks.cpg/sg10_24_cif.got.tgz:47372.got - 2010.06.03 11:33:40.
