data_PCOD9142378
_publ_section_title
;
Structure prediction by ZEFSAII (Michael W. Deem and Ramdas Pophale) SiO2 
 PCOD9142378
Probable space group: P 2/M
;
_chemical_formula_sum "Si O2"
_cell_formula_units_Z 28
_cell_length_a 25.311507
_cell_length_b 7.714166
_cell_length_c 19.902510
_cell_angle_alpha 90.000000
_cell_angle_beta 21.741409
_cell_angle_gamma 90.000000
_cell_volume 1439.484894
_symmetry_space_group_name_H-M "P 2/M"
_symmetry_group_IT_number 10
_symmetry_cell_setting 'monoclinic'
loop_
_space_group_symop_operation_xyz
x,y,z
-x,y,-z
-x,-y,-z
x,-y,z
loop_
_atom_site_type_symbol
_atom_site_label
_atom_site_fract_x
_atom_site_fract_y
_atom_site_fract_z
Si Si1 0.112281 0.295391 0.073073
Si Si2 0.331904 0.291793 0.464306
Si Si3 0.831873 0.198017 0.623755
Si Si4 0.650061 0.287248 0.108335
Si Si5 0.957679 0.287207 0.124418
Si Si6 0.844631 0.299376 0.755567
Si Si7 0.820225 0.792772 0.491200
O O1 0.136577 0.500000 0.035620
O O2 0.065843 0.226677 0.055095
O O3 0.973600 0.274903 0.284505
O O4 0.250446 0.225400 0.948039
O O5 0.334092 0.500000 0.467585
O O6 0.487461 0.226512 0.300686
O O7 0.199768 0.230355 0.666022
O O8 0.291550 0.250795 0.435018
O O9 0.793172 0.287297 0.739476
O O10 0.783909 0.273001 0.608712
O O11 0.004999 0.202043 0.416232
O O12 0.782940 0.000000 0.686836
O O13 0.647992 0.500000 0.112149
O O14 0.729898 0.237794 0.945059
O O15 0.958245 0.500000 0.124565
O O16 0.000000 0.231896 0.000000
O O17 0.877671 0.500000 0.731501
O O18 0.832941 0.000000 0.481058
#
# Coordination Sequence:
#
# PCOD9142378 Si02
#       7
#     4   4   4   4   4   4   4
#     4   9  16  29  50  70  94 125 157 195 232 276
#     4   9  18  32  50  68  95 128 156 194 237 279
#     4  10  19  30  44  66  95 122 155 197 242 280
#     4   9  17  30  47  71  95 122 161 197 235 278
#     4   8  14  26  47  74  98 123 155 188 228 278
#     4  10  18  28  46  68  92 120 158 200 233 277
#     4  10  19  31  47  69  94 122 162 201 232 281
#
# _framework density 19.451402999999999
#
# number of rings (size 3 to 8) (size 9 to 14) (size 15 to 20)
#    0.000    2.714    1.429    3.000    0.000    1.714 
#    0.000    3.571    0.000   15.429    0.000    0.000 
#    0.000    9.143    0.000    0.000    0.000    0.000 
#
# Total GULP energy -156117.968976 kJ/mol
# GULP energy per Si atom -5575.641749 kJ/mol
# Density = 1.940713 g / cm^3
# Si number density = 19.451403 Si / 1000 Ang^3
#
#
#
# Elastic Constant Matrix: (Units=GPa)
#
#
# Indices 1 2 3 4 5 6 
#
# 1 177.1559 2.0698 99.7101 0.0000 0.9176 0.0000
# 2 2.0698 30.8393 3.5882 0.0000 2.0764 0.0000
# 3 99.7101 3.5882 99.9122 0.0000 -8.0552 0.0000
# 4 0.0000 0.0000 0.0000 102.4563 0.0000 -10.9296
# 5 0.9176 2.0764 -8.0552 0.0000 35.0490 0.0000
# 6 0.0000 0.0000 0.0000 -10.9296 0.0000 -0.5339
#
#
#
# Elastic Compliance Matrix: (Units=1/GPa)
#
#
# Indices 1 2 3 4 5 6 
#
# 1 0.013304 0.000926 -0.013594 0.000000 -0.003528 0.000000
# 2 0.000926 0.032800 -0.002304 0.000000 -0.002497 0.000000
# 3 -0.013594 -0.002304 0.024145 0.000000 0.006042 0.000000
# 4 0.000000 0.000000 0.000000 0.003066 0.000000 -0.062756
# 5 -0.003528 -0.002497 0.006042 0.000000 0.030160 0.000000
# 6 0.000000 0.000000 0.000000 -0.062756 0.000000 -0.588283
#
#
# Mechanical properties :
#
#
# Convention : Reuss Voigt Hill
#
# Bulk Modulus (GPa) = 24.81036 57.62706 41.21871
# Shear Modulus (GPa) = -11.32685 40.89690 14.78502
#
# Velocity S-wave (km/s) = -2.41574 4.59030 2.75998
# Velocity P-wave (km/s) = 2.23644 7.60164 5.60297
#
# Compressibility (1/GPa) = 0.04030575
#
# Stress axis : x y z
#
# Youngs Moduli (GPa) = 75.16745 30.48766 41.41561
#
# Poissons Ratio (x) = -0.02824 0.56302
# Poissons Ratio (y) = -0.06963 0.09541
# Poissons Ratio (z) = 1.02185 0.07023
#
# Static dielectric constant tensor:
#      x y z
#    x 1.706700 0.000000 -0.000730 
#    y 0.000000 1.700640 0.000000 
#    z -0.000730 0.000000 1.648360 
# 
# From -- ./inp_files/79846.got.cif
#   From: 2010.05.17/outbox.cif.g08.bks.cpg/sg10_40_cif.got.tgz:79846.got - 2010.06.03 11:33:40.
