data_PCOD9142800
_publ_section_title
;
Structure prediction by ZEFSAII (Michael W. Deem and Ramdas Pophale) SiO2 
 PCOD9142800
Probable space group: P 2/M
;
_chemical_formula_sum "Si O2"
_cell_formula_units_Z 30
_cell_length_a 14.891227
_cell_length_b 10.013509
_cell_length_c 12.109247
_cell_angle_alpha 90.000000
_cell_angle_beta 80.038880
_cell_angle_gamma 90.000000
_cell_volume 1778.431879
_symmetry_space_group_name_H-M "P 2/M"
_symmetry_group_IT_number 10
_symmetry_cell_setting 'monoclinic'
loop_
_space_group_symop_operation_xyz
x,y,z
-x,y,-z
-x,-y,-z
x,-y,z
loop_
_atom_site_type_symbol
_atom_site_label
_atom_site_fract_x
_atom_site_fract_y
_atom_site_fract_z
Si Si1 0.202975 0.654525 0.993367
Si Si2 0.402387 0.155720 0.569730
Si Si3 0.238514 0.844105 0.429531
Si Si4 0.292707 0.653246 0.741082
Si Si5 0.125513 0.654997 0.602031
Si Si6 0.000000 0.752537 0.000000
Si Si7 0.002768 0.147394 0.243821
Si Si8 0.779789 0.848270 0.810947
O O1 0.220775 0.500000 0.013796
O O2 0.253559 0.690762 0.868951
O O3 0.093787 0.672380 0.999290
O O4 0.235045 0.747689 0.086132
O O5 0.500000 0.195467 0.500000
O O6 0.326015 0.166156 0.490188
O O7 0.367725 0.247777 0.676441
O O8 0.407429 0.000000 0.601991
O O9 0.163203 0.741864 0.491877
O O10 0.263402 0.813586 0.297709
O O11 0.207334 0.000000 0.439596
O O12 0.325539 0.500000 0.738172
O O13 0.207110 0.655806 0.674954
O O14 0.104678 0.500000 0.580522
O O15 0.043986 0.735449 0.677274
O O16 0.014623 0.834158 0.883681
O O17 0.111301 0.152330 0.234431
O O18 0.969010 0.000000 0.285207
O O19 0.754563 0.000000 0.847140
#
# Coordination Sequence:
#
# PCOD9142800 Si02
#       8
#     4   4   4   4   4   2   4   4
#     4  10  19  31  49  71  99 133 169 208 246 283
#     4   9  18  33  56  83 100 117 153 201 252 303
#     4   9  18  35  53  69  96 129 157 197 249 297
#     4   9  18  32  48  73 103 130 159 197 247 297
#     4  10  19  31  47  69  96 127 166 208 247 289
#     4  10  18  30  46  68  96 132 172 216 246 276
#     4  10  19  30  44  65  93 129 172 210 241 281
#     4   9  20  34  47  67  95 132 172 201 237 290
#
# _framework density 16.868793
#
# number of rings (size 3 to 8) (size 9 to 14) (size 15 to 20)
#    0.000    2.533    1.333    0.800    0.000    5.067 
#    0.000    2.667    0.000    0.800    0.000    5.600 
#    0.000    0.000    0.000    0.000    0.000    0.000 
#
# Total GULP energy -167216.394020 kJ/mol
# GULP energy per Si atom -5573.879801 kJ/mol
# Density = 1.683040 g / cm^3
# Si number density = 16.868793 Si / 1000 Ang^3
#
#
#
# Elastic Constant Matrix: (Units=GPa)
#
#
# Indices 1 2 3 4 5 6 
#
# 1 17.7959 26.3223 24.9554 0.0000 -11.2899 0.0000
# 2 26.3223 105.9886 78.8348 0.0000 -12.5994 0.0000
# 3 24.9554 78.8348 122.0481 0.0000 -6.1748 0.0000
# 4 0.0000 0.0000 0.0000 29.0447 0.0000 -0.9339
# 5 -11.2899 -12.5994 -6.1748 0.0000 22.2568 0.0000
# 6 0.0000 0.0000 0.0000 -0.9339 0.0000 4.3803
#
#
#
# Elastic Compliance Matrix: (Units=1/GPa)
#
#
# Indices 1 2 3 4 5 6 
#
# 1 0.136031 -0.016496 -0.014342 0.000000 0.055685 0.000000
# 2 -0.016496 0.021347 -0.010374 0.000000 0.000839 0.000000
# 3 -0.014342 -0.010374 0.017406 0.000000 -0.008318 0.000000
# 4 0.000000 0.000000 0.000000 0.034667 0.000000 0.007391
# 5 0.055685 0.000839 -0.008318 0.000000 0.071344 0.000000
# 6 0.000000 0.000000 0.000000 0.007391 0.000000 0.229871
#
#
# Mechanical properties :
#
#
# Convention : Reuss Voigt Hill
#
# Bulk Modulus (GPa) = 10.82707 56.22863 33.52785
# Shear Modulus (GPa) = 8.01440 18.85104 13.43272
#
# Velocity S-wave (km/s) = 2.18205 3.34654 2.82495
# Velocity P-wave (km/s) = 3.57502 6.95254 5.52804
#
# Compressibility (1/GPa) = 0.09236113
#
# Stress axis : x y z
#
# Youngs Moduli (GPa) = 7.35125 46.84406 57.45241
#
# Poissons Ratio (x) = 0.77276 0.82397
# Poissons Ratio (y) = 0.12127 0.59598
# Poissons Ratio (z) = 0.10543 0.48594
#
# Static dielectric constant tensor:
#      x y z
#    x 1.555330 0.000000 0.016930 
#    y 0.000000 1.578230 0.000000 
#    z 0.016930 0.000000 1.561200 
# 
# From -- ./inp_files/52673.got.cif
#   From: 2010.05.17/outbox.cif.g08.bks.cpg/sg10_27_cif.got.tgz:52673.got - 2010.06.03 11:33:40.
