data_PCOD9142521
_publ_section_title
;
Structure prediction by ZEFSAII (Michael W. Deem and Ramdas Pophale) SiO2 
 PCOD9142521
Probable space group: P 2/M
;
_chemical_formula_sum "Si O2"
_cell_formula_units_Z 32
_cell_length_a 18.490993
_cell_length_b 13.842752
_cell_length_c 21.163048
_cell_angle_alpha 90.000000
_cell_angle_beta 160.624069
_cell_angle_gamma 90.000000
_cell_volume 1797.178803
_symmetry_space_group_name_H-M "P 2/M"
_symmetry_group_IT_number 10
_symmetry_cell_setting 'monoclinic'
loop_
_space_group_symop_operation_xyz
x,y,z
-x,y,-z
-x,-y,-z
x,-y,z
loop_
_atom_site_type_symbol
_atom_site_label
_atom_site_fract_x
_atom_site_fract_y
_atom_site_fract_z
Si Si1 0.694705 0.389835 0.709968
Si Si2 0.990292 0.611094 0.135834
Si Si3 0.146510 0.384630 0.484184
Si Si4 0.099285 0.725093 0.815088
Si Si5 0.390739 0.235133 0.758411
Si Si6 0.083389 0.886662 0.414632
Si Si7 0.775834 0.106992 0.275101
Si Si8 0.516598 0.390004 0.690991
O O1 0.500000 0.395366 0.500000
O O2 0.760190 0.500000 0.782648
O O3 0.592696 0.342041 0.688212
O O4 0.892949 0.349976 0.831490
O O5 0.068210 0.500000 0.208879
O O6 0.013486 0.672637 0.218077
O O7 0.735325 0.606412 0.911900
O O8 0.140677 0.500000 0.486949
O O9 0.233444 0.328019 0.617309
O O10 0.329291 0.354666 0.582581
O O11 0.932044 0.342298 0.273376
O O12 0.975293 0.823892 0.694854
O O13 0.354416 0.742116 0.040251
O O14 0.285001 0.159009 0.620715
O O15 0.362823 0.188116 0.804626
O O16 0.866963 0.876263 0.280380
O O17 0.119292 0.000000 0.433593
O O18 0.000000 0.103939 0.500000
O O19 0.674901 0.000000 0.196896
O O20 0.449156 0.500000 0.619256
#
# Coordination Sequence:
#
# PCOD9142521 Si02
#       8
#     4   4   4   4   4   4   4   4
#     4   9  16  25  40  65  96 133 172 210 250 288
#     4  10  18  29  45  68 102 141 175 205 241 289
#     4  10  20  33  48  69 103 144 180 212 244 285
#     4  11  21  31  49  76 104 135 170 206 246 304
#     4  10  19  32  52  77 102 132 168 205 248 303
#     4   9  20  37  56  80 104 124 154 202 262 320
#     4   8  15  32  57  80 101 123 150 196 261 320
#     4   9  16  28  45  65  94 137 179 210 247 287
#
# _framework density 17.805686000000001
#
# number of rings (size 3 to 8) (size 9 to 14) (size 15 to 20)
#    0.000    2.500    1.250    2.625    0.000    5.500 
#    0.000    1.250    0.000   10.125    0.000   22.750 
#    0.000   15.500    0.000    1.125    0.000    0.000 
#
# Total GULP energy -178143.542038 kJ/mol
# GULP energy per Si atom -5566.985689 kJ/mol
# Density = 1.776516 g / cm^3
# Si number density = 17.805686 Si / 1000 Ang^3
#
#
#
# Elastic Constant Matrix: (Units=GPa)
#
#
# Indices 1 2 3 4 5 6 
#
# 1 59.4307 26.4154 1.0309 0.0000 4.0819 0.0000
# 2 26.4154 97.5100 19.0896 0.0000 -3.6099 0.0000
# 3 1.0309 19.0896 67.1404 0.0000 -7.7145 0.0000
# 4 0.0000 0.0000 0.0000 -10.3799 0.0000 -3.4264
# 5 4.0819 -3.6099 -7.7145 0.0000 22.1324 0.0000
# 6 0.0000 0.0000 0.0000 -3.4264 0.0000 18.3851
#
#
#
# Elastic Compliance Matrix: (Units=1/GPa)
#
#
# Indices 1 2 3 4 5 6 
#
# 1 0.019605 -0.005627 0.000810 0.000000 -0.004251 0.000000
# 2 -0.005627 0.012486 -0.003240 0.000000 0.001945 0.000000
# 3 0.000810 -0.003240 0.016381 0.000000 0.005032 0.000000
# 4 0.000000 0.000000 0.000000 -0.090756 0.000000 -0.016914
# 5 -0.004251 0.001945 0.005032 0.000000 0.048038 0.000000
# 6 0.000000 0.000000 0.000000 -0.016914 0.000000 0.051240
#
#
# Mechanical properties :
#
#
# Convention : Reuss Voigt Hill
#
# Bulk Modulus (GPa) = 30.90348 35.23920 33.07134
# Shear Modulus (GPa) = 59.59906 17.86385 38.73145
#
# Velocity S-wave (km/s) = 5.79177 3.17087 4.66900
# Velocity P-wave (km/s) = 7.88161 5.76540 6.90506
#
# Compressibility (1/GPa) = 0.03235881
#
# Stress axis : x y z
#
# Youngs Moduli (GPa) = 51.00646 80.08910 61.04580
#
# Poissons Ratio (x) = 0.45067 -0.04947
# Poissons Ratio (y) = 0.28702 0.19780
# Poissons Ratio (z) = -0.04134 0.25951
#
# Static dielectric constant tensor:
#      x y z
#    x 1.677450 0.000000 -0.001820 
#    y 0.000000 1.623040 0.000000 
#    z -0.001820 0.000000 1.675510 
# 
# From -- ./inp_files/85973.got.cif
#   From: 2010.05.17/outbox.cif.g08.bks.cpg/sg10_43_cif.got.tgz:85973.got - 2010.06.03 11:33:40.
