data_PCOD9142168
_publ_section_title
;
Structure prediction by ZEFSAII (Michael W. Deem and Ramdas Pophale) SiO2 
 PCOD9142168
Probable space group: P 2/M
;
_chemical_formula_sum "Si O2"
_cell_formula_units_Z 26
_cell_length_a 17.705458
_cell_length_b 9.611307
_cell_length_c 7.504505
_cell_angle_alpha 90.000000
_cell_angle_beta 69.522179
_cell_angle_gamma 90.000000
_cell_volume 1196.360623
_symmetry_space_group_name_H-M "P 2/M"
_symmetry_group_IT_number 10
_symmetry_cell_setting 'monoclinic'
loop_
_space_group_symop_operation_xyz
x,y,z
-x,y,-z
-x,-y,-z
x,-y,z
loop_
_atom_site_type_symbol
_atom_site_label
_atom_site_fract_x
_atom_site_fract_y
_atom_site_fract_z
Si Si1 0.958837 0.657460 0.233031
Si Si2 0.500000 0.245709 0.500000
Si Si3 0.707095 0.658546 0.805980
Si Si4 0.869336 0.665925 0.820545
Si Si5 0.819410 0.833459 0.213750
Si Si6 0.673533 0.345164 0.258642
Si Si7 0.566003 0.843013 0.810084
O O1 0.929243 0.500000 0.291773
O O2 0.886829 0.767104 0.287303
O O3 0.036512 0.686481 0.291378
O O4 0.000000 0.656622 0.000000
O O5 0.580024 0.330451 0.383088
O O6 0.473916 0.159250 0.349763
O O7 0.693969 0.500000 0.760348
O O8 0.802405 0.689381 0.725043
O O9 0.647697 0.757347 0.750535
O O10 0.683570 0.669773 0.036080
O O11 0.860450 0.500000 0.878289
O O12 0.845940 0.769309 0.000018
O O13 0.730272 0.768369 0.306275
O O14 0.819068 0.000000 0.217470
O O15 0.702721 0.500000 0.281828
O O16 0.582904 0.000000 0.855699
O O17 0.500000 0.780459 0.000000
#
# Coordination Sequence:
#
# PCOD9142168 Si02
#       7
#     4   2   4   4   4   4   4
#     4   8  13  24  42  65 101 145 188 233 283 337
#     4  12  24  42  64  88 110 150 202 248 284 350
#     4   9  18  35  57  82 113 149 191 241 289 342
#     4   8  15  28  46  71 104 146 191 236 286 339
#     4  10  18  26  42  71 109 148 187 234 288 343
#     4  10  21  37  57  81 110 147 195 244 295 346
#     4  11  24  41  60  85 118 155 192 237 294 350
#
# _framework density 21.732578
#
# number of rings (size 3 to 8) (size 9 to 14) (size 15 to 20)
#    0.000    2.462    1.538    3.692    0.000    8.000 
#    0.000    0.000    0.000    0.000    0.000    1.077 
#    0.000    7.385    0.000    0.000    0.000    0.000 
#
# Total GULP energy -145134.544137 kJ/mol
# GULP energy per Si atom -5582.097851 kJ/mol
# Density = 2.168311 g / cm^3
# Si number density = 21.732578 Si / 1000 Ang^3
#
#
#
# Elastic Constant Matrix: (Units=GPa)
#
#
# Indices 1 2 3 4 5 6 
#
# 1 192.7524 100.0522 28.9278 0.0000 8.5795 0.0000
# 2 100.0522 137.2343 19.6327 0.0000 -3.5605 0.0000
# 3 28.9278 19.6327 77.6198 0.0000 -7.1679 0.0000
# 4 0.0000 0.0000 0.0000 -563.7202 0.0000 450.4185
# 5 8.5795 -3.5605 -7.1679 0.0000 14.3101 0.0000
# 6 0.0000 0.0000 0.0000 450.4185 0.0000 -338.1374
#
#
#
# Elastic Compliance Matrix: (Units=1/GPa)
#
#
# Indices 1 2 3 4 5 6 
#
# 1 0.009476 -0.006758 -0.002623 0.000000 -0.008677 0.000000
# 2 -0.006758 0.012393 0.000045 0.000000 0.007158 0.000000
# 3 -0.002623 0.000045 0.014675 0.000000 0.008935 0.000000
# 4 0.000000 0.000000 0.000000 0.027576 0.000000 0.036733
# 5 -0.008677 0.007158 0.008935 0.000000 0.081339 0.000000
# 6 0.000000 0.000000 0.000000 0.036733 0.000000 0.045973
#
#
# Mechanical properties :
#
#
# Convention : Reuss Voigt Hill
#
# Bulk Modulus (GPa) = 55.95789 78.31466 67.13627
# Shear Modulus (GPa) = 23.14145 -160.24323 -68.55089
#
# Velocity S-wave (km/s) = 3.26671 -8.59617 -5.62240
# Velocity P-wave (km/s) = 6.32715 7.90011 3.34507
#
# Compressibility (1/GPa) = 0.01787058
#
# Stress axis : x y z
#
# Youngs Moduli (GPa) = 105.52946 80.68831 68.14448
#
# Poissons Ratio (x) = 0.54532 0.17877
# Poissons Ratio (y) = 0.71321 -0.00307
# Poissons Ratio (z) = 0.27685 -0.00364
#
# Static dielectric constant tensor:
#      x y z
#    x 1.812220 0.000000 -0.005420 
#    y 0.000000 1.734330 0.000000 
#    z -0.005420 0.000000 1.871390 
# 
# From -- ./inp_files/31551.got.cif
#   From: 2010.05.17/outbox.cif.g08.bks.cpg/sg10_16_cif.got.tgz:31551.got - 2010.06.03 11:33:40.
