data_PCOD9142356
_publ_section_title
;
Structure prediction by ZEFSAII (Michael W. Deem and Ramdas Pophale) SiO2 
 PCOD9142356
Probable space group: P 2/M
;
_chemical_formula_sum "Si O2"
_cell_formula_units_Z 32
_cell_length_a 16.017517
_cell_length_b 8.991470
_cell_length_c 14.678335
_cell_angle_alpha 90.000000
_cell_angle_beta 90.000000
_cell_angle_gamma 90.000000
_cell_volume 2113.988831
_symmetry_space_group_name_H-M "P 2/M"
_symmetry_group_IT_number 10
_symmetry_cell_setting 'monoclinic'
loop_
_space_group_symop_operation_xyz
x,y,z
-x,y,-z
-x,-y,-z
x,-y,z
loop_
_atom_site_type_symbol
_atom_site_label
_atom_site_fract_x
_atom_site_fract_y
_atom_site_fract_z
Si Si1 0.500000 0.828785 0.389371
Si Si2 0.902143 0.178856 0.103798
Si Si3 1.000000 0.681130 0.395334
Si Si4 0.672769 0.679048 0.393521
Si Si5 0.163532 0.320305 0.717941
Si Si6 0.672769 0.320952 0.606479
Si Si7 0.836468 0.679695 0.717941
Si Si8 0.097857 0.821144 0.103798
O O1 0.500000 0.823777 0.500000
O O2 0.585452 0.748519 0.361562
O O3 0.414548 0.748518 0.361562
O O4 0.500000 0.000000 0.360846
O O5 0.848113 0.254440 0.181841
O O6 1.000000 0.219077 0.117596
O O7 0.896544 0.000000 0.110654
O O8 0.879753 0.220686 1.000000
O O9 1.000000 0.500000 0.396762
O O10 0.916732 0.727297 0.341948
O O11 0.000000 0.731448 0.500000
O O12 0.083268 0.727297 0.341948
O O13 0.666310 0.500000 0.390488
O O14 0.751543 0.724937 0.332753
O O15 0.686719 0.719953 0.500000
O O16 0.162456 0.500000 0.722447
O O17 0.666310 0.500000 0.609512
O O18 0.751543 0.275062 0.667247
O O19 0.837544 0.500000 0.722447
O O20 0.848113 0.745560 0.818159
O O21 0.103456 0.000000 0.110654
#
# Coordination Sequence:
#
# PCOD9142356 Si02
#       8
#     4   4   4   4   4   4   4   4
#     4   9  17  29  45  65  88 117 154 193 227 258
#     4   9  18  32  47  62  85 119 154 189 231 272
#     4   9  16  26  40  61  92 124 151 179 212 255
#     4   9  17  29  45  66  93 123 152 183 223 270
#     4  10  18  28  45  69  91 117 153 189 223 260
#     4   9  17  29  45  66  93 123 152 183 223 270
#     4  10  18  28  45  69  91 117 153 189 223 260
#     4   9  18  32  47  62  85 119 154 189 231 272
#
# _framework density 15.137259999999999
#
# number of rings (size 3 to 8) (size 9 to 14) (size 15 to 20)
#    0.000    2.750    1.250    1.875    0.000    6.000 
#    0.000    1.250    0.000    3.000    0.000    0.875 
#    0.000    7.000    0.000    0.000    0.000    0.000 
#
# Total GULP energy -178314.837944 kJ/mol
# GULP energy per Si atom -5572.338686 kJ/mol
# Density = 1.510281 g / cm^3
# Si number density = 15.137260 Si / 1000 Ang^3
#
#
#
# Elastic Constant Matrix: (Units=GPa)
#
#
# Indices 1 2 3 4 5 6 
#
# 1 149.2114 37.7408 78.0865 0.0000 -0.0001 0.0000
# 2 37.7408 14.6531 29.1769 0.0000 -0.0001 0.0000
# 3 78.0865 29.1769 111.5955 0.0000 -0.0001 0.0000
# 4 0.0000 0.0000 0.0000 17.6730 0.0000 0.0000
# 5 -0.0001 -0.0001 -0.0001 0.0000 10.5999 0.0000
# 6 0.0000 0.0000 0.0000 0.0000 0.0000 15.5572
#
#
#
# Elastic Compliance Matrix: (Units=1/GPa)
#
#
# Indices 1 2 3 4 5 6 
#
# 1 0.019289 -0.047571 -0.001059 0.000000 0.000000 0.000000
# 2 -0.047571 0.259677 -0.034607 0.000000 0.000000 0.000000
# 3 -0.001059 -0.034607 0.018750 0.000000 0.000000 0.000000
# 4 0.000000 0.000000 0.000000 0.056583 0.000000 0.000000
# 5 0.000000 0.000000 0.000000 0.000000 0.094341 0.000000
# 6 0.000000 0.000000 0.000000 0.000000 0.000000 0.064279
#
#
# Mechanical properties :
#
#
# Convention : Reuss Voigt Hill
#
# Bulk Modulus (GPa) = 7.61950 62.82983 35.22467
# Shear Modulus (GPa) = 6.91431 17.46309 12.18870
#
# Velocity S-wave (km/s) = 2.13955 3.40023 2.84070
# Velocity P-wave (km/s) = 3.33887 7.55064 5.83782
#
# Compressibility (1/GPa) = 0.13124215
#
# Stress axis : x y z
#
# Youngs Moduli (GPa) = 51.84434 3.85094 53.33303
#
# Poissons Ratio (x) = 0.18319 0.05649
# Poissons Ratio (y) = 2.46627 1.84568
# Poissons Ratio (z) = 0.05491 0.13327
#
# Static dielectric constant tensor:
#      x y z
#    x 1.490840 0.000000 0.000000 
#    y 0.000000 1.507610 0.000000 
#    z 0.000000 0.000000 1.488180 
# 
# From -- ./inp_files/29108.got.cif
#   From: 2010.05.17/outbox.cif.g08.bks.cpg/sg10_15_cif.got.tgz:29108.got - 2010.06.03 11:33:40.
