data_PCOD9142341
_publ_section_title
;
Structure prediction by ZEFSAII (Michael W. Deem and Ramdas Pophale) SiO2 
 PCOD9142341
Probable space group: P 2/M
;
_chemical_formula_sum "Si O2"
_cell_formula_units_Z 32
_cell_length_a 19.004857
_cell_length_b 7.627724
_cell_length_c 27.473618
_cell_angle_alpha 90.000000
_cell_angle_beta 156.320456
_cell_angle_gamma 90.000000
_cell_volume 1599.527344
_symmetry_space_group_name_H-M "P 2/M"
_symmetry_group_IT_number 10
_symmetry_cell_setting 'monoclinic'
loop_
_space_group_symop_operation_xyz
x,y,z
-x,y,-z
-x,-y,-z
x,-y,z
loop_
_atom_site_type_symbol
_atom_site_label
_atom_site_fract_x
_atom_site_fract_y
_atom_site_fract_z
Si Si1 0.945505 0.210365 0.166194
Si Si2 0.397058 0.709753 0.675944
Si Si3 0.598143 0.290523 0.898740
Si Si4 0.880501 0.789549 0.233862
Si Si5 0.338998 0.289888 0.818172
Si Si6 0.277040 0.210455 0.500089
Si Si7 0.015893 0.705097 0.452515
Si Si8 0.665650 0.214429 0.574014
O O1 0.879970 0.274563 0.177819
O O2 0.144926 0.270199 0.285254
O O3 0.951854 0.000000 0.173356
O O4 0.802315 0.256259 0.035623
O O5 0.389246 0.500000 0.678041
O O6 0.519998 0.775745 0.797668
O O7 0.414038 0.737580 0.628915
O O8 0.202447 0.786954 0.559631
O O9 0.574605 0.500000 0.883489
O O10 0.494328 0.222887 0.881418
O O11 0.706980 0.742031 0.154383
O O12 0.071770 0.729303 0.376295
O O13 0.886553 0.000000 0.237144
O O14 0.345701 0.500000 0.817692
O O15 0.159089 0.217412 0.680616
O O16 0.335306 0.268251 0.483216
O O17 0.269916 0.000000 0.495114
O O18 0.019598 0.500000 0.439746
O O19 0.000000 0.706245 0.500000
O O20 0.500000 0.275276 0.500000
O O21 0.662620 0.000000 0.572527
#
# Coordination Sequence:
#
# PCOD9142341 Si02
#       8
#     4   4   4   4   4   4   4   4
#     4   9  19  35  52  70  95 126 157 192 240 294
#     4  10  18  29  47  68  94 130 165 197 238 281
#     4  10  21  33  46  67  96 132 171 204 231 270
#     4   9  18  31  45  65  95 126 156 199 252 290
#     4  10  18  28  45  66  88 124 173 212 237 267
#     4   9  17  29  48  76 102 119 147 197 247 286
#     4   9  14  24  42  62  85 118 164 210 238 261
#     4   8  15  32  59  83  98 117 149 191 239 289
#
# _framework density 20.005911000000001
#
# number of rings (size 3 to 8) (size 9 to 14) (size 15 to 20)
#    0.000    2.750    2.500    1.500    0.000    2.000 
#    0.000    4.375    0.000    4.500    0.000    5.250 
#    0.000    0.000    0.000    0.000    0.000    0.000 
#
# Total GULP energy -178195.305793 kJ/mol
# GULP energy per Si atom -5568.603306 kJ/mol
# Density = 1.996038 g / cm^3
# Si number density = 20.005911 Si / 1000 Ang^3
#
#
#
# Elastic Constant Matrix: (Units=GPa)
#
#
# Indices 1 2 3 4 5 6 
#
# 1 97.6359 4.9470 67.9496 0.0000 12.8770 0.0000
# 2 4.9470 41.0543 -0.1012 0.0000 1.6974 0.0000
# 3 67.9496 -0.1012 122.6610 0.0000 -0.1727 0.0000
# 4 0.0000 0.0000 0.0000 14.2357 0.0000 -0.3007
# 5 12.8770 1.6974 -0.1727 0.0000 18.6882 0.0000
# 6 0.0000 0.0000 0.0000 -0.3007 0.0000 -0.0856
#
#
#
# Elastic Compliance Matrix: (Units=1/GPa)
#
#
# Indices 1 2 3 4 5 6 
#
# 1 0.019751 -0.001847 -0.010962 0.000000 -0.013543 0.000000
# 2 -0.001847 0.024623 0.001042 0.000000 -0.000954 0.000000
# 3 -0.010962 0.001042 0.014236 0.000000 0.007590 0.000000
# 4 0.000000 0.000000 0.000000 0.065392 0.000000 -0.229757
# 5 -0.013543 -0.000954 0.007590 0.000000 0.062998 0.000000
# 6 0.000000 0.000000 0.000000 -0.229757 0.000000-10.876429
#
#
# Mechanical properties :
#
#
# Convention : Reuss Voigt Hill
#
# Bulk Modulus (GPa) = 28.50912 45.21578 36.86245
# Shear Modulus (GPa) = -0.46930 19.13806 9.33438
#
# Velocity S-wave (km/s) = -0.48486 3.09628 2.16239
# Velocity P-wave (km/s) = 3.73736 5.95255 4.96995
#
# Compressibility (1/GPa) = 0.03507649
#
# Stress axis : x y z
#
# Youngs Moduli (GPa) = 50.63137 40.61320 70.24216
#
# Poissons Ratio (x) = 0.07501 0.76997
# Poissons Ratio (y) = 0.09352 -0.07320
# Poissons Ratio (z) = 0.55501 -0.04232
#
# Static dielectric constant tensor:
#      x y z
#    x 1.766480 0.000000 -0.034750 
#    y 0.000000 1.755160 0.000000 
#    z -0.034750 0.000000 1.730660 
# 
# From -- ./inp_files/95674.got.cif
#   From: 2010.05.17/outbox.cif.g08.bks.cpg/sg10_48_cif.got.tgz:95674.got - 2010.06.03 11:33:40.
