data_PCOD9142751
_publ_section_title
;
Structure prediction by ZEFSAII (Michael W. Deem and Ramdas Pophale) SiO2 
 PCOD9142751
Probable space group: P 2/M
;
_chemical_formula_sum "Si O2"
_cell_formula_units_Z 24
_cell_length_a 8.490806
_cell_length_b 16.989953
_cell_length_c 16.134144
_cell_angle_alpha 90.000000
_cell_angle_beta 25.595658
_cell_angle_gamma 90.000000
_cell_volume 1005.514339
_symmetry_space_group_name_H-M "P 2/M"
_symmetry_group_IT_number 10
_symmetry_cell_setting 'monoclinic'
loop_
_space_group_symop_operation_xyz
x,y,z
-x,y,-z
-x,-y,-z
x,-y,z
loop_
_atom_site_type_symbol
_atom_site_label
_atom_site_fract_x
_atom_site_fract_y
_atom_site_fract_z
Si Si1 0.680197 0.084557 0.721301
Si Si2 0.932684 0.747005 0.276885
Si Si3 0.763589 0.586632 0.296403
Si Si4 0.291873 0.253025 0.286750
Si Si5 0.566815 0.583914 0.211053
Si Si6 0.937020 0.084185 0.279521
O O1 0.494609 0.170263 0.802607
O O2 0.000000 0.084445 0.500000
O O3 0.874487 0.084556 0.719500
O O4 0.485532 0.000000 0.803912
O O5 0.500000 0.749060 0.500000
O O6 0.998583 0.666267 0.195667
O O7 0.031569 0.832571 0.191823
O O8 0.118422 0.745816 0.278085
O O9 0.500000 0.583767 0.500000
O O10 0.949575 0.500000 0.202104
O O11 0.507320 0.594418 0.337466
O O12 0.472010 0.337222 0.210518
O O13 0.000000 0.251888 0.500000
O O14 0.405025 0.500000 0.260052
O O15 0.000000 0.577604 0.000000
O O16 0.500000 0.083605 0.500000
O O17 0.036881 0.000000 0.191795
#
# Coordination Sequence:
#
# PCOD9142751 Si02
#       6
#     4   4   4   4   4   4
#     4   8  14  24  39  65 100 131 162 205 253 296
#     4   9  16  26  43  70 100 125 156 203 250 290
#     4   9  17  31  51  72  96 127 161 202 251 298
#     4  10  18  29  51  78 101 134 177 215 253 303
#     4  10  22  39  55  73 102 138 173 213 262 312
#     4   8  13  21  34  56  90 127 155 185 234 290
#
# _framework density 23.868383000000001
#
# number of rings (size 3 to 8) (size 9 to 14) (size 15 to 20)
#    0.000    3.000    0.000    2.000    0.000    2.333 
#    0.000    0.833    0.000    3.500    0.000    0.000 
#    0.000    5.333    0.000    0.000    0.000    0.000 
#
# Total GULP energy -133753.752685 kJ/mol
# GULP energy per Si atom -5573.073029 kJ/mol
# Density = 2.381406 g / cm^3
# Si number density = 23.868383 Si / 1000 Ang^3
#
#
#
# Elastic Constant Matrix: (Units=GPa)
#
#
# Indices 1 2 3 4 5 6 
#
# 1 40.1672 56.2527 13.7862 0.0000 7.9483 0.0000
# 2 56.2527 364.8640 14.4060 0.0000 -13.6769 0.0000
# 3 13.7862 14.4060 42.8060 0.0000 12.3042 0.0000
# 4 0.0000 0.0000 0.0000 136.4362 0.0000 -43.9597
# 5 7.9483 -13.6769 12.3042 0.0000 24.3955 0.0000
# 6 0.0000 0.0000 0.0000 -43.9597 0.0000 35.8554
#
#
#
# Elastic Compliance Matrix: (Units=1/GPa)
#
#
# Indices 1 2 3 4 5 6 
#
# 1 0.038187 -0.006093 -0.006655 0.000000 -0.012502 0.000000
# 2 -0.006093 0.003873 -0.000626 0.000000 0.004472 0.000000
# 3 -0.006655 -0.000626 0.029465 0.000000 -0.013044 0.000000
# 4 0.000000 0.000000 0.000000 0.012115 0.000000 0.014854
# 5 -0.012502 0.004472 -0.013044 0.000000 0.054151 0.000000
# 6 0.000000 0.000000 0.000000 0.014854 0.000000 0.046101
#
#
# Mechanical properties :
#
#
# Convention : Reuss Voigt Hill
#
# Bulk Modulus (GPa) = 22.33344 68.52522 45.42933
# Shear Modulus (GPa) = 22.16655 63.56355 42.86505
#
# Velocity S-wave (km/s) = 3.05076 5.16611 4.24239
# Velocity P-wave (km/s) = 4.66763 8.02227 6.56291
#
# Compressibility (1/GPa) = 0.04477591
#
# Stress axis : x y z
#
# Youngs Moduli (GPa) = 26.18667 258.22658 33.93906
#
# Poissons Ratio (x) = 1.57348 0.22585
# Poissons Ratio (y) = 0.15957 0.02126
# Poissons Ratio (z) = 0.17426 0.16174
#
# Static dielectric constant tensor:
#      x y z
#    x 1.685380 0.000000 0.016130 
#    y 0.000000 2.099180 0.000000 
#    z 0.016130 0.000000 1.939840 
# 
# From -- ./inp_files/82972.got.cif
#   From: 2010.05.17/outbox.cif.g08.bks.cpg/sg10_42_cif.got.tgz:82972.got - 2010.06.03 11:33:40.
