data_PCOD9142960
_publ_section_title
;
Structure prediction by ZEFSAII (Michael W. Deem and Ramdas Pophale) SiO2 
 PCOD9142960
Probable space group: P 2/M
;
_chemical_formula_sum "Si O2"
_cell_formula_units_Z 32
_cell_length_a 11.936747
_cell_length_b 9.363082
_cell_length_c 21.778757
_cell_angle_alpha 90.000000
_cell_angle_beta 129.467911
_cell_angle_gamma 90.000000
_cell_volume 1879.076019
_symmetry_space_group_name_H-M "P 2/M"
_symmetry_group_IT_number 10
_symmetry_cell_setting 'monoclinic'
loop_
_space_group_symop_operation_xyz
x,y,z
-x,y,-z
-x,-y,-z
x,-y,z
loop_
_atom_site_type_symbol
_atom_site_label
_atom_site_fract_x
_atom_site_fract_y
_atom_site_fract_z
Si Si1 0.338522 0.830693 0.202931
Si Si2 0.034412 0.170326 0.581462
Si Si3 0.272904 0.664733 0.830730
Si Si4 0.175291 0.831350 0.912566
Si Si5 0.847608 0.832682 0.746089
Si Si6 0.354372 0.832749 0.743559
Si Si7 0.940220 0.336037 0.664001
Si Si8 0.832212 0.667819 0.962315
O O1 0.273200 0.791648 0.246222
O O2 0.509678 0.811192 0.253551
O O3 0.261086 0.739254 0.123700
O O4 0.305577 0.000000 0.182434
O O5 0.203009 0.197276 0.656702
O O6 0.000000 0.213693 0.500000
O O7 0.942385 0.252064 0.600805
O O8 0.009617 0.000000 0.578268
O O9 0.313472 0.500000 0.855352
O O10 0.268410 0.755897 0.891505
O O11 0.364247 0.738083 0.808341
O O12 0.106738 0.667169 0.747289
O O13 0.005756 0.816743 0.833402
O O14 0.207214 0.000000 0.928168
O O15 0.192966 0.751831 0.983177
O O16 0.848444 0.740709 0.684853
O O17 0.831901 0.000000 0.725272
O O18 0.351524 0.000000 0.761081
O O19 0.898505 0.500000 0.641376
O O20 0.799743 0.500000 0.958542
O O21 0.000000 0.681020 0.000000
#
# Coordination Sequence:
#
# PCOD9142960 Si02
#       8
#     4   4   4   4   4   4   4   4
#     4  10  20  34  51  71  97 131 168 205 245 293
#     4   9  17  31  53  79 104 129 158 196 242 289
#     4   9  17  30  48  70  98 128 161 203 251 295
#     4  10  18  30  50  71  94 125 166 211 251 290
#     4   9  17  29  47  70  95 126 163 203 244 285
#     4   9  18  33  52  74 100 129 164 201 241 293
#     4   9  17  28  46  73 101 127 159 200 240 284
#     4  11  22  33  47  70 100 130 164 207 251 294
#
# _framework density 17.029647000000001
#
# number of rings (size 3 to 8) (size 9 to 14) (size 15 to 20)
#    0.000    2.500    1.250    1.500    0.000    5.250 
#    0.000    0.625    0.000    4.500    0.000    5.250 
#    0.000    0.000    0.000    0.000    0.000    0.000 
#
# Total GULP energy -178473.396794 kJ/mol
# GULP energy per Si atom -5577.293650 kJ/mol
# Density = 1.699089 g / cm^3
# Si number density = 17.029647 Si / 1000 Ang^3
#
#
#
# Elastic Constant Matrix: (Units=GPa)
#
#
# Indices 1 2 3 4 5 6 
#
# 1 125.9537 78.2417 52.6138 0.0000 -35.5485 0.0000
# 2 78.2417 101.5369 60.2020 0.0000 -30.9876 0.0000
# 3 52.6138 60.2020 64.2321 0.0000 -34.9645 0.0000
# 4 0.0000 0.0000 0.0000 12.3611 0.0000 -0.3982
# 5 -35.5485 -30.9876 -34.9645 0.0000 32.1863 0.0000
# 6 0.0000 0.0000 0.0000 -0.3982 0.0000 8.8078
#
#
#
# Elastic Compliance Matrix: (Units=1/GPa)
#
#
# Indices 1 2 3 4 5 6 
#
# 1 0.016849 -0.011215 0.002354 0.000000 0.010370 0.000000
# 2 -0.011215 0.029751 -0.024100 0.000000 -0.009923 0.000000
# 3 0.002354 -0.024100 0.061207 0.000000 0.045888 0.000000
# 4 0.000000 0.000000 0.000000 0.081017 0.000000 0.003663
# 5 0.010370 -0.009923 0.045888 0.000000 0.082818 0.000000
# 6 0.000000 0.000000 0.000000 0.003663 0.000000 0.113701
#
#
# Mechanical properties :
#
#
# Convention : Reuss Voigt Hill
#
# Bulk Modulus (GPa) = 23.87399 74.87085 49.37242
# Shear Modulus (GPa) = 10.74749 17.38206 14.06477
#
# Velocity S-wave (km/s) = 2.51491 3.19830 2.87696
# Velocity P-wave (km/s) = 4.74157 7.59600 6.33174
#
# Compressibility (1/GPa) = 0.04188659
#
# Stress axis : x y z
#
# Youngs Moduli (GPa) = 59.34986 33.61244 16.33806
#
# Poissons Ratio (x) = 0.37696 -0.03847
# Poissons Ratio (y) = 0.66560 0.39374
# Poissons Ratio (z) = -0.13973 0.81005
#
# Static dielectric constant tensor:
#      x y z
#    x 1.576880 0.000000 0.010870 
#    y 0.000000 1.570940 0.000000 
#    z 0.010870 0.000000 1.547840 
# 
# From -- ./inp_files/52680.got.cif
#   From: 2010.05.17/outbox.cif.g08.bks.cpg/sg10_27_cif.got.tgz:52680.got - 2010.06.03 11:33:40.
