data_PCOD9142139
_publ_section_title
;
Structure prediction by ZEFSAII (Michael W. Deem and Ramdas Pophale) SiO2 
 PCOD9142139
Probable space group: P 2/M
;
_chemical_formula_sum "Si O2"
_cell_formula_units_Z 26
_cell_length_a 21.682688
_cell_length_b 8.004470
_cell_length_c 14.680411
_cell_angle_alpha 90.000000
_cell_angle_beta 27.877330
_cell_angle_gamma 90.000000
_cell_volume 1191.351558
_symmetry_space_group_name_H-M "P 2/M"
_symmetry_group_IT_number 10
_symmetry_cell_setting 'monoclinic'
loop_
_space_group_symop_operation_xyz
x,y,z
-x,y,-z
-x,-y,-z
x,-y,z
loop_
_atom_site_type_symbol
_atom_site_label
_atom_site_fract_x
_atom_site_fract_y
_atom_site_fract_z
Si Si1 0.989365 0.690078 0.152590
Si Si2 0.104438 0.500000 0.558570
Si Si3 0.711365 0.696643 0.243395
Si Si4 0.160314 0.500000 0.182124
Si Si5 0.657057 0.500000 0.877766
Si Si6 0.501843 0.193784 0.156209
Si Si7 0.690392 0.815624 0.085868
Si Si8 0.722290 0.805310 0.426696
O O1 0.004165 0.500000 0.097345
O O2 0.931540 0.657008 0.329314
O O3 0.877128 0.777890 0.241029
O O4 0.136168 0.761226 0.961912
O O5 0.251882 0.500000 0.329802
O O6 0.997142 0.500000 0.617598
O O7 0.706705 0.500000 0.229582
O O8 0.674980 0.719929 0.395833
O O9 0.637347 0.786988 0.257371
O O10 0.237657 0.500000 0.176093
O O11 0.210301 0.664648 0.064076
O O12 0.570150 0.332638 0.004166
O O13 0.357827 0.249581 0.379022
O O14 0.501143 0.000000 0.123425
O O15 0.583754 0.193113 0.144538
O O16 0.751288 0.000000 0.001284
O O17 0.694756 0.000000 0.452175
#
# Coordination Sequence:
#
# PCOD9142139 Si02
#       8
#     4   2   4   2   2   4   4   4
#     4   9  20  37  55  78 117 143 183 235 282 321
#     4  10  19  39  59  89 112 143 187 235 287 342
#     4  11  20  35  56  83 118 147 191 235 277 336
#     4  10  17  38  54  91 117 144 181 231 284 342
#     4  10  21  35  70  83 108 156 185 223 297 346
#     4   9  22  40  56  84 118 145 192 241 274 328
#     4  10  18  34  58  82 117 154 182 228 285 332
#     4  11  23  37  54  80 113 155 196 232 274 332
#
# _framework density 21.823952999999999
#
# number of rings (size 3 to 8) (size 9 to 14) (size 15 to 20)
#    0.462    1.538    2.308    1.615    2.154    3.692 
#    0.000    6.154    0.000    5.538    0.000    0.000 
#    0.000    0.000    0.000    0.000    0.000    0.000 
#
# Total GULP energy -145075.840286 kJ/mol
# GULP energy per Si atom -5579.840011 kJ/mol
# Density = 2.177428 g / cm^3
# Si number density = 21.823953 Si / 1000 Ang^3
#
#
#
# Elastic Constant Matrix: (Units=GPa)
#
#
# Indices 1 2 3 4 5 6 
#
# 1 77.5608 12.8661 6.2580 0.0000 1.8730 0.0000
# 2 12.8661 87.9322 26.8669 0.0000 2.7568 0.0000
# 3 6.2580 26.8669 80.8593 0.0000 7.3667 0.0000
# 4 0.0000 0.0000 0.0000 -81.6088 0.0000 -97.3165
# 5 1.8730 2.7568 7.3667 0.0000 28.2931 0.0000
# 6 0.0000 0.0000 0.0000 -97.3165 0.0000 -88.2771
#
#
#
# Elastic Compliance Matrix: (Units=1/GPa)
#
#
# Indices 1 2 3 4 5 6 
#
# 1 0.013237 -0.001805 -0.000370 0.000000 -0.000604 0.000000
# 2 -0.001805 0.012904 -0.004142 0.000000 -0.000059 0.000000
# 3 -0.000370 -0.004142 0.014067 0.000000 -0.003234 0.000000
# 4 0.000000 0.000000 0.000000 0.038952 0.000000 -0.042940
# 5 -0.000604 -0.000059 -0.003234 0.000000 0.036232 0.000000
# 6 0.000000 0.000000 0.000000 -0.042940 0.000000 0.036009
#
#
# Mechanical properties :
#
#
# Convention : Reuss Voigt Hill
#
# Bulk Modulus (GPa) = 36.26655 37.59271 36.92963
# Shear Modulus (GPa) = 28.86390 -14.96114 6.95138
#
# Velocity S-wave (km/s) = 3.64067 -2.62112 1.78665
# Velocity P-wave (km/s) = 5.85888 2.84649 4.60592
#
# Compressibility (1/GPa) = 0.02757362
#
# Stress axis : x y z
#
# Youngs Moduli (GPa) = 75.54622 77.49506 71.08900
#
# Poissons Ratio (x) = 0.13987 0.02628
# Poissons Ratio (y) = 0.13635 0.29449
# Poissons Ratio (z) = 0.02793 0.32102
#
# Static dielectric constant tensor:
#      x y z
#    x 1.822320 0.000000 0.011540 
#    y 0.000000 1.761370 0.000000 
#    z 0.011540 0.000000 1.843300 
# 
# From -- ./inp_files/69934.got.cif
#   From: 2010.05.17/outbox.cif.g08.bks.cpg/sg10_35_cif.got.tgz:69934.got - 2010.06.03 11:33:40.
