data_PCOD9142597
_publ_section_title
;
Structure prediction by ZEFSAII (Michael W. Deem and Ramdas Pophale) SiO2 
 PCOD9142597
Probable space group: P 2/M
;
_chemical_formula_sum "Si O2"
_cell_formula_units_Z 28
_cell_length_a 20.450175
_cell_length_b 7.456120
_cell_length_c 27.646613
_cell_angle_alpha 90.000000
_cell_angle_beta 19.305995
_cell_angle_gamma 90.000000
_cell_volume 1393.708554
_symmetry_space_group_name_H-M "P 2/M"
_symmetry_group_IT_number 10
_symmetry_cell_setting 'monoclinic'
loop_
_space_group_symop_operation_xyz
x,y,z
-x,y,-z
-x,-y,-z
x,-y,z
loop_
_atom_site_type_symbol
_atom_site_label
_atom_site_fract_x
_atom_site_fract_y
_atom_site_fract_z
Si Si1 0.406696 0.787260 0.421925
Si Si2 0.092211 0.212740 0.079168
Si Si3 0.178927 0.780208 0.910537
Si Si4 0.322127 0.219379 0.588936
Si Si5 0.651380 0.707095 0.848619
Si Si6 0.977285 0.283901 0.689940
Si Si7 0.308383 0.716099 0.024392
O O1 0.608824 0.718276 0.257582
O O2 0.362788 0.716207 0.506306
O O3 0.207090 0.760806 0.530830
O O4 0.435736 0.000000 0.407021
O O5 0.886412 0.283793 0.244495
O O6 0.064700 0.000000 0.092541
O O7 0.143197 0.281725 0.990397
O O8 0.255407 0.239192 0.006672
O O9 0.180945 0.000000 0.909528
O O10 0.000000 0.727461 0.000000
O O11 0.500000 0.269649 0.500000
O O12 0.315398 0.000000 0.592300
O O13 0.694136 0.500000 0.805863
O O14 0.518452 0.784601 0.898288
O O15 0.851491 0.784601 0.731768
O O16 0.500000 0.705749 0.000000
O O17 0.960201 0.500000 0.701534
O O18 0.865335 0.221533 0.817332
O O19 0.313258 0.500000 0.025006
#
# Coordination Sequence:
#
# PCOD9142597 Si02
#       7
#     4   4   4   4   4   4   4
#     4  10  18  29  47  70  94 118 152 195 233 270
#     4  10  18  29  47  70  94 118 152 195 233 270
#     4   9  18  32  49  68  91 124 162 193 225 273
#     4   9  16  26  43  66  89 114 146 187 229 267
#     4   7  12  24  43  66  91 122 154 182 217 272
#     4   9  16  28  47  70  96 123 152 186 229 277
#     4   9  16  28  47  70  96 123 152 186 229 277
#
# _framework density 20.090282999999999
#
# number of rings (size 3 to 8) (size 9 to 14) (size 15 to 20)
#    0.000    3.000    1.429    2.571    0.000    3.429 
#    0.000    1.429    0.000    8.571    0.000    6.000 
#    0.000    0.000    0.000    0.000    0.000    0.000 
#
# Total GULP energy -156131.236082 kJ/mol
# GULP energy per Si atom -5576.115574 kJ/mol
# Density = 2.004456 g / cm^3
# Si number density = 20.090283 Si / 1000 Ang^3
#
#
#
# Elastic Constant Matrix: (Units=GPa)
#
#
# Indices 1 2 3 4 5 6 
#
# 1 192.8818 -0.6856 118.0046 0.0000 -16.4576 0.0000
# 2 -0.6856 59.0242 7.3333 0.0000 7.0741 0.0000
# 3 118.0046 7.3333 160.8319 0.0000 -11.8139 0.0000
# 4 0.0000 0.0000 0.0000 4.8568 0.0000 -7.8366
# 5 -16.4576 7.0741 -11.8139 0.0000 32.2070 0.0000
# 6 0.0000 0.0000 0.0000 -7.8366 0.0000 13.7396
#
#
#
# Elastic Compliance Matrix: (Units=1/GPa)
#
#
# Indices 1 2 3 4 5 6 
#
# 1 0.009610 0.000706 -0.006920 0.000000 0.002217 0.000000
# 2 0.000706 0.017645 -0.001624 0.000000 -0.004111 0.000000
# 3 -0.006920 -0.001624 0.011444 0.000000 0.001018 0.000000
# 4 0.000000 0.000000 0.000000 2.583271 0.000000 1.473408
# 5 0.002217 -0.004111 0.001018 0.000000 0.033459 0.000000
# 6 0.000000 0.000000 0.000000 1.473408 0.000000 0.913163
#
#
# Mechanical properties :
#
#
# Convention : Reuss Voigt Hill
#
# Bulk Modulus (GPa) = 43.43828 73.56030 58.49929
# Shear Modulus (GPa) = 1.39200 29.36639 15.37920
#
# Velocity S-wave (km/s) = 0.83329 3.82739 2.76978
# Velocity P-wave (km/s) = 4.75335 7.49842 6.27776
#
# Compressibility (1/GPa) = 0.02302117
#
# Stress axis : x y z
#
# Youngs Moduli (GPa) = 104.05752 56.67365 87.38136
#
# Poissons Ratio (x) = -0.03999 0.60471
# Poissons Ratio (y) = -0.07343 0.14193
# Poissons Ratio (z) = 0.72011 0.09205
#
# Static dielectric constant tensor:
#      x y z
#    x 1.718940 0.000000 -0.024760 
#    y 0.000000 1.779370 0.000000 
#    z -0.024760 0.000000 1.690870 
# 
# From -- ./inp_files/85659.got.cif
#   From: 2010.05.17/outbox.cif.g08.bks.cpg/sg10_43_cif.got.tgz:85659.got - 2010.06.03 11:33:40.
