data_PCOD9142660
_publ_section_title
;
Structure prediction by ZEFSAII (Michael W. Deem and Ramdas Pophale) SiO2 
 PCOD9142660
Probable space group: P 2/M
;
_chemical_formula_sum "Si O2"
_cell_formula_units_Z 30
_cell_length_a 22.547096
_cell_length_b 9.687686
_cell_length_c 10.586215
_cell_angle_alpha 90.000000
_cell_angle_beta 45.605043
_cell_angle_gamma 90.000000
_cell_volume 1652.244954
_symmetry_space_group_name_H-M "P 2/M"
_symmetry_group_IT_number 10
_symmetry_cell_setting 'monoclinic'
loop_
_space_group_symop_operation_xyz
x,y,z
-x,y,-z
-x,-y,-z
x,-y,z
loop_
_atom_site_type_symbol
_atom_site_label
_atom_site_fract_x
_atom_site_fract_y
_atom_site_fract_z
Si Si1 0.950052 0.653980 0.346358
Si Si2 0.636423 0.337075 0.098924
Si Si3 0.803369 0.661477 0.724049
Si Si4 0.679251 0.663265 0.331922
Si Si5 0.088976 0.842778 0.247687
Si Si6 0.520624 0.158730 0.619129
Si Si7 0.000000 0.255439 0.000000
Si Si8 0.168928 0.848871 0.852488
O O1 0.970712 0.500000 0.363487
O O2 0.851944 0.675183 0.518650
O O3 0.002896 0.767579 0.342507
O O4 0.978391 0.662464 0.159372
O O5 0.614341 0.500000 0.121786
O O6 0.672914 0.318495 0.187767
O O7 0.556699 0.239863 0.205149
O O8 0.707659 0.302491 0.890711
O O9 0.808661 0.500000 0.752694
O O10 0.857829 0.752485 0.736565
O O11 0.672701 0.500000 0.365881
O O12 0.603432 0.749674 0.503994
O O13 0.764213 0.727925 0.257866
O O14 0.078558 0.000000 0.305708
O O15 0.139226 0.846706 0.041644
O O16 0.500000 0.153872 0.500000
O O17 0.529832 0.000000 0.648375
O O18 0.916070 0.170944 0.097915
O O19 0.205740 0.000000 0.770019
#
# Coordination Sequence:
#
# PCOD9142660 Si02
#       8
#     4   4   4   4   4   4   2   4
#     4  10  21  35  52  70  94 129 170 213 254 299
#     4   9  17  29  45  69 102 134 164 200 243 296
#     4  10  19  32  49  72 100 132 166 203 251 302
#     4  10  18  29  48  73 100 133 170 204 244 295
#     4  10  20  32  48  71 100 130 164 206 252 302
#     4   9  17  28  44  68 101 137 167 198 239 291
#     4  10  22  38  54  74  96 130 174 220 258 294
#     4  10  20  34  52  72  99 134 170 211 256 299
#
# _framework density 18.157115000000001
#
# number of rings (size 3 to 8) (size 9 to 14) (size 15 to 20)
#    0.000    2.267    1.333    2.000    0.000    8.000 
#    0.000    0.000    0.000    0.000    0.000    0.933 
#    0.000    6.400    0.000    0.000    0.000    0.000 
#
# Total GULP energy -167165.730506 kJ/mol
# GULP energy per Si atom -5572.191017 kJ/mol
# Density = 1.811579 g / cm^3
# Si number density = 18.157115 Si / 1000 Ang^3
#
#
#
# Elastic Constant Matrix: (Units=GPa)
#
#
# Indices 1 2 3 4 5 6 
#
# 1 38.3772 27.5803 20.8837 0.0000 -18.3825 0.0000
# 2 27.5803 106.0860 62.0024 0.0000 -28.5386 0.0000
# 3 20.8837 62.0024 119.0487 0.0000 -31.0657 0.0000
# 4 0.0000 0.0000 0.0000 9.9462 0.0000 -5.3444
# 5 -18.3825 -28.5386 -31.0657 0.0000 25.3778 0.0000
# 6 0.0000 0.0000 0.0000 -5.3444 0.0000 7.1735
#
#
#
# Elastic Compliance Matrix: (Units=1/GPa)
#
#
# Indices 1 2 3 4 5 6 
#
# 1 0.041365 -0.004744 0.002411 0.000000 0.027580 0.000000
# 2 -0.004744 0.015941 -0.005420 0.000000 0.007854 0.000000
# 3 0.002411 -0.005420 0.014202 0.000000 0.013036 0.000000
# 4 0.000000 0.000000 0.000000 0.167658 0.000000 0.124908
# 5 0.027580 0.007854 0.013036 0.000000 0.084173 0.000000
# 6 0.000000 0.000000 0.000000 0.124908 0.000000 0.232460
#
#
# Mechanical properties :
#
#
# Convention : Reuss Voigt Hill
#
# Bulk Modulus (GPa) = 17.85670 53.82721 35.84195
# Shear Modulus (GPa) = 8.47500 18.70252 13.58876
#
# Velocity S-wave (km/s) = 2.16280 3.21290 2.73866
# Velocity P-wave (km/s) = 4.01159 6.59343 5.45739
#
# Compressibility (1/GPa) = 0.05600139
#
# Stress axis : x y z
#
# Youngs Moduli (GPa) = 24.17499 62.73324 70.41457
#
# Poissons Ratio (x) = 0.29762 -0.16980
# Poissons Ratio (y) = 0.11469 0.38166
# Poissons Ratio (z) = -0.05830 0.34003
#
# Static dielectric constant tensor:
#      x y z
#    x 1.599970 0.000000 -0.000320 
#    y 0.000000 1.629990 0.000000 
#    z -0.000320 0.000000 1.660280 
# 
# From -- ./inp_files/56617.got.cif
#   From: 2010.05.17/outbox.cif.g08.bks.cpg/sg10_29_cif.got.tgz:56617.got - 2010.06.03 11:33:40.
