data_PCOD9142063
_publ_section_title
;
Structure prediction by ZEFSAII (Michael W. Deem and Ramdas Pophale) SiO2 
 PCOD9142063
Probable space group: P 2/M
;
_chemical_formula_sum "Si O2"
_cell_formula_units_Z 32
_cell_length_a 21.117427
_cell_length_b 7.649436
_cell_length_c 26.131103
_cell_angle_alpha 90.000000
_cell_angle_beta 157.418497
_cell_angle_gamma 90.000000
_cell_volume 1620.900229
_symmetry_space_group_name_H-M "P 2/M"
_symmetry_group_IT_number 10
_symmetry_cell_setting 'monoclinic'
loop_
_space_group_symop_operation_xyz
x,y,z
-x,y,-z
-x,-y,-z
x,-y,z
loop_
_atom_site_type_symbol
_atom_site_label
_atom_site_fract_x
_atom_site_fract_y
_atom_site_fract_z
Si Si1 0.458855 0.214139 0.159403
Si Si2 0.263744 0.787499 0.189784
Si Si3 0.559783 0.201273 0.345358
Si Si4 0.237783 0.211087 0.817967
Si Si5 0.040137 0.787322 0.111781
Si Si6 0.445464 0.786767 0.878870
Si Si7 0.923821 0.211101 0.133779
Si Si8 0.916257 0.301219 0.638452
O O1 0.530923 0.276834 0.267168
O O2 0.553760 0.272334 0.179057
O O3 0.463538 0.000000 0.161917
O O4 0.267232 0.266320 0.011679
O O5 0.437952 0.723923 0.297829
O O6 0.194117 0.725108 0.192492
O O7 0.267355 0.000000 0.196909
O O8 0.124510 0.744891 0.043490
O O9 0.749332 0.199705 0.502431
O O10 0.504221 0.000000 0.298803
O O11 0.299811 0.269557 0.808340
O O12 0.061251 0.270498 0.705774
O O13 0.235611 0.000000 0.816682
O O14 0.381682 0.264520 0.965206
O O15 0.018866 0.726147 0.153939
O O16 0.046760 0.000000 0.118526
O O17 0.443378 0.000000 0.877503
O O18 0.007295 0.263414 0.249001
O O19 0.922128 0.000000 0.131500
O O20 0.863580 0.500000 0.596925
#
# Coordination Sequence:
#
# PCOD9142063 Si02
#       8
#     4   4   4   4   4   4   4   4
#     4   9  15  27  53  85 105 122 164 215 254 295
#     4   8  13  24  46  80 112 130 155 202 261 309
#     4  10  19  33  54  77 103 139 173 206 251 307
#     4   9  16  31  55  78 101 131 165 206 257 306
#     4   8  13  23  47  83 111 126 152 208 266 304
#     4   8  14  26  52  85 106 121 156 213 260 299
#     4  10  17  31  56  81 103 130 168 213 257 304
#     4  12  25  37  48  69 105 144 176 212 252 299
#
# _framework density 19.742117
#
# number of rings (size 3 to 8) (size 9 to 14) (size 15 to 20)
#    0.000    2.750    2.500    2.625    0.000    0.000 
#    0.000    3.125    0.000    8.250    0.000    1.750 
#    0.000    0.000    0.000    0.000    0.000    0.000 
#
# Total GULP energy -178403.348762 kJ/mol
# GULP energy per Si atom -5575.104649 kJ/mol
# Density = 1.969718 g / cm^3
# Si number density = 19.742117 Si / 1000 Ang^3
#
#
#
# Elastic Constant Matrix: (Units=GPa)
#
#
# Indices 1 2 3 4 5 6 
#
# 1 182.2016 3.3025 63.7799 0.0000 24.0562 0.0000
# 2 3.3025 34.6655 -8.6438 0.0000 -0.4359 0.0000
# 3 63.7799 -8.6438 79.8076 0.0000 12.7879 0.0000
# 4 0.0000 0.0000 0.0000 -84.9026 0.0000 22.7498
# 5 24.0562 -0.4359 12.7879 0.0000 26.5498 0.0000
# 6 0.0000 0.0000 0.0000 22.7498 0.0000 -58.3424
#
#
#
# Elastic Compliance Matrix: (Units=1/GPa)
#
#
# Indices 1 2 3 4 5 6 
#
# 1 0.008289 -0.002380 -0.006147 0.000000 -0.004589 0.000000
# 2 -0.002380 0.030364 0.005164 0.000000 0.000168 0.000000
# 3 -0.006147 0.005164 0.018526 0.000000 -0.003269 0.000000
# 4 0.000000 0.000000 0.000000 -0.013152 0.000000 -0.005129
# 5 -0.004589 0.000168 -0.003269 0.000000 0.043400 0.000000
# 6 0.000000 0.000000 0.000000 -0.005129 0.000000 -0.019140
#
#
# Mechanical properties :
#
#
# Convention : Reuss Voigt Hill
#
# Bulk Modulus (GPa) = 19.82082 45.95020 32.88551
# Shear Modulus (GPa) = 54.44841 -7.45663 23.49589
#
# Velocity S-wave (km/s) = 5.25735 -1.94556 3.45358
# Velocity P-wave (km/s) = 6.84942 4.27537 5.70935
#
# Compressibility (1/GPa) = 0.05045200
#
# Stress axis : x y z
#
# Youngs Moduli (GPa) = 120.63864 32.93415 53.97922
#
# Poissons Ratio (x) = 0.07839 0.33181
# Poissons Ratio (y) = 0.28714 -0.27874
# Poissons Ratio (z) = 0.74156 -0.17007
#
# Static dielectric constant tensor:
#      x y z
#    x 1.728430 0.000000 0.015830 
#    y 0.000000 1.729240 0.000000 
#    z 0.015830 0.000000 1.651600 
# 
# From -- ./inp_files/93754.got.cif
#   From: 2010.05.17/outbox.cif.g08.bks.cpg/sg10_47_cif.got.tgz:93754.got - 2010.06.03 11:33:40.
