data_PCOD9142785
_publ_section_title
;
Structure prediction by ZEFSAII (Michael W. Deem and Ramdas Pophale) SiO2 
 PCOD9142785
Probable space group: P 2/M
;
_chemical_formula_sum "Si O2"
_cell_formula_units_Z 28
_cell_length_a 13.915773
_cell_length_b 8.228225
_cell_length_c 15.000851
_cell_angle_alpha 90.000000
_cell_angle_beta 76.633351
_cell_angle_gamma 90.000000
_cell_volume 1671.099586
_symmetry_space_group_name_H-M "P 2/M"
_symmetry_group_IT_number 10
_symmetry_cell_setting 'monoclinic'
loop_
_space_group_symop_operation_xyz
x,y,z
-x,y,-z
-x,-y,-z
x,-y,z
loop_
_atom_site_type_symbol
_atom_site_label
_atom_site_fract_x
_atom_site_fract_y
_atom_site_fract_z
Si Si1 0.733733 0.802716 0.211092
Si Si2 0.638776 0.188883 0.408217
Si Si3 0.635805 0.188288 0.773954
Si Si4 0.433385 0.689021 0.887767
Si Si5 0.282328 0.197277 0.064518
Si Si6 0.888513 0.197674 0.033941
Si Si7 0.431770 0.684889 0.395771
O O1 0.717734 0.757373 0.317253
O O2 0.646425 0.723002 0.172515
O O3 0.834450 0.758847 0.138361
O O4 0.722388 0.000000 0.207765
O O5 0.632100 0.284728 0.501908
O O6 0.530313 0.206918 0.385814
O O7 0.654848 0.000000 0.425646
O O8 0.529002 0.206561 0.843987
O O9 0.711159 0.248314 0.833894
O O10 0.625951 0.278159 0.682312
O O11 0.655978 0.000000 0.750953
O O12 0.461345 0.500000 0.883088
O O13 0.376467 0.736368 0.989992
O O14 0.287480 0.000000 0.060892
O O15 0.185326 0.248058 0.030042
O O16 0.891464 0.000000 0.030626
O O17 0.000000 0.257784 0.000000
O O18 0.467024 0.500000 0.386816
#
# Coordination Sequence:
#
# PCOD9142785 Si02
#       7
#     4   4   4   4   4   4   4
#     4   9  17  29  47  68  92 123 154 183 223 274
#     4  10  18  30  46  63  89 125 159 187 223 268
#     4  11  20  31  44  60  88 125 159 186 220 270
#     4  11  20  28  42  64  91 121 154 190 223 260
#     4   9  19  32  46  64  88 121 154 184 224 276
#     4   8  14  28  50  74  94 112 143 188 232 272
#     4  11  21  30  43  64  91 120 157 196 229 260
#
# _framework density 16.755436
#
# number of rings (size 3 to 8) (size 9 to 14) (size 15 to 20)
#    0.000    2.143    1.429    5.571    0.000    3.429 
#    0.000    0.000    0.000    6.857    0.000    1.000 
#    0.000    8.000    0.000    0.000    0.000    0.000 
#
# Total GULP energy -156143.326762 kJ/mol
# GULP energy per Si atom -5576.547384 kJ/mol
# Density = 1.671730 g / cm^3
# Si number density = 16.755436 Si / 1000 Ang^3
#
#
#
# Elastic Constant Matrix: (Units=GPa)
#
#
# Indices 1 2 3 4 5 6 
#
# 1 61.5324 -2.7816 43.6275 0.0000 -7.6711 0.0000
# 2 -2.7816 20.1453 6.8045 0.0000 3.0276 0.0000
# 3 43.6275 6.8045 126.0718 0.0000 8.4278 0.0000
# 4 0.0000 0.0000 0.0000 -0.6823 0.0000 3.4032
# 5 -7.6711 3.0276 8.4278 0.0000 17.2018 0.0000
# 6 0.0000 0.0000 0.0000 3.4032 0.0000 -2.4821
#
#
#
# Elastic Compliance Matrix: (Units=1/GPa)
#
#
# Indices 1 2 3 4 5 6 
#
# 1 0.025598 0.004622 -0.010149 0.000000 0.015574 0.000000
# 2 0.004622 0.052433 -0.004084 0.000000 -0.005167 0.000000
# 3 -0.010149 -0.004084 0.012322 0.000000 -0.009844 0.000000
# 4 0.000000 0.000000 0.000000 0.251022 0.000000 0.344170
# 5 0.015574 -0.005167 -0.009844 0.000000 0.070811 0.000000
# 6 0.000000 0.000000 0.000000 0.344170 0.000000 0.068999
#
#
# Mechanical properties :
#
#
# Convention : Reuss Voigt Hill
#
# Bulk Modulus (GPa) = 14.05840 33.67226 23.86533
# Shear Modulus (GPa) = 9.53984 13.48076 11.51030
#
# Velocity S-wave (km/s) = 2.38871 2.83955 2.62383
# Velocity P-wave (km/s) = 4.00206 5.55794 4.84289
#
# Compressibility (1/GPa) = 0.07113184
#
# Stress axis : x y z
#
# Youngs Moduli (GPa) = 39.06596 19.07180 81.15241
#
# Poissons Ratio (x) = -0.08815 0.82359
# Poissons Ratio (y) = -0.18056 0.33143
# Poissons Ratio (z) = 0.39647 0.07789
#
# Static dielectric constant tensor:
#      x y z
#    x 1.548190 0.000000 0.012600 
#    y 0.000000 1.566250 0.000000 
#    z 0.012600 0.000000 1.603230 
# 
# From -- ./inp_files/65734.got.cif
#   From: 2010.05.17/outbox.cif.g08.bks.cpg/sg10_33_cif.got.tgz:65734.got - 2010.06.03 11:33:40.
