data_PCOD9142623
_publ_section_title
;
Structure prediction by ZEFSAII (Michael W. Deem and Ramdas Pophale) SiO2 
 PCOD9142623
Probable space group: P 2/M
;
_chemical_formula_sum "Si O2"
_cell_formula_units_Z 28
_cell_length_a 27.405033
_cell_length_b 7.447955
_cell_length_c 8.059567
_cell_angle_alpha 90.000000
_cell_angle_beta 141.355792
_cell_angle_gamma 90.000000
_cell_volume 1027.304748
_symmetry_space_group_name_H-M "P 2/M"
_symmetry_group_IT_number 10
_symmetry_cell_setting 'monoclinic'
loop_
_space_group_symop_operation_xyz
x,y,z
-x,y,-z
-x,-y,-z
x,-y,z
loop_
_atom_site_type_symbol
_atom_site_label
_atom_site_fract_x
_atom_site_fract_y
_atom_site_fract_z
Si Si1 0.404876 0.293610 0.611754
Si Si2 0.982965 0.212100 0.720272
Si Si3 0.838953 0.708128 0.549883
Si Si4 0.544940 0.718980 0.780757
Si Si5 0.739012 0.784640 0.953621
Si Si6 0.120370 0.781931 0.878855
Si Si7 0.696109 0.280006 0.353968
O O1 0.417303 0.500000 0.694241
O O2 0.488818 0.221483 0.783066
O O3 0.347439 0.290588 0.299662
O O4 0.350283 0.212041 0.608474
O O5 0.926315 0.237788 0.727771
O O6 0.930586 0.265226 0.421130
O O7 0.069306 0.284034 0.900511
O O8 0.992599 0.000000 0.738320
O O9 0.844956 0.500000 0.597749
O O10 0.782738 0.789876 0.542536
O O11 0.785473 0.734079 0.242828
O O12 0.500000 0.783579 0.500000
O O13 0.543028 0.500000 0.774306
O O14 0.634294 0.769816 0.045313
O O15 0.734744 0.000000 0.938016
O O16 0.793685 0.717991 0.944485
O O17 0.124222 0.000000 0.893290
O O18 0.700491 0.500000 0.371701
#
# Coordination Sequence:
#
# PCOD9142623 Si02
#       7
#     4   4   4   4   4   4   4
#     4  10  19  32  51  73  97 126 161 198 237 281
#     4   8  13  25  44  66  92 122 157 197 242 283
#     4  10  18  29  47  72  99 126 160 199 239 283
#     4   9  16  28  50  77  99 121 155 197 237 280
#     4  10  19  32  49  70  97 128 162 199 242 286
#     4   7  12  24  43  64  89 123 158 194 236 284
#     4   9  18  31  48  72 101 130 158 192 235 285
#
# _framework density 27.255787999999999
#
# number of rings (size 3 to 8) (size 9 to 14) (size 15 to 20)
#    0.000    3.000    0.000    3.857    0.000    4.000 
#    0.000    7.857    0.000    7.286    0.000    6.000 
#    0.000    0.000    0.000    0.000    0.000    0.000 
#
# Total GULP energy -156485.620279 kJ/mol
# GULP energy per Si atom -5588.772153 kJ/mol
# Density = 2.719375 g / cm^3
# Si number density = 27.255788 Si / 1000 Ang^3
#
#
#
# Elastic Constant Matrix: (Units=GPa)
#
#
# Indices 1 2 3 4 5 6 
#
# 1 200.3603 -0.7573 41.0257 0.0000 34.4579 0.0000
# 2 -0.7573 99.1203 5.1837 0.0000 4.5967 0.0000
# 3 41.0257 5.1837 122.4195 0.0000 36.7547 0.0000
# 4 0.0000 0.0000 0.0000 -13.4757 0.0000 -9.4977
# 5 34.4579 4.5967 36.7547 0.0000 66.0518 0.0000
# 6 0.0000 0.0000 0.0000 -9.4977 0.0000 6.1273
#
#
#
# Elastic Compliance Matrix: (Units=1/GPa)
#
#
# Indices 1 2 3 4 5 6 
#
# 1 0.005632 0.000212 -0.001212 0.000000 -0.002278 0.000000
# 2 0.000212 0.010136 -0.000306 0.000000 -0.000646 0.000000
# 3 -0.001212 -0.000306 0.010075 0.000000 -0.004952 0.000000
# 4 0.000000 0.000000 0.000000 -0.035464 0.000000 -0.054971
# 5 -0.002278 -0.000646 -0.004952 0.000000 0.019129 0.000000
# 6 0.000000 0.000000 0.000000 -0.054971 0.000000 0.077996
#
#
# Mechanical properties :
#
#
# Convention : Reuss Voigt Hill
#
# Bulk Modulus (GPa) = 43.04882 56.97825 50.01354
# Shear Modulus (GPa) = 51.09342 36.83722 43.96532
#
# Velocity S-wave (km/s) = 4.33435 3.68031 4.02065
# Velocity P-wave (km/s) = 6.39355 6.24580 6.32011
#
# Compressibility (1/GPa) = 0.02322944
#
# Stress axis : x y z
#
# Youngs Moduli (GPa) = 177.56155 98.65502 99.25785
#
# Poissons Ratio (x) = -0.02092 0.12034
# Poissons Ratio (y) = -0.03766 0.03042
# Poissons Ratio (z) = 0.21527 0.03024
#
# Static dielectric constant tensor:
#      x y z
#    x 2.237530 0.000000 -0.068370 
#    y 0.000000 2.007730 0.000000 
#    z -0.068370 0.000000 2.163420 
# 
# From -- ./inp_files/38041.got.cif
#   From: 2010.05.17/outbox.cif.g08.bks.cpg/sg10_20_cif.got.tgz:38041.got - 2010.06.03 11:33:40.
