data_PCOD9142148
_publ_section_title
;
Structure prediction by ZEFSAII (Michael W. Deem and Ramdas Pophale) SiO2 
 PCOD9142148
Probable space group: P 2/M
;
_chemical_formula_sum "Si O2"
_cell_formula_units_Z 24
_cell_length_a 11.691519
_cell_length_b 12.320204
_cell_length_c 15.105940
_cell_angle_alpha 90.000000
_cell_angle_beta 39.102825
_cell_angle_gamma 90.000000
_cell_volume 1372.363357
_symmetry_space_group_name_H-M "P 2/M"
_symmetry_group_IT_number 10
_symmetry_cell_setting 'monoclinic'
loop_
_space_group_symop_operation_xyz
x,y,z
-x,y,-z
-x,-y,-z
x,-y,z
loop_
_atom_site_type_symbol
_atom_site_label
_atom_site_fract_x
_atom_site_fract_y
_atom_site_fract_z
Si Si1 0.912995 0.264863 0.277066
Si Si2 0.840597 0.741040 0.026355
Si Si3 0.857670 0.265494 0.507050
Si Si4 0.690542 0.500000 0.565625
Si Si5 0.276977 0.500000 0.851154
Si Si6 0.820837 0.500000 0.299146
Si Si7 0.500000 0.813664 0.500000
Si Si8 0.495314 0.124851 0.299483
O O1 0.937777 0.232374 0.363364
O O2 0.933242 0.393174 0.252180
O O3 0.698556 0.245778 0.381006
O O4 0.067037 0.219973 0.120274
O O5 0.794866 0.612078 0.063409
O O6 0.666278 0.809148 0.159637
O O7 0.000000 0.760335 0.000000
O O8 0.791606 0.390125 0.533582
O O9 0.682885 0.189546 0.624308
O O10 0.000000 0.257088 0.500000
O O11 0.493172 0.500000 0.726194
O O12 0.673055 0.500000 0.468227
O O13 0.233108 0.500000 0.771528
O O14 0.500992 0.871730 0.594764
O O15 0.495617 0.000000 0.271321
#
# Coordination Sequence:
#
# PCOD9142148 Si02
#       8
#     4   4   4   2   2   2   2   4
#     4  10  21  33  55  86 115 152 186 230 285 338
#     4  12  21  35  54  88 126 152 181 220 290 354
#     4  10  22  42  63  82 110 149 199 245 279 327
#     4  10  20  33  59  86 112 148 189 236 288 328
#     4  12  19  31  55  86 125 155 175 224 281 355
#     4  10  18  25  49  86 119 146 182 221 272 350
#     4  10  19  37  54  82 118 147 190 234 281 340
#     4  11  23  38  59  85 116 152 193 236 283 337
#
# _framework density 17.488081000000001
#
# number of rings (size 3 to 8) (size 9 to 14) (size 15 to 20)
#    0.000    1.333    5.000    1.500    4.667    0.667 
#    0.000    1.667    0.000    2.000    0.000    0.000 
#    0.000    0.000    0.000    0.000    0.000    0.000 
#
# Total GULP energy -133728.184838 kJ/mol
# GULP energy per Si atom -5572.007702 kJ/mol
# Density = 1.744828 g / cm^3
# Si number density = 17.488081 Si / 1000 Ang^3
#
#
#
# Elastic Constant Matrix: (Units=GPa)
#
#
# Indices 1 2 3 4 5 6 
#
# 1 114.8676 36.5420 69.0896 0.0000 -7.7727 0.0000
# 2 36.5420 109.0144 56.8056 0.0000 -5.9026 0.0000
# 3 69.0896 56.8056 165.3206 0.0000 8.8373 0.0000
# 4 0.0000 0.0000 0.0000 -27.2591 0.0000 17.3454
# 5 -7.7727 -5.9026 8.8373 0.0000 17.3827 0.0000
# 6 0.0000 0.0000 0.0000 17.3454 0.0000 -1.0162
#
#
#
# Elastic Compliance Matrix: (Units=1/GPa)
#
#
# Indices 1 2 3 4 5 6 
#
# 1 0.012873 -0.001024 -0.005466 0.000000 0.008187 0.000000
# 2 -0.001024 0.011878 -0.003952 0.000000 0.005585 0.000000
# 3 -0.005466 -0.003952 0.010170 0.000000 -0.008956 0.000000
# 4 0.000000 0.000000 0.000000 0.003720 0.000000 0.063498
# 5 0.008187 0.005585 -0.008956 0.000000 0.067639 0.000000
# 6 0.000000 0.000000 0.000000 0.063498 0.000000 0.099790
#
#
# Mechanical properties :
#
#
# Convention : Reuss Voigt Hill
#
# Bulk Modulus (GPa) = 71.23664 79.34189 75.28926
# Shear Modulus (GPa) = 21.58603 12.93919 17.26261
#
# Velocity S-wave (km/s) = 3.51711 2.72304 3.14523
# Velocity P-wave (km/s) = 7.57075 7.44004 7.50568
#
# Compressibility (1/GPa) = 0.01403772
#
# Stress axis : x y z
#
# Youngs Moduli (GPa) = 77.68373 84.18910 98.33102
#
# Poissons Ratio (x) = 0.08618 0.53744
# Poissons Ratio (y) = 0.07952 0.38862
# Poissons Ratio (z) = 0.42459 0.33273
#
# Static dielectric constant tensor:
#      x y z
#    x 1.626450 0.000000 0.122640 
#    y 0.000000 1.614300 0.000000 
#    z 0.122640 0.000000 1.785260 
# 
# From -- ./inp_files/76646.got.cif
#   From: 2010.05.17/outbox.cif.g08.bks.cpg/sg10_39_cif.got.tgz:76646.got - 2010.06.03 11:33:40.
