data_PCOD9142659
_publ_section_title
;
Structure prediction by ZEFSAII (Michael W. Deem and Ramdas Pophale) SiO2 
 PCOD9142659
Probable space group: P 2/M
;
_chemical_formula_sum "Si O2"
_cell_formula_units_Z 30
_cell_length_a 14.179881
_cell_length_b 9.679912
_cell_length_c 10.985395
_cell_angle_alpha 90.000000
_cell_angle_beta 115.751563
_cell_angle_gamma 90.000000
_cell_volume 1358.104762
_symmetry_space_group_name_H-M "P 2/M"
_symmetry_group_IT_number 10
_symmetry_cell_setting 'monoclinic'
loop_
_space_group_symop_operation_xyz
x,y,z
-x,y,-z
-x,-y,-z
x,-y,z
loop_
_atom_site_type_symbol
_atom_site_label
_atom_site_fract_x
_atom_site_fract_y
_atom_site_fract_z
Si Si1 0.703042 0.161426 0.692177
Si Si2 0.205998 0.344602 0.783619
Si Si3 0.785965 0.849186 0.985906
Si Si4 0.550446 0.656585 0.153024
Si Si5 0.151407 0.159123 0.536682
Si Si6 0.892603 0.341500 0.707623
Si Si7 0.000000 0.241087 0.000000
Si Si8 0.599647 0.844012 0.397476
O O1 0.696523 0.167885 0.833781
O O2 0.785828 0.279340 0.703677
O O3 0.608369 0.184646 0.546641
O O4 0.737915 0.000000 0.687369
O O5 0.162838 0.500000 0.763676
O O6 0.325525 0.352060 0.803801
O O7 0.145310 0.246083 0.656546
O O8 0.211882 0.272243 0.916940
O O9 0.896301 0.844618 0.975113
O O10 0.774724 0.000000 0.039078
O O11 0.508950 0.500000 0.144837
O O12 0.542002 0.742299 0.272657
O O13 0.500000 0.715577 0.000000
O O14 0.090239 0.240105 0.396427
O O15 0.275825 0.158698 0.570332
O O16 0.119863 0.000000 0.530297
O O17 0.881816 0.500000 0.663115
O O18 0.973860 0.326746 0.863752
O O19 0.560316 0.000000 0.358012
#
# Coordination Sequence:
#
# PCOD9142659 Si02
#       8
#     4   4   4   4   4   4   2   4
#     4   8  16  30  47  69  97 131 169 206 245 295
#     4  10  20  34  53  77 104 132 165 208 254 298
#     4  10  20  35  55  75  99 133 171 209 250 299
#     4   9  18  32  50  74 104 135 164 197 243 300
#     4   9  17  31  50  71  98 132 168 205 248 301
#     4  10  18  29  48  73 100 129 165 210 254 294
#     4  10  22  36  52  74 102 134 170 208 250 298
#     4   8  14  26  46  72  98 124 161 206 244 284
#
# _framework density 22.089604999999999
#
# number of rings (size 3 to 8) (size 9 to 14) (size 15 to 20)
#    0.000    2.800    0.000    2.400    0.000    8.267 
#    0.000    0.667    0.000    4.000    0.000    5.600 
#    0.000    0.000    0.000    0.000    0.000    0.000 
#
# Total GULP energy -167367.030026 kJ/mol
# GULP energy per Si atom -5578.901001 kJ/mol
# Density = 2.203933 g / cm^3
# Si number density = 22.089605 Si / 1000 Ang^3
#
#
#
# Elastic Constant Matrix: (Units=GPa)
#
#
# Indices 1 2 3 4 5 6 
#
# 1 51.2615 11.7438 3.8789 0.0000 15.2126 0.0000
# 2 11.7438 173.3504 105.7819 0.0000 -10.5424 0.0000
# 3 3.8789 105.7819 192.8362 0.0000 -13.8855 0.0000
# 4 0.0000 0.0000 0.0000 27.5770 0.0000 -3.0401
# 5 15.2126 -10.5424 -13.8855 0.0000 20.8084 0.0000
# 6 0.0000 0.0000 0.0000 -3.0401 0.0000 -3.8600
#
#
#
# Elastic Compliance Matrix: (Units=1/GPa)
#
#
# Indices 1 2 3 4 5 6 
#
# 1 0.026431 -0.002739 -0.000547 0.000000 -0.021076 0.000000
# 2 -0.002739 0.008988 -0.004625 0.000000 0.003469 0.000000
# 3 -0.000547 -0.004625 0.007977 0.000000 0.003380 0.000000
# 4 0.000000 0.000000 0.000000 0.033365 0.000000 -0.026279
# 5 -0.021076 0.003469 0.003380 0.000000 0.067479 0.000000
# 6 0.000000 0.000000 0.000000 -0.026279 0.000000 -0.238373
#
#
# Mechanical properties :
#
#
# Convention : Reuss Voigt Hill
#
# Bulk Modulus (GPa) = 36.26552 73.36192 54.81372
# Shear Modulus (GPa) = -72.33786 28.64131 -21.84828
#
# Velocity S-wave (km/s) = -5.72875 3.60474 -3.14837
# Velocity P-wave (km/s) = 5.22542 7.11398 3.41348
#
# Compressibility (1/GPa) = 0.02757440
#
# Stress axis : x y z
#
# Youngs Moduli (GPa) = 37.83406 111.26355 125.35399
#
# Poissons Ratio (x) = 0.30470 0.06857
# Poissons Ratio (y) = 0.10361 0.57981
# Poissons Ratio (z) = 0.02069 0.51464
#
# Static dielectric constant tensor:
#      x y z
#    x 1.900800 0.000000 0.006930 
#    y 0.000000 1.768440 0.000000 
#    z 0.006930 0.000000 1.820060 
# 
# From -- ./inp_files/53096.got.cif
#   From: 2010.05.17/outbox.cif.g08.bks.cpg/sg10_27_cif.got.tgz:53096.got - 2010.06.03 11:33:40.
