data_PCOD9142487
_publ_section_title
;
Structure prediction by ZEFSAII (Michael W. Deem and Ramdas Pophale) SiO2 
 PCOD9142487
Probable space group: P 2/M
;
_chemical_formula_sum "Si O2"
_cell_formula_units_Z 26
_cell_length_a 5.258000
_cell_length_b 22.198777
_cell_length_c 15.462821
_cell_angle_alpha 90.000000
_cell_angle_beta 116.112805
_cell_angle_gamma 90.000000
_cell_volume 1620.617293
_symmetry_space_group_name_H-M "P 2/M"
_symmetry_group_IT_number 10
_symmetry_cell_setting 'monoclinic'
loop_
_space_group_symop_operation_xyz
x,y,z
-x,y,-z
-x,-y,-z
x,-y,z
loop_
_atom_site_type_symbol
_atom_site_label
_atom_site_fract_x
_atom_site_fract_y
_atom_site_fract_z
Si Si1 0.835166 0.068688 0.566067
Si Si2 0.000000 0.844807 0.000000
Si Si3 0.314766 0.777696 0.184540
Si Si4 0.227754 0.066927 0.898128
Si Si5 0.649655 0.431328 0.116599
Si Si6 0.112243 0.158423 0.742485
Si Si7 0.849520 0.643396 0.882969
O O1 0.500000 0.074186 0.500000
O O2 0.000000 0.072756 0.500000
O O3 0.942759 0.121788 0.644300
O O4 0.886137 0.000000 0.608211
O O5 0.758408 0.801813 0.924496
O O6 0.033601 0.890626 0.926328
O O7 0.637472 0.797355 0.250927
O O8 0.252046 0.707007 0.169559
O O9 0.102629 0.806953 0.224361
O O10 0.272527 0.104523 0.818545
O O11 0.116974 0.000000 0.865855
O O12 0.500000 0.062497 0.000000
O O13 0.716686 0.500000 0.152029
O O14 0.418849 0.399784 0.142459
O O15 0.922998 0.389827 0.143514
O O16 0.500000 0.434248 0.000000
O O17 0.000000 0.652477 0.000000
#
# Coordination Sequence:
#
# PCOD9142487 Si02
#       7
#     4   2   4   4   4   4   4
#     4  10  21  39  60  78  95 119 161 216 270 316
#     4  10  19  32  42  62  91 132 164 200 228 290
#     4  11  21  32  48  68 100 130 169 195 241 288
#     4  10  19  31  45  64  92 124 158 197 244 289
#     4   9  17  28  43  63  87 120 173 226 253 266
#     4  11  22  35  51  74  96 127 161 207 249 304
#     4  10  18  29  44  64  91 133 170 208 243 280
#
# _framework density 16.04327
#
# number of rings (size 3 to 8) (size 9 to 14) (size 15 to 20)
#    0.000    1.846    2.308    3.000    0.000    1.846 
#    0.000    1.538    0.000    0.000    0.000    0.000 
#    0.000    0.000    0.000    0.000    0.000  193.846 
#
# Total GULP energy -144766.704359 kJ/mol
# GULP energy per Si atom -5567.950168 kJ/mol
# Density = 1.600675 g / cm^3
# Si number density = 16.043270 Si / 1000 Ang^3
#
#
#
# Elastic Constant Matrix: (Units=GPa)
#
#
# Indices 1 2 3 4 5 6 
#
# 1 110.7818 53.2247 22.7319 0.0000 9.6629 0.0000
# 2 53.2247 140.6399 33.6967 0.0000 7.0364 0.0000
# 3 22.7319 33.6967 41.7622 0.0000 6.1264 0.0000
# 4 0.0000 0.0000 0.0000 17.0261 0.0000 3.1703
# 5 9.6629 7.0364 6.1264 0.0000 13.4983 0.0000
# 6 0.0000 0.0000 0.0000 3.1703 0.0000 25.0443
#
#
#
# Elastic Compliance Matrix: (Units=1/GPa)
#
#
# Indices 1 2 3 4 5 6 
#
# 1 0.011749 -0.003515 -0.002780 0.000000 -0.005317 0.000000
# 2 -0.003515 0.009893 -0.006087 0.000000 0.000122 0.000000
# 3 -0.002780 -0.006087 0.031724 0.000000 -0.009236 0.000000
# 4 0.000000 0.000000 0.000000 0.060151 0.000000 -0.007614
# 5 -0.005317 0.000122 -0.009236 0.000000 0.082018 0.000000
# 6 0.000000 0.000000 0.000000 -0.007614 0.000000 0.040893
#
#
# Mechanical properties :
#
#
# Convention : Reuss Voigt Hill
#
# Bulk Modulus (GPa) = 34.95983 56.94338 45.95160
# Shear Modulus (GPa) = 18.46884 23.34910 20.90897
#
# Velocity S-wave (km/s) = 3.39660 3.81909 3.61402
# Velocity P-wave (km/s) = 6.10088 7.41741 6.79112
#
# Compressibility (1/GPa) = 0.02860426
#
# Stress axis : x y z
#
# Youngs Moduli (GPa) = 85.11019 101.08413 31.52151
#
# Poissons Ratio (x) = 0.35526 0.08762
# Poissons Ratio (y) = 0.29912 0.19187
# Poissons Ratio (z) = 0.23658 0.61530
#
# Static dielectric constant tensor:
#      x y z
#    x 1.539200 0.000000 0.014010 
#    y 0.000000 1.549380 0.000000 
#    z 0.014010 0.000000 1.534710 
# 
# From -- ./inp_files/59573.got.cif
#   From: 2010.05.17/outbox.cif.g08.bks.cpg/sg10_30_cif.got.tgz:59573.got - 2010.06.03 11:33:40.
