data_PCOD9142913
_publ_section_title
;
Structure prediction by ZEFSAII (Michael W. Deem and Ramdas Pophale) SiO2 
 PCOD9142913
Probable space group: P 2/M
;
_chemical_formula_sum "Si O2"
_cell_formula_units_Z 32
_cell_length_a 20.209653
_cell_length_b 7.406928
_cell_length_c 20.209649
_cell_angle_alpha 90.000000
_cell_angle_beta 30.876713
_cell_angle_gamma 90.000000
_cell_volume 1552.515767
_symmetry_space_group_name_H-M "P 2/M"
_symmetry_group_IT_number 10
_symmetry_cell_setting 'monoclinic'
loop_
_space_group_symop_operation_xyz
x,y,z
-x,y,-z
-x,-y,-z
x,-y,z
loop_
_atom_site_type_symbol
_atom_site_label
_atom_site_fract_x
_atom_site_fract_y
_atom_site_fract_z
Si Si1 0.039901 0.778788 0.539899
Si Si2 0.417733 0.720225 0.633651
Si Si3 0.325500 0.212033 0.325697
Si Si4 0.494321 0.717070 0.713509
Si Si5 0.539866 0.220724 0.039864
Si Si6 0.866349 0.279775 0.082267
Si Si7 0.786491 0.717070 0.005679
Si Si8 0.174301 0.212033 0.174502
O O1 0.183084 0.715334 0.435672
O O2 0.000000 0.726642 0.500000
O O3 0.935674 0.715334 0.683082
O O4 0.040665 0.000000 0.540662
O O5 0.500000 0.780883 0.500000
O O6 0.417580 0.500000 0.632783
O O7 0.482706 0.776066 0.647393
O O8 0.266976 0.774811 0.766976
O O9 0.381534 0.229519 0.351307
O O10 0.434011 0.286425 0.183049
O O11 0.316905 0.000000 0.317902
O O12 0.490678 0.500000 0.716047
O O13 0.362779 0.780277 0.862779
O O14 0.541590 0.000000 0.041588
O O15 0.500000 0.269867 0.000000
O O16 0.683051 0.286426 0.934008
O O17 0.867217 0.500000 0.082420
O O18 0.852607 0.223934 0.017294
O O19 0.000000 0.219117 0.000000
O O20 0.783954 0.500000 0.009321
O O21 0.851308 0.770481 0.881534
O O22 0.182096 0.000000 0.183097
#
# Coordination Sequence:
#
# PCOD9142913 Si02
#       8
#     4   4   4   4   4   4   4   4
#     4   9  18  32  49  69  94 123 154 194 241 277
#     4   8  14  26  44  65  89 118 152 187 222 263
#     4  10  18  30  49  71  93 120 155 192 231 276
#     4   9  17  30  48  70  98 126 150 187 236 276
#     4   9  16  26  45  71  90 109 150 198 223 253
#     4   8  14  26  44  65  89 118 152 187 222 263
#     4   9  17  30  48  70  98 126 150 187 236 276
#     4  10  18  30  49  71  93 120 155 192 231 276
#
# _framework density 20.611706000000002
#
# number of rings (size 3 to 8) (size 9 to 14) (size 15 to 20)
#    0.000    3.000    1.250    2.250    0.000    3.000 
#    2.250    0.625    0.000    5.250    0.000    0.000 
#    0.000    0.000    0.000    0.000    0.000    0.000 
#
# Total GULP energy -178565.915393 kJ/mol
# GULP energy per Si atom -5580.184856 kJ/mol
# Density = 2.056479 g / cm^3
# Si number density = 20.611706 Si / 1000 Ang^3
#
#
#
# Elastic Constant Matrix: (Units=GPa)
#
#
# Indices 1 2 3 4 5 6 
#
# 1 170.7775 -4.1765 131.0165 0.0000 -13.4800 0.0000
# 2 -4.1765 66.3348 9.0400 0.0000 -3.8154 0.0000
# 3 131.0165 9.0400 207.1229 0.0000 2.9863 0.0000
# 4 0.0000 0.0000 0.0000 -66.6930 0.0000 22.0562
# 5 -13.4800 -3.8154 2.9863 0.0000 38.4741 0.0000
# 6 0.0000 0.0000 0.0000 22.0562 0.0000 9.7091
#
#
#
# Elastic Compliance Matrix: (Units=1/GPa)
#
#
# Indices 1 2 3 4 5 6 
#
# 1 0.012540 0.002195 -0.008103 0.000000 0.005240 0.000000
# 2 0.002195 0.015643 -0.002107 0.000000 0.002484 0.000000
# 3 -0.008103 -0.002107 0.010101 0.000000 -0.003832 0.000000
# 4 0.000000 0.000000 0.000000 -0.008562 0.000000 0.019450
# 5 0.005240 0.002484 -0.003832 0.000000 0.028371 0.000000
# 6 0.000000 0.000000 0.000000 0.019450 0.000000 0.058812
#
#
# Mechanical properties :
#
#
# Convention : Reuss Voigt Hill
#
# Bulk Modulus (GPa) = 44.93701 79.55500 62.24601
# Shear Modulus (GPa) = 35.62429 16.85505 26.23967
#
# Velocity S-wave (km/s) = 4.16186 2.86272 3.57185
# Velocity P-wave (km/s) = 6.70401 7.04327 6.87573
#
# Compressibility (1/GPa) = 0.02225337
#
# Stress axis : x y z
#
# Youngs Moduli (GPa) = 79.74775 63.92516 98.99960
#
# Poissons Ratio (x) = -0.14033 0.80222
# Poissons Ratio (y) = -0.17506 0.20861
# Poissons Ratio (z) = 0.64622 0.13470
#
# Static dielectric constant tensor:
#      x y z
#    x 1.709500 0.000000 -0.000730 
#    y 0.000000 1.801270 0.000000 
#    z -0.000730 0.000000 1.712040 
# 
# From -- ./inp_files/86125.got.cif
#   From: 2010.05.17/outbox.cif.g08.bks.cpg/sg10_44_cif.got.tgz:86125.got - 2010.06.03 11:33:40.
