data_PCOD9142444
_publ_section_title
;
Structure prediction by ZEFSAII (Michael W. Deem and Ramdas Pophale) SiO2 
 PCOD9142444
Probable space group: P 2/M
;
_chemical_formula_sum "Si O2"
_cell_formula_units_Z 32
_cell_length_a 5.492679
_cell_length_b 15.730152
_cell_length_c 20.557037
_cell_angle_alpha 90.000000
_cell_angle_beta 60.522595
_cell_angle_gamma 90.000000
_cell_volume 1546.219996
_symmetry_space_group_name_H-M "P 2/M"
_symmetry_group_IT_number 10
_symmetry_cell_setting 'monoclinic'
loop_
_space_group_symop_operation_xyz
x,y,z
-x,y,-z
-x,-y,-z
x,-y,z
loop_
_atom_site_type_symbol
_atom_site_label
_atom_site_fract_x
_atom_site_fract_y
_atom_site_fract_z
Si Si1 0.686431 0.877341 0.035105
Si Si2 0.778009 0.095618 0.295236
Si Si3 0.198966 0.317382 0.026797
Si Si4 0.739516 0.277563 0.339916
Si Si5 0.302366 0.308650 0.809335
Si Si6 0.309014 0.593292 0.432640
Si Si7 0.442740 0.869338 0.204255
Si Si8 0.223259 0.408653 0.290342
O O1 0.549190 0.901123 0.121125
O O2 0.500000 0.907787 0.000000
O O3 0.722730 0.775210 0.015138
O O4 0.000000 0.908374 0.000000
O O5 0.694749 0.176493 0.350624
O O6 0.619501 0.102852 0.245433
O O7 0.115033 0.108727 0.248764
O O8 0.721577 0.000000 0.326722
O O9 0.998266 0.308020 0.116200
O O10 0.500000 0.358193 0.000000
O O11 0.000000 0.361235 0.000000
O O12 0.718103 0.292513 0.264977
O O13 0.523093 0.329962 0.412698
O O14 0.030832 0.325158 0.314412
O O15 0.485989 0.230530 0.811281
O O16 0.497855 0.391454 0.788143
O O17 0.400497 0.500000 0.445160
O O18 0.294789 0.585224 0.356740
O O19 0.000000 0.610063 0.500000
O O20 0.090633 0.500000 0.288451
#
# Coordination Sequence:
#
# PCOD9142444 Si02
#       8
#     4   4   4   4   4   4   4   4
#     4  10  18  28  49  80 103 141 194 245 300 379
#     4  11  24  39  60  85 119 159 206 261 308 357
#     4  10  20  29  51  83 108 148 205 253 303 373
#     4  10  21  34  60  88 119 160 210 244 303 363
#     4  10  20  34  54  85 116 151 204 257 306 367
#     4   9  19  37  60  94 136 165 191 236 295 366
#     4  11  20  36  58  84 110 151 205 256 314 371
#     4  10  20  35  59  91 123 158 198 243 299 362
#
# _framework density 20.695633000000001
#
# number of rings (size 3 to 8) (size 9 to 14) (size 15 to 20)
#    0.000    1.875    3.750    1.500    7.000    1.000 
#    0.000    1.875    0.000    8.625    0.000    0.875 
#    0.000    0.000    0.000    0.000    0.000    0.000 
#
# Total GULP energy -178152.510720 kJ/mol
# GULP energy per Si atom -5567.265960 kJ/mol
# Density = 2.064853 g / cm^3
# Si number density = 20.695633 Si / 1000 Ang^3
#
#
#
# Elastic Constant Matrix: (Units=GPa)
#
#
# Indices 1 2 3 4 5 6 
#
# 1 125.6563 31.6635 16.9974 0.0000 -5.8582 0.0000
# 2 31.6635 103.4642 43.9642 0.0000 -14.6407 0.0000
# 3 16.9974 43.9642 74.2166 0.0000 -22.8485 0.0000
# 4 0.0000 0.0000 0.0000 3.0055 0.0000 -10.2114
# 5 -5.8582 -14.6407 -22.8485 0.0000 30.5194 0.0000
# 6 0.0000 0.0000 0.0000 -10.2114 0.0000 38.4891
#
#
#
# Elastic Compliance Matrix: (Units=1/GPa)
#
#
# Indices 1 2 3 4 5 6 
#
# 1 0.008640 -0.002408 -0.000516 0.000000 0.000117 0.000000
# 2 -0.002408 0.013596 -0.007325 0.000000 0.000576 0.000000
# 3 -0.000516 -0.007325 0.021857 0.000000 0.012750 0.000000
# 4 0.000000 0.000000 0.000000 3.374464 0.000000 0.895265
# 5 0.000117 0.000576 0.012750 0.000000 0.042610 0.000000
# 6 0.000000 0.000000 0.000000 0.895265 0.000000 0.263500
#
#
# Mechanical properties :
#
#
# Convention : Reuss Voigt Hill
#
# Bulk Modulus (GPa) = 42.38392 54.28748 48.33570
# Shear Modulus (GPa) = 1.33226 28.45026 14.89126
#
# Velocity S-wave (km/s) = 0.80320 3.71172 2.68533
# Velocity P-wave (km/s) = 4.62431 6.68262 5.74638
#
# Compressibility (1/GPa) = 0.02359385
#
# Stress axis : x y z
#
# Youngs Moduli (GPa) = 115.73590 73.54891 45.75210
#
# Poissons Ratio (x) = 0.17713 0.02362
# Poissons Ratio (y) = 0.27873 0.33515
# Poissons Ratio (z) = 0.05975 0.53877
#
# Static dielectric constant tensor:
#      x y z
#    x 1.816530 0.000000 -0.019280 
#    y 0.000000 1.918600 0.000000 
#    z -0.019280 0.000000 1.703450 
# 
# From -- ./inp_files/81474.got.cif
#   From: 2010.05.17/outbox.cif.g08.bks.cpg/sg10_41_cif.got.tgz:81474.got - 2010.06.03 11:33:40.
