data_PCOD9142479
_publ_section_title
;
Structure prediction by ZEFSAII (Michael W. Deem and Ramdas Pophale) SiO2 
 PCOD9142479
Probable space group: P 2/M
;
_chemical_formula_sum "Si O2"
_cell_formula_units_Z 24
_cell_length_a 10.726580
_cell_length_b 9.078759
_cell_length_c 11.299863
_cell_angle_alpha 90.000000
_cell_angle_beta 64.523187
_cell_angle_gamma 90.000000
_cell_volume 993.420179
_symmetry_space_group_name_H-M "P 2/M"
_symmetry_group_IT_number 10
_symmetry_cell_setting 'monoclinic'
loop_
_space_group_symop_operation_xyz
x,y,z
-x,y,-z
-x,-y,-z
x,-y,z
loop_
_atom_site_type_symbol
_atom_site_label
_atom_site_fract_x
_atom_site_fract_y
_atom_site_fract_z
Si Si1 0.230837 0.836346 0.991643
Si Si2 0.764357 0.829114 0.724894
Si Si3 0.930600 0.825402 0.374046
Si Si4 0.656278 0.330971 0.446511
Si Si5 0.505313 0.665536 0.141266
Si Si6 0.878465 0.665884 0.165529
O O1 0.383905 0.793732 0.885434
O O2 0.138172 0.717215 0.961741
O O3 0.191108 0.000000 0.969138
O O4 0.236346 0.831902 0.130572
O O5 0.639899 0.719416 0.747507
O O6 0.921158 0.781958 0.630867
O O7 0.742160 0.000000 0.696668
O O8 0.780174 0.755524 0.463890
O O9 0.947045 0.779802 0.228557
O O10 0.922140 0.000000 0.388735
O O11 0.500000 0.271635 0.500000
O O12 0.648242 0.500000 0.492991
O O13 0.724438 0.336197 0.287903
O O14 0.541363 0.500000 0.166945
O O15 0.500000 0.655321 0.000000
O O16 0.931804 0.500000 0.158014
#
# Coordination Sequence:
#
# PCOD9142479 Si02
#       6
#     4   4   4   4   4   4
#     4  10  18  29  44  61  87 121 151 180 214 253
#     4   9  18  30  43  61  89 121 149 179 214 253
#     4   9  17  29  44  65  89 113 146 179 213 258
#     4   8  16  31  47  63  86 113 140 176 220 263
#     4   9  17  28  43  62  83 112 152 188 214 246
#     4   9  18  30  43  63  89 114 145 180 216 260
#
# _framework density 24.158963
#
# number of rings (size 3 to 8) (size 9 to 14) (size 15 to 20)
#    1.000    2.000    0.000    1.500    0.000    5.000 
#    0.000    3.333    0.000    0.000    0.000    1.167 
#    0.000    9.333    0.000    0.000    0.000    0.000 
#
# Total GULP energy -133841.918737 kJ/mol
# GULP energy per Si atom -5576.746614 kJ/mol
# Density = 2.410398 g / cm^3
# Si number density = 24.158963 Si / 1000 Ang^3
#
#
#
# Elastic Constant Matrix: (Units=GPa)
#
#
# Indices 1 2 3 4 5 6 
#
# 1 66.6701 22.7742 17.7390 0.0000 -31.8186 0.0000
# 2 22.7742 76.4025 18.6318 0.0000 -14.3382 0.0000
# 3 17.7390 18.6318 121.6377 0.0000 -22.1414 0.0000
# 4 0.0000 0.0000 0.0000 20.5654 0.0000 -13.0109
# 5 -31.8186 -14.3382 -22.1414 0.0000 50.5997 0.0000
# 6 0.0000 0.0000 0.0000 -13.0109 0.0000 31.2029
#
#
#
# Elastic Compliance Matrix: (Units=1/GPa)
#
#
# Indices 1 2 3 4 5 6 
#
# 1 0.022714 -0.004268 -0.000303 0.000000 0.012941 0.000000
# 2 -0.004268 0.014891 -0.001498 0.000000 0.000880 0.000000
# 3 -0.000303 -0.001498 0.009108 0.000000 0.003370 0.000000
# 4 0.000000 0.000000 0.000000 0.066049 0.000000 0.027541
# 5 0.012941 0.000880 0.003370 0.000000 0.029625 0.000000
# 6 0.000000 0.000000 0.000000 0.027541 0.000000 0.043532
#
#
# Mechanical properties :
#
#
# Convention : Reuss Voigt Hill
#
# Bulk Modulus (GPa) = 28.92281 42.55560 35.73921
# Shear Modulus (GPa) = 23.85670 34.17796 29.01733
#
# Velocity S-wave (km/s) = 3.14584 3.76535 3.46945
# Velocity P-wave (km/s) = 5.01926 6.04622 5.55652
#
# Compressibility (1/GPa) = 0.03457478
#
# Stress axis : x y z
#
# Youngs Moduli (GPa) = 44.02554 67.15291 109.78929
#
# Poissons Ratio (x) = 0.28662 0.03327
# Poissons Ratio (y) = 0.18791 0.16450
# Poissons Ratio (z) = 0.01334 0.10062
#
# Static dielectric constant tensor:
#      x y z
#    x 2.002270 0.000000 0.012200 
#    y 0.000000 1.818690 0.000000 
#    z 0.012200 0.000000 2.086100 
# 
# From -- ./inp_files/54449.got.cif
#   From: 2010.05.17/outbox.cif.g08.bks.cpg/sg10_28_cif.got.tgz:54449.got - 2010.06.03 11:33:40.
