data_PCOD9142215
_publ_section_title
;
Structure prediction by ZEFSAII (Michael W. Deem and Ramdas Pophale) SiO2 
 PCOD9142215
Probable space group: P 2/M
;
_chemical_formula_sum "Si O2"
_cell_formula_units_Z 28
_cell_length_a 28.923928
_cell_length_b 7.518555
_cell_length_c 14.234658
_cell_angle_alpha 90.000000
_cell_angle_beta 149.576969
_cell_angle_gamma 90.000000
_cell_volume 1567.529054
_symmetry_space_group_name_H-M "P 2/M"
_symmetry_group_IT_number 10
_symmetry_cell_setting 'monoclinic'
loop_
_space_group_symop_operation_xyz
x,y,z
-x,y,-z
-x,-y,-z
x,-y,z
loop_
_atom_site_type_symbol
_atom_site_label
_atom_site_fract_x
_atom_site_fract_y
_atom_site_fract_z
Si Si1 0.432410 0.215732 0.098909
Si Si2 0.398437 0.796421 0.724738
Si Si3 0.103285 0.213979 0.074654
Si Si4 0.715073 0.217818 0.297600
Si Si5 0.461790 0.708293 0.529757
Si Si6 0.702710 0.291078 0.635977
Si Si7 0.899405 0.217075 0.712885
O O1 0.510010 0.280060 0.160990
O O2 0.464234 0.276420 0.257028
O O3 0.436782 0.000000 0.108148
O O4 0.334474 0.268975 0.885884
O O5 0.350381 0.719529 0.731924
O O6 0.325971 0.795671 0.512865
O O7 0.420450 0.000000 0.787697
O O8 0.189487 0.268926 0.163675
O O9 0.116850 0.272694 0.207108
O O10 0.102292 0.000000 0.074484
O O11 0.002185 0.273288 0.867139
O O12 0.817293 0.276127 0.501961
O O13 0.716114 0.000000 0.301870
O O14 0.500000 0.786916 0.500000
O O15 0.444213 0.500000 0.480596
O O16 0.366646 0.780149 0.406356
O O17 0.683191 0.500000 0.590863
O O18 0.898586 0.000000 0.711854
#
# Coordination Sequence:
#
# PCOD9142215 Si02
#       7
#     4   4   4   4   4   4   4
#     4   9  17  26  42  67  87 105 136 177 212 240
#     4   9  15  25  40  58  84 117 145 165 192 244
#     4   9  15  26  42  60  82 114 151 176 198 237
#     4   9  14  23  40  62  87 115 143 168 197 239
#     4   9  19  35  49  60  80 111 141 170 213 267
#     4  10  18  27  42  63  84 107 139 179 217 247
#     4   8  14  23  40  61  83 116 152 173 189 234
#
# _framework density 17.862507000000001
#
# number of rings (size 3 to 8) (size 9 to 14) (size 15 to 20)
#    0.000    3.000    1.429    1.714    0.000    2.571 
#    0.000    2.143    0.000    3.429    0.000    1.000 
#    0.000    8.000    0.000    0.000    0.000    0.000 
#
# Total GULP energy -155988.822809 kJ/mol
# GULP energy per Si atom -5571.029386 kJ/mol
# Density = 1.782185 g / cm^3
# Si number density = 17.862507 Si / 1000 Ang^3
#
#
#
# Elastic Constant Matrix: (Units=GPa)
#
#
# Indices 1 2 3 4 5 6 
#
# 1 104.1221 0.9176 65.0888 0.0000 6.9362 0.0000
# 2 0.9176 46.0446 -5.2246 0.0000 2.3844 0.0000
# 3 65.0888 -5.2246 140.7673 0.0000 16.9797 0.0000
# 4 0.0000 0.0000 0.0000 -8.5607 0.0000 -0.2326
# 5 6.9362 2.3844 16.9797 0.0000 10.1498 0.0000
# 6 0.0000 0.0000 0.0000 -0.2326 0.0000 8.1379
#
#
#
# Elastic Compliance Matrix: (Units=1/GPa)
#
#
# Indices 1 2 3 4 5 6 
#
# 1 0.013583 -0.001116 -0.006557 0.000000 0.001949 0.000000
# 2 -0.001116 0.022449 0.002372 0.000000 -0.008479 0.000000
# 3 -0.006557 0.002372 0.012216 0.000000 -0.016512 0.000000
# 4 0.000000 0.000000 0.000000 -0.116723 0.000000 -0.003336
# 5 0.001949 -0.008479 -0.016512 0.000000 0.126806 0.000000
# 6 0.000000 0.000000 0.000000 -0.003336 0.000000 0.122787
#
#
# Mechanical properties :
#
#
# Convention : Reuss Voigt Hill
#
# Bulk Modulus (GPa) = 26.56382 45.83305 36.19844
# Shear Modulus (GPa) = 24.47771 17.28889 20.88330
#
# Velocity S-wave (km/s) = 3.70583 3.11446 3.42294
# Velocity P-wave (km/s) = 5.76320 6.21673 5.99425
#
# Compressibility (1/GPa) = 0.03764519
#
# Stress axis : x y z
#
# Youngs Moduli (GPa) = 73.62089 44.54634 81.86286
#
# Poissons Ratio (x) = 0.04970 0.53679
# Poissons Ratio (y) = 0.08214 -0.19416
# Poissons Ratio (z) = 0.48274 -0.10566
#
# Static dielectric constant tensor:
#      x y z
#    x 1.604960 0.000000 0.030990 
#    y 0.000000 1.683940 0.000000 
#    z 0.030990 0.000000 1.642250 
# 
# From -- ./inp_files/65775.got.cif
#   From: 2010.05.17/outbox.cif.g08.bks.cpg/sg10_33_cif.got.tgz:65775.got - 2010.06.03 11:33:40.
