data_PCOD9142994
_publ_section_title
;
Structure prediction by ZEFSAII (Michael W. Deem and Ramdas Pophale) SiO2 
 PCOD9142994
Probable space group: P 2/M
;
_chemical_formula_sum "Si O2"
_cell_formula_units_Z 32
_cell_length_a 21.479910
_cell_length_b 7.794467
_cell_length_c 24.401392
_cell_angle_alpha 90.000000
_cell_angle_beta 23.979208
_cell_angle_gamma 90.000000
_cell_volume 1660.323183
_symmetry_space_group_name_H-M "P 2/M"
_symmetry_group_IT_number 10
_symmetry_cell_setting 'monoclinic'
loop_
_space_group_symop_operation_xyz
x,y,z
-x,y,-z
-x,-y,-z
x,-y,z
loop_
_atom_site_type_symbol
_atom_site_label
_atom_site_fract_x
_atom_site_fract_y
_atom_site_fract_z
Si Si1 0.640201 0.205829 0.251344
Si Si2 0.562079 0.204632 0.773302
Si Si3 0.355857 0.704458 0.415499
Si Si4 0.226156 0.206776 0.064461
Si Si5 0.108641 0.202886 0.459878
Si Si6 0.868583 0.200226 0.153187
Si Si7 0.112514 0.789311 0.038175
Si Si8 0.026639 0.704246 0.646817
O O1 0.465789 0.244216 0.376751
O O2 0.718017 0.273831 0.244685
O O3 0.655867 0.000000 0.240667
O O4 0.747888 0.264248 0.114050
O O5 0.572483 0.231127 0.699486
O O6 0.718976 0.276073 0.673068
O O7 0.562841 0.000000 0.781757
O O8 0.400600 0.272496 0.924935
O O9 0.354751 0.500000 0.414437
O O10 0.179705 0.765899 0.556028
O O11 0.145304 0.267377 0.073340
O O12 0.123958 0.252506 0.198386
O O13 0.233413 0.000000 0.055118
O O14 0.034217 0.221684 0.579666
O O15 0.000000 0.276477 0.500000
O O16 0.125761 0.000000 0.434787
O O17 0.954463 0.272336 0.137342
O O18 0.837033 0.000000 0.190796
O O19 0.000000 0.203747 0.000000
O O20 0.110241 0.000000 0.039282
O O21 0.037898 0.500000 0.632314
#
# Coordination Sequence:
#
# PCOD9142994 Si02
#       8
#     4   4   4   4   4   4   4   4
#     4   9  14  24  44  68  92 120 158 203 248 290
#     4   9  17  31  52  77 100 123 158 199 238 283
#     4  10  19  30  45  67  95 127 163 203 243 283
#     4  10  18  30  50  74  99 127 160 202 244 282
#     4   9  18  35  59  82 102 126 157 194 236 282
#     4   7  11  19  36  63  92 119 150 194 246 293
#     4   8  13  23  41  68  96 121 153 196 248 292
#     4  10  22  36  49  70 101 134 165 196 234 284
#
# _framework density 19.273357000000001
#
# number of rings (size 3 to 8) (size 9 to 14) (size 15 to 20)
#    0.000    3.000    1.250    2.250    0.000    2.250 
#    0.000    0.625    0.000    8.625    0.000    5.250 
#    0.000    0.000    0.000    0.000    0.000    0.000 
#
# Total GULP energy -178251.154499 kJ/mol
# GULP energy per Si atom -5570.348578 kJ/mol
# Density = 1.922949 g / cm^3
# Si number density = 19.273357 Si / 1000 Ang^3
#
#
#
# Elastic Constant Matrix: (Units=GPa)
#
#
# Indices 1 2 3 4 5 6 
#
# 1 3.6783 28.9238 -139.5469 0.0000 -79.1061 0.0000
# 2 28.9238 18.2599 34.3067 0.0000 1.1424 0.0000
# 3 -139.5469 34.3067 -189.5373 0.0000 -79.4275 0.0000
# 4 0.0000 0.0000 0.0000 28.8455 0.0000 3.4586
# 5 -79.1061 1.1424 -79.4275 0.0000 12.3256 0.0000
# 6 0.0000 0.0000 0.0000 3.4586 0.0000 -7.6507
#
#
#
# Elastic Compliance Matrix: (Units=1/GPa)
#
#
# Indices 1 2 3 4 5 6 
#
# 1 0.010327 0.001161 -0.009492 0.000000 0.005008 0.000000
# 2 0.001161 0.048605 0.001812 0.000000 0.014628 0.000000
# 3 -0.009492 0.001812 0.007469 0.000000 -0.012955 0.000000
# 4 0.000000 0.000000 0.000000 0.032885 0.000000 0.014866
# 5 0.005008 0.014628 -0.012955 0.000000 0.028434 0.000000
# 6 0.000000 0.000000 0.000000 0.014866 0.000000 -0.123987
#
#
# Mechanical properties :
#
#
# Convention : Reuss Voigt Hill
#
# Bulk Modulus (GPa) = 18.73873 -35.58133 -8.42130
# Shear Modulus (GPa) = 144.68199 0.61856 72.65028
#
# Velocity S-wave (km/s) = 8.67360 0.56713 6.14626
# Velocity P-wave (km/s) = 10.49058 4.25119 6.78158
#
# Compressibility (1/GPa) = 0.05336541
#
# Stress axis : x y z
#
# Youngs Moduli (GPa) = 96.82995 20.57404 133.88354
#
# Poissons Ratio (x) = -0.02389 1.27080
# Poissons Ratio (y) = -0.11245 -0.24266
# Poissons Ratio (z) = 0.91909 -0.03729
#
# Static dielectric constant tensor:
#      x y z
#    x 1.708410 0.000000 -0.071040 
#    y 0.000000 1.696150 0.000000 
#    z -0.071040 0.000000 1.688490 
# 
# From -- ./inp_files/93865.got.cif
#   From: 2010.05.17/outbox.cif.g08.bks.cpg/sg10_47_cif.got.tgz:93865.got - 2010.06.03 11:33:40.
