data_PCOD9142758
_publ_section_title
;
Structure prediction by ZEFSAII (Michael W. Deem and Ramdas Pophale) SiO2 
 PCOD9142758
Probable space group: P 2/M
;
_chemical_formula_sum "Si O2"
_cell_formula_units_Z 32
_cell_length_a 12.552352
_cell_length_b 7.414496
_cell_length_c 33.854800
_cell_angle_alpha 90.000000
_cell_angle_beta 26.260558
_cell_angle_gamma 90.000000
_cell_volume 1394.103684
_symmetry_space_group_name_H-M "P 2/M"
_symmetry_group_IT_number 10
_symmetry_cell_setting 'monoclinic'
loop_
_space_group_symop_operation_xyz
x,y,z
-x,y,-z
-x,-y,-z
x,-y,z
loop_
_atom_site_type_symbol
_atom_site_label
_atom_site_fract_x
_atom_site_fract_y
_atom_site_fract_z
Si Si1 0.981896 0.790182 0.744376
Si Si2 0.764467 0.218477 0.898414
Si Si3 0.505624 0.718023 0.602473
Si Si4 0.075848 0.708386 0.870046
Si Si5 0.028389 0.720441 0.405079
Si Si6 0.560535 0.279648 0.674681
Si Si7 0.213215 0.285525 0.960611
Si Si8 0.295533 0.294762 0.238900
O O1 0.262255 0.774798 0.661788
O O2 0.835809 0.719281 0.831030
O O3 0.897768 0.701027 0.732051
O O4 0.921107 0.000000 0.760178
O O5 0.953726 0.283983 0.867855
O O6 0.773548 0.000000 0.895463
O O7 0.500000 0.275035 0.000000
O O8 0.503895 0.500000 0.603560
O O9 0.752598 0.778852 0.499878
O O10 0.514078 0.779183 0.645343
O O11 0.109923 0.500000 0.870853
O O12 0.343186 0.783697 0.775286
O O13 0.892317 0.788489 0.963128
O O14 0.022262 0.500000 0.405969
O O15 0.184486 0.771233 0.391519
O O16 0.170540 0.784762 0.319122
O O17 0.552814 0.500000 0.676744
O O18 0.740710 0.500000 0.048293
O O19 0.461089 0.211746 0.860229
O O20 0.000000 0.265454 0.000000
O O21 0.362034 0.500000 0.228456
#
# Coordination Sequence:
#
# PCOD9142758 Si02
#       8
#     4   4   4   4   4   4   4   4
#     4  11  23  38  55  75 107 144 178 222 271 316
#     4  10  21  36  52  71  99 137 175 212 259 311
#     4  10  19  34  57  82 107 137 177 222 265 314
#     4  10  18  29  51  81 106 133 169 210 257 309
#     4   9  18  32  54  82 108 138 176 219 267 315
#     4   9  16  29  52  83 112 133 166 219 270 315
#     4   9  17  30  51  81 114 142 170 212 265 314
#     4  10  20  35  55  79 108 143 182 219 257 313
#
# _framework density 22.953816
#
# number of rings (size 3 to 8) (size 9 to 14) (size 15 to 20)
#    0.000    2.250    1.250    2.250    0.000    5.750 
#    0.000    3.125    0.000    6.750    0.000    0.000 
#    0.000    0.000    0.000    0.000    0.000    0.000 
#
# Total GULP energy -178845.205569 kJ/mol
# GULP energy per Si atom -5588.912674 kJ/mol
# Density = 2.290157 g / cm^3
# Si number density = 22.953816 Si / 1000 Ang^3
#
#
#
# Elastic Constant Matrix: (Units=GPa)
#
#
# Indices 1 2 3 4 5 6 
#
# 1 54.6612 -7.2835 31.9801 0.0000 -3.1279 0.0000
# 2 -7.2835 77.5668 6.3444 0.0000 2.9998 0.0000
# 3 31.9801 6.3444 146.1262 0.0000 -9.3761 0.0000
# 4 0.0000 0.0000 0.0000 3.9890 0.0000 -20.8931
# 5 -3.1279 2.9998 -9.3761 0.0000 42.2344 0.0000
# 6 0.0000 0.0000 0.0000 -20.8931 0.0000 59.9282
#
#
#
# Elastic Compliance Matrix: (Units=1/GPa)
#
#
# Indices 1 2 3 4 5 6 
#
# 1 0.021424 0.002388 -0.004769 0.000000 0.000358 0.000000
# 2 0.002388 0.013251 -0.001164 0.000000 -0.001023 0.000000
# 3 -0.004769 -0.001164 0.008035 0.000000 0.001513 0.000000
# 4 0.000000 0.000000 0.000000 -0.303485 0.000000 -0.105806
# 5 0.000358 -0.001023 0.001513 0.000000 0.024112 0.000000
# 6 0.000000 0.000000 0.000000 -0.105806 0.000000 -0.020201
#
#
# Mechanical properties :
#
#
# Convention : Reuss Voigt Hill
#
# Bulk Modulus (GPa) = 28.07452 37.82626 32.95039
# Shear Modulus (GPa) = -21.01712 37.71786 8.35037
#
# Velocity S-wave (km/s) = -3.02921 4.05805 1.90940
# Velocity P-wave (km/s) = 0.15023 6.20258 4.38718
#
# Compressibility (1/GPa) = 0.03561949
#
# Stress axis : x y z
#
# Youngs Moduli (GPa) = 46.67763 75.46575 124.45894
#
# Poissons Ratio (x) = -0.18020 0.59358
# Poissons Ratio (y) = -0.11146 0.14481
# Poissons Ratio (z) = 0.22262 0.08781
#
# Static dielectric constant tensor:
#      x y z
#    x 1.795960 0.000000 0.009520 
#    y 0.000000 1.892980 0.000000 
#    z 0.009520 0.000000 1.863830 
# 
# From -- ./inp_files/89511.got.cif
#   From: 2010.05.17/outbox.cif.g08.bks.cpg/sg10_45_cif.got.tgz:89511.got - 2010.06.03 11:33:40.
