data_PCOD9142404
_publ_section_title
;
Structure prediction by ZEFSAII (Michael W. Deem and Ramdas Pophale) SiO2 
 PCOD9142404
Probable space group: P 2/M
;
_chemical_formula_sum "Si O2"
_cell_formula_units_Z 24
_cell_length_a 10.005835
_cell_length_b 7.789244
_cell_length_c 23.260560
_cell_angle_alpha 90.000000
_cell_angle_beta 32.649398
_cell_angle_gamma 90.000000
_cell_volume 978.042606
_symmetry_space_group_name_H-M "P 2/M"
_symmetry_group_IT_number 10
_symmetry_cell_setting 'monoclinic'
loop_
_space_group_symop_operation_xyz
x,y,z
-x,y,-z
-x,-y,-z
x,-y,z
loop_
_atom_site_type_symbol
_atom_site_label
_atom_site_fract_x
_atom_site_fract_y
_atom_site_fract_z
Si Si1 0.711888 0.301198 0.242989
Si Si2 0.815016 0.202567 0.519457
Si Si3 0.734153 0.704122 0.809446
Si Si4 0.777160 0.793082 0.407791
Si Si5 0.354681 0.199042 0.862315
Si Si6 0.761024 0.297784 0.970696
O O1 0.716616 0.500000 0.258995
O O2 0.474386 0.217982 0.358888
O O3 0.663139 0.290626 0.191901
O O4 0.991009 0.225110 0.147875
O O5 0.855280 0.276182 0.441756
O O6 0.000000 0.277284 0.500000
O O7 0.870702 0.000000 0.495414
O O8 0.704850 0.500000 0.815996
O O9 0.633694 0.787656 0.786745
O O10 0.020121 0.743037 0.712541
O O11 0.524227 0.765505 0.930587
O O12 0.500000 0.730265 0.500000
O O13 0.769909 0.000000 0.411248
O O14 0.289936 0.000000 0.877914
O O15 0.207730 0.274931 0.970767
O O16 0.760575 0.500000 0.956485
#
# Coordination Sequence:
#
# PCOD9142404 Si02
#       6
#     4   4   4   4   4   4
#     4  11  20  32  50  74 109 146 184 228 280 335
#     4  10  22  38  55  79 113 148 185 230 276 327
#     4   9  18  33  52  76 106 138 181 229 273 323
#     4  10  21  38  59  83 112 146 185 231 280 329
#     4  10  18  28  46  75 109 145 184 223 273 332
#     4   8  18  32  47  73 109 144 179 228 281 325
#
# _framework density 24.538810000000002
#
# number of rings (size 3 to 8) (size 9 to 14) (size 15 to 20)
#    1.000    1.333    0.000    3.500    0.000    6.000 
#    0.000    0.000    0.000    1.000    0.000    7.000 
#    0.000    0.000    0.000    0.000    0.000    0.000 
#
# Total GULP energy -133859.669846 kJ/mol
# GULP energy per Si atom -5577.486244 kJ/mol
# Density = 2.448296 g / cm^3
# Si number density = 24.538810 Si / 1000 Ang^3
#
#
#
# Elastic Constant Matrix: (Units=GPa)
#
#
# Indices 1 2 3 4 5 6 
#
# 1 65.4928 7.7160 67.0357 0.0000 -3.3376 0.0000
# 2 7.7160 48.9299 -18.2753 0.0000 -1.6232 0.0000
# 3 67.0357 -18.2753 158.1661 0.0000 -27.3526 0.0000
# 4 0.0000 0.0000 0.0000 16.8298 0.0000 -2.9560
# 5 -3.3376 -1.6232 -27.3526 0.0000 45.1270 0.0000
# 6 0.0000 0.0000 0.0000 -2.9560 0.0000 -2.4060
#
#
#
# Elastic Compliance Matrix: (Units=1/GPa)
#
#
# Indices 1 2 3 4 5 6 
#
# 1 0.033840 -0.012028 -0.017174 0.000000 -0.008340 0.000000
# 2 -0.012028 0.025896 0.009045 0.000000 0.005524 0.000000
# 3 -0.017174 0.009045 0.016179 0.000000 0.008862 0.000000
# 4 0.000000 0.000000 0.000000 0.048872 0.000000 -0.060044
# 5 -0.008340 0.005524 0.008862 0.000000 0.027113 0.000000
# 6 0.000000 0.000000 0.000000 -0.060044 0.000000 -0.341854
#
#
# Mechanical properties :
#
#
# Convention : Reuss Voigt Hill
#
# Bulk Modulus (GPa) = 28.08904 42.83798 35.46351
# Shear Modulus (GPa) = -36.29145 26.31764 -4.98690
#
# Velocity S-wave (km/s) = -3.84987 3.27844 -1.42712
# Velocity P-wave (km/s) = 2.87930 5.64146 3.43043
#
# Compressibility (1/GPa) = 0.03560107
#
# Stress axis : x y z
#
# Youngs Moduli (GPa) = 29.55094 38.61638 61.80804
#
# Poissons Ratio (x) = 0.46447 1.06151
# Poissons Ratio (y) = 0.35543 -0.55907
# Poissons Ratio (z) = 0.50752 -0.34929
#
# Static dielectric constant tensor:
#      x y z
#    x 2.062530 0.000000 -0.049920 
#    y 0.000000 1.899820 0.000000 
#    z -0.049920 0.000000 1.990090 
# 
# From -- ./inp_files/92488.got.cif
#   From: 2010.05.17/outbox.cif.g08.bks.cpg/sg10_47_cif.got.tgz:92488.got - 2010.06.03 11:33:40.
