data_PCOD9142771
_publ_section_title
;
Structure prediction by ZEFSAII (Michael W. Deem and Ramdas Pophale) SiO2 
 PCOD9142771
Probable space group: P 2/M
;
_chemical_formula_sum "Si O2"
_cell_formula_units_Z 32
_cell_length_a 20.005229
_cell_length_b 9.075174
_cell_length_c 29.341765
_cell_angle_alpha 90.000000
_cell_angle_beta 156.764381
_cell_angle_gamma 90.000000
_cell_volume 2101.581784
_symmetry_space_group_name_H-M "P 2/M"
_symmetry_group_IT_number 10
_symmetry_cell_setting 'monoclinic'
loop_
_space_group_symop_operation_xyz
x,y,z
-x,y,-z
-x,-y,-z
x,-y,z
loop_
_atom_site_type_symbol
_atom_site_label
_atom_site_fract_x
_atom_site_fract_y
_atom_site_fract_z
Si Si1 0.754979 0.325395 0.938554
Si Si2 0.403609 0.823998 0.740664
Si Si3 0.257307 0.831793 0.163629
Si Si4 0.616084 0.171421 0.440540
Si Si5 0.840680 0.176873 0.498499
Si Si6 0.560596 0.325034 0.589180
Si Si7 0.875746 0.330304 0.378026
Si Si8 0.100236 0.825345 0.162412
O O1 0.753634 0.500000 0.943341
O O2 0.585208 0.252912 0.852231
O O3 0.755812 0.280860 0.885643
O O4 0.925967 0.254091 0.065578
O O5 0.300437 0.791238 0.629017
O O6 0.287603 0.761236 0.708614
O O7 0.421072 0.000000 0.754573
O O8 0.445011 0.825215 0.302828
O O9 0.134361 0.805636 0.129393
O O10 0.230994 0.000000 0.129902
O O11 0.765706 0.220048 0.500557
O O12 0.575882 0.266446 0.459675
O O13 0.642266 0.000000 0.469722
O O14 0.012782 0.256490 0.591661
O O15 0.864106 0.000000 0.512707
O O16 0.500000 0.295075 0.500000
O O17 0.583433 0.500000 0.609194
O O18 0.736935 0.243705 0.710863
O O19 0.833860 0.500000 0.341948
O O20 0.000000 0.328384 0.500000
O O21 0.092919 0.000000 0.166071
#
# Coordination Sequence:
#
# PCOD9142771 Si02
#       8
#     4   4   4   4   4   4   4   4
#     4  12  22  29  42  65  93 121 153 192 230 269
#     4  10  18  30  44  58  85 125 162 191 225 267
#     4   9  17  31  45  61  87 121 155 189 224 263
#     4   9  17  30  48  69  91 120 159 193 224 271
#     4   9  16  28  44  62  86 120 158 192 226 266
#     4  10  21  36  52  71  95 118 144 187 241 285
#     4   9  17  27  39  60  87 116 154 195 231 266
#     4  10  21  35  50  65  85 117 156 190 224 272
#
# _framework density 15.226626
#
# number of rings (size 3 to 8) (size 9 to 14) (size 15 to 20)
#    0.000    2.250    1.250    3.750    0.000    7.500 
#    0.000    0.000    0.000    0.000    0.000    0.000 
#    0.000    1.000    0.000   10.500    0.000    5.750 
#
# Total GULP energy -178490.577374 kJ/mol
# GULP energy per Si atom -5577.830543 kJ/mol
# Density = 1.519197 g / cm^3
# Si number density = 15.226626 Si / 1000 Ang^3
#
#
#
# Elastic Constant Matrix: (Units=GPa)
#
#
# Indices 1 2 3 4 5 6 
#
# 1 103.9901 67.8741 56.4912 0.0000 24.7036 0.0000
# 2 67.8741 95.9251 55.4084 0.0000 19.0813 0.0000
# 3 56.4912 55.4084 61.5802 0.0000 20.8606 0.0000
# 4 0.0000 0.0000 0.0000 11.5779 0.0000 1.9303
# 5 24.7036 19.0813 20.8606 0.0000 26.8925 0.0000
# 6 0.0000 0.0000 0.0000 1.9303 0.0000 23.0827
#
#
#
# Elastic Compliance Matrix: (Units=1/GPa)
#
#
# Indices 1 2 3 4 5 6 
#
# 1 0.022542 -0.008298 -0.011113 0.000000 -0.006199 0.000000
# 2 -0.008298 0.024763 -0.015327 0.000000 0.001941 0.000000
# 3 -0.011113 -0.015327 0.044873 0.000000 -0.013725 0.000000
# 4 0.000000 0.000000 0.000000 0.087593 0.000000 -0.007325
# 5 -0.006199 0.001941 -0.013725 0.000000 0.052149 0.000000
# 6 0.000000 0.000000 0.000000 -0.007325 0.000000 0.043935
#
#
# Mechanical properties :
#
#
# Convention : Reuss Voigt Hill
#
# Bulk Modulus (GPa) = 44.04532 69.00478 56.52505
# Shear Modulus (GPa) = 14.16842 17.75873 15.96357
#
# Velocity S-wave (km/s) = 3.05372 3.41881 3.24141
# Velocity P-wave (km/s) = 6.43607 7.81033 7.15626
#
# Compressibility (1/GPa) = 0.02270389
#
# Stress axis : x y z
#
# Youngs Moduli (GPa) = 44.36193 40.38268 22.28495
#
# Poissons Ratio (x) = 0.33510 0.24764
# Poissons Ratio (y) = 0.36812 0.34155
# Poissons Ratio (z) = 0.49298 0.61893
#
# Static dielectric constant tensor:
#      x y z
#    x 1.503340 0.000000 0.021510 
#    y 0.000000 1.505170 0.000000 
#    z 0.021510 0.000000 1.497820 
# 
# From -- ./inp_files/75988.got.cif
#   From: 2010.05.17/outbox.cif.g08.bks.cpg/sg10_38_cif.got.tgz:75988.got - 2010.06.03 11:33:40.
