data_PCOD9142670
_publ_section_title
;
Structure prediction by ZEFSAII (Michael W. Deem and Ramdas Pophale) SiO2 
 PCOD9142670
Probable space group: P 2/M
;
_chemical_formula_sum "Si O2"
_cell_formula_units_Z 32
_cell_length_a 21.288227
_cell_length_b 12.407601
_cell_length_c 8.328295
_cell_angle_alpha 90.000000
_cell_angle_beta 53.795507
_cell_angle_gamma 90.000000
_cell_volume 1775.050283
_symmetry_space_group_name_H-M "P 2/M"
_symmetry_group_IT_number 10
_symmetry_cell_setting 'monoclinic'
loop_
_space_group_symop_operation_xyz
x,y,z
-x,y,-z
-x,-y,-z
x,-y,z
loop_
_atom_site_type_symbol
_atom_site_label
_atom_site_fract_x
_atom_site_fract_y
_atom_site_fract_z
Si Si1 0.328721 0.126738 0.629194
Si Si2 0.279330 0.375758 0.079739
Si Si3 0.437545 0.882217 0.951779
Si Si4 0.571797 0.717667 0.303760
Si Si5 0.028727 0.871970 0.138955
Si Si6 0.709132 0.213421 0.659648
Si Si7 0.818539 0.808412 0.941025
Si Si8 0.868837 0.122152 0.521596
O O1 0.393624 0.188728 0.633606
O O2 0.316871 0.194662 0.483415
O O3 0.344826 0.000000 0.571459
O O4 0.250846 0.136303 0.855100
O O5 0.257796 0.500000 0.120828
O O6 0.294125 0.324846 0.234918
O O7 0.215916 0.301945 0.082595
O O8 0.358491 0.358050 0.859079
O O9 0.456411 0.783829 0.808274
O O10 0.440622 0.000000 0.867813
O O11 0.500000 0.881933 0.000000
O O12 0.349960 0.862762 0.149644
O O13 0.500000 0.662618 0.500000
O O14 0.105729 0.804773 0.061649
O O15 0.955829 0.837069 0.359288
O O16 0.045667 0.000000 0.141182
O O17 0.000000 0.860950 0.000000
O O18 0.799110 0.179924 0.534765
O O19 0.845783 0.873129 0.742405
O O20 0.869769 0.000000 0.460311
#
# Coordination Sequence:
#
# PCOD9142670 Si02
#       8
#     4   4   4   4   4   4   4   4
#     4  11  20  31  51  80 115 146 169 204 260 327
#     4   9  21  41  60  74  95 135 184 234 276 305
#     4  10  19  31  49  74 109 149 180 209 253 317
#     4  10  21  34  52  80 109 136 174 218 266 322
#     4  10  19  30  48  78 116 151 177 207 255 317
#     4  10  20  33  51  74 102 138 182 223 261 312
#     4  10  20  33  52  77 106 138 179 220 261 314
#     4  10  18  29  48  74 107 144 177 210 255 314
#
# _framework density 18.027659
#
# number of rings (size 3 to 8) (size 9 to 14) (size 15 to 20)
#    0.000    2.000    0.000    5.250    0.000    4.250 
#    0.000    2.500    0.000   19.125    0.000    0.000 
#    0.000    0.000    0.000    0.000    0.000    0.000 
#
# Total GULP energy -178430.530724 kJ/mol
# GULP energy per Si atom -5575.954085 kJ/mol
# Density = 1.798663 g / cm^3
# Si number density = 18.027659 Si / 1000 Ang^3
#
#
#
# Elastic Constant Matrix: (Units=GPa)
#
#
# Indices 1 2 3 4 5 6 
#
# 1 74.1928 24.1808 12.9458 0.0000 2.2004 0.0000
# 2 24.1808 82.3187 8.2017 0.0000 2.7111 0.0000
# 3 12.9458 8.2017 80.2663 0.0000 -8.6435 0.0000
# 4 0.0000 0.0000 0.0000 5.6255 0.0000 -0.0977
# 5 2.2004 2.7111 -8.6435 0.0000 35.5506 0.0000
# 6 0.0000 0.0000 0.0000 -0.0977 0.0000 7.8149
#
#
#
# Elastic Compliance Matrix: (Units=1/GPa)
#
#
# Indices 1 2 3 4 5 6 
#
# 1 0.015268 -0.004233 -0.002153 0.000000 -0.001146 0.000000
# 2 -0.004233 0.013503 -0.000801 0.000000 -0.000962 0.000000
# 3 -0.002153 -0.000801 0.013256 0.000000 0.003417 0.000000
# 4 0.000000 0.000000 0.000000 0.177801 0.000000 0.002222
# 5 -0.001146 -0.000962 0.003417 0.000000 0.029104 0.000000
# 6 0.000000 0.000000 0.000000 0.002222 0.000000 0.127989
#
#
# Mechanical properties :
#
#
# Convention : Reuss Voigt Hill
#
# Bulk Modulus (GPa) = 36.16277 36.38159 36.27218
# Shear Modulus (GPa) = 12.48407 22.56149 17.52278
#
# Velocity S-wave (km/s) = 2.63439 3.54148 3.12106
# Velocity P-wave (km/s) = 5.41816 6.07845 5.75778
#
# Compressibility (1/GPa) = 0.02765275
#
# Stress axis : x y z
#
# Youngs Moduli (GPa) = 65.49834 74.05944 75.43963
#
# Poissons Ratio (x) = 0.31346 0.16245
# Poissons Ratio (y) = 0.27722 0.06041
# Poissons Ratio (z) = 0.14104 0.05930
#
# Static dielectric constant tensor:
#      x y z
#    x 1.638190 0.000000 0.002910 
#    y 0.000000 1.578760 0.000000 
#    z 0.002910 0.000000 1.662380 
# 
# From -- ./inp_files/34803.got.cif
#   From: 2010.05.17/outbox.cif.g08.bks.cpg/sg10_18_cif.got.tgz:34803.got - 2010.06.03 11:33:40.
