data_PCOD9142218
_publ_section_title
;
Structure prediction by ZEFSAII (Michael W. Deem and Ramdas Pophale) SiO2 
 PCOD9142218
Probable space group: P 2/M
;
_chemical_formula_sum "Si O2"
_cell_formula_units_Z 28
_cell_length_a 21.605968
_cell_length_b 8.908245
_cell_length_c 14.324552
_cell_angle_alpha 90.000000
_cell_angle_beta 138.648254
_cell_angle_gamma 90.000000
_cell_volume 1821.537095
_symmetry_space_group_name_H-M "P 2/M"
_symmetry_group_IT_number 10
_symmetry_cell_setting 'monoclinic'
loop_
_space_group_symop_operation_xyz
x,y,z
-x,y,-z
-x,-y,-z
x,-y,z
loop_
_atom_site_type_symbol
_atom_site_label
_atom_site_fract_x
_atom_site_fract_y
_atom_site_fract_z
Si Si1 0.103962 0.672895 0.571371
Si Si2 0.719126 0.817785 0.692110
Si Si3 0.169251 0.681535 0.839659
Si Si4 0.520489 0.172939 0.411554
Si Si5 0.669347 0.679059 0.835335
Si Si6 0.919123 0.817148 0.837072
Si Si7 0.976405 0.820397 0.694459
O O1 0.126283 0.500000 0.573582
O O2 0.168841 0.727242 0.730082
O O3 0.094342 0.768181 0.466981
O O4 0.000000 0.674028 0.500000
O O5 0.627762 0.773225 0.527992
O O6 0.707093 0.752365 0.782208
O O7 0.816929 0.770779 0.757369
O O8 0.716617 0.000000 0.696199
O O9 0.158773 0.500000 0.828397
O O10 0.077762 0.751024 0.785093
O O11 0.261398 0.721538 0.002074
O O12 0.500000 0.174748 0.500000
O O13 0.437237 0.266553 0.271795
O O14 0.514575 0.000000 0.373891
O O15 0.670931 0.500000 0.826837
O O16 0.942600 0.770473 0.758353
O O17 0.919403 0.000000 0.837998
O O18 0.000000 0.767303 0.000000
O O19 0.984312 0.000000 0.702597
#
# Coordination Sequence:
#
# PCOD9142218 Si02
#       7
#     4   4   4   4   4   4   4
#     4   8  15  29  44  56  79 113 139 162 204 257
#     4   9  17  30  44  58  83 117 144 164 197 250
#     4   9  18  30  42  59  85 115 138 161 207 259
#     4   8  15  27  42  59  80 109 140 166 202 252
#     4  10  18  27  42  64  86 106 135 176 211 239
#     4   9  17  28  42  61  85 113 141 167 198 236
#     4  10  18  27  43  65  84 106 141 178 202 229
#
# _framework density 15.371632
#
# number of rings (size 3 to 8) (size 9 to 14) (size 15 to 20)
#    0.000    3.000    0.000    3.429    0.000    7.429 
#    0.000    1.429    0.000    3.857    0.000    1.000 
#    0.000    8.000    0.000    0.000    0.000    0.000 
#
# Total GULP energy -155892.007464 kJ/mol
# GULP energy per Si atom -5567.571695 kJ/mol
# Density = 1.533665 g / cm^3
# Si number density = 15.371632 Si / 1000 Ang^3
#
#
#
# Elastic Constant Matrix: (Units=GPa)
#
#
# Indices 1 2 3 4 5 6 
#
# 1 79.5421 17.9466 67.3529 0.0000 8.4537 0.0000
# 2 17.9466 19.8430 36.4381 0.0000 1.3513 0.0000
# 3 67.3529 36.4381 158.7192 0.0000 7.0575 0.0000
# 4 0.0000 0.0000 0.0000 23.8108 0.0000 -1.7348
# 5 8.4537 1.3513 7.0575 0.0000 24.7121 0.0000
# 6 0.0000 0.0000 0.0000 -1.7348 0.0000 0.3281
#
#
#
# Elastic Compliance Matrix: (Units=1/GPa)
#
#
# Indices 1 2 3 4 5 6 
#
# 1 0.020335 -0.004509 -0.007390 0.000000 -0.004600 0.000000
# 2 -0.004509 0.088148 -0.018411 0.000000 0.001981 0.000000
# 3 -0.007390 -0.018411 0.013680 0.000000 -0.000372 0.000000
# 4 0.000000 0.000000 0.000000 0.068319 0.000000 0.361273
# 5 -0.004600 0.001981 -0.000372 0.000000 0.042037 0.000000
# 6 0.000000 0.000000 0.000000 0.361273 0.000000 4.958703
#
#
# Mechanical properties :
#
#
# Convention : Reuss Voigt Hill
#
# Bulk Modulus (GPa) = 16.24879 55.73105 35.98992
# Shear Modulus (GPa) = 0.94834 18.86130 9.90482
#
# Velocity S-wave (km/s) = 0.78631 3.50668 2.54117
# Velocity P-wave (km/s) = 3.37905 7.26156 5.66340
#
# Compressibility (1/GPa) = 0.06154305
#
# Stress axis : x y z
#
# Youngs Moduli (GPa) = 49.17530 11.34459 73.10137
#
# Poissons Ratio (x) = 0.05115 0.54020
# Poissons Ratio (y) = 0.22172 1.34589
# Poissons Ratio (z) = 0.36339 0.20887
#
# Static dielectric constant tensor:
#      x y z
#    x 1.495080 0.000000 0.012290 
#    y 0.000000 1.518720 0.000000 
#    z 0.012290 0.000000 1.537170 
# 
# From -- ./inp_files/55000.got.cif
#   From: 2010.05.17/outbox.cif.g08.bks.cpg/sg10_28_cif.got.tgz:55000.got - 2010.06.03 11:33:40.
