data_PCOD9142890
_publ_section_title
;
Structure prediction by ZEFSAII (Michael W. Deem and Ramdas Pophale) SiO2 
 PCOD9142890
Probable space group: P 2/M
;
_chemical_formula_sum "Si O2"
_cell_formula_units_Z 32
_cell_length_a 26.159930
_cell_length_b 8.981668
_cell_length_c 20.774855
_cell_angle_alpha 90.000000
_cell_angle_beta 160.527864
_cell_angle_gamma 90.000000
_cell_volume 1627.158825
_symmetry_space_group_name_H-M "P 2/M"
_symmetry_group_IT_number 10
_symmetry_cell_setting 'monoclinic'
loop_
_space_group_symop_operation_xyz
x,y,z
-x,y,-z
-x,-y,-z
x,-y,z
loop_
_atom_site_type_symbol
_atom_site_label
_atom_site_fract_x
_atom_site_fract_y
_atom_site_fract_z
Si Si1 0.327515 0.824102 0.370959
Si Si2 0.311812 0.322228 0.625657
Si Si3 0.694090 0.327043 0.922490
Si Si4 0.197675 0.173520 0.612296
Si Si5 0.301290 0.175983 0.200704
Si Si6 0.369557 0.673947 0.926475
Si Si7 0.634107 0.179584 0.443756
Si Si8 0.903455 0.331208 0.295855
O O1 0.512805 0.812362 0.584810
O O2 0.261024 0.765334 0.224447
O O3 0.290268 0.768864 0.398451
O O4 0.292025 0.000000 0.328292
O O5 0.302653 0.500000 0.608662
O O6 0.199723 0.261823 0.547485
O O7 0.293873 0.246842 0.535058
O O8 0.480343 0.283374 0.854722
O O9 0.649466 0.500000 0.861653
O O10 0.758585 0.263855 0.931963
O O11 0.542238 0.235395 0.761889
O O12 0.815586 0.318090 0.123860
O O13 0.330572 0.233752 0.816856
O O14 0.038805 0.213761 0.458409
O O15 0.214971 0.000000 0.621113
O O16 0.264332 0.000000 0.152195
O O17 0.386203 0.500000 0.928531
O O18 0.224441 0.687116 0.801606
O O19 0.636455 0.000000 0.444774
O O20 0.967773 0.500000 0.377815
#
# Coordination Sequence:
#
# PCOD9142890 Si02
#       8
#     4   4   4   4   4   4   4   4
#     4   7  12  23  40  64  98 137 171 204 255 313
#     4  11  22  39  59  80 106 142 179 214 261 322
#     4  10  18  30  48  74 104 137 178 217 259 312
#     4  12  26  39  54  82 110 135 174 224 269 311
#     4   8  13  24  41  64  97 137 174 209 254 306
#     4  10  21  40  62  80 102 139 178 213 263 325
#     4  10  18  30  50  75 104 138 175 219 262 305
#     4  10  21  39  58  77 105 144 181 214 261 322
#
# _framework density 19.666180000000001
#
# number of rings (size 3 to 8) (size 9 to 14) (size 15 to 20)
#    0.000    2.250    1.250    4.500    0.000    5.500 
#    0.000    5.625    0.000    0.000    0.000    0.875 
#    0.000    7.000    0.000    0.000    0.000    0.000 
#
# Total GULP energy -178532.142238 kJ/mol
# GULP energy per Si atom -5579.129445 kJ/mol
# Density = 1.962142 g / cm^3
# Si number density = 19.666180 Si / 1000 Ang^3
#
#
#
# Elastic Constant Matrix: (Units=GPa)
#
#
# Indices 1 2 3 4 5 6 
#
# 1 121.4903 36.1357 20.1629 0.0000 -32.4386 0.0000
# 2 36.1357 54.5766 8.1231 0.0000 -14.2891 0.0000
# 3 20.1629 8.1231 11.4848 0.0000 -7.9950 0.0000
# 4 0.0000 0.0000 0.0000 39.9385 0.0000 29.2882
# 5 -32.4386 -14.2891 -7.9950 0.0000 34.0995 0.0000
# 6 0.0000 0.0000 0.0000 29.2882 0.0000 92.2975
#
#
#
# Elastic Compliance Matrix: (Units=1/GPa)
#
#
# Indices 1 2 3 4 5 6 
#
# 1 0.014605 -0.005153 -0.016524 0.000000 0.007860 0.000000
# 2 -0.005153 0.023454 -0.004915 0.000000 0.003774 0.000000
# 3 -0.016524 -0.004915 0.128088 0.000000 0.012252 0.000000
# 4 0.000000 0.000000 0.000000 0.032632 0.000000 -0.010355
# 5 0.007860 0.003774 0.012252 0.000000 0.041257 0.000000
# 6 0.000000 0.000000 0.000000 -0.010355 0.000000 0.014120
#
#
# Mechanical properties :
#
#
# Convention : Reuss Voigt Hill
#
# Bulk Modulus (GPa) = 8.85253 35.15499 22.00376
# Shear Modulus (GPa) = 14.49293 41.47577 27.98435
#
# Velocity S-wave (km/s) = 2.71762 4.59736 3.77632
# Velocity P-wave (km/s) = 3.78926 6.78937 5.49791
#
# Compressibility (1/GPa) = 0.11296211
#
# Stress axis : x y z
#
# Youngs Moduli (GPa) = 68.47072 42.63621 7.80713
#
# Poissons Ratio (x) = 0.21969 0.12901
# Poissons Ratio (y) = 0.35281 0.03838
# Poissons Ratio (z) = 1.13143 0.20958
#
# Static dielectric constant tensor:
#      x y z
#    x 1.738360 0.000000 -0.011250 
#    y 0.000000 1.659080 0.000000 
#    z -0.011250 0.000000 1.691060 
# 
# From -- ./inp_files/86964.got.cif
#   From: 2010.05.17/outbox.cif.g08.bks.cpg/sg10_44_cif.got.tgz:86964.got - 2010.06.03 11:33:40.
