data_PCOD9142325
_publ_section_title
;
Structure prediction by ZEFSAII (Michael W. Deem and Ramdas Pophale) SiO2 
 PCOD9142325
Probable space group: P 2/M
;
_chemical_formula_sum "Si O2"
_cell_formula_units_Z 28
_cell_length_a 18.293205
_cell_length_b 13.247433
_cell_length_c 15.836974
_cell_angle_alpha 90.000000
_cell_angle_beta 29.539812
_cell_angle_gamma 90.000000
_cell_volume 1892.193318
_symmetry_space_group_name_H-M "P 2/M"
_symmetry_group_IT_number 10
_symmetry_cell_setting 'monoclinic'
loop_
_space_group_symop_operation_xyz
x,y,z
-x,y,-z
-x,-y,-z
x,-y,z
loop_
_atom_site_type_symbol
_atom_site_label
_atom_site_fract_x
_atom_site_fract_y
_atom_site_fract_z
Si Si1 0.326369 0.194954 0.691875
Si Si2 0.666024 0.877406 0.989487
Si Si3 0.831422 0.616920 0.203537
Si Si4 0.164657 0.794244 0.687373
Si Si5 0.841337 0.119540 0.979497
Si Si6 0.674848 0.877682 0.637588
Si Si7 0.169028 0.122762 0.344716
O O1 0.500000 0.185445 0.500000
O O2 0.275405 0.312822 0.746112
O O3 0.234238 0.156347 0.702618
O O4 0.273379 0.141262 0.829789
O O5 0.729043 0.843526 0.835913
O O6 0.667940 0.000000 0.986447
O O7 0.770955 0.846195 0.961489
O O8 0.496384 0.848849 0.176635
O O9 0.790974 0.500000 0.247262
O O10 0.826180 0.675629 0.298264
O O11 0.000000 0.625789 0.000000
O O12 0.256907 0.827360 0.513744
O O13 0.995492 0.826519 0.845241
O O14 0.869650 0.000000 0.945215
O O15 0.766637 0.848693 0.629022
O O16 0.683152 0.000000 0.620154
O O17 0.000000 0.155358 0.500000
O O18 0.169600 0.000000 0.342922
#
# Coordination Sequence:
#
# PCOD9142325 Si02
#       7
#     4   4   4   4   4   4   4
#     4  10  20  33  47  69  94 121 154 193 229 281
#     4   9  18  29  42  62  90 127 162 194 228 261
#     4   9  18  36  54  69  90 116 152 198 246 280
#     4  10  19  32  45  69  88 122 156 192 227 282
#     4  11  20  31  45  64  94 131 163 189 223 268
#     4  10  18  28  44  65  95 126 154 192 231 271
#     4   9  16  27  42  62  87 123 164 195 223 262
#
# _framework density 14.797642
#
# number of rings (size 3 to 8) (size 9 to 14) (size 15 to 20)
#    0.857    1.429    1.429    3.000    0.000    6.286 
#    0.000    0.000    0.000    0.000    0.000    0.000 
#    0.000    8.571    0.000    0.000    0.000    0.286 
#
# Total GULP energy -155878.951819 kJ/mol
# GULP energy per Si atom -5567.105422 kJ/mol
# Density = 1.476396 g / cm^3
# Si number density = 14.797642 Si / 1000 Ang^3
#
#
#
# Elastic Constant Matrix: (Units=GPa)
#
#
# Indices 1 2 3 4 5 6 
#
# 1 55.4450 7.5974 -2.2314 0.0000 11.7950 0.0000
# 2 7.5974 20.8451 -3.3273 0.0000 3.3243 0.0000
# 3 -2.2314 -3.3273 58.3242 0.0000 11.2396 0.0000
# 4 0.0000 0.0000 0.0000 12.6088 0.0000 -5.4026
# 5 11.7950 3.3243 11.2396 0.0000 32.6466 0.0000
# 6 0.0000 0.0000 0.0000 -5.4026 0.0000 0.8711
#
#
#
# Elastic Compliance Matrix: (Units=1/GPa)
#
#
# Indices 1 2 3 4 5 6 
#
# 1 0.020517 -0.005990 0.001879 0.000000 -0.007450 0.000000
# 2 -0.005990 0.051403 0.003529 0.000000 -0.004285 0.000000
# 3 0.001879 0.003529 0.018871 0.000000 -0.007535 0.000000
# 4 0.000000 0.000000 0.000000 -0.047847 0.000000 -0.296761
# 5 -0.007450 -0.004285 -0.007535 0.000000 0.036353 0.000000
# 6 0.000000 0.000000 0.000000 -0.296761 0.000000 -0.692586
#
#
# Mechanical properties :
#
#
# Convention : Reuss Voigt Hill
#
# Bulk Modulus (GPa) = 11.15742 15.41020 13.28381
# Shear Modulus (GPa) = -8.58738 18.06365 4.73814
#
# Velocity S-wave (km/s) = -2.41160 3.49766 1.79134
# Velocity P-wave (km/s) = 0.44502 5.17185 3.64349
#
# Compressibility (1/GPa) = 0.08962646
#
# Stress axis : x y z
#
# Youngs Moduli (GPa) = 48.73992 19.45423 52.99189
#
# Poissons Ratio (x) = 0.11653 -0.09956
# Poissons Ratio (y) = 0.29195 -0.18701
# Poissons Ratio (z) = -0.09157 -0.06865
#
# Static dielectric constant tensor:
#      x y z
#    x 1.495700 0.000000 -0.005900 
#    y 0.000000 1.468850 0.000000 
#    z -0.005900 0.000000 1.488200 
# 
# From -- ./inp_files/69226.got.cif
#   From: 2010.05.17/outbox.cif.g08.bks.cpg/sg10_35_cif.got.tgz:69226.got - 2010.06.03 11:33:40.
