data_PCOD9142657
_publ_section_title
;
Structure prediction by ZEFSAII (Michael W. Deem and Ramdas Pophale) SiO2 
 PCOD9142657
Probable space group: P 2/M
;
_chemical_formula_sum "Si O2"
_cell_formula_units_Z 32
_cell_length_a 24.140320
_cell_length_b 9.225342
_cell_length_c 12.683799
_cell_angle_alpha 90.000000
_cell_angle_beta 46.228535
_cell_angle_gamma 90.000000
_cell_volume 2039.741391
_symmetry_space_group_name_H-M "P 2/M"
_symmetry_group_IT_number 10
_symmetry_cell_setting 'monoclinic'
loop_
_space_group_symop_operation_xyz
x,y,z
-x,y,-z
-x,-y,-z
x,-y,z
loop_
_atom_site_type_symbol
_atom_site_label
_atom_site_fract_x
_atom_site_fract_y
_atom_site_fract_z
Si Si1 0.082262 0.673203 0.445271
Si Si2 0.653976 0.171977 0.165479
Si Si3 0.825002 0.172525 0.256495
Si Si4 0.501414 0.333090 0.626353
Si Si5 0.344456 0.171984 0.585109
Si Si6 0.804199 0.672009 0.894235
Si Si7 0.071243 0.172280 0.680855
Si Si8 0.086020 0.327127 0.048941
O O1 0.083196 0.500000 0.465262
O O2 0.148238 0.706604 0.273667
O O3 0.089879 0.759928 0.543140
O O4 0.000000 0.705448 0.500000
O O5 0.573880 0.246247 0.239476
O O6 0.665176 0.199309 0.276551
O O7 0.649867 0.000000 0.155984
O O8 0.726419 0.239662 0.011072
O O9 0.735417 0.211082 0.365030
O O10 0.861508 0.196413 0.322760
O O11 0.831367 0.000000 0.223574
O O12 0.872740 0.261186 0.107325
O O13 0.500000 0.329532 0.500000
O O14 0.498052 0.500000 0.663918
O O15 0.581397 0.258545 0.551511
O O16 0.358172 0.000000 0.554699
O O17 0.787180 0.500000 0.916563
O O18 0.859708 0.699567 0.921101
O O19 0.994697 0.249424 0.824761
O O20 0.058143 0.000000 0.689535
O O21 0.075422 0.500000 0.052690
#
# Coordination Sequence:
#
# PCOD9142657 Si02
#       8
#     4   4   4   4   4   4   4   4
#     4  10  20  38  56  71  96 130 169 214 260 300
#     4  10  18  29  48  72  99 131 166 201 241 298
#     4  10  21  36  50  72 105 137 168 208 252 295
#     4   9  17  28  44  68 100 132 162 199 241 289
#     4   9  17  30  47  68  98 134 166 196 240 294
#     4  10  20  33  51  73  99 131 165 209 256 295
#     4  11  23  36  52  73 100 133 172 214 254 298
#     4  11  21  34  52  73 100 134 172 209 251 301
#
# _framework density 15.688264
#
# number of rings (size 3 to 8) (size 9 to 14) (size 15 to 20)
#    0.000    2.000    2.500    1.875    0.000    6.250 
#    0.000    0.000    0.000    0.000    0.000    0.875 
#    0.000    7.000    0.000    0.000    0.000    0.000 
#
# Total GULP energy -178580.474798 kJ/mol
# GULP energy per Si atom -5580.639837 kJ/mol
# Density = 1.565256 g / cm^3
# Si number density = 15.688264 Si / 1000 Ang^3
#
#
#
# Elastic Constant Matrix: (Units=GPa)
#
#
# Indices 1 2 3 4 5 6 
#
# 1 105.4694 74.1815 86.6722 0.0000 -10.4986 0.0000
# 2 74.1815 78.5425 75.6843 0.0000 -14.2818 0.0000
# 3 86.6722 75.6843 102.9575 0.0000 -27.7085 0.0000
# 4 0.0000 0.0000 0.0000 30.4361 0.0000 -6.1828
# 5 -10.4986 -14.2818 -27.7085 0.0000 27.2685 0.0000
# 6 0.0000 0.0000 0.0000 -6.1828 0.0000 20.9838
#
#
#
# Elastic Compliance Matrix: (Units=1/GPa)
#
#
# Indices 1 2 3 4 5 6 
#
# 1 0.045094 -0.013992 -0.034376 0.000000 -0.024897 0.000000
# 2 -0.013992 0.051878 -0.028208 0.000000 -0.006879 0.000000
# 3 -0.034376 -0.028208 0.071365 0.000000 0.044508 0.000000
# 4 0.000000 0.000000 0.000000 0.034947 0.000000 0.010297
# 5 -0.024897 -0.006879 0.044508 0.000000 0.068709 0.000000
# 6 0.000000 0.000000 0.000000 0.010297 0.000000 0.050690
#
#
# Mechanical properties :
#
#
# Convention : Reuss Voigt Hill
#
# Bulk Modulus (GPa) = 65.85590 84.44950 75.15270
# Shear Modulus (GPa) = 10.39726 19.09978 14.74852
#
# Velocity S-wave (km/s) = 2.57717 3.49299 3.06943
# Velocity P-wave (km/s) = 7.13615 8.37941 7.78265
#
# Compressibility (1/GPa) = 0.01518467
#
# Stress axis : x y z
#
# Youngs Moduli (GPa) = 22.17605 19.27605 14.01252
#
# Poissons Ratio (x) = 0.26972 0.48169
# Poissons Ratio (y) = 0.31030 0.39526
# Poissons Ratio (z) = 0.76232 0.54373
#
# Static dielectric constant tensor:
#      x y z
#    x 1.510180 0.000000 -0.007190 
#    y 0.000000 1.523170 0.000000 
#    z -0.007190 0.000000 1.496550 
# 
# From -- ./inp_files/54870.got.cif
#   From: 2010.05.17/outbox.cif.g08.bks.cpg/sg10_28_cif.got.tgz:54870.got - 2010.06.03 11:33:40.
