data_PCOD9142818
_publ_section_title
;
Structure prediction by ZEFSAII (Michael W. Deem and Ramdas Pophale) SiO2 
 PCOD9142818
Probable space group: P 2/M
;
_chemical_formula_sum "Si O2"
_cell_formula_units_Z 32
_cell_length_a 31.830117
_cell_length_b 8.579394
_cell_length_c 15.534185
_cell_angle_alpha 90.000000
_cell_angle_beta 151.529534
_cell_angle_gamma 90.000000
_cell_volume 2022.244500
_symmetry_space_group_name_H-M "P 2/M"
_symmetry_group_IT_number 10
_symmetry_cell_setting 'monoclinic'
loop_
_space_group_symop_operation_xyz
x,y,z
-x,y,-z
-x,-y,-z
x,-y,z
loop_
_atom_site_type_symbol
_atom_site_label
_atom_site_fract_x
_atom_site_fract_y
_atom_site_fract_z
Si Si1 0.435694 0.810670 0.261567
Si Si2 0.710082 0.811565 0.342032
Si Si3 0.368704 0.811536 0.322801
Si Si4 0.422904 0.190113 0.045796
Si Si5 0.623932 0.188366 0.370252
Si Si6 0.895321 0.314805 0.724390
Si Si7 0.751242 0.315375 0.748680
Si Si8 0.084281 0.815039 0.047231
O O1 0.377990 0.762145 0.239871
O O2 0.537500 0.768654 0.464165
O O3 0.434028 0.000000 0.258350
O O4 0.408036 0.757057 0.117195
O O5 0.649841 0.759013 0.153849
O O6 0.662145 0.770502 0.345597
O O7 0.807433 0.741471 0.519009
O O8 0.716658 0.000000 0.351639
O O9 0.290518 0.738782 0.236600
O O10 0.362060 0.000000 0.314309
O O11 0.421495 0.000000 0.043065
O O12 0.521900 0.234600 0.196263
O O13 0.683298 0.261014 0.551924
O O14 0.628637 0.000000 0.387866
O O15 0.902832 0.500000 0.735887
O O16 0.889650 0.260149 0.813832
O O17 0.985076 0.240178 0.850026
O O18 0.760429 0.500000 0.762587
O O19 0.844476 0.237823 0.894012
O O20 0.086381 0.000000 0.061485
#
# Coordination Sequence:
#
# PCOD9142818 Si02
#       8
#     4   4   4   4   4   4   4   4
#     4   8  14  26  48  73  94 123 166 213 245 276
#     4  10  19  30  48  72  98 133 173 205 235 281
#     4   9  16  29  49  70  94 126 166 205 246 291
#     4   9  16  28  48  73  97 128 174 214 239 270
#     4  10  18  30  47  67  97 134 173 206 234 276
#     4  11  21  34  50  72 101 128 157 198 246 291
#     4  12  22  31  46  72 102 131 159 197 249 299
#     4  11  21  35  54  72  93 124 164 203 241 289
#
# _framework density 15.824002
#
# number of rings (size 3 to 8) (size 9 to 14) (size 15 to 20)
#    0.000    2.000    2.500    5.250    0.000    1.500 
#    0.000    1.875    0.000    1.500    0.000    0.875 
#    0.000    7.000    0.000    0.000    0.000    0.000 
#
# Total GULP energy -178562.128806 kJ/mol
# GULP energy per Si atom -5580.066525 kJ/mol
# Density = 1.578799 g / cm^3
# Si number density = 15.824002 Si / 1000 Ang^3
#
#
#
# Elastic Constant Matrix: (Units=GPa)
#
#
# Indices 1 2 3 4 5 6 
#
# 1 89.2822 -9.7652 36.6802 0.0000 9.1563 0.0000
# 2 -9.7652 -1.0284 -9.6425 0.0000 -0.2876 0.0000
# 3 36.6802 -9.6425 73.5682 0.0000 5.5733 0.0000
# 4 0.0000 0.0000 0.0000 -41.0239 0.0000 -8.2788
# 5 9.1563 -0.2876 5.5733 0.0000 22.1701 0.0000
# 6 0.0000 0.0000 0.0000 -8.2788 0.0000 -7.8949
#
#
#
# Elastic Compliance Matrix: (Units=1/GPa)
#
#
# Indices 1 2 3 4 5 6 
#
# 1 0.012442 -0.027507 -0.009575 0.000000 -0.003088 0.000000
# 2 -0.027507 -0.373739 -0.036458 0.000000 0.015678 0.000000
# 3 -0.009575 -0.036458 0.013583 0.000000 0.000067 0.000000
# 4 0.000000 0.000000 0.000000 -0.030919 0.000000 0.032423
# 5 -0.003088 0.015678 0.000067 0.000000 0.046568 0.000000
# 6 0.000000 0.000000 0.000000 0.032423 0.000000 -0.160664
#
#
# Mechanical properties :
#
#
# Convention : Reuss Voigt Hill
#
# Bulk Modulus (GPa) = -2.02104 21.81857 9.89876
# Shear Modulus (GPa) = -9.79279 4.28688 -2.75295
#
# Velocity S-wave (km/s) = -2.49038 1.64772 -1.32042
# Velocity P-wave (km/s) = 3.09020 4.17591 1.98606
#
# Compressibility (1/GPa) = -0.49479473
#
# Stress axis : x y z
#
# Youngs Moduli (GPa) = 80.37075 -2.67566 73.62058
#
# Poissons Ratio (x) = -0.07360 0.70491
# Poissons Ratio (y) = 2.21075 2.68410
# Poissons Ratio (z) = 0.76954 -0.09755
#
# Static dielectric constant tensor:
#      x y z
#    x 1.533400 0.000000 0.000740 
#    y 0.000000 1.530570 0.000000 
#    z 0.000740 0.000000 1.510690 
# 
# From -- ./inp_files/66084.got.cif
#   From: 2010.05.17/outbox.cif.g08.bks.cpg/sg10_34_cif.got.tgz:66084.got - 2010.06.03 11:33:40.
