data_PCOD9142067
_publ_section_title
;
Structure prediction by ZEFSAII (Michael W. Deem and Ramdas Pophale) SiO2 
 PCOD9142067
Probable space group: P 2/M
;
_chemical_formula_sum "Si O2"
_cell_formula_units_Z 32
_cell_length_a 9.929865
_cell_length_b 18.986605
_cell_length_c 11.674419
_cell_angle_alpha 90.000000
_cell_angle_beta 123.340178
_cell_angle_gamma 90.000000
_cell_volume 1838.789126
_symmetry_space_group_name_H-M "P 2/M"
_symmetry_group_IT_number 10
_symmetry_cell_setting 'monoclinic'
loop_
_space_group_symop_operation_xyz
x,y,z
-x,y,-z
-x,-y,-z
x,-y,z
loop_
_atom_site_type_symbol
_atom_site_label
_atom_site_fract_x
_atom_site_fract_y
_atom_site_fract_z
Si Si1 0.185789 0.082902 0.603718
Si Si2 0.607769 0.193330 0.437618
Si Si3 0.903132 0.422059 0.571753
Si Si4 0.878014 0.281806 0.688864
Si Si5 0.523286 0.580733 0.378971
Si Si6 0.352979 0.292864 0.201213
Si Si7 0.123707 0.795539 0.951065
Si Si8 0.310316 0.917838 0.920897
O O1 0.308836 0.127363 0.584077
O O2 0.234350 0.090333 0.759149
O O3 0.000000 0.105711 0.500000
O O4 0.195371 0.000000 0.578377
O O5 0.500000 0.176034 0.500000
O O6 0.753297 0.244615 0.544405
O O7 0.488891 0.235599 0.297765
O O8 0.933151 0.500000 0.637263
O O9 0.938454 0.355788 0.668175
O O10 0.714248 0.418906 0.452699
O O11 0.000000 0.416477 0.500000
O O12 0.774938 0.295305 0.754924
O O13 0.020834 0.230484 0.794399
O O14 0.500000 0.607038 0.500000
O O15 0.463762 0.500000 0.346984
O O16 0.437575 0.631351 0.248408
O O17 0.251846 0.264779 0.046871
O O18 0.219479 0.866057 0.964775
O O19 0.000000 0.805931 0.000000
O O20 0.295450 0.000000 0.948017
O O21 0.500000 0.901132 0.000000
#
# Coordination Sequence:
#
# PCOD9142067 Si02
#       8
#     4   4   4   4   4   4   4   4
#     4  10  21  36  54  79 110 139 173 219 268 323
#     4  10  19  33  56  79 105 136 178 223 263 316
#     4  10  20  33  52  80 109 138 178 222 260 312
#     4  10  19  34  52  77 107 139 171 217 270 314
#     4  10  17  31  57  80 103 141 182 220 263 312
#     4  10  18  34  52  79 106 132 178 224 259 308
#     4  10  22  36  54  78 111 142 174 224 273 318
#     4  10  21  39  58  77 105 142 183 222 263 320
#
# _framework density 17.402756
#
# number of rings (size 3 to 8) (size 9 to 14) (size 15 to 20)
#    0.000    2.000    2.500    1.875    0.000    2.000 
#    2.250    0.625    0.000   11.250    0.000    2.625 
#    0.000    0.000    0.000    0.000    0.000    0.000 
#
# Total GULP energy -178454.037457 kJ/mol
# GULP energy per Si atom -5576.688671 kJ/mol
# Density = 1.736315 g / cm^3
# Si number density = 17.402756 Si / 1000 Ang^3
#
#
#
# Elastic Constant Matrix: (Units=GPa)
#
#
# Indices 1 2 3 4 5 6 
#
# 1 76.9115 55.3694 29.1991 0.0000 15.0323 0.0000
# 2 55.3694 101.8945 20.7637 0.0000 2.9025 0.0000
# 3 29.1991 20.7637 64.2653 0.0000 18.9998 0.0000
# 4 0.0000 0.0000 0.0000 16.1519 0.0000 4.6545
# 5 15.0323 2.9025 18.9998 0.0000 16.4809 0.0000
# 6 0.0000 0.0000 0.0000 4.6545 0.0000 30.0954
#
#
#
# Elastic Compliance Matrix: (Units=1/GPa)
#
#
# Indices 1 2 3 4 5 6 
#
# 1 0.028104 -0.014270 -0.002007 0.000000 -0.020806 0.000000
# 2 -0.014270 0.017859 -0.003345 0.000000 0.013726 0.000000
# 3 -0.002007 -0.003345 0.025544 0.000000 -0.027028 0.000000
# 4 0.000000 0.000000 0.000000 0.064800 0.000000 -0.010022
# 5 -0.020806 0.013726 -0.027028 0.000000 0.108396 0.000000
# 6 0.000000 0.000000 0.000000 -0.010022 0.000000 0.034778
#
#
# Mechanical properties :
#
#
# Convention : Reuss Voigt Hill
#
# Bulk Modulus (GPa) = 30.99515 50.41507 40.70511
# Shear Modulus (GPa) = 15.17555 21.72822 18.45188
#
# Velocity S-wave (km/s) = 2.95620 3.53732 3.25973
# Velocity P-wave (km/s) = 5.43151 6.76136 6.13259
#
# Compressibility (1/GPa) = 0.03226311
#
# Stress axis : x y z
#
# Youngs Moduli (GPa) = 35.58275 55.99475 39.14841
#
# Poissons Ratio (x) = 0.79903 0.07858
# Poissons Ratio (y) = 0.50776 0.13094
# Poissons Ratio (z) = 0.07142 0.18728
#
# Static dielectric constant tensor:
#      x y z
#    x 1.556030 0.000000 0.003430 
#    y 0.000000 1.608870 0.000000 
#    z 0.003430 0.000000 1.585060 
# 
# From -- ./inp_files/43650.got.cif
#   From: 2010.05.17/outbox.cif.g08.bks.cpg/sg10_22_cif.got.tgz:43650.got - 2010.06.03 11:33:40.
