data_PCOD9142039
_publ_section_title
;
Structure prediction by ZEFSAII (Michael W. Deem and Ramdas Pophale) SiO2 
 PCOD9142039
Probable space group: P 2/M
;
_chemical_formula_sum "Si O2"
_cell_formula_units_Z 28
_cell_length_a 8.304243
_cell_length_b 12.337120
_cell_length_c 14.809769
_cell_angle_alpha 90.000000
_cell_angle_beta 102.358774
_cell_angle_gamma 90.000000
_cell_volume 1482.107042
_symmetry_space_group_name_H-M "P 2/M"
_symmetry_group_IT_number 10
_symmetry_cell_setting 'monoclinic'
loop_
_space_group_symop_operation_xyz
x,y,z
-x,y,-z
-x,-y,-z
x,-y,z
loop_
_atom_site_type_symbol
_atom_site_label
_atom_site_fract_x
_atom_site_fract_y
_atom_site_fract_z
Si Si1 0.923099 0.695949 0.123491
Si Si2 0.421666 0.301305 0.252415
Si Si3 0.942100 0.787321 0.584479
Si Si4 0.790517 0.628077 0.300045
Si Si5 0.757806 0.378971 0.938652
Si Si6 0.852440 0.875063 0.764738
Si Si7 0.676728 0.383026 0.568720
O O1 0.848113 0.641872 0.203161
O O2 0.075211 0.627176 0.101191
O O3 0.011175 0.808386 0.161690
O O4 0.790258 0.699597 0.027072
O O5 0.615982 0.311182 0.290840
O O6 0.382955 0.348823 0.149046
O O7 0.322382 0.187692 0.245003
O O8 0.341731 0.369061 0.325432
O O9 0.909032 0.860669 0.667506
O O10 0.777224 0.719095 0.546755
O O11 0.000000 0.843472 0.500000
O O12 0.073355 0.694103 0.627699
O O13 0.775998 0.500000 0.320641
O O14 0.733782 0.500000 0.971074
O O15 0.841699 0.000000 0.788319
O O16 0.500000 0.382684 0.500000
O O17 0.756071 0.500000 0.559507
#
# Coordination Sequence:
#
# PCOD9142039 Si02
#       7
#     4   4   4   4   4   4   4
#     4   9  19  32  51  79 103 135 178 218 261 315
#     4  10  21  33  49  76 106 143 185 219 257 314
#     4  10  21  34  53  81 108 134 175 222 266 321
#     4  11  20  32  51  79 116 146 170 209 264 324
#     4  10  17  31  52  77 112 145 175 213 261 319
#     4   9  20  40  59  73  99 138 183 231 271 305
#     4  10  19  32  51  75 109 149 180 209 257 320
#
# _framework density 18.892022999999998
#
# number of rings (size 3 to 8) (size 9 to 14) (size 15 to 20)
#    0.000    2.143    0.000    5.143    0.000    3.143 
#    0.000   10.000    0.000   14.571    0.000   13.000 
#    0.000    0.000    0.000    0.000    0.000    0.000 
#
# Total GULP energy -156158.424727 kJ/mol
# GULP energy per Si atom -5577.086597 kJ/mol
# Density = 1.884902 g / cm^3
# Si number density = 18.892023 Si / 1000 Ang^3
#
#
#
# Elastic Constant Matrix: (Units=GPa)
#
#
# Indices 1 2 3 4 5 6 
#
# 1 50.5186 17.2130 5.2428 0.0000 4.3214 0.0000
# 2 17.2130 111.6089 16.3795 0.0000 9.1348 0.0000
# 3 5.2428 16.3795 78.2542 0.0000 -1.5584 0.0000
# 4 0.0000 0.0000 0.0000 6.0544 0.0000 4.1148
# 5 4.3214 9.1348 -1.5584 0.0000 30.3232 0.0000
# 6 0.0000 0.0000 0.0000 4.1148 0.0000 5.0522
#
#
#
# Elastic Compliance Matrix: (Units=1/GPa)
#
#
# Indices 1 2 3 4 5 6 
#
# 1 0.021071 -0.002950 -0.000837 0.000000 -0.002157 0.000000
# 2 -0.002950 0.009916 -0.001931 0.000000 -0.002666 0.000000
# 3 -0.000837 -0.001931 0.013267 0.000000 0.001383 0.000000
# 4 0.000000 0.000000 0.000000 0.369953 0.000000 -0.301313
# 5 -0.002157 -0.002666 0.001383 0.000000 0.034160 0.000000
# 6 0.000000 0.000000 0.000000 -0.301313 0.000000 0.443342
#
#
# Mechanical properties :
#
#
# Convention : Reuss Voigt Hill
#
# Bulk Modulus (GPa) = 30.47161 35.33916 32.90538
# Shear Modulus (GPa) = 5.46995 21.72239 13.59617
#
# Velocity S-wave (km/s) = 1.70343 3.39458 2.68559
# Velocity P-wave (km/s) = 4.47585 5.84043 5.20307
#
# Compressibility (1/GPa) = 0.03281744
#
# Stress axis : x y z
#
# Youngs Moduli (GPa) = 47.45778 100.84216 75.37681
#
# Poissons Ratio (x) = 0.29752 0.06310
# Poissons Ratio (y) = 0.14002 0.14556
# Poissons Ratio (z) = 0.03973 0.19473
#
# Static dielectric constant tensor:
#      x y z
#    x 1.673500 0.000000 -0.006780 
#    y 0.000000 1.611830 0.000000 
#    z -0.006780 0.000000 1.695060 
# 
# From -- ./inp_files/61009.got.cif
#   From: 2010.05.17/outbox.cif.g08.bks.cpg/sg10_31_cif.got.tgz:61009.got - 2010.06.03 11:33:40.
