data_PCOD9142393
_publ_section_title
;
Structure prediction by ZEFSAII (Michael W. Deem and Ramdas Pophale) SiO2 
 PCOD9142393
Probable space group: P 2/M
;
_chemical_formula_sum "Si O2"
_cell_formula_units_Z 28
_cell_length_a 15.811616
_cell_length_b 8.345438
_cell_length_c 10.699220
_cell_angle_alpha 90.000000
_cell_angle_beta 127.911661
_cell_angle_gamma 90.000000
_cell_volume 1113.863498
_symmetry_space_group_name_H-M "P 2/M"
_symmetry_group_IT_number 10
_symmetry_cell_setting 'monoclinic'
loop_
_space_group_symop_operation_xyz
x,y,z
-x,y,-z
-x,-y,-z
x,-y,z
loop_
_atom_site_type_symbol
_atom_site_label
_atom_site_fract_x
_atom_site_fract_y
_atom_site_fract_z
Si Si1 0.873187 0.308161 0.130309
Si Si2 0.308685 0.182097 0.618693
Si Si3 0.533608 0.191983 0.726318
Si Si4 0.619875 0.680849 0.063110
Si Si5 0.880702 0.691569 0.412045
Si Si6 0.272998 0.308270 0.233428
Si Si7 0.925770 0.191121 0.813153
O O1 0.878244 0.500000 0.124587
O O2 0.830044 0.268244 0.228816
O O3 0.993937 0.246548 0.222393
O O4 0.797318 0.248746 0.950168
O O5 0.409993 0.252664 0.632408
O O6 0.346250 0.195477 0.797786
O O7 0.191585 0.255480 0.537704
O O8 0.294822 0.000000 0.565550
O O9 0.607941 0.238215 0.675687
O O10 0.527773 0.000000 0.728732
O O11 0.601801 0.259552 0.905829
O O12 0.669662 0.500000 0.113977
O O13 0.500000 0.654215 0.000000
O O14 0.890373 0.500000 0.431301
O O15 0.000000 0.758189 0.500000
O O16 0.281185 0.500000 0.237901
O O17 0.194077 0.258833 0.274793
O O18 0.918461 0.000000 0.806912
O O19 0.000000 0.243367 0.000000
#
# Coordination Sequence:
#
# PCOD9142393 Si02
#       7
#     4   4   4   4   4   4   4
#     4   9  18  32  48  68  96 128 162 200 240 282
#     4  10  20  32  46  65  92 125 159 200 245 287
#     4  10  19  29  42  65  97 129 160 194 235 286
#     4   9  16  26  41  61  87 121 158 191 227 278
#     4  10  21  36  53  72  94 124 165 210 250 288
#     4  10  18  28  46  72 101 133 164 193 231 285
#     4   9  17  29  46  69  97 128 160 195 236 283
#
# _framework density 25.137730999999999
#
# number of rings (size 3 to 8) (size 9 to 14) (size 15 to 20)
#    0.000    2.429    0.000    3.000    0.000    7.714 
#    0.000    0.000    0.000    0.000    0.000    1.000 
#    0.000    8.000    0.000    0.000    0.000    0.000 
#
# Total GULP energy -156221.110768 kJ/mol
# GULP energy per Si atom -5579.325385 kJ/mol
# Density = 2.508052 g / cm^3
# Si number density = 25.137731 Si / 1000 Ang^3
#
#
#
# Elastic Constant Matrix: (Units=GPa)
#
#
# Indices 1 2 3 4 5 6 
#
# 1 254.2544 20.1946 49.2706 0.0000 29.3009 0.0000
# 2 20.1946 26.9430 -4.7940 0.0000 6.8152 0.0000
# 3 49.2706 -4.7940 73.1339 0.0000 15.8043 0.0000
# 4 0.0000 0.0000 0.0000 2.1294 0.0000 9.5045
# 5 29.3009 6.8152 15.8043 0.0000 53.8882 0.0000
# 6 0.0000 0.0000 0.0000 9.5045 0.0000 50.0276
#
#
#
# Elastic Compliance Matrix: (Units=1/GPa)
#
#
# Indices 1 2 3 4 5 6 
#
# 1 0.005061 -0.004088 -0.003411 0.000000 -0.001235 0.000000
# 2 -0.004088 0.042661 0.006658 0.000000 -0.005125 0.000000
# 3 -0.003411 0.006658 0.017285 0.000000 -0.004057 0.000000
# 4 0.000000 0.000000 0.000000 3.089202 0.000000 -0.586904
# 5 -0.001235 -0.005125 -0.004057 0.000000 0.021066 0.000000
# 6 0.000000 0.000000 0.000000 -0.586904 0.000000 0.131492
#
#
# Mechanical properties :
#
#
# Convention : Reuss Voigt Hill
#
# Bulk Modulus (GPa) = 15.79164 53.74152 34.76658
# Shear Modulus (GPa) = 1.50170 40.51970 21.01070
#
# Velocity S-wave (km/s) = 0.77375 4.01921 2.89420
# Velocity P-wave (km/s) = 2.66344 6.55469 5.00290
#
# Compressibility (1/GPa) = 0.06332465
#
# Stress axis : x y z
#
# Youngs Moduli (GPa) = 197.58951 23.44089 57.85518
#
# Poissons Ratio (x) = 0.09583 0.19733
# Poissons Ratio (y) = 0.80774 -0.38521
# Poissons Ratio (z) = 0.67394 -0.15607
#
# Static dielectric constant tensor:
#      x y z
#    x 2.028480 0.000000 0.027610 
#    y 0.000000 1.883570 0.000000 
#    z 0.027610 0.000000 2.202130 
# 
# From -- ./inp_files/66652.got.cif
#   From: 2010.05.17/outbox.cif.g08.bks.cpg/sg10_34_cif.got.tgz:66652.got - 2010.06.03 11:33:40.
