data_PCOD9142417
_publ_section_title
;
Structure prediction by ZEFSAII (Michael W. Deem and Ramdas Pophale) SiO2 
 PCOD9142417
Probable space group: P 2/M
;
_chemical_formula_sum "Si O2"
_cell_formula_units_Z 28
_cell_length_a 22.386210
_cell_length_b 9.175543
_cell_length_c 29.304316
_cell_angle_alpha 90.000000
_cell_angle_beta 15.885306
_cell_angle_gamma 90.000000
_cell_volume 1647.550245
_symmetry_space_group_name_H-M "P 2/M"
_symmetry_group_IT_number 10
_symmetry_cell_setting 'monoclinic'
loop_
_space_group_symop_operation_xyz
x,y,z
-x,y,-z
-x,-y,-z
x,-y,z
loop_
_atom_site_type_symbol
_atom_site_label
_atom_site_fract_x
_atom_site_fract_y
_atom_site_fract_z
Si Si1 0.838386 0.332442 0.725889
Si Si2 0.419659 0.171676 0.157789
Si Si3 0.148052 0.669316 0.174712
Si Si4 0.552237 0.172306 0.223574
Si Si5 0.674883 0.669580 0.533025
Si Si6 0.801949 0.328945 0.114333
Si Si7 0.704165 0.671290 0.663080
O O1 0.767267 0.500000 0.769817
O O2 0.670492 0.225991 0.824573
O O3 0.855295 0.313737 0.767713
O O4 0.071845 0.312739 0.529820
O O5 0.338182 0.500000 0.300639
O O6 0.283368 0.252683 0.297210
O O7 0.667833 0.226736 0.979959
O O8 0.201541 0.500000 0.125477
O O9 0.898604 0.698258 0.342711
O O10 0.356998 0.219336 0.401780
O O11 0.757226 0.240402 0.100603
O O12 0.489144 0.252053 0.223423
O O13 0.567700 0.000000 0.207026
O O14 0.692182 0.500000 0.537396
O O15 0.435596 0.679444 0.685924
O O16 0.838277 0.500000 0.077126
O O17 0.000000 0.276705 0.000000
O O18 0.598253 0.000000 0.824420
#
# Coordination Sequence:
#
# PCOD9142417 Si02
#       7
#     4   4   4   4   4   4   4
#     4  10  20  37  58  74  91 126 174 216 255 305
#     4  12  26  36  46  74 106 130 164 213 267 308
#     4  10  19  36  56  72  96 133 176 211 244 300
#     4  10  18  28  47  75 105 131 158 199 253 299
#     4   8  15  30  49  72  97 131 171 200 236 288
#     4   8  14  27  47  74 106 135 167 204 238 284
#     4  11  21  38  57  72  94 132 177 212 248 304
#
# _framework density 16.994928000000002
#
# number of rings (size 3 to 8) (size 9 to 14) (size 15 to 20)
#    0.857    1.286    1.429    3.429    0.000    6.000 
#    0.000    0.000    0.000    0.000    0.000    1.000 
#    0.000    8.000    0.000    0.000    0.000    0.000 
#
# Total GULP energy -155894.343715 kJ/mol
# GULP energy per Si atom -5567.655133 kJ/mol
# Density = 1.695625 g / cm^3
# Si number density = 16.994928 Si / 1000 Ang^3
#
#
#
# Elastic Constant Matrix: (Units=GPa)
#
#
# Indices 1 2 3 4 5 6 
#
# 1 37.0931 23.5853 14.8743 0.0000 -18.2764 0.0000
# 2 23.5853 86.1321 31.5765 0.0000 -9.0300 0.0000
# 3 14.8743 31.5765 55.1551 0.0000 -10.1017 0.0000
# 4 0.0000 0.0000 0.0000 10.4326 0.0000 -0.0409
# 5 -18.2764 -9.0300 -10.1017 0.0000 28.7752 0.0000
# 6 0.0000 0.0000 0.0000 -0.0409 0.0000 2.0027
#
#
#
# Elastic Compliance Matrix: (Units=1/GPa)
#
#
# Indices 1 2 3 4 5 6 
#
# 1 0.046456 -0.009059 -0.002627 0.000000 0.025741 0.000000
# 2 -0.009059 0.016546 -0.007622 0.000000 -0.003237 0.000000
# 3 -0.002627 -0.007622 0.024003 0.000000 0.004365 0.000000
# 4 0.000000 0.000000 0.000000 0.095861 0.000000 0.001956
# 5 0.025741 -0.003237 0.004365 0.000000 0.051618 0.000000
# 6 0.000000 0.000000 0.000000 0.001956 0.000000 0.499376
#
#
# Mechanical properties :
#
#
# Convention : Reuss Voigt Hill
#
# Bulk Modulus (GPa) = 20.66689 35.38361 28.02525
# Shear Modulus (GPa) = 6.34031 15.46505 10.90268
#
# Velocity S-wave (km/s) = 1.93360 3.01986 2.53558
# Velocity P-wave (km/s) = 4.14392 5.74671 5.00983
#
# Compressibility (1/GPa) = 0.04838657
#
# Stress axis : x y z
#
# Youngs Moduli (GPa) = 21.52577 60.43884 41.66216
#
# Poissons Ratio (x) = 0.54752 0.10947
# Poissons Ratio (y) = 0.19500 0.31756
# Poissons Ratio (z) = 0.05656 0.46068
#
# Static dielectric constant tensor:
#      x y z
#    x 1.590060 0.000000 -0.016980 
#    y 0.000000 1.563700 0.000000 
#    z -0.016980 0.000000 1.614120 
# 
# From -- ./inp_files/93521.got.cif
#   From: 2010.05.17/outbox.cif.g08.bks.cpg/sg10_47_cif.got.tgz:93521.got - 2010.06.03 11:33:40.
