data_PCOD9142500
_publ_section_title
;
Structure prediction by ZEFSAII (Michael W. Deem and Ramdas Pophale) SiO2 
 PCOD9142500
Probable space group: P 2/M
;
_chemical_formula_sum "Si O2"
_cell_formula_units_Z 32
_cell_length_a 25.329518
_cell_length_b 14.664027
_cell_length_c 21.286417
_cell_angle_alpha 90.000000
_cell_angle_beta 163.117034
_cell_angle_gamma 90.000000
_cell_volume 2296.179607
_symmetry_space_group_name_H-M "P 2/M"
_symmetry_group_IT_number 10
_symmetry_cell_setting 'monoclinic'
loop_
_space_group_symop_operation_xyz
x,y,z
-x,y,-z
-x,-y,-z
x,-y,z
loop_
_atom_site_type_symbol
_atom_site_label
_atom_site_fract_x
_atom_site_fract_y
_atom_site_fract_z
Si Si1 0.611560 0.766290 0.531028
Si Si2 0.380402 0.394330 0.557495
Si Si3 0.421897 0.611395 0.843793
Si Si4 0.018541 0.389301 0.347944
Si Si5 0.082159 0.895991 0.164316
Si Si6 0.359726 0.389301 0.030321
Si Si7 0.772625 0.233712 0.853155
Si Si8 0.973778 0.394331 0.150870
O O1 0.602126 0.673746 0.480506
O O2 0.731304 0.839626 0.629442
O O3 0.408358 0.797927 0.316719
O O4 0.713094 0.750003 0.713092
O O5 0.419101 0.500000 0.584930
O O6 0.516288 0.366576 0.768347
O O7 0.175592 0.390302 0.351185
O O8 0.421289 0.500000 0.842574
O O9 0.547226 0.641407 0.928235
O O10 0.214797 0.641408 0.595804
O O11 0.500000 0.639901 0.000000
O O12 0.021493 0.500000 0.353592
O O13 0.987825 0.366572 0.239882
O O14 0.845882 0.358079 0.191761
O O15 0.106782 0.000000 0.213570
O O16 0.000000 0.899255 0.000000
O O17 0.935028 0.839626 0.036889
O O18 0.357285 0.500000 0.025183
O O19 0.845364 0.326256 0.966982
O O20 0.912551 0.500000 0.078380
#
# Coordination Sequence:
#
# PCOD9142500 Si02
#       8
#     4   4   4   4   4   4   4   4
#     4  10  20  32  46  65  86 108 139 177 215 255
#     4  10  18  29  45  61  83 115 145 175 212 252
#     4   9  16  25  36  52  73  96 130 176 215 242
#     4   9  16  26  39  54  74 103 137 169 204 246
#     4   9  18  33  49  63  81 104 133 173 218 259
#     4   9  16  26  39  54  74 103 137 169 204 246
#     4  10  20  32  46  65  86 108 139 177 215 255
#     4  10  18  29  45  61  83 115 145 175 212 252
#
# _framework density 13.936191000000001
#
# number of rings (size 3 to 8) (size 9 to 14) (size 15 to 20)
#    0.000    2.500    2.500    0.750    0.000    3.000 
#    0.000    7.500    0.000    0.000    0.000    0.000 
#    0.000    0.000    0.000    0.000    0.000   10.000 
#
# Total GULP energy -178257.659017 kJ/mol
# GULP energy per Si atom -5570.551844 kJ/mol
# Density = 1.390447 g / cm^3
# Si number density = 13.936191 Si / 1000 Ang^3
#
#
#
# Elastic Constant Matrix: (Units=GPa)
#
#
# Indices 1 2 3 4 5 6 
#
# 1 83.3254 38.3405 63.6830 0.0000 14.0667 0.0000
# 2 38.3405 57.5041 39.6533 0.0000 2.8980 0.0000
# 3 63.6830 39.6533 97.6690 0.0000 17.5610 0.0000
# 4 0.0000 0.0000 0.0000 3.8472 0.0000 3.4918
# 5 14.0667 2.8980 17.5610 0.0000 20.7122 0.0000
# 6 0.0000 0.0000 0.0000 3.4918 0.0000 2.2623
#
#
#
# Elastic Compliance Matrix: (Units=1/GPa)
#
#
# Indices 1 2 3 4 5 6 
#
# 1 0.026916 -0.008742 -0.012901 0.000000 -0.006119 0.000000
# 2 -0.008742 0.027601 -0.006937 0.000000 0.007956 0.000000
# 3 -0.012901 -0.006937 0.023263 0.000000 -0.009992 0.000000
# 4 0.000000 0.000000 0.000000 -0.648468 0.000000 1.000872
# 5 -0.006119 0.007956 -0.009992 0.000000 0.059795 0.000000
# 6 0.000000 0.000000 0.000000 1.000872 0.000000 -1.102763
#
#
# Mechanical properties :
#
#
# Convention : Reuss Voigt Hill
#
# Bulk Modulus (GPa) = 48.49208 57.98356 53.23782
# Shear Modulus (GPa) = -3.22659 11.81913 4.29627
#
# Velocity S-wave (km/s) = -1.52325 2.91536 1.75770
# Velocity P-wave (km/s) = 5.63716 7.28211 6.51179
#
# Compressibility (1/GPa) = 0.02062192
#
# Stress axis : x y z
#
# Youngs Moduli (GPa) = 37.15251 36.23076 42.98665
#
# Poissons Ratio (x) = 0.31672 0.55456
# Poissons Ratio (y) = 0.32478 0.29818
# Poissons Ratio (z) = 0.47929 0.25132
#
# Static dielectric constant tensor:
#      x y z
#    x 1.461830 0.000000 0.024180 
#    y 0.000000 1.423160 0.000000 
#    z 0.024180 0.000000 1.472790 
# 
# From -- ./inp_files/67755.got.cif
#   From: 2010.05.17/outbox.cif.g08.bks.cpg/sg10_34_cif.got.tgz:67755.got - 2010.06.03 11:33:40.
