data_PCOD9142707
_publ_section_title
;
Structure prediction by ZEFSAII (Michael W. Deem and Ramdas Pophale) SiO2 
 PCOD9142707
Probable space group: P 2/M
;
_chemical_formula_sum "Si O2"
_cell_formula_units_Z 21
_cell_length_a 12.400439
_cell_length_b 14.511535
_cell_length_c 8.416128
_cell_angle_alpha 90.000000
_cell_angle_beta 147.009071
_cell_angle_gamma 90.000000
_cell_volume 824.642314
_symmetry_space_group_name_H-M "P 2/M"
_symmetry_group_IT_number 10
_symmetry_cell_setting 'monoclinic'
loop_
_space_group_symop_operation_xyz
x,y,z
-x,y,-z
-x,-y,-z
x,-y,z
loop_
_atom_site_type_symbol
_atom_site_label
_atom_site_fract_x
_atom_site_fract_y
_atom_site_fract_z
Si Si1 0.104665 0.500000 0.885703
Si Si2 0.401425 0.302609 0.704068
Si Si3 0.038070 0.307113 0.720819
Si Si4 0.319236 0.101185 0.491688
Si Si5 0.867622 0.126714 0.065556
Si Si6 0.332536 0.500000 0.491295
Si Si7 0.000000 0.000000 0.500000
O O1 0.123988 0.407709 0.811455
O O2 0.879263 0.500000 0.675582
O O3 0.259548 0.500000 0.220008
O O4 0.165247 0.307767 0.436093
O O5 0.428435 0.197580 0.669522
O O6 0.438001 0.401907 0.662679
O O7 0.500000 0.306011 0.000000
O O8 0.000000 0.270076 0.500000
O O9 0.172714 0.235311 0.976452
O O10 0.096667 0.108923 0.292865
O O11 0.398127 0.000000 0.643146
O O12 0.275536 0.094770 0.250190
O O13 0.872378 0.078581 0.241456
#
# Coordination Sequence:
#
# PCOD9142707 Si02
#       7
#     2   4   4   4   4   2   1
#     4   9  17  30  51  79 100 127 162 218 267 297
#     4  10  21  34  53  75 100 139 176 207 249 304
#     4  10  19  31  51  78 104 127 164 217 259 300
#     4  10  18  32  49  73 105 134 171 215 252 303
#     4  10  18  29  49  78 102 132 170 212 260 301
#     4   9  17  34  53  73 100 129 176 215 248 299
#     4  12  16  26  48  78 106 126 168 214 268 302
#
# _framework density 25.465585999999998
#
# number of rings (size 3 to 8) (size 9 to 14) (size 15 to 20)
#    0.000    2.095    2.857    2.286    0.000    4.952 
#    0.000    0.000    0.000    5.714    0.000    6.667 
#    0.000    0.000    0.000    0.000    0.000    0.000 
#
# Total GULP energy -116964.659505 kJ/mol
# GULP energy per Si atom -5569.745691 kJ/mol
# Density = 2.540763 g / cm^3
# Si number density = 25.465586 Si / 1000 Ang^3
#
#
#
# Elastic Constant Matrix: (Units=GPa)
#
#
# Indices 1 2 3 4 5 6 
#
# 1 53.8579 6.4855 8.0405 0.0000 31.0635 0.0000
# 2 6.4855 297.3940 78.1818 0.0000 -14.7620 0.0000
# 3 8.0405 78.1818 91.1978 0.0000 -5.6357 0.0000
# 4 0.0000 0.0000 0.0000 43.1723 0.0000 -66.3072
# 5 31.0635 -14.7620 -5.6357 0.0000 41.6455 0.0000
# 6 0.0000 0.0000 0.0000 -66.3072 0.0000 -139.6556
#
#
#
# Elastic Compliance Matrix: (Units=1/GPa)
#
#
# Indices 1 2 3 4 5 6 
#
# 1 0.034718 -0.001094 -0.003779 0.000000 -0.026795 0.000000
# 2 -0.001094 0.004421 -0.003576 0.000000 0.001899 0.000000
# 3 -0.003779 -0.003576 0.014582 0.000000 0.003525 0.000000
# 4 0.000000 0.000000 0.000000 0.013395 0.000000 -0.006360
# 5 -0.026795 0.001899 0.003525 0.000000 0.045149 0.000000
# 6 0.000000 0.000000 0.000000 -0.006360 0.000000 -0.004141
#
#
# Mechanical properties :
#
#
# Convention : Reuss Voigt Hill
#
# Bulk Modulus (GPa) = 27.15712 69.76281 48.45997
# Shear Modulus (GPa) = 36.41766 12.34855 24.38311
#
# Velocity S-wave (km/s) = 3.78573 2.20446 3.09769
# Velocity P-wave (km/s) = 5.45861 5.82528 5.64493
#
# Compressibility (1/GPa) = 0.03682275
#
# Stress axis : x y z
#
# Youngs Moduli (GPa) = 28.80348 226.20586 68.57842
#
# Poissons Ratio (x) = 0.24740 0.25917
# Poissons Ratio (y) = 0.03150 0.24524
# Poissons Ratio (z) = 0.10885 0.80892
#
# Static dielectric constant tensor:
#      x y z
#    x 2.080350 0.000000 0.032070 
#    y 0.000000 1.900820 0.000000 
#    z 0.032070 0.000000 1.901650 
# 
# From -- ./inp_files/18655.got.cif
#   From: 2010.05.17/outbox.cif.g08.bks.cpg/sg10_10_cif.got.tgz:18655.got - 2010.06.03 11:33:40.
