data_PCOD9142005
_publ_section_title
;
Structure prediction by ZEFSAII (Michael W. Deem and Ramdas Pophale) SiO2 
 PCOD9142005
Probable space group: P 2/M
;
_chemical_formula_sum "Si O2"
_cell_formula_units_Z 32
_cell_length_a 27.278558
_cell_length_b 8.220580
_cell_length_c 19.943652
_cell_angle_alpha 90.000000
_cell_angle_beta 20.579135
_cell_angle_gamma 90.000000
_cell_volume 1572.008206
_symmetry_space_group_name_H-M "P 2/M"
_symmetry_group_IT_number 10
_symmetry_cell_setting 'monoclinic'
loop_
_space_group_symop_operation_xyz
x,y,z
-x,y,-z
-x,-y,-z
x,-y,z
loop_
_atom_site_type_symbol
_atom_site_label
_atom_site_fract_x
_atom_site_fract_y
_atom_site_fract_z
Si Si1 0.041052 0.307027 0.208850
Si Si2 0.776073 0.807939 0.610317
Si Si3 0.776423 0.307827 0.897241
Si Si4 0.281936 0.196595 0.809048
Si Si5 0.566164 0.801750 0.518233
Si Si6 0.792617 0.812188 0.733949
Si Si7 0.463213 0.190459 0.297003
Si Si8 0.486859 0.685242 0.125674
O O1 0.020767 0.500000 0.237756
O O2 0.891481 0.224003 0.406253
O O3 0.126982 0.255085 0.165284
O O4 0.138366 0.262847 0.021798
O O5 0.834699 0.746913 0.607024
O O6 0.631768 0.723876 0.775780
O O7 0.750989 0.000000 0.649009
O O8 0.747327 0.500000 0.941303
O O9 0.630697 0.212209 0.088180
O O10 0.836151 0.276136 0.746384
O O11 0.324957 0.246888 0.678743
O O12 0.412217 0.248844 0.689538
O O13 0.277629 0.000000 0.816286
O O14 0.594339 0.748576 0.557973
O O15 0.563723 0.000000 0.522567
O O16 0.833627 0.000000 0.687528
O O17 0.623310 0.797374 0.947067
O O18 0.423118 0.285282 0.281298
O O19 0.430099 0.000000 0.330705
O O20 0.535347 0.500000 0.057830
#
# Coordination Sequence:
#
# PCOD9142005 Si02
#       8
#     4   4   4   4   4   4   4   4
#     4  11  23  36  51  76 111 146 177 213 261 319
#     4  11  24  40  57  76  99 137 183 223 262 310
#     4  10  20  33  50  76 110 143 173 209 263 318
#     4   9  16  31  52  77 108 142 178 214 254 305
#     4   8  15  27  51  82 108 137 176 217 256 301
#     4  10  21  37  58  81 103 130 175 226 265 307
#     4  10  17  30  54  81 108 139 176 218 259 303
#     4  11  22  36  56  81 108 137 170 216 270 316
#
# _framework density 20.356127000000001
#
# number of rings (size 3 to 8) (size 9 to 14) (size 15 to 20)
#    0.000    2.000    1.250    5.625    0.000    5.500 
#    0.000    5.000    0.000    0.750    0.000    5.250 
#    0.000    0.000    0.000    0.000    0.000    0.000 
#
# Total GULP energy -178706.731431 kJ/mol
# GULP energy per Si atom -5584.585357 kJ/mol
# Density = 2.030980 g / cm^3
# Si number density = 20.356127 Si / 1000 Ang^3
#
#
#
# Elastic Constant Matrix: (Units=GPa)
#
#
# Indices 1 2 3 4 5 6 
#
# 1 54.3147 3.5773 15.1326 0.0000 17.5936 0.0000
# 2 3.5773 31.1395 -4.1318 0.0000 -2.2468 0.0000
# 3 15.1326 -4.1318 77.4697 0.0000 21.1008 0.0000
# 4 0.0000 0.0000 0.0000 -6.3294 0.0000 5.1821
# 5 17.5936 -2.2468 21.1008 0.0000 33.4213 0.0000
# 6 0.0000 0.0000 0.0000 5.1821 0.0000 22.7556
#
#
#
# Elastic Compliance Matrix: (Units=1/GPa)
#
#
# Indices 1 2 3 4 5 6 
#
# 1 0.022720 -0.003628 -0.001579 0.000000 -0.011208 0.000000
# 2 -0.003628 0.032969 0.001622 0.000000 0.003102 0.000000
# 3 -0.001579 0.001622 0.015757 0.000000 -0.009008 0.000000
# 4 0.000000 0.000000 0.000000 -0.133164 0.000000 0.030325
# 5 -0.011208 0.003102 -0.009008 0.000000 0.041717 0.000000
# 6 0.000000 0.000000 0.000000 0.030325 0.000000 0.037039
#
#
# Mechanical properties :
#
#
# Convention : Reuss Voigt Hill
#
# Bulk Modulus (GPa) = 15.55781 21.34224 18.45002
# Shear Modulus (GPa) = 109.56641 19.85922 64.71282
#
# Velocity S-wave (km/s) = 7.34450 3.12683 5.64441
# Velocity P-wave (km/s) = 8.92085 4.85214 7.18070
#
# Compressibility (1/GPa) = 0.06427641
#
# Stress axis : x y z
#
# Youngs Moduli (GPa) = 44.01325 30.33110 63.46495
#
# Poissons Ratio (x) = 0.11005 0.10021
# Poissons Ratio (y) = 0.15969 -0.10295
# Poissons Ratio (z) = 0.06950 -0.04920
#
# Static dielectric constant tensor:
#      x y z
#    x 1.746500 0.000000 0.041710 
#    y 0.000000 1.693610 0.000000 
#    z 0.041710 0.000000 1.734030 
# 
# From -- ./inp_files/87185.got.cif
#   From: 2010.05.17/outbox.cif.g08.bks.cpg/sg10_44_cif.got.tgz:87185.got - 2010.06.03 11:33:40.
