data_PCOD9142003
_publ_section_title
;
Structure prediction by ZEFSAII (Michael W. Deem and Ramdas Pophale) SiO2 
 PCOD9142003
Probable space group: P 2/M
;
_chemical_formula_sum "Si O2"
_cell_formula_units_Z 28
_cell_length_a 12.208090
_cell_length_b 7.464741
_cell_length_c 14.640069
_cell_angle_alpha 90.000000
_cell_angle_beta 67.921645
_cell_angle_gamma 90.000000
_cell_volume 1236.320351
_symmetry_space_group_name_H-M "P 2/M"
_symmetry_group_IT_number 10
_symmetry_cell_setting 'monoclinic'
loop_
_space_group_symop_operation_xyz
x,y,z
-x,y,-z
-x,-y,-z
x,-y,z
loop_
_atom_site_type_symbol
_atom_site_label
_atom_site_fract_x
_atom_site_fract_y
_atom_site_fract_z
Si Si1 0.941415 0.784377 0.296523
Si Si2 0.243309 0.703179 0.785953
Si Si3 0.123407 0.206532 0.001938
Si Si4 0.870997 0.217992 0.509079
Si Si5 0.345275 0.781098 0.296281
Si Si6 0.526818 0.207982 0.389453
Si Si7 0.796176 0.782259 0.826671
O O1 0.882913 0.711240 0.224433
O O2 0.863960 0.724490 0.406663
O O3 0.079129 0.739068 0.261988
O O4 0.936215 0.000000 0.293407
O O5 0.279128 0.500000 0.790040
O O6 0.220143 0.790383 0.891097
O O7 0.337879 0.785100 0.686196
O O8 0.093279 0.000000 0.034433
O O9 0.181018 0.281835 0.076850
O O10 0.000000 0.284758 0.000000
O O11 0.766395 0.272875 0.606763
O O12 0.000000 0.275597 0.500000
O O13 0.870343 0.000000 0.510964
O O14 0.454892 0.718903 0.323990
O O15 0.311984 0.720737 0.203843
O O16 0.351776 0.000000 0.289262
O O17 0.500000 0.283356 0.500000
O O18 0.489439 0.000000 0.408189
O O19 0.786440 0.000000 0.832896
#
# Coordination Sequence:
#
# PCOD9142003 Si02
#       7
#     4   4   4   4   4   4   4
#     4  10  17  30  53  82 114 145 181 225 279 336
#     4  12  25  38  55  80 113 153 195 235 281 333
#     4  10  19  35  59  85 112 146 186 234 287 338
#     4   9  14  22  45  83 118 139 164 214 279 340
#     4   9  16  28  49  83 117 142 176 229 286 333
#     4  10  21  39  62  86 112 147 193 237 276 328
#     4   9  16  28  51  84 115 139 172 226 289 337
#
# _framework density 22.647852
#
# number of rings (size 3 to 8) (size 9 to 14) (size 15 to 20)
#    0.000    2.143    2.857    2.143    0.000    2.857 
#    0.000    0.714    0.000    6.429    0.000    0.000 
#    0.000    0.000    0.000    0.000    0.000    0.000 
#
# Total GULP energy -156125.167446 kJ/mol
# GULP energy per Si atom -5575.898837 kJ/mol
# Density = 2.259630 g / cm^3
# Si number density = 22.647852 Si / 1000 Ang^3
#
#
#
# Elastic Constant Matrix: (Units=GPa)
#
#
# Indices 1 2 3 4 5 6 
#
# 1 116.8777 2.7265 41.9307 0.0000 36.0966 0.0000
# 2 2.7265 59.9327 -0.4341 0.0000 8.2410 0.0000
# 3 41.9307 -0.4341 134.4910 0.0000 35.8468 0.0000
# 4 0.0000 0.0000 0.0000 -205.0916 0.0000 29.6485
# 5 36.0966 8.2410 35.8468 0.0000 42.3789 0.0000
# 6 0.0000 0.0000 0.0000 29.6485 0.0000 -86.8045
#
#
#
# Elastic Compliance Matrix: (Units=1/GPa)
#
#
# Indices 1 2 3 4 5 6 
#
# 1 0.011810 0.000712 -0.001242 0.000000 -0.009147 0.000000
# 2 0.000712 0.017343 0.001155 0.000000 -0.004955 0.000000
# 3 -0.001242 0.001155 0.009818 0.000000 -0.007471 0.000000
# 4 0.000000 0.000000 0.000000 -0.005129 0.000000 -0.001752
# 5 -0.009147 -0.004955 -0.007471 0.000000 0.038671 0.000000
# 6 0.000000 0.000000 0.000000 -0.001752 0.000000 -0.012119
#
#
# Mechanical properties :
#
#
# Convention : Reuss Voigt Hill
#
# Bulk Modulus (GPa) = 24.86321 44.41640 34.63980
# Shear Modulus (GPa) = 68.91698 -32.09822 18.40938
#
# Velocity S-wave (km/s) = 5.52231 -3.76875 2.85415
# Velocity P-wave (km/s) = 7.18771 0.84635 5.11759
#
# Compressibility (1/GPa) = 0.04022007
#
# Stress axis : x y z
#
# Youngs Moduli (GPa) = 84.67520 57.66091 101.85687
#
# Poissons Ratio (x) = -0.04103 0.12647
# Poissons Ratio (y) = -0.06025 -0.11764
# Poissons Ratio (z) = 0.10513 -0.06660
#
# Static dielectric constant tensor:
#      x y z
#    x 1.845850 0.000000 0.049510 
#    y 0.000000 1.866800 0.000000 
#    z 0.049510 0.000000 1.850120 
# 
# From -- ./inp_files/63351.got.cif
#   From: 2010.05.17/outbox.cif.g08.bks.cpg/sg10_32_cif.got.tgz:63351.got - 2010.06.03 11:33:40.
