data_PCOD9142290
_publ_section_title
;
Structure prediction by ZEFSAII (Michael W. Deem and Ramdas Pophale) SiO2 
 PCOD9142290
Probable space group: P 2/M
;
_chemical_formula_sum "Si O2"
_cell_formula_units_Z 32
_cell_length_a 16.209261
_cell_length_b 9.294349
_cell_length_c 30.964997
_cell_angle_alpha 90.000000
_cell_angle_beta 150.480130
_cell_angle_gamma 90.000000
_cell_volume 2298.572230
_symmetry_space_group_name_H-M "P 2/M"
_symmetry_group_IT_number 10
_symmetry_cell_setting 'monoclinic'
loop_
_space_group_symop_operation_xyz
x,y,z
-x,y,-z
-x,-y,-z
x,-y,z
loop_
_atom_site_type_symbol
_atom_site_label
_atom_site_fract_x
_atom_site_fract_y
_atom_site_fract_z
Si Si1 0.738656 0.671196 0.856777
Si Si2 0.093018 0.671196 0.974898
Si Si3 0.733413 0.171206 0.024282
Si Si4 0.113675 0.334471 0.508268
Si Si5 0.297456 0.665529 0.902862
Si Si6 0.830261 0.171292 0.332535
Si Si7 0.606020 0.828794 0.315151
Si Si8 0.662916 0.171292 0.165190
O O1 0.703606 0.500000 0.838402
O O2 0.577322 0.760880 0.770194
O O3 0.901583 0.700258 0.901583
O O4 0.794913 0.703044 0.931638
O O5 0.107992 0.500000 0.973197
O O6 0.155938 0.760880 0.963066
O O7 0.768716 0.246363 0.086240
O O8 0.755767 0.000000 0.037470
O O9 0.536944 0.198778 0.923827
O O10 0.150668 0.500000 0.514414
O O11 0.278710 0.246363 0.596235
O O12 0.000000 0.333581 0.500000
O O13 0.998182 0.257745 0.420162
O O14 0.241905 0.500000 0.878159
O O15 0.264121 0.742255 0.842142
O O16 0.500000 0.666419 0.000000
O O17 0.697593 0.198778 0.310710
O O18 0.749463 0.209281 0.249821
O O19 0.864792 0.000000 0.348858
O O20 0.600875 0.000000 0.319172
O O21 0.683009 0.000000 0.167075
#
# Coordination Sequence:
#
# PCOD9142290 Si02
#       8
#     4   4   4   4   4   4   4   4
#     4   9  18  31  44  59  82 111 141 174 210 244
#     4   9  18  31  44  59  82 111 141 174 210 244
#     4  10  18  28  43  61  82 110 142 173 207 246
#     4   9  17  28  41  58  80 107 139 172 205 243
#     4   9  17  28  41  58  80 107 139 172 205 243
#     4   9  17  28  41  59  84 111 138 170 208 247
#     4  10  18  28  43  61  82 110 142 173 207 246
#     4   9  17  28  41  59  84 111 138 170 208 247
#
# _framework density 13.921685
#
# number of rings (size 3 to 8) (size 9 to 14) (size 15 to 20)
#    0.000    2.750    0.000    3.000    0.000    6.500 
#    0.000    1.250    0.000    0.000    0.000    0.000 
#    0.000    1.000    0.000   10.500    0.000    4.500 
#
# Total GULP energy -178333.808342 kJ/mol
# GULP energy per Si atom -5572.931511 kJ/mol
# Density = 1.389000 g / cm^3
# Si number density = 13.921685 Si / 1000 Ang^3
#
#
#
# Elastic Constant Matrix: (Units=GPa)
#
#
# Indices 1 2 3 4 5 6 
#
# 1 87.0450 57.5117 37.4084 0.0000 -11.2004 0.0000
# 2 57.5117 76.6783 60.0500 0.0000 -4.5392 0.0000
# 3 37.4084 60.0500 97.2808 0.0000 -7.1038 0.0000
# 4 0.0000 0.0000 0.0000 25.4174 0.0000 -0.7703
# 5 -11.2004 -4.5392 -7.1038 0.0000 20.6243 0.0000
# 6 0.0000 0.0000 0.0000 -0.7703 0.0000 24.9867
#
#
#
# Elastic Compliance Matrix: (Units=1/GPa)
#
#
# Indices 1 2 3 4 5 6 
#
# 1 0.025449 -0.022073 0.004610 0.000000 0.010550 0.000000
# 2 -0.022073 0.044392 -0.019569 0.000000 -0.008957 0.000000
# 3 0.004610 -0.019569 0.020982 0.000000 0.005424 0.000000
# 4 0.000000 0.000000 0.000000 0.039380 0.000000 0.001214
# 5 0.010550 -0.008957 0.005424 0.000000 0.054113 0.000000
# 6 0.000000 0.000000 0.000000 0.001214 0.000000 0.040059
#
#
# Mechanical properties :
#
#
# Convention : Reuss Voigt Hill
#
# Bulk Modulus (GPa) = 59.66892 63.43826 61.55359
# Shear Modulus (GPa) = 16.44607 21.27463 18.86035
#
# Velocity S-wave (km/s) = 3.44077 3.91342 3.68468
# Velocity P-wave (km/s) = 7.66412 8.12937 7.90017
#
# Compressibility (1/GPa) = 0.01675914
#
# Stress axis : x y z
#
# Youngs Moduli (GPa) = 39.29478 22.52669 47.65919
#
# Poissons Ratio (x) = 0.49723 -0.21969
# Poissons Ratio (y) = 0.86735 0.93262
# Poissons Ratio (z) = -0.18114 0.44081
#
# Static dielectric constant tensor:
#      x y z
#    x 1.435470 0.000000 -0.005430 
#    y 0.000000 1.464170 0.000000 
#    z -0.005430 0.000000 1.438510 
# 
# From -- ./inp_files/66062.got.cif
#   From: 2010.05.17/outbox.cif.g08.bks.cpg/sg10_34_cif.got.tgz:66062.got - 2010.06.03 11:33:40.
