data_PCOD9142136
_publ_section_title
;
Structure prediction by ZEFSAII (Michael W. Deem and Ramdas Pophale) SiO2 
 PCOD9142136
Probable space group: P 2/M
;
_chemical_formula_sum "Si O2"
_cell_formula_units_Z 30
_cell_length_a 12.335323
_cell_length_b 17.208779
_cell_length_c 9.245662
_cell_angle_alpha 90.000000
_cell_angle_beta 121.092817
_cell_angle_gamma 90.000000
_cell_volume 1680.663178
_symmetry_space_group_name_H-M "P 2/M"
_symmetry_group_IT_number 10
_symmetry_cell_setting 'monoclinic'
loop_
_space_group_symop_operation_xyz
x,y,z
-x,y,-z
-x,-y,-z
x,-y,z
loop_
_atom_site_type_symbol
_atom_site_label
_atom_site_fract_x
_atom_site_fract_y
_atom_site_fract_z
Si Si1 0.579722 0.796080 0.923171
Si Si2 0.194314 0.702526 0.773208
Si Si3 0.763026 0.408869 0.469841
Si Si4 0.828588 0.179713 0.639627
Si Si5 0.414957 0.713961 0.582420
Si Si6 0.973245 0.664964 0.819222
Si Si7 0.627777 0.908750 0.687438
Si Si8 0.000000 0.823625 0.500000
O O1 0.494759 0.734175 0.778086
O O2 0.616349 0.858475 0.826004
O O3 0.500000 0.832325 0.000000
O O4 0.692582 0.748290 0.073340
O O5 0.224794 0.639907 0.670616
O O6 0.104256 0.767656 0.641494
O O7 0.107414 0.663535 0.833380
O O8 0.760119 0.500000 0.443269
O O9 0.637220 0.373114 0.454726
O O10 0.877035 0.385403 0.656345
O O11 0.708579 0.230049 0.497667
O O12 0.914136 0.246778 0.774997
O O13 0.754345 0.119998 0.691359
O O14 0.917979 0.140818 0.577124
O O15 0.500000 0.728439 0.500000
O O16 0.000000 0.639833 0.000000
O O17 0.500000 0.897978 0.500000
O O18 0.635609 0.000000 0.724119
#
# Coordination Sequence:
#
# PCOD9142136 Si02
#       8
#     4   4   4   4   4   4   4   2
#     4  12  21  35  65  92 118 157 205 253 291 360
#     4  11  20  36  59  90 113 160 203 248 295 356
#     4  11  23  40  58  83 123 160 196 255 317 358
#     4  10  17  36  61  88 120 157 199 252 292 355
#     4  11  20  38  62  87 117 160 206 243 302 363
#     4  10  21  35  61  88 115 154 213 251 288 353
#     4  11  23  39  62  95 130 160 191 247 316 361
#     4  10  18  36  62  90 112 152 222 242 280 354
#
# _framework density 17.850097000000002
#
# number of rings (size 3 to 8) (size 9 to 14) (size 15 to 20)
#    0.000    1.200    8.000    0.800    1.867    1.867 
#    0.000    1.667    0.000   10.000    0.000    0.000 
#    0.000    0.000    0.000    0.000    0.000    0.000 
#
# Total GULP energy -167145.643718 kJ/mol
# GULP energy per Si atom -5571.521457 kJ/mol
# Density = 1.780947 g / cm^3
# Si number density = 17.850097 Si / 1000 Ang^3
#
#
#
# Elastic Constant Matrix: (Units=GPa)
#
#
# Indices 1 2 3 4 5 6 
#
# 1 143.7168 51.0482 50.4650 0.0000 -20.9444 0.0000
# 2 51.0482 107.0725 51.8811 0.0000 -3.0775 0.0000
# 3 50.4650 51.8811 121.7019 0.0000 -4.0660 0.0000
# 4 0.0000 0.0000 0.0000 5.8959 0.0000 0.6068
# 5 -20.9444 -3.0775 -4.0660 0.0000 32.3283 0.0000
# 6 0.0000 0.0000 0.0000 0.6068 0.0000 11.3811
#
#
#
# Elastic Compliance Matrix: (Units=1/GPa)
#
#
# Indices 1 2 3 4 5 6 
#
# 1 0.009848 -0.003333 -0.002471 0.000000 0.005752 0.000000
# 2 -0.003333 0.012906 -0.004169 0.000000 -0.001455 0.000000
# 3 -0.002471 -0.004169 0.010998 0.000000 -0.000614 0.000000
# 4 0.000000 0.000000 0.000000 0.170544 0.000000 -0.009093
# 5 0.005752 -0.001455 -0.000614 0.000000 0.034443 0.000000
# 6 0.000000 0.000000 0.000000 -0.009093 0.000000 0.088350
#
#
# Mechanical properties :
#
#
# Convention : Reuss Voigt Hill
#
# Bulk Modulus (GPa) = 72.42072 75.47553 73.94812
# Shear Modulus (GPa) = 14.21927 24.52753 19.37340
#
# Velocity S-wave (km/s) = 2.82546 3.71088 3.29802
# Velocity P-wave (km/s) = 7.16268 7.79331 7.48464
#
# Compressibility (1/GPa) = 0.01380820
#
# Stress axis : x y z
#
# Youngs Moduli (GPa) = 101.54715 77.48101 90.92700
#
# Poissons Ratio (x) = 0.25821 0.22464
# Poissons Ratio (y) = 0.33841 0.37904
# Poissons Ratio (z) = 0.25088 0.32299
#
# Static dielectric constant tensor:
#      x y z
#    x 1.679040 0.000000 -0.032030 
#    y 0.000000 1.594710 0.000000 
#    z -0.032030 0.000000 1.646450 
# 
# From -- ./inp_files/25862.got.cif
#   From: 2010.05.17/outbox.cif.g08.bks.cpg/sg10_13_cif.got.tgz:25862.got - 2010.06.03 11:33:40.
