data_PCOD9142753
_publ_section_title
;
Structure prediction by ZEFSAII (Michael W. Deem and Ramdas Pophale) SiO2 
 PCOD9142753
Probable space group: P 2/M
;
_chemical_formula_sum "Si O2"
_cell_formula_units_Z 21
_cell_length_a 10.507640
_cell_length_b 7.360925
_cell_length_c 21.297368
_cell_angle_alpha 90.000000
_cell_angle_beta 27.220080
_cell_angle_gamma 90.000000
_cell_volume 753.474907
_symmetry_space_group_name_H-M "P 2/M"
_symmetry_group_IT_number 10
_symmetry_cell_setting 'monoclinic'
loop_
_space_group_symop_operation_xyz
x,y,z
-x,y,-z
-x,-y,-z
x,-y,z
loop_
_atom_site_type_symbol
_atom_site_label
_atom_site_fract_x
_atom_site_fract_y
_atom_site_fract_z
Si Si1 0.859964 0.788030 0.422993
Si Si2 0.370356 0.295908 0.347055
Si Si3 0.760917 0.220260 0.846891
Si Si4 0.282898 0.280903 0.913995
Si Si5 0.909086 0.792087 0.185899
Si Si6 0.500000 0.500000 0.500000
O O1 0.837497 0.775643 0.508502
O O2 0.636081 0.658494 0.488074
O O3 0.153163 0.731036 0.261258
O O4 0.813550 0.000000 0.427404
O O5 0.290921 0.500000 0.366621
O O6 0.469429 0.207031 0.238277
O O7 0.665774 0.303134 0.255171
O O8 0.019626 0.281460 0.777097
O O9 0.746391 0.000000 0.856293
O O10 0.500000 0.292800 0.000000
O O11 0.300427 0.500000 0.910211
O O12 0.199537 0.211269 0.019229
O O13 0.000000 0.234866 0.000000
O O14 0.818249 0.000000 0.231223
#
# Coordination Sequence:
#
# PCOD9142753 Si02
#       6
#     4   4   4   4   4   1
#     4  11  22  36  57  82 110 150 187 222 282 336
#     4  10  19  33  52  77 114 144 172 224 283 333
#     4   9  20  38  56  76 108 149 192 235 272 318
#     4   8  16  30  47  71 107 145 173 214 279 333
#     4  10  18  29  51  79 106 141 185 227 273 330
#     4  12  22  36  54  82 122 142 170 232 280 336
#
# _framework density 27.87087
#
# number of rings (size 3 to 8) (size 9 to 14) (size 15 to 20)
#    0.000    2.286    0.952    3.714    0.000    5.714 
#    1.714    0.476    0.000    1.143    0.000    8.000 
#    0.000    0.000    0.000    0.000    0.000    0.000 
#
# Total GULP energy -117193.672621 kJ/mol
# GULP energy per Si atom -5580.651077 kJ/mol
# Density = 2.780743 g / cm^3
# Si number density = 27.870870 Si / 1000 Ang^3
#
#
#
# Elastic Constant Matrix: (Units=GPa)
#
#
# Indices 1 2 3 4 5 6 
#
# 1 109.9482 -5.0864 35.2735 0.0000 31.7763 0.0000
# 2 -5.0864 148.5591 -9.0102 0.0000 -3.0059 0.0000
# 3 35.2735 -9.0102 245.7366 0.0000 31.5755 0.0000
# 4 0.0000 0.0000 0.0000 368.1999 0.0000 -296.7223
# 5 31.7763 -3.0059 31.5755 0.0000 54.5523 0.0000
# 6 0.0000 0.0000 0.0000 -296.7223 0.0000 282.0406
#
#
#
# Elastic Compliance Matrix: (Units=1/GPa)
#
#
# Indices 1 2 3 4 5 6 
#
# 1 0.011095 0.000209 -0.000817 0.000000 -0.005978 0.000000
# 2 0.000209 0.006753 0.000200 0.000000 0.000134 0.000000
# 3 -0.000817 0.000200 0.004463 0.000000 -0.002097 0.000000
# 4 0.000000 0.000000 0.000000 0.017847 0.000000 0.018776
# 5 -0.005978 0.000134 -0.002097 0.000000 0.023034 0.000000
# 6 0.000000 0.000000 0.000000 0.018776 0.000000 0.023299
#
#
# Mechanical properties :
#
#
# Convention : Reuss Voigt Hill
#
# Bulk Modulus (GPa) = 46.51725 60.73307 53.62516
# Shear Modulus (GPa) = 52.92594 173.16304 113.04449
#
# Velocity S-wave (km/s) = 4.36244 7.89084 6.37559
# Velocity P-wave (km/s) = 6.48853 10.24005 8.57204
#
# Compressibility (1/GPa) = 0.02149740
#
# Stress axis : x y z
#
# Youngs Moduli (GPa) = 90.13322 148.07440 224.04515
#
# Poissons Ratio (x) = -0.03100 0.18298
# Poissons Ratio (y) = -0.01887 -0.04488
# Poissons Ratio (z) = 0.07361 -0.02966
#
# Static dielectric constant tensor:
#      x y z
#    x 2.166770 0.000000 -0.016750 
#    y 0.000000 2.023520 0.000000 
#    z -0.016750 0.000000 2.317300 
# 
# From -- ./inp_files/92999.got.cif
#   From: 2010.05.17/outbox.cif.g08.bks.cpg/sg10_47_cif.got.tgz:92999.got - 2010.06.03 11:33:40.
