data_PCOD9142229
_publ_section_title
;
Structure prediction by ZEFSAII (Michael W. Deem and Ramdas Pophale) SiO2 
 PCOD9142229
Probable space group: P 2/M
;
_chemical_formula_sum "Si O2"
_cell_formula_units_Z 32
_cell_length_a 22.590528
_cell_length_b 7.522306
_cell_length_c 16.471014
_cell_angle_alpha 90.000000
_cell_angle_beta 145.802221
_cell_angle_gamma 90.000000
_cell_volume 1573.162856
_symmetry_space_group_name_H-M "P 2/M"
_symmetry_group_IT_number 10
_symmetry_cell_setting 'monoclinic'
loop_
_space_group_symop_operation_xyz
x,y,z
-x,y,-z
-x,-y,-z
x,-y,z
loop_
_atom_site_type_symbol
_atom_site_label
_atom_site_fract_x
_atom_site_fract_y
_atom_site_fract_z
Si Si1 0.975452 0.283181 0.881659
Si Si2 0.895322 0.282516 0.127059
Si Si3 0.597485 0.205198 0.170632
Si Si4 0.094467 0.713652 0.455963
Si Si5 0.456223 0.700771 0.713889
Si Si6 0.308006 0.709330 0.018718
Si Si7 0.772254 0.791697 0.250578
Si Si8 0.226564 0.282551 0.448000
O O1 0.975989 0.500000 0.883243
O O2 0.861771 0.230595 0.717262
O O3 0.060562 0.228517 0.910440
O O4 0.000000 0.221581 0.000000
O O5 0.894032 0.500000 0.126803
O O6 0.779810 0.218150 0.019767
O O7 0.981836 0.227554 0.292588
O O8 0.564551 0.306054 0.213286
O O9 0.690861 0.286648 0.223895
O O10 0.621493 0.000000 0.220901
O O11 0.500000 0.200189 0.000000
O O12 0.094583 0.500000 0.455303
O O13 0.119932 0.770236 0.576831
O O14 0.180443 0.771797 0.484556
O O15 0.460192 0.500000 0.684825
O O16 0.343985 0.781829 0.559446
O O17 0.573044 0.783716 0.838941
O O18 0.319624 0.500000 0.047585
O O19 0.254908 0.721573 0.869008
O O20 0.749210 0.000000 0.217996
O O21 0.230659 0.500000 0.454957
#
# Coordination Sequence:
#
# PCOD9142229 Si02
#       8
#     4   4   4   4   4   4   4   4
#     4   8  13  24  46  71  91 112 138 173 218 267
#     4   8  16  30  45  63  87 116 150 181 213 262
#     4  10  19  30  41  57  85 117 149 192 231 255
#     4   9  16  29  47  61  82 116 152 191 224 254
#     4  10  18  27  43  63  85 115 150 187 219 254
#     4  10  20  31  43  60  86 123 157 182 216 262
#     4  11  21  30  42  62  88 117 153 195 230 258
#     4   8  14  24  40  65  89 108 140 183 220 253
#
# _framework density 20.341186
#
# number of rings (size 3 to 8) (size 9 to 14) (size 15 to 20)
#    0.000    2.750    2.500    1.875    0.000    1.250 
#    0.000    3.125    0.000    0.750    0.000    5.250 
#    0.000   18.000    0.000    2.250    0.000    2.500 
#
# Total GULP energy -178305.687064 kJ/mol
# GULP energy per Si atom -5572.052721 kJ/mol
# Density = 2.029489 g / cm^3
# Si number density = 20.341186 Si / 1000 Ang^3
#
#
#
# Elastic Constant Matrix: (Units=GPa)
#
#
# Indices 1 2 3 4 5 6 
#
# 1 104.2746 0.2528 90.3311 0.0000 23.2552 0.0000
# 2 0.2528 54.7980 3.8449 0.0000 5.3683 0.0000
# 3 90.3311 3.8449 139.8449 0.0000 10.5255 0.0000
# 4 0.0000 0.0000 0.0000 -13.4333 0.0000 17.2682
# 5 23.2552 5.3683 10.5255 0.0000 31.8903 0.0000
# 6 0.0000 0.0000 0.0000 17.2682 0.0000 -21.2752
#
#
#
# Elastic Compliance Matrix: (Units=1/GPa)
#
#
# Indices 1 2 3 4 5 6 
#
# 1 0.027197 0.002483 -0.016522 0.000000 -0.014797 0.000000
# 2 0.002483 0.018792 -0.001791 0.000000 -0.004383 0.000000
# 3 -0.016522 -0.001791 0.017374 0.000000 0.006615 0.000000
# 4 0.000000 0.000000 0.000000 1.716670 0.000000 1.393348
# 5 -0.014797 -0.004383 0.006615 0.000000 0.040703 0.000000
# 6 0.000000 0.000000 0.000000 1.393348 0.000000 1.083919
#
#
# Mechanical properties :
#
#
# Convention : Reuss Voigt Hill
#
# Bulk Modulus (GPa) = 31.54114 54.19726 42.86920
# Shear Modulus (GPa) = 1.69671 13.06893 7.38282
#
# Velocity S-wave (km/s) = 0.91430 2.53748 1.90719
# Velocity P-wave (km/s) = 4.08097 5.94029 5.09614
#
# Compressibility (1/GPa) = 0.03170462
#
# Stress axis : x y z
#
# Youngs Moduli (GPa) = 36.76894 53.21286 57.55622
#
# Poissons Ratio (x) = -0.13215 0.95095
# Poissons Ratio (y) = -0.09131 0.10308
# Poissons Ratio (z) = 0.60750 0.09530
#
# Static dielectric constant tensor:
#      x y z
#    x 1.715760 0.000000 0.052300 
#    y 0.000000 1.788210 0.000000 
#    z 0.052300 0.000000 1.788440 
# 
# From -- ./inp_files/66010.got.cif
#   From: 2010.05.17/outbox.cif.g08.bks.cpg/sg10_34_cif.got.tgz:66010.got - 2010.06.03 11:33:40.
