data_PCOD9142434
_publ_section_title
;
Structure prediction by ZEFSAII (Michael W. Deem and Ramdas Pophale) SiO2 
 PCOD9142434
Probable space group: P 2/M
;
_chemical_formula_sum "Si O2"
_cell_formula_units_Z 26
_cell_length_a 11.097720
_cell_length_b 9.805188
_cell_length_c 15.843778
_cell_angle_alpha 90.000000
_cell_angle_beta 61.031374
_cell_angle_gamma 90.000000
_cell_volume 1508.340635
_symmetry_space_group_name_H-M "P 2/M"
_symmetry_group_IT_number 10
_symmetry_cell_setting 'monoclinic'
loop_
_space_group_symop_operation_xyz
x,y,z
-x,y,-z
-x,-y,-z
x,-y,z
loop_
_atom_site_type_symbol
_atom_site_label
_atom_site_fract_x
_atom_site_fract_y
_atom_site_fract_z
Si Si1 0.000000 0.763958 0.500000
Si Si2 0.242469 0.661803 0.637880
Si Si3 0.982286 0.843539 0.697061
Si Si4 0.602854 0.164670 0.089489
Si Si5 0.698875 0.164591 0.875474
Si Si6 0.425165 0.662113 0.742746
Si Si7 0.301502 0.660349 0.432747
O O1 0.988744 0.841180 0.592877
O O2 0.855647 0.683475 0.541901
O O3 0.211256 0.500000 0.639607
O O4 0.338908 0.677654 0.685888
O O5 0.313075 0.708040 0.525882
O O6 0.102980 0.747808 0.690504
O O7 0.834637 0.791081 0.780037
O O8 0.000726 0.000000 0.718871
O O9 0.445601 0.204080 0.117909
O O10 0.637331 0.248513 0.161071
O O11 0.609168 0.000000 0.099309
O O12 0.692710 0.201377 0.976481
O O13 0.698168 0.000000 0.873370
O O14 0.426918 0.500000 0.763938
O O15 0.579852 0.715271 0.668637
O O16 0.329544 0.500000 0.425331
#
# Coordination Sequence:
#
# PCOD9142434 Si02
#       7
#     2   4   4   4   4   4   4
#     4  10  18  28  48  78 103 120 149 196 243 282
#     4   9  19  34  49  67  95 131 165 194 230 280
#     4  10  19  32  50  72  99 127 156 194 239 283
#     4   9  17  32  53  73  94 123 160 196 233 285
#     4   8  16  32  52  72  96 127 157 189 236 289
#     4  10  19  32  50  72  97 125 160 201 239 273
#     4   9  17  30  49  71  97 130 161 189 229 288
#
# _framework density 17.237486000000001
#
# number of rings (size 3 to 8) (size 9 to 14) (size 15 to 20)
#    0.000    2.769    0.000    2.769    0.000    3.077 
#    0.000    6.923    0.000    9.231    0.000    0.000 
#    0.000    0.000    0.000    0.000    0.000    0.000 
#
# Total GULP energy -144747.406925 kJ/mol
# GULP energy per Si atom -5567.207959 kJ/mol
# Density = 1.719825 g / cm^3
# Si number density = 17.237486 Si / 1000 Ang^3
#
#
#
# Elastic Constant Matrix: (Units=GPa)
#
#
# Indices 1 2 3 4 5 6 
#
# 1 46.2009 12.1042 32.7324 0.0000 0.0963 0.0000
# 2 12.1042 26.3942 25.9795 0.0000 3.4309 0.0000
# 3 32.7324 25.9795 92.9756 0.0000 -5.5993 0.0000
# 4 0.0000 0.0000 0.0000 19.8856 0.0000 0.8296
# 5 0.0963 3.4309 -5.5993 0.0000 29.5813 0.0000
# 6 0.0000 0.0000 0.0000 0.8296 0.0000 20.6496
#
#
#
# Elastic Compliance Matrix: (Units=1/GPa)
#
#
# Indices 1 2 3 4 5 6 
#
# 1 0.029274 -0.004171 -0.009222 0.000000 -0.001357 0.000000
# 2 -0.004171 0.055294 -0.014533 0.000000 -0.009150 0.000000
# 3 -0.009222 -0.014533 0.018376 0.000000 0.005194 0.000000
# 4 0.000000 0.000000 0.000000 0.050372 0.000000 -0.002024
# 5 -0.001357 -0.009150 0.005194 0.000000 0.035854 0.000000
# 6 0.000000 0.000000 0.000000 -0.002024 0.000000 0.048508
#
#
# Mechanical properties :
#
#
# Convention : Reuss Voigt Hill
#
# Bulk Modulus (GPa) = 21.23544 34.13367 27.68455
# Shear Modulus (GPa) = 16.16931 20.34029 18.25480
#
# Velocity S-wave (km/s) = 3.06605 3.43884 3.25779
# Velocity P-wave (km/s) = 4.98802 5.96762 5.49968
#
# Compressibility (1/GPa) = 0.04709109
#
# Stress axis : x y z
#
# Youngs Moduli (GPa) = 34.16000 18.08517 54.41917
#
# Poissons Ratio (x) = 0.07544 0.50187
# Poissons Ratio (y) = 0.14249 0.79087
# Poissons Ratio (z) = 0.31503 0.26283
#
# Static dielectric constant tensor:
#      x y z
#    x 1.583960 0.000000 -0.007470 
#    y 0.000000 1.576190 0.000000 
#    z -0.007470 0.000000 1.607350 
# 
# From -- ./inp_files/55138.got.cif
#   From: 2010.05.17/outbox.cif.g08.bks.cpg/sg10_28_cif.got.tgz:55138.got - 2010.06.03 11:33:40.
