data_PCOD9142350
_publ_section_title
;
Structure prediction by ZEFSAII (Michael W. Deem and Ramdas Pophale) SiO2 
 PCOD9142350
Probable space group: P 2/M
;
_chemical_formula_sum "Si O2"
_cell_formula_units_Z 32
_cell_length_a 14.582512
_cell_length_b 14.598597
_cell_length_c 12.024207
_cell_angle_alpha 90.000000
_cell_angle_beta 52.671664
_cell_angle_gamma 90.000000
_cell_volume 2035.456885
_symmetry_space_group_name_H-M "P 2/M"
_symmetry_group_IT_number 10
_symmetry_cell_setting 'monoclinic'
loop_
_space_group_symop_operation_xyz
x,y,z
-x,y,-z
-x,-y,-z
x,-y,z
loop_
_atom_site_type_symbol
_atom_site_label
_atom_site_fract_x
_atom_site_fract_y
_atom_site_fract_z
Si Si1 0.742923 0.209819 0.794992
Si Si2 0.809330 0.109858 0.345647
Si Si3 0.037915 0.209819 0.205008
Si Si4 0.969480 0.397178 0.338749
Si Si5 0.654977 0.109858 0.654353
Si Si6 0.191770 0.602822 0.338749
Si Si7 0.181848 0.892619 0.918032
Si Si8 0.599881 0.107381 0.081968
O O1 0.863095 0.200788 0.773810
O O2 0.737825 0.149788 0.687905
O O3 0.731065 0.314947 0.764303
O O4 0.645055 0.170355 0.948712
O O5 0.701109 0.139433 0.500000
O O6 0.804961 0.136075 0.219348
O O7 0.925730 0.149788 0.312095
O O8 0.813892 0.000000 0.344491
O O9 0.995368 0.314947 0.235697
O O10 0.093767 0.170355 0.051288
O O11 0.956150 0.500000 0.302112
O O12 0.861053 0.377473 0.500000
O O13 0.080387 0.399540 0.339225
O O14 0.524309 0.136075 0.780652
O O15 0.658382 0.000000 0.655509
O O16 0.241738 0.500000 0.302112
O O17 0.303781 0.887881 0.892438
O O18 0.143999 0.000000 0.950388
O O19 0.594387 0.000000 0.049612
#
# Coordination Sequence:
#
# PCOD9142350 Si02
#       8
#     4   4   4   4   4   4   4   4
#     4  10  18  28  45  68  93 118 142 172 217 270
#     4  10  20  31  44  64  89 118 151 184 217 256
#     4  10  18  28  45  68  93 118 142 172 217 270
#     4   8  14  25  41  62  89 119 147 174 208 254
#     4  10  20  31  44  64  89 118 151 184 217 256
#     4   8  14  25  41  62  89 119 147 174 208 254
#     4   9  18  32  48  64  84 115 153 188 220 253
#     4   9  18  32  48  64  84 115 153 188 220 253
#
# _framework density 15.721285999999999
#
# number of rings (size 3 to 8) (size 9 to 14) (size 15 to 20)
#    0.000    2.750    0.000    3.000    0.000    5.500 
#    0.000    3.750    0.000    3.000    0.000    0.000 
#    0.000    0.000    0.000   15.000    0.000    0.750 
#
# Total GULP energy -178196.598145 kJ/mol
# GULP energy per Si atom -5568.643692 kJ/mol
# Density = 1.568550 g / cm^3
# Si number density = 15.721286 Si / 1000 Ang^3
#
#
#
# Elastic Constant Matrix: (Units=GPa)
#
#
# Indices 1 2 3 4 5 6 
#
# 1 32.0036 23.7988 35.1270 0.0000 3.5560 0.0000
# 2 23.7988 60.2756 70.9277 0.0000 4.5882 0.0000
# 3 35.1270 70.9277 117.9946 0.0000 4.8160 0.0000
# 4 0.0000 0.0000 0.0000 -11.2899 0.0000 -2.1339
# 5 3.5560 4.5882 4.8160 0.0000 16.8231 0.0000
# 6 0.0000 0.0000 0.0000 -2.1339 0.0000 10.6301
#
#
#
# Elastic Compliance Matrix: (Units=1/GPa)
#
#
# Indices 1 2 3 4 5 6 
#
# 1 0.047786 -0.006750 -0.009947 0.000000 -0.005412 0.000000
# 2 -0.006750 0.058202 -0.032769 0.000000 -0.005066 0.000000
# 3 -0.009947 -0.032769 0.031046 0.000000 0.002152 0.000000
# 4 0.000000 0.000000 0.000000 -0.085337 0.000000 -0.017131
# 5 -0.005412 -0.005066 0.002152 0.000000 0.061351 0.000000
# 6 0.000000 0.000000 0.000000 -0.017131 0.000000 0.090634
#
#
# Mechanical properties :
#
#
# Convention : Reuss Voigt Hill
#
# Bulk Modulus (GPa) = 26.24667 52.22007 39.23337
# Shear Modulus (GPa) = 15.85717 8.59403 12.22560
#
# Velocity S-wave (km/s) = 3.17936 2.34059 2.79166
# Velocity P-wave (km/s) = 5.49627 6.37124 5.94986
#
# Compressibility (1/GPa) = 0.03810007
#
# Stress axis : x y z
#
# Youngs Moduli (GPa) = 20.92684 17.18168 32.20999
#
# Poissons Ratio (x) = 0.11598 0.32040
# Poissons Ratio (y) = 0.14126 1.05550
# Poissons Ratio (z) = 0.20816 0.56303
#
# Static dielectric constant tensor:
#      x y z
#    x 1.521490 0.000000 0.001300 
#    y 0.000000 1.534450 0.000000 
#    z 0.001300 0.000000 1.534800 
# 
# From -- ./inp_files/51622.got.cif
#   From: 2010.05.17/outbox.cif.g08.bks.cpg/sg10_26_cif.got.tgz:51622.got - 2010.06.03 11:33:40.
