data_PCOD9142183
_publ_section_title
;
Structure prediction by ZEFSAII (Michael W. Deem and Ramdas Pophale) SiO2 
 PCOD9142183
Probable space group: P 2/M
;
_chemical_formula_sum "Si O2"
_cell_formula_units_Z 32
_cell_length_a 18.037429
_cell_length_b 14.037120
_cell_length_c 21.736841
_cell_angle_alpha 90.000000
_cell_angle_beta 156.657652
_cell_angle_gamma 90.000000
_cell_volume 2180.670784
_symmetry_space_group_name_H-M "P 2/M"
_symmetry_group_IT_number 10
_symmetry_cell_setting 'monoclinic'
loop_
_space_group_symop_operation_xyz
x,y,z
-x,y,-z
-x,-y,-z
x,-y,z
loop_
_atom_site_type_symbol
_atom_site_label
_atom_site_fract_x
_atom_site_fract_y
_atom_site_fract_z
Si Si1 0.311175 0.383706 0.390885
Si Si2 0.586663 0.384718 0.827016
Si Si3 0.578532 0.727980 0.947652
Si Si4 0.756119 0.384751 0.521734
Si Si5 0.148818 0.386984 0.763109
Si Si6 0.157259 0.757961 0.668814
Si Si7 0.296739 0.891134 0.878952
Si Si8 0.965431 0.384732 0.043064
O O1 0.500000 0.354393 0.500000
O O2 0.311200 0.500000 0.391887
O O3 0.300170 0.351282 0.453120
O O4 0.129379 0.353056 0.213972
O O5 0.586740 0.500000 0.840025
O O6 0.607547 0.323387 0.904755
O O7 0.395839 0.359073 0.645740
O O8 0.762051 0.364304 0.915949
O O9 0.359909 0.747205 0.792037
O O10 0.665704 0.657499 0.065486
O O11 0.681118 0.827511 0.042791
O O12 0.753219 0.500000 0.521444
O O13 0.967472 0.357971 0.665268
O O14 0.160933 0.500000 0.770692
O O15 0.118588 0.341805 0.673396
O O16 0.168499 0.835603 0.732135
O O17 0.000000 0.781270 0.500000
O O18 0.241850 0.000000 0.848092
O O19 0.500000 0.891190 0.000000
O O20 0.977710 0.500000 0.050024
O O21 0.000000 0.349850 0.000000
#
# Coordination Sequence:
#
# PCOD9142183 Si02
#       8
#     4   4   4   4   4   4   4   4
#     4   9  15  23  35  50  70  99 138 180 214 243
#     4  10  18  27  40  59  85 114 143 176 211 245
#     4  10  19  30  45  63  82 107 140 173 208 251
#     4   9  17  27  38  54  77 109 145 176 208 243
#     4  10  19  30  42  56  80 114 147 175 203 241
#     4  10  20  31  44  64  85 107 139 174 210 250
#     4   8  16  32  50  65  82 104 131 167 211 256
#     4   9  16  25  37  54  77 108 145 179 209 243
#
# _framework density 14.674384
#
# number of rings (size 3 to 8) (size 9 to 14) (size 15 to 20)
#    0.000    2.625    0.000    3.750    0.000    7.000 
#    0.000    0.000    0.000    0.000    0.000    0.000 
#    0.000    0.500    0.000    0.000    0.000   51.000 
#
# Total GULP energy -178203.272552 kJ/mol
# GULP energy per Si atom -5568.852267 kJ/mol
# Density = 1.464098 g / cm^3
# Si number density = 14.674384 Si / 1000 Ang^3
#
#
#
# Elastic Constant Matrix: (Units=GPa)
#
#
# Indices 1 2 3 4 5 6 
#
# 1 71.4539 27.2727 29.9803 0.0000 -14.7243 0.0000
# 2 27.2727 61.9033 26.4704 0.0000 -5.2575 0.0000
# 3 29.9803 26.4704 97.1038 0.0000 -9.8625 0.0000
# 4 0.0000 0.0000 0.0000 7.0754 0.0000 -4.0005
# 5 -14.7243 -5.2575 -9.8625 0.0000 23.9603 0.0000
# 6 0.0000 0.0000 0.0000 -4.0005 0.0000 6.6353
#
#
#
# Elastic Compliance Matrix: (Units=1/GPa)
#
#
# Indices 1 2 3 4 5 6 
#
# 1 0.019827 -0.006485 -0.003403 0.000000 0.009361 0.000000
# 2 -0.006485 0.020503 -0.003689 0.000000 -0.001005 0.000000
# 3 -0.003403 -0.003689 0.012586 0.000000 0.002280 0.000000
# 4 0.000000 0.000000 0.000000 0.214431 0.000000 0.129282
# 5 0.009361 -0.001005 0.002280 0.000000 0.048206 0.000000
# 6 0.000000 0.000000 0.000000 0.129282 0.000000 0.228653
#
#
# Mechanical properties :
#
#
# Convention : Reuss Voigt Hill
#
# Bulk Modulus (GPa) = 38.81613 44.21199 41.51406
# Shear Modulus (GPa) = 8.62147 17.31671 12.96909
#
# Velocity S-wave (km/s) = 2.42651 3.43893 2.97609
# Velocity P-wave (km/s) = 5.86171 6.77956 6.33727
#
# Compressibility (1/GPa) = 0.02576248
#
# Stress axis : x y z
#
# Youngs Moduli (GPa) = 50.43634 48.77224 79.45274
#
# Poissons Ratio (x) = 0.31629 0.27037
# Poissons Ratio (y) = 0.32708 0.29310
# Poissons Ratio (z) = 0.17163 0.17992
#
# Static dielectric constant tensor:
#      x y z
#    x 1.490590 0.000000 0.001440 
#    y 0.000000 1.465460 0.000000 
#    z 0.001440 0.000000 1.502580 
# 
# From -- ./inp_files/32567.got.cif
#   From: 2010.05.17/outbox.cif.g08.bks.cpg/sg10_17_cif.got.tgz:32567.got - 2010.06.03 11:33:40.
