data_PCOD9142088
_publ_section_title
;
Structure prediction by ZEFSAII (Michael W. Deem and Ramdas Pophale) SiO2 
 PCOD9142088
Probable space group: P 2/M
;
_chemical_formula_sum "Si O2"
_cell_formula_units_Z 28
_cell_length_a 8.361395
_cell_length_b 16.317222
_cell_length_c 17.947679
_cell_angle_alpha 90.000000
_cell_angle_beta 138.723415
_cell_angle_gamma 90.000000
_cell_volume 1615.385505
_symmetry_space_group_name_H-M "P 2/M"
_symmetry_group_IT_number 10
_symmetry_cell_setting 'monoclinic'
loop_
_space_group_symop_operation_xyz
x,y,z
-x,y,-z
-x,-y,-z
x,-y,z
loop_
_atom_site_type_symbol
_atom_site_label
_atom_site_fract_x
_atom_site_fract_y
_atom_site_fract_z
Si Si1 0.004560 0.774332 0.311300
Si Si2 0.245559 0.215545 0.543570
Si Si3 0.262651 0.405996 0.052960
Si Si4 0.466482 0.735172 0.767265
Si Si5 0.313510 0.907091 0.334116
Si Si6 0.780036 0.721891 0.084498
Si Si7 0.913158 0.854139 0.894043
O O1 0.740798 0.780233 0.257121
O O2 0.946600 0.722313 0.216748
O O3 0.168626 0.744080 0.438069
O O4 0.138450 0.855877 0.328173
O O5 0.367711 0.274026 0.648216
O O6 0.438870 0.144432 0.591748
O O7 0.000000 0.185016 0.500000
O O8 0.342276 0.500000 0.076819
O O9 0.448346 0.348021 0.163294
O O10 0.224054 0.364024 0.959513
O O11 0.000000 0.402637 0.000000
O O12 0.694258 0.794483 0.840427
O O13 0.179735 0.906989 0.207240
O O14 0.355608 0.000000 0.372995
O O15 0.886457 0.792231 0.068585
O O16 0.500000 0.742817 0.000000
O O17 0.000000 0.896494 0.000000
#
# Coordination Sequence:
#
# PCOD9142088 Si02
#       7
#     4   4   4   4   4   4   4
#     4  10  20  33  54  78 103 143 182 222 263 315
#     4   9  20  35  57  78 101 143 190 219 256 320
#     4  11  21  34  56  86 113 141 173 219 273 311
#     4  10  17  36  55  76 106 141 187 219 251 319
#     4  10  22  35  51  80 112 138 174 232 282 311
#     4  11  18  31  54  81 109 138 171 220 266 316
#     4  10  17  32  56  75 102 144 185 212 259 324
#
# _framework density 17.333324000000001
#
# number of rings (size 3 to 8) (size 9 to 14) (size 15 to 20)
#    0.000    1.857    4.286    0.429    0.000    2.000 
#    0.000    5.714    0.000   19.286    0.000    2.000 
#    0.000    0.000    0.000    0.000    0.000    0.000 
#
# Total GULP energy -155894.862978 kJ/mol
# GULP energy per Si atom -5567.673678 kJ/mol
# Density = 1.729387 g / cm^3
# Si number density = 17.333324 Si / 1000 Ang^3
#
#
#
# Elastic Constant Matrix: (Units=GPa)
#
#
# Indices 1 2 3 4 5 6 
#
# 1 92.4144 39.8972 44.0473 0.0000 2.0964 0.0000
# 2 39.8972 92.1757 43.3135 0.0000 -0.7508 0.0000
# 3 44.0473 43.3135 138.2059 0.0000 -32.4671 0.0000
# 4 0.0000 0.0000 0.0000 21.7711 0.0000 4.5733
# 5 2.0964 -0.7508 -32.4671 0.0000 42.7896 0.0000
# 6 0.0000 0.0000 0.0000 4.5733 0.0000 9.5401
#
#
#
# Elastic Compliance Matrix: (Units=1/GPa)
#
#
# Indices 1 2 3 4 5 6 
#
# 1 0.014889 -0.004454 -0.004307 0.000000 -0.004075 0.000000
# 2 -0.004454 0.014477 -0.003659 0.000000 -0.002304 0.000000
# 3 -0.004307 -0.003659 0.011913 0.000000 0.009186 0.000000
# 4 0.000000 0.000000 0.000000 0.051076 0.000000 -0.024484
# 5 -0.004075 -0.002304 0.009186 0.000000 0.030499 0.000000
# 6 0.000000 0.000000 0.000000 -0.024484 0.000000 0.116557
#
#
# Mechanical properties :
#
#
# Convention : Reuss Voigt Hill
#
# Bulk Modulus (GPa) = 60.82816 64.14579 62.48698
# Shear Modulus (GPa) = 18.53705 27.85604 23.19655
#
# Velocity S-wave (km/s) = 3.27379 4.01319 3.66220
# Velocity P-wave (km/s) = 7.03275 7.65257 7.34920
#
# Compressibility (1/GPa) = 0.01643975
#
# Stress axis : x y z
#
# Youngs Moduli (GPa) = 67.16449 69.07397 83.94359
#
# Poissons Ratio (x) = 0.30765 0.36152
# Poissons Ratio (y) = 0.29915 0.30714
# Poissons Ratio (z) = 0.28926 0.25273
#
# Static dielectric constant tensor:
#      x y z
#    x 1.624960 0.000000 -0.025950 
#    y 0.000000 1.535630 0.000000 
#    z -0.025950 0.000000 1.646460 
# 
# From -- ./inp_files/75315.got.cif
#   From: 2010.05.17/outbox.cif.g08.bks.cpg/sg10_38_cif.got.tgz:75315.got - 2010.06.03 11:33:40.
