data_PCOD9142081
_publ_section_title
;
Structure prediction by ZEFSAII (Michael W. Deem and Ramdas Pophale) SiO2 
 PCOD9142081
Probable space group: P 2/M
;
_chemical_formula_sum "Si O2"
_cell_formula_units_Z 26
_cell_length_a 11.228626
_cell_length_b 19.347054
_cell_length_c 8.254861
_cell_angle_alpha 90.000000
_cell_angle_beta 43.896158
_cell_angle_gamma 90.000000
_cell_volume 1243.385916
_symmetry_space_group_name_H-M "P 2/M"
_symmetry_group_IT_number 10
_symmetry_cell_setting 'monoclinic'
loop_
_space_group_symop_operation_xyz
x,y,z
-x,y,-z
-x,-y,-z
x,-y,z
loop_
_atom_site_type_symbol
_atom_site_label
_atom_site_fract_x
_atom_site_fract_y
_atom_site_fract_z
Si Si1 0.226870 0.138081 0.186789
Si Si2 0.273021 0.000000 0.654127
Si Si3 0.500000 0.616201 0.500000
Si Si4 0.907740 0.000000 0.833629
Si Si5 0.100581 0.276350 0.148647
Si Si6 0.727657 0.266920 0.373662
Si Si7 0.590792 0.131198 0.653701
Si Si8 0.856514 0.422605 0.995864
O O1 0.118310 0.071283 0.238184
O O2 0.153009 0.214108 0.216073
O O3 0.277800 0.131514 0.323704
O O4 0.403064 0.131453 0.913367
O O5 0.371065 0.066594 0.495360
O O6 0.091249 0.000000 0.738950
O O7 0.230212 0.000000 0.884896
O O8 0.397989 0.668091 0.480112
O O9 0.338377 0.578309 0.740970
O O10 0.898714 0.270472 0.312186
O O11 0.204194 0.264252 0.878072
O O12 0.132901 0.358704 0.140499
O O13 0.625513 0.199470 0.519341
O O14 0.892402 0.500000 0.899290
O O15 0.000000 0.409262 0.000000
#
# Coordination Sequence:
#
# PCOD9142081 Si02
#       8
#     4   2   2   2   4   4   4   4
#     4  11  24  38  57  78 117 143 194 230 291 331
#     4  11  24  39  58  78 112 137 196 230 294 336
#     4  10  17  32  52  83 114 154 186 239 280 346
#     4  11  24  41  56  84 106 151 178 243 284 344
#     4  10  19  36  54  84 111 150 183 242 276 346
#     4  10  19  33  56  79 112 143 194 226 288 328
#     4  11  23  38  54  83 106 151 185 243 277 347
#     4  10  18  31  52  84 119 150 187 236 289 339
#
# _framework density 20.910644999999999
#
# number of rings (size 3 to 8) (size 9 to 14) (size 15 to 20)
#    0.000    1.538    3.077    4.846    0.000    9.231 
#    0.000    0.000    0.000    0.000    0.000   15.077 
#    0.000    0.000    0.000    0.000    0.000    0.000 
#
# Total GULP energy -145248.374817 kJ/mol
# GULP energy per Si atom -5586.475955 kJ/mol
# Density = 2.086305 g / cm^3
# Si number density = 20.910645 Si / 1000 Ang^3
#
#
#
# Elastic Constant Matrix: (Units=GPa)
#
#
# Indices 1 2 3 4 5 6 
#
# 1 103.5860 45.4550 32.8915 0.0000 -16.1917 0.0000
# 2 45.4550 173.3872 30.5453 0.0000 9.1779 0.0000
# 3 32.8915 30.5453 88.8652 0.0000 -14.0270 0.0000
# 4 0.0000 0.0000 0.0000 -18.3603 0.0000 -33.0074
# 5 -16.1917 9.1779 -14.0270 0.0000 28.9168 0.0000
# 6 0.0000 0.0000 0.0000 -33.0074 0.0000 18.0221
#
#
#
# Elastic Compliance Matrix: (Units=1/GPa)
#
#
# Indices 1 2 3 4 5 6 
#
# 1 0.013048 -0.003348 -0.002553 0.000000 0.007131 0.000000
# 2 -0.003348 0.007288 -0.002087 0.000000 -0.005200 0.000000
# 3 -0.002553 -0.002087 0.013855 0.000000 0.005953 0.000000
# 4 0.000000 0.000000 0.000000 -0.012688 0.000000 -0.023238
# 5 0.007131 -0.005200 0.005953 0.000000 0.043113 0.000000
# 6 0.000000 0.000000 0.000000 -0.023238 0.000000 0.012926
#
#
# Mechanical properties :
#
#
# Convention : Reuss Voigt Hill
#
# Bulk Modulus (GPa) = 54.89924 64.84689 59.87306
# Shear Modulus (GPa) = 50.20545 22.84551 36.52548
#
# Velocity S-wave (km/s) = 4.90527 3.30893 4.18394
# Velocity P-wave (km/s) = 7.64156 6.75851 7.21356
#
# Compressibility (1/GPa) = 0.01821519
#
# Stress axis : x y z
#
# Youngs Moduli (GPa) = 76.63744 137.20955 72.17651
#
# Poissons Ratio (x) = 0.45944 0.18427
# Poissons Ratio (y) = 0.25662 0.15060
# Poissons Ratio (z) = 0.19566 0.28630
#
# Static dielectric constant tensor:
#      x y z
#    x 1.768420 0.000000 -0.027420 
#    y 0.000000 1.936390 0.000000 
#    z -0.027420 0.000000 1.735780 
# 
# From -- ./inp_files/26037.got.cif
#   From: 2010.05.17/outbox.cif.g08.bks.cpg/sg10_14_cif.got.tgz:26037.got - 2010.06.03 11:33:40.
