data_PCOD9142036
_publ_section_title
;
Structure prediction by ZEFSAII (Michael W. Deem and Ramdas Pophale) SiO2 
 PCOD9142036
Probable space group: P 2/M
;
_chemical_formula_sum "Si O2"
_cell_formula_units_Z 32
_cell_length_a 8.973736
_cell_length_b 13.247561
_cell_length_c 21.799621
_cell_angle_alpha 90.000000
_cell_angle_beta 134.294899
_cell_angle_gamma 90.000000
_cell_volume 1854.908520
_symmetry_space_group_name_H-M "P 2/M"
_symmetry_group_IT_number 10
_symmetry_cell_setting 'monoclinic'
loop_
_space_group_symop_operation_xyz
x,y,z
-x,y,-z
-x,-y,-z
x,-y,z
loop_
_atom_site_type_symbol
_atom_site_label
_atom_site_fract_x
_atom_site_fract_y
_atom_site_fract_z
Si Si1 0.100728 0.178837 0.965616
Si Si2 0.545916 0.619476 0.197005
Si Si3 0.201873 0.301777 0.293677
Si Si4 0.605198 0.383709 0.462144
Si Si5 0.453306 0.764228 0.918185
Si Si6 0.004891 0.378338 0.640102
Si Si7 0.099193 0.382696 0.131634
Si Si8 0.975248 0.115289 0.188842
O O1 0.007592 0.123622 0.879902
O O2 0.053543 0.298854 0.940899
O O3 0.347880 0.165777 0.038308
O O4 0.000000 0.147854 0.000000
O O5 0.559180 0.500000 0.188738
O O6 0.555677 0.680255 0.136551
O O7 0.327677 0.637272 0.168423
O O8 0.752115 0.647825 0.295350
O O9 0.444828 0.324300 0.373719
O O10 0.078889 0.339265 0.318487
O O11 0.117596 0.360390 0.209495
O O12 0.152673 0.184684 0.269070
O O13 0.500000 0.384224 0.500000
O O14 0.610986 0.500000 0.442218
O O15 0.839292 0.344836 0.540776
O O16 0.241970 0.828061 0.858882
O O17 0.500000 0.722648 0.000000
O O18 0.987087 0.500000 0.635826
O O19 0.042799 0.500000 0.104214
O O20 0.975216 0.000000 0.208549
#
# Coordination Sequence:
#
# PCOD9142036 Si02
#       8
#     4   4   4   4   4   4   4   4
#     4  10  20  34  53  71  98 127 165 201 239 301
#     4  10  19  31  47  72 105 136 163 193 233 285
#     4  10  17  31  52  71  96 130 164 199 239 297
#     4   8  14  25  46  76 104 129 161 193 227 280
#     4  10  20  35  50  69  95 128 164 207 246 292
#     4   9  16  28  49  76 103 135 167 192 226 284
#     4  10  20  31  47  72 107 138 157 191 240 289
#     4  10  22  37  53  72  93 122 161 215 266 289
#
# _framework density 17.251525000000001
#
# number of rings (size 3 to 8) (size 9 to 14) (size 15 to 20)
#    0.000    2.375    2.500    1.875    0.000    3.500 
#    0.000    0.625    0.000    6.375    0.000    0.000 
#    0.000    4.000    0.000    0.000    0.000    0.000 
#
# Total GULP energy -178414.117810 kJ/mol
# GULP energy per Si atom -5575.441182 kJ/mol
# Density = 1.721226 g / cm^3
# Si number density = 17.251525 Si / 1000 Ang^3
#
#
#
# Elastic Constant Matrix: (Units=GPa)
#
#
# Indices 1 2 3 4 5 6 
#
# 1 49.2721 11.0620 12.1849 0.0000 2.8973 0.0000
# 2 11.0620 62.9381 22.5281 0.0000 9.3059 0.0000
# 3 12.1849 22.5281 70.8679 0.0000 16.1159 0.0000
# 4 0.0000 0.0000 0.0000 1.9097 0.0000 -2.6803
# 5 2.8973 9.3059 16.1159 0.0000 16.5652 0.0000
# 6 0.0000 0.0000 0.0000 -2.6803 0.0000 4.1114
#
#
#
# Elastic Compliance Matrix: (Units=1/GPa)
#
#
# Indices 1 2 3 4 5 6 
#
# 1 0.021628 -0.002841 -0.002977 0.000000 0.000709 0.000000
# 2 -0.002841 0.018749 -0.004095 0.000000 -0.006051 0.000000
# 3 -0.002977 -0.004095 0.019625 0.000000 -0.016271 0.000000
# 4 0.000000 0.000000 0.000000 6.158624 0.000000 4.014927
# 5 0.000709 -0.006051 -0.016271 0.000000 0.079472 0.000000
# 6 0.000000 0.000000 0.000000 4.014927 0.000000 2.860635
#
#
# Mechanical properties :
#
#
# Convention : Reuss Voigt Hill
#
# Bulk Modulus (GPa) = 24.89113 30.51423 27.70268
# Shear Modulus (GPa) = 0.54395 13.67081 7.10738
#
# Velocity S-wave (km/s) = 0.56213 2.81809 2.03195
# Velocity P-wave (km/s) = 3.85759 5.32119 4.64737
#
# Compressibility (1/GPa) = 0.04017496
#
# Stress axis : x y z
#
# Youngs Moduli (GPa) = 46.23702 53.33752 50.95636
#
# Poissons Ratio (x) = 0.15151 0.15169
# Poissons Ratio (y) = 0.13134 0.20869
# Poissons Ratio (z) = 0.13764 0.21844
#
# Static dielectric constant tensor:
#      x y z
#    x 1.611070 0.000000 0.017020 
#    y 0.000000 1.561280 0.000000 
#    z 0.017020 0.000000 1.612480 
# 
# From -- ./inp_files/34637.got.cif
#   From: 2010.05.17/outbox.cif.g08.bks.cpg/sg10_18_cif.got.tgz:34637.got - 2010.06.03 11:33:40.
