data_PCOD9142885
_publ_section_title
;
Structure prediction by ZEFSAII (Michael W. Deem and Ramdas Pophale) SiO2 
 PCOD9142885
Probable space group: P 2/M
;
_chemical_formula_sum "Si O2"
_cell_formula_units_Z 32
_cell_length_a 20.795721
_cell_length_b 9.040676
_cell_length_c 25.901149
_cell_angle_alpha 90.000000
_cell_angle_beta 22.724855
_cell_angle_gamma 90.000000
_cell_volume 1881.159418
_symmetry_space_group_name_H-M "P 2/M"
_symmetry_group_IT_number 10
_symmetry_cell_setting 'monoclinic'
loop_
_space_group_symop_operation_xyz
x,y,z
-x,y,-z
-x,-y,-z
x,-y,z
loop_
_atom_site_type_symbol
_atom_site_label
_atom_site_fract_x
_atom_site_fract_y
_atom_site_fract_z
Si Si1 0.843154 0.322186 0.381547
Si Si2 0.651677 0.677487 0.348555
Si Si3 0.652067 0.176776 0.701114
Si Si4 0.981410 0.322094 0.168012
Si Si5 0.326403 0.822251 0.880826
Si Si6 0.827377 0.329220 0.660808
Si Si7 0.051623 0.678150 0.583661
Si Si8 0.520506 0.822646 0.343488
O O1 0.816751 0.500000 0.399064
O O2 0.664151 0.245269 0.517604
O O3 0.935037 0.278277 0.260919
O O4 0.944712 0.288476 0.358500
O O5 0.500000 0.711724 0.500000
O O6 0.648805 0.500000 0.342255
O O7 0.620865 0.759682 0.317837
O O8 0.824907 0.717474 0.247607
O O9 0.470343 0.219754 0.815073
O O10 0.697349 0.234623 0.724543
O O11 0.789175 0.246485 0.561028
O O12 0.666693 0.000000 0.688239
O O13 0.996763 0.500000 0.155559
O O14 0.151547 0.250639 0.023307
O O15 0.392922 0.781155 0.774681
O O16 0.309730 0.000000 0.894451
O O17 0.772652 0.500000 0.703407
O O18 0.887492 0.278127 0.672784
O O19 0.000000 0.325290 0.500000
O O20 0.067677 0.500000 0.565261
O O21 0.510395 0.000000 0.353417
#
# Coordination Sequence:
#
# PCOD9142885 Si02
#       8
#     4   4   4   4   4   4   4   4
#     4  10  19  35  57  81 107 138 177 223 268 312
#     4  10  20  38  59  81 110 137 171 223 269 312
#     4  10  18  30  48  72 105 142 176 214 260 309
#     4  10  22  38  58  81 104 137 180 219 265 322
#     4  10  23  39  52  75 113 145 177 221 263 311
#     4   8  15  27  43  72 106 135 171 214 262 312
#     4   9  17  29  50  77 106 136 170 218 268 310
#     4  11  22  36  56  82 108 141 180 216 262 318
#
# _framework density 17.010784999999998
#
# number of rings (size 3 to 8) (size 9 to 14) (size 15 to 20)
#    0.000    2.250    2.500    1.500    0.000    6.000 
#    0.000    2.500    0.000    0.750    0.000    5.250 
#    0.000    0.000    0.000    0.000    0.000    0.000 
#
# Total GULP energy -178482.095177 kJ/mol
# GULP energy per Si atom -5577.565474 kJ/mol
# Density = 1.697207 g / cm^3
# Si number density = 17.010785 Si / 1000 Ang^3
#
#
#
# Elastic Constant Matrix: (Units=GPa)
#
#
# Indices 1 2 3 4 5 6 
#
# 1 174.9167 48.7638 76.2381 0.0000 -12.7038 0.0000
# 2 48.7638 26.3740 37.7103 0.0000 -4.4134 0.0000
# 3 76.2381 37.7103 113.4167 0.0000 -4.3246 0.0000
# 4 0.0000 0.0000 0.0000 43.3266 0.0000 -9.0924
# 5 -12.7038 -4.4134 -4.3246 0.0000 22.0874 0.0000
# 6 0.0000 0.0000 0.0000 -9.0924 0.0000 27.2161
#
#
#
# Elastic Compliance Matrix: (Units=1/GPa)
#
#
# Indices 1 2 3 4 5 6 
#
# 1 0.012051 -0.019816 -0.001409 0.000000 0.002696 0.000000
# 2 -0.019816 0.107033 -0.022051 0.000000 0.005672 0.000000
# 3 -0.001409 -0.022051 0.017025 0.000000 -0.001884 0.000000
# 4 0.000000 0.000000 0.000000 0.024821 0.000000 0.008292
# 5 0.002696 0.005672 -0.001884 0.000000 0.047590 0.000000
# 6 0.000000 0.000000 0.000000 0.008292 0.000000 0.039513
#
#
# Mechanical properties :
#
#
# Convention : Reuss Voigt Hill
#
# Bulk Modulus (GPa) = 20.17935 71.12575 45.65255
# Shear Modulus (GPa) = 14.24076 28.65902 21.44989
#
# Velocity S-wave (km/s) = 2.89651 4.10903 3.55485
# Velocity P-wave (km/s) = 4.80362 8.02590 6.61400
#
# Compressibility (1/GPa) = 0.04955561
#
# Stress axis : x y z
#
# Youngs Moduli (GPa) = 82.97755 9.34292 58.73842
#
# Poissons Ratio (x) = 0.18514 0.08279
# Poissons Ratio (y) = 1.64427 1.29526
# Poissons Ratio (z) = 0.11696 0.20602
#
# Static dielectric constant tensor:
#      x y z
#    x 1.605720 0.000000 -0.005590 
#    y 0.000000 1.568640 0.000000 
#    z -0.005590 0.000000 1.534690 
# 
# From -- ./inp_files/93640.got.cif
#   From: 2010.05.17/outbox.cif.g08.bks.cpg/sg10_47_cif.got.tgz:93640.got - 2010.06.03 11:33:40.
