data_PCOD9142849
_publ_section_title
;
Structure prediction by ZEFSAII (Michael W. Deem and Ramdas Pophale) SiO2 
 PCOD9142849
Probable space group: P 2/M
;
_chemical_formula_sum "Si O2"
_cell_formula_units_Z 24
_cell_length_a 17.336151
_cell_length_b 8.082919
_cell_length_c 23.977517
_cell_angle_alpha 90.000000
_cell_angle_beta 23.766306
_cell_angle_gamma 90.000000
_cell_volume 1354.059919
_symmetry_space_group_name_H-M "P 2/M"
_symmetry_group_IT_number 10
_symmetry_cell_setting 'monoclinic'
loop_
_space_group_symop_operation_xyz
x,y,z
-x,y,-z
-x,-y,-z
x,-y,z
loop_
_atom_site_type_symbol
_atom_site_label
_atom_site_fract_x
_atom_site_fract_y
_atom_site_fract_z
Si Si1 0.006895 0.191571 0.085055
Si Si2 0.632724 0.696251 0.640586
Si Si3 0.716823 0.304983 0.195188
Si Si4 0.349016 0.799183 0.928231
Si Si5 0.967488 0.196588 0.583948
Si Si6 0.561928 0.797355 0.897937
O O1 0.812628 0.274685 0.191680
O O2 0.965002 0.000000 0.122821
O O3 0.154166 0.209344 0.935483
O O4 0.137853 0.258857 0.048758
O O5 0.659546 0.500000 0.622068
O O6 0.500823 0.743098 0.674684
O O7 0.505521 0.741900 0.779130
O O8 0.839716 0.776241 0.508966
O O9 0.736410 0.500000 0.169359
O O10 0.418039 0.748020 0.943588
O O11 0.347052 0.000000 0.927221
O O12 0.000000 0.265837 0.500000
O O13 0.774315 0.260334 0.740199
O O14 0.938249 0.000000 0.596983
O O15 0.562525 0.000000 0.898515
O O16 0.500000 0.740858 0.000000
#
# Coordination Sequence:
#
# PCOD9142849 Si02
#       6
#     4   4   4   4   4   4
#     4   9  15  22  37  59  84 114 144 178 220 261
#     4  10  19  28  42  65  91 120 150 183 224 265
#     4   9  16  25  36  55  86 117 144 177 217 263
#     4   9  16  28  44  64  90 118 150 186 222 265
#     4  10  18  30  48  68  89 117 151 186 223 264
#     4   9  17  30  48  68  90 118 151 184 221 267
#
# _framework density 17.724473
#
# number of rings (size 3 to 8) (size 9 to 14) (size 15 to 20)
#    0.000    2.667    1.667    2.500    0.000    3.000 
#    0.000    0.000    0.000    2.000    0.000    1.167 
#    0.000    9.333    0.000    0.000    0.000    0.000 
#
# Total GULP energy -133619.226948 kJ/mol
# GULP energy per Si atom -5567.467789 kJ/mol
# Density = 1.768413 g / cm^3
# Si number density = 17.724473 Si / 1000 Ang^3
#
#
#
# Elastic Constant Matrix: (Units=GPa)
#
#
# Indices 1 2 3 4 5 6 
#
# 1 130.6082 0.4571 80.6420 0.0000 -28.7016 0.0000
# 2 0.4571 7.7910 2.6934 0.0000 5.1656 0.0000
# 3 80.6420 2.6934 88.5529 0.0000 -18.4331 0.0000
# 4 0.0000 0.0000 0.0000 22.6527 0.0000 -7.8630
# 5 -28.7016 5.1656 -18.4331 0.0000 28.0961 0.0000
# 6 0.0000 0.0000 0.0000 -7.8630 0.0000 4.0117
#
#
#
# Elastic Compliance Matrix: (Units=1/GPa)
#
#
# Indices 1 2 3 4 5 6 
#
# 1 0.019526 -0.002509 -0.015586 0.000000 0.010183 0.000000
# 2 -0.002509 0.157620 -0.010511 0.000000 -0.038438 0.000000
# 3 -0.015586 -0.010511 0.026515 0.000000 0.003406 0.000000
# 4 0.000000 0.000000 0.000000 0.138100 0.000000 0.270678
# 5 0.010183 -0.038438 0.003406 0.000000 0.055297 0.000000
# 6 0.000000 0.000000 0.000000 0.270678 0.000000 0.779808
#
#
# Mechanical properties :
#
#
# Convention : Reuss Voigt Hill
#
# Bulk Modulus (GPa) = 6.82825 43.83745 25.33285
# Shear Modulus (GPa) = 3.89744 20.49606 12.19675
#
# Velocity S-wave (km/s) = 1.48448 3.40423 2.62607
# Velocity P-wave (km/s) = 2.60750 6.34336 4.84960
#
# Compressibility (1/GPa) = 0.14645045
#
# Stress axis : x y z
#
# Youngs Moduli (GPa) = 51.21313 6.34436 37.71458
#
# Poissons Ratio (x) = 0.01592 0.58781
# Poissons Ratio (y) = 0.12849 0.39641
# Poissons Ratio (z) = 0.79820 0.06668
#
# Static dielectric constant tensor:
#      x y z
#    x 1.650070 0.000000 -0.054780 
#    y 0.000000 1.614400 0.000000 
#    z -0.054780 0.000000 1.592270 
# 
# From -- ./inp_files/33447.got.cif
#   From: 2010.05.17/outbox.cif.g08.bks.cpg/sg10_17_cif.got.tgz:33447.got - 2010.06.03 11:33:40.
