data_PCOD9142407
_publ_section_title
;
Structure prediction by ZEFSAII (Michael W. Deem and Ramdas Pophale) SiO2 
 PCOD9142407
Probable space group: P 2/M
;
_chemical_formula_sum "Si O2"
_cell_formula_units_Z 32
_cell_length_a 10.263926
_cell_length_b 13.980620
_cell_length_c 15.131891
_cell_angle_alpha 90.000000
_cell_angle_beta 39.193868
_cell_angle_gamma 90.000000
_cell_volume 1372.187206
_symmetry_space_group_name_H-M "P 2/M"
_symmetry_group_IT_number 10
_symmetry_cell_setting 'monoclinic'
loop_
_space_group_symop_operation_xyz
x,y,z
-x,y,-z
-x,-y,-z
x,-y,z
loop_
_atom_site_type_symbol
_atom_site_label
_atom_site_fract_x
_atom_site_fract_y
_atom_site_fract_z
Si Si1 0.264693 0.245122 0.968624
Si Si2 0.402273 0.608890 0.149919
Si Si3 0.835334 0.885156 0.807977
Si Si4 0.063816 0.610845 0.633030
Si Si5 0.482022 0.301230 0.408159
Si Si6 0.417981 0.110422 0.235660
Si Si7 0.288139 0.889941 0.491932
Si Si8 0.904123 0.611959 0.169594
O O1 0.218119 0.184633 0.082959
O O2 0.071608 0.311520 0.050060
O O3 0.452191 0.319190 0.877295
O O4 0.370738 0.165275 0.852495
O O5 0.411155 0.500000 0.178958
O O6 0.165187 0.641132 0.273250
O O7 0.500000 0.606472 0.000000
O O8 0.688256 0.863017 0.801482
O O9 0.073113 0.869737 0.654213
O O10 0.811284 0.000000 0.840278
O O11 0.086168 0.500000 0.597137
O O12 0.258948 0.665639 0.491183
O O13 0.072274 0.616253 0.735551
O O14 0.500000 0.336437 0.500000
O O15 0.463113 0.187099 0.422194
O O16 0.679235 0.349468 0.260782
O O17 0.262909 0.119379 0.399212
O O18 0.470903 0.000000 0.199024
O O19 0.346357 0.000000 0.479465
O O20 0.933647 0.500000 0.130649
#
# Coordination Sequence:
#
# PCOD9142407 Si02
#       8
#     4   4   4   4   4   4   4   4
#     4  12  21  32  58  90 122 151 192 237 283 336
#     4  10  18  28  46  80 119 151 182 229 290 342
#     4  10  20  35  57  87 120 153 192 238 283 337
#     4   9  17  30  50  80 115 146 184 235 288 338
#     4  10  20  35  59  84 109 147 202 245 285 330
#     4  10  22  38  56  83 120 158 192 229 288 358
#     4  10  22  40  59  81 115 155 193 238 294 351
#     4  10  20  34  53  84 117 148 191 240 287 336
#
# _framework density 23.320433999999999
#
# number of rings (size 3 to 8) (size 9 to 14) (size 15 to 20)
#    0.000    1.875    1.250    4.125    1.750    4.250 
#    0.000    1.875    0.000    5.250    0.000    1.750 
#    0.000    0.000    0.000    0.000    0.000    0.000 
#
# Total GULP energy -178825.434528 kJ/mol
# GULP energy per Si atom -5588.294829 kJ/mol
# Density = 2.326736 g / cm^3
# Si number density = 23.320434 Si / 1000 Ang^3
#
#
#
# Elastic Constant Matrix: (Units=GPa)
#
#
# Indices 1 2 3 4 5 6 
#
# 1 60.1901 45.7356 45.8142 0.0000 -11.0779 0.0000
# 2 45.7356 127.4580 59.5178 0.0000 -24.6794 0.0000
# 3 45.8142 59.5178 124.9815 0.0000 -23.4862 0.0000
# 4 0.0000 0.0000 0.0000 30.1675 0.0000 -23.3776
# 5 -11.0779 -24.6794 -23.4862 0.0000 28.6695 0.0000
# 6 0.0000 0.0000 0.0000 -23.3776 0.0000 5.6156
#
#
#
# Elastic Compliance Matrix: (Units=1/GPa)
#
#
# Indices 1 2 3 4 5 6 
#
# 1 0.026598 -0.006546 -0.006808 0.000000 -0.000935 0.000000
# 2 -0.006546 0.012527 -0.002382 0.000000 0.006303 0.000000
# 3 -0.006808 -0.002382 0.012708 0.000000 0.005729 0.000000
# 4 0.000000 0.000000 0.000000 -0.014892 0.000000 -0.061993
# 5 -0.000935 0.006303 0.005729 0.000000 0.044639 0.000000
# 6 0.000000 0.000000 0.000000 -0.061993 0.000000 -0.079999
#
#
# Mechanical properties :
#
#
# Convention : Reuss Voigt Hill
#
# Bulk Modulus (GPa) = 49.11307 68.30721 58.71014
# Shear Modulus (GPa) = 125.49971 23.66134 74.58052
#
# Velocity S-wave (km/s) = 7.34385 3.18876 5.66129
# Velocity P-wave (km/s) = 9.64445 6.55072 8.24401
#
# Compressibility (1/GPa) = 0.02036118
#
# Stress axis : x y z
#
# Youngs Moduli (GPa) = 37.59646 79.82631 78.69233
#
# Poissons Ratio (x) = 0.52254 0.53578
# Poissons Ratio (y) = 0.24610 0.18741
# Poissons Ratio (z) = 0.25598 0.19011
#
# Static dielectric constant tensor:
#      x y z
#    x 1.909890 0.000000 0.036200 
#    y 0.000000 1.919590 0.000000 
#    z 0.036200 0.000000 1.907770 
# 
# From -- ./inp_files/76986.got.cif
#   From: 2010.05.17/outbox.cif.g08.bks.cpg/sg10_39_cif.got.tgz:76986.got - 2010.06.03 11:33:40.
