data_PCOD9142504
_publ_section_title
;
Structure prediction by ZEFSAII (Michael W. Deem and Ramdas Pophale) SiO2 
 PCOD9142504
Probable space group: P 2/M
;
_chemical_formula_sum "Si O2"
_cell_formula_units_Z 28
_cell_length_a 25.943313
_cell_length_b 7.326916
_cell_length_c 19.428082
_cell_angle_alpha 90.000000
_cell_angle_beta 19.054113
_cell_angle_gamma 90.000000
_cell_volume 1205.612904
_symmetry_space_group_name_H-M "P 2/M"
_symmetry_group_IT_number 10
_symmetry_cell_setting 'monoclinic'
loop_
_space_group_symop_operation_xyz
x,y,z
-x,y,-z
-x,-y,-z
x,-y,z
loop_
_atom_site_type_symbol
_atom_site_label
_atom_site_fract_x
_atom_site_fract_y
_atom_site_fract_z
Si Si1 0.496203 0.278969 0.925673
Si Si2 0.644666 0.777817 0.270857
Si Si3 0.842521 0.291668 0.667950
Si Si4 0.013797 0.780166 0.320732
Si Si5 0.669648 0.211721 0.573266
Si Si6 0.365157 0.221965 0.877107
Si Si7 0.006815 0.222575 0.169903
O O1 0.494198 0.500000 0.928783
O O2 0.632530 0.220312 0.701712
O O3 0.500000 0.218203 0.000000
O O4 0.329635 0.211552 0.104211
O O5 0.500000 0.715074 0.500000
O O6 0.623672 0.726605 0.217413
O O7 0.644175 0.000000 0.272674
O O8 0.819816 0.720670 0.074178
O O9 0.836931 0.500000 0.699662
O O10 0.000000 0.203101 0.500000
O O11 0.879011 0.293334 0.540366
O O12 0.999742 0.725209 0.259304
O O13 0.005706 0.000000 0.333363
O O14 0.189845 0.722985 0.123067
O O15 0.516537 0.290142 0.727978
O O16 0.844859 0.287317 0.339608
O O17 0.675598 0.000000 0.545135
O O18 0.364169 0.000000 0.881255
O O19 0.004369 0.000000 0.171055
#
# Coordination Sequence:
#
# PCOD9142504 Si02
#       7
#     4   4   4   4   4   4   4
#     4  10  21  34  45  60  86 117 147 182 221 260
#     4   8  13  24  42  63  91 123 144 162 205 266
#     4  10  20  31  42  59  83 108 138 181 223 252
#     4   9  16  28  44  59  79 109 144 177 209 254
#     4  10  18  29  45  64  88 114 143 183 221 252
#     4   8  15  26  41  63  88 114 144 178 214 251
#     4   8  15  26  41  62  85 110 141 175 208 245
#
# _framework density 23.224701
#
# number of rings (size 3 to 8) (size 9 to 14) (size 15 to 20)
#    0.000    3.000    0.000    3.429    0.000    1.143 
#    0.000    0.714    0.000    4.286    0.000    0.000 
#    0.000   21.714    0.000    0.000    0.000    0.000 
#
# Total GULP energy -156363.828158 kJ/mol
# GULP energy per Si atom -5584.422434 kJ/mol
# Density = 2.317184 g / cm^3
# Si number density = 23.224701 Si / 1000 Ang^3
#
#
#
# Elastic Constant Matrix: (Units=GPa)
#
#
# Indices 1 2 3 4 5 6 
#
# 1 44.6090 0.5338 35.2951 0.0000 -21.4701 0.0000
# 2 0.5338 97.2429 -1.2013 0.0000 -4.6040 0.0000
# 3 35.2951 -1.2013 180.0058 0.0000 -21.2464 0.0000
# 4 0.0000 0.0000 0.0000 3.2628 0.0000 15.2515
# 5 -21.4701 -4.6040 -21.2464 0.0000 45.8085 0.0000
# 6 0.0000 0.0000 0.0000 15.2515 0.0000 6.7168
#
#
#
# Elastic Compliance Matrix: (Units=1/GPa)
#
#
# Indices 1 2 3 4 5 6 
#
# 1 0.032510 0.000379 -0.004834 0.000000 0.013033 0.000000
# 2 0.000379 0.010344 0.000146 0.000000 0.001285 0.000000
# 3 -0.004834 0.000146 0.006600 0.000000 0.000810 0.000000
# 4 0.000000 0.000000 0.000000 -0.031879 0.000000 0.072387
# 5 0.013033 0.001285 0.000810 0.000000 0.028444 0.000000
# 6 0.000000 0.000000 0.000000 0.072387 0.000000 -0.015486
#
#
# Mechanical properties :
#
#
# Convention : Reuss Voigt Hill
#
# Bulk Modulus (GPa) = 24.48752 43.45700 33.97226
# Shear Modulus (GPa) = 94.76700 30.30627 62.53664
#
# Velocity S-wave (km/s) = 6.39476 3.61628 5.19473
# Velocity P-wave (km/s) = 8.06787 6.01571 7.11616
#
# Compressibility (1/GPa) = 0.04083713
#
# Stress axis : x y z
#
# Youngs Moduli (GPa) = 30.76001 96.67347 151.52110
#
# Poissons Ratio (x) = -0.03663 0.73238
# Poissons Ratio (y) = -0.01165 -0.02219
# Poissons Ratio (z) = 0.14868 -0.01416
#
# Static dielectric constant tensor:
#      x y z
#    x 1.891790 0.000000 -0.048930 
#    y 0.000000 1.872980 0.000000 
#    z -0.048930 0.000000 1.859840 
# 
# From -- ./inp_files/67150.got.cif
#   From: 2010.05.17/outbox.cif.g08.bks.cpg/sg10_34_cif.got.tgz:67150.got - 2010.06.03 11:33:40.
