data_PCOD9142053
_publ_section_title
;
Structure prediction by ZEFSAII (Michael W. Deem and Ramdas Pophale) SiO2 
 PCOD9142053
Probable space group: P 2/M
;
_chemical_formula_sum "Si O2"
_cell_formula_units_Z 26
_cell_length_a 13.566755
_cell_length_b 7.284847
_cell_length_c 10.053876
_cell_angle_alpha 90.000000
_cell_angle_beta 108.507889
_cell_angle_gamma 90.000000
_cell_volume 942.250796
_symmetry_space_group_name_H-M "P 2/M"
_symmetry_group_IT_number 10
_symmetry_cell_setting 'monoclinic'
loop_
_space_group_symop_operation_xyz
x,y,z
-x,y,-z
-x,-y,-z
x,-y,z
loop_
_atom_site_type_symbol
_atom_site_label
_atom_site_fract_x
_atom_site_fract_y
_atom_site_fract_z
Si Si1 0.312995 0.781512 0.585632
Si Si2 0.444506 0.712574 0.102722
Si Si3 0.883723 0.500000 0.097524
Si Si4 0.360057 0.287055 0.323052
Si Si5 0.742295 0.218739 0.154388
Si Si6 0.875868 0.788543 0.849643
Si Si7 0.923515 0.776343 0.584686
O O1 0.379946 0.719401 0.488634
O O2 0.326905 0.730026 0.745241
O O3 0.193852 0.724910 0.505856
O O4 0.237917 0.000000 0.834029
O O5 0.476932 0.500000 0.121860
O O6 0.441528 0.790764 0.250285
O O7 0.500000 0.802897 0.000000
O O8 0.324959 0.725576 0.002589
O O9 0.844204 0.339091 0.187444
O O10 0.891273 0.659944 0.981879
O O11 0.245602 0.207252 0.247377
O O12 0.316795 0.000000 0.582601
O O13 0.649108 0.500000 0.716136
O O14 0.935064 0.712529 0.742905
O O15 0.903570 0.000000 0.886965
O O16 0.000000 0.717894 0.500000
O O17 0.928415 0.000000 0.592862
#
# Coordination Sequence:
#
# PCOD9142053 Si02
#       7
#     4   4   2   4   4   4   4
#     4   9  20  34  54  82 111 147 190 232 280 335
#     4  10  20  36  57  84 114 146 186 231 278 333
#     4  12  20  34  54  83 106 149 187 237 272 338
#     4  10  17  31  54  82 108 144 187 228 270 324
#     4  11  22  37  56  82 113 147 188 232 282 334
#     4  10  18  31  54  82 110 142 189 236 273 326
#     4   8  15  31  57  86 114 147 188 234 280 330
#
# _framework density 27.593501
#
# number of rings (size 3 to 8) (size 9 to 14) (size 15 to 20)
#    0.000    2.154    3.077    1.846    1.077    0.923 
#    0.000    1.154    0.000    6.462    0.000    5.385 
#    0.000    0.000    0.000    0.000    0.000    0.000 
#
# Total GULP energy -145052.816282 kJ/mol
# GULP energy per Si atom -5578.954472 kJ/mol
# Density = 2.753070 g / cm^3
# Si number density = 27.593501 Si / 1000 Ang^3
#
#
#
# Elastic Constant Matrix: (Units=GPa)
#
#
# Indices 1 2 3 4 5 6 
#
# 1 101.9592 10.9782 61.9117 0.0000 -36.2812 0.0000
# 2 10.9782 186.9201 26.6670 0.0000 -22.4879 0.0000
# 3 61.9117 26.6670 244.2963 0.0000 -60.1096 0.0000
# 4 0.0000 0.0000 0.0000 18.2660 0.0000 -25.3388
# 5 -36.2812 -22.4879 -60.1096 0.0000 73.9171 0.0000
# 6 0.0000 0.0000 0.0000 -25.3388 0.0000 -12.4319
#
#
#
# Elastic Compliance Matrix: (Units=1/GPa)
#
#
# Indices 1 2 3 4 5 6 
#
# 1 0.012696 0.000102 -0.002110 0.000000 0.004547 0.000000
# 2 0.000102 0.005565 -0.000256 0.000000 0.001535 0.000000
# 3 -0.002110 -0.000256 0.005478 0.000000 0.003341 0.000000
# 4 0.000000 0.000000 0.000000 0.014304 0.000000 -0.029154
# 5 0.004547 0.001535 0.003341 0.000000 0.018945 0.000000
# 6 0.000000 0.000000 0.000000 -0.029154 0.000000 -0.021016
#
#
# Mechanical properties :
#
#
# Convention : Reuss Voigt Hill
#
# Bulk Modulus (GPa) = 52.04813 81.36551 66.70682
# Shear Modulus (GPa) = 106.60441 44.85814 75.73128
#
# Velocity S-wave (km/s) = 6.22236 4.03634 5.24451
# Velocity P-wave (km/s) = 8.39804 7.16058 7.80388
#
# Compressibility (1/GPa) = 0.01921298
#
# Stress axis : x y z
#
# Youngs Moduli (GPa) = 78.76487 179.69254 182.54225
#
# Poissons Ratio (x) = -0.01840 0.38515
# Poissons Ratio (y) = -0.00806 0.04666
# Poissons Ratio (z) = 0.16619 0.04593
#
# Static dielectric constant tensor:
#      x y z
#    x 2.295510 0.000000 -0.002500 
#    y 0.000000 2.101470 0.000000 
#    z -0.002500 0.000000 2.158390 
# 
# From -- ./inp_files/31590.got.cif
#   From: 2010.05.17/outbox.cif.g08.bks.cpg/sg10_16_cif.got.tgz:31590.got - 2010.06.03 11:33:40.
