data_PCOD9142164
_publ_section_title
;
Structure prediction by ZEFSAII (Michael W. Deem and Ramdas Pophale) SiO2 
 PCOD9142164
Probable space group: P 2/M
;
_chemical_formula_sum "Si O2"
_cell_formula_units_Z 32
_cell_length_a 17.729607
_cell_length_b 7.715989
_cell_length_c 14.408381
_cell_angle_alpha 90.000000
_cell_angle_beta 102.961576
_cell_angle_gamma 90.000000
_cell_volume 1920.865529
_symmetry_space_group_name_H-M "P 2/M"
_symmetry_group_IT_number 10
_symmetry_cell_setting 'monoclinic'
loop_
_space_group_symop_operation_xyz
x,y,z
-x,y,-z
-x,-y,-z
x,-y,z
loop_
_atom_site_type_symbol
_atom_site_label
_atom_site_fract_x
_atom_site_fract_y
_atom_site_fract_z
Si Si1 0.168070 0.787300 0.936672
Si Si2 0.000516 0.202788 0.112993
Si Si3 0.168317 0.790735 0.152354
Si Si4 0.665753 0.704770 0.764050
Si Si5 0.425623 0.302089 0.757899
Si Si6 0.673520 0.203921 0.105252
Si Si7 0.426485 0.800787 0.088565
Si Si8 0.481910 0.712100 0.391250
O O1 0.083023 0.725049 0.881133
O O2 0.241393 0.728666 0.896730
O O3 0.165396 0.000000 0.934989
O O4 0.178712 0.735462 0.047447
O O5 0.084483 0.275455 0.163431
O O6 0.000693 0.000000 0.139997
O O7 0.000000 0.207900 0.000000
O O8 0.244365 0.737874 0.229195
O O9 0.164680 0.000000 0.150358
O O10 0.654538 0.500000 0.775465
O O11 0.641073 0.796147 0.852989
O O12 0.603402 0.760791 0.669622
O O13 0.404416 0.500000 0.734917
O O14 0.356637 0.223017 0.798911
O O15 0.501462 0.293539 0.844717
O O16 0.456166 0.226262 0.668975
O O17 0.675828 0.000000 0.083747
O O18 0.609405 0.274768 0.015305
O O19 0.451738 0.000000 0.081353
O O20 0.500000 0.770393 0.500000
O O21 0.484573 0.500000 0.391479
#
# Coordination Sequence:
#
# PCOD9142164 Si02
#       8
#     4   4   4   4   4   4   4   4
#     4   8  13  23  37  56  78 108 146 170 187 218
#     4   7  11  19  36  56  74 101 142 178 190 209
#     4   9  14  24  40  58  80 108 139 169 197 229
#     4  10  18  26  41  64  83 103 132 169 208 241
#     4  10  20  30  42  61  79  99 130 168 207 240
#     4  10  18  27  40  57  81 112 140 163 189 229
#     4  10  18  29  42  56  78 110 141 164 192 230
#     4   8  16  32  48  58  73 100 133 166 202 247
#
# _framework density 16.659154999999998
#
# number of rings (size 3 to 8) (size 9 to 14) (size 15 to 20)
#    0.000    3.000    1.250    3.750    0.000    2.500 
#    0.000    0.000    0.000   17.625    0.000    0.000 
#    0.000    1.000    0.000   12.500    0.000    0.000 
#
# Total GULP energy -178169.006188 kJ/mol
# GULP energy per Si atom -5567.781443 kJ/mol
# Density = 1.662124 g / cm^3
# Si number density = 16.659155 Si / 1000 Ang^3
#
#
#
# Elastic Constant Matrix: (Units=GPa)
#
#
# Indices 1 2 3 4 5 6 
#
# 1 112.7024 -1.2088 53.9913 0.0000 -6.0105 0.0000
# 2 -1.2088 27.5231 2.8731 0.0000 -0.8975 0.0000
# 3 53.9913 2.8731 83.1727 0.0000 -4.6230 0.0000
# 4 0.0000 0.0000 0.0000 8.3948 0.0000 -4.9376
# 5 -6.0105 -0.8975 -4.6230 0.0000 13.3791 0.0000
# 6 0.0000 0.0000 0.0000 -4.9376 0.0000 -7.0999
#
#
#
# Elastic Compliance Matrix: (Units=1/GPa)
#
#
# Indices 1 2 3 4 5 6 
#
# 1 0.013058 0.001547 -0.008359 0.000000 0.003082 0.000000
# 2 0.001547 0.036703 -0.002137 0.000000 0.002418 0.000000
# 3 -0.008359 -0.002137 0.017645 0.000000 0.002199 0.000000
# 4 0.000000 0.000000 0.000000 0.084540 0.000000 -0.058793
# 5 0.003082 0.002418 0.002199 0.000000 0.077050 0.000000
# 6 0.000000 0.000000 0.000000 -0.058793 0.000000 -0.099959
#
#
# Mechanical properties :
#
#
# Convention : Reuss Voigt Hill
#
# Bulk Modulus (GPa) = 20.19905 37.18994 28.69450
# Shear Modulus (GPa) = 30.59233 14.11765 22.35499
#
# Velocity S-wave (km/s) = 4.28993 2.91424 3.66717
# Velocity P-wave (km/s) = 6.05717 5.80485 5.93235
#
# Compressibility (1/GPa) = 0.04950727
#
# Stress axis : x y z
#
# Youngs Moduli (GPa) = 76.57990 27.24572 56.67224
#
# Poissons Ratio (x) = -0.04214 0.47371
# Poissons Ratio (y) = -0.11844 0.12113
# Poissons Ratio (z) = 0.64012 0.05823
#
# Static dielectric constant tensor:
#      x y z
#    x 1.623240 0.000000 0.011860 
#    y 0.000000 1.619910 0.000000 
#    z 0.011860 0.000000 1.534830 
# 
# From -- ./inp_files/68233.got.cif
#   From: 2010.05.17/outbox.cif.g08.bks.cpg/sg10_35_cif.got.tgz:68233.got - 2010.06.03 11:33:40.
