data_PCOD9142514
_publ_section_title
;
Structure prediction by ZEFSAII (Michael W. Deem and Ramdas Pophale) SiO2 
 PCOD9142514
Probable space group: P 2/M
;
_chemical_formula_sum "Si O2"
_cell_formula_units_Z 30
_cell_length_a 18.127391
_cell_length_b 7.725902
_cell_length_c 29.501406
_cell_angle_alpha 90.000000
_cell_angle_beta 21.871553
_cell_angle_gamma 90.000000
_cell_volume 1539.164544
_symmetry_space_group_name_H-M "P 2/M"
_symmetry_group_IT_number 10
_symmetry_cell_setting 'monoclinic'
loop_
_space_group_symop_operation_xyz
x,y,z
-x,y,-z
-x,-y,-z
x,-y,z
loop_
_atom_site_type_symbol
_atom_site_label
_atom_site_fract_x
_atom_site_fract_y
_atom_site_fract_z
Si Si1 0.192799 0.199580 0.022905
Si Si2 0.535566 0.302664 0.770010
Si Si3 0.521515 0.708211 0.299857
Si Si4 0.944431 0.797399 0.081039
Si Si5 0.920217 0.703885 0.448191
Si Si6 0.000000 0.757840 0.500000
Si Si7 0.755544 0.209300 0.809974
Si Si8 0.300735 0.211785 0.057029
O O1 0.194598 0.276329 0.072177
O O2 0.059542 0.277664 0.058622
O O3 0.129138 0.000000 0.064149
O O4 0.418394 0.203256 0.875598
O O5 0.467138 0.500000 0.812408
O O6 0.475067 0.233670 0.754864
O O7 0.773003 0.307147 0.636934
O O8 0.540390 0.500000 0.289121
O O9 0.708267 0.782723 0.219427
O O10 0.300419 0.748926 0.442757
O O11 0.001988 0.000000 0.046301
O O12 0.000000 0.720420 0.000000
O O13 0.915530 0.500000 0.466104
O O14 0.966930 0.814130 0.466519
O O15 0.083487 0.723271 0.316819
O O16 0.787141 0.263439 0.844250
O O17 0.761493 0.000000 0.805099
O O18 0.532122 0.263054 0.924600
O O19 0.299782 0.000000 0.056710
#
# Coordination Sequence:
#
# PCOD9142514 Si02
#       8
#     4   4   4   4   4   2   4   4
#     4  10  19  31  48  69  95 123 152 193 240 278
#     4  10  18  29  45  66  92 126 159 187 221 272
#     4   9  19  32  46  65  93 128 161 186 226 286
#     4  10  19  31  47  69  95 122 155 199 241 273
#     4  10  19  32  49  70  96 128 159 192 232 277
#     4  10  19  32  47  66  99 132 157 184 223 278
#     4   9  17  32  52  72  95 125 159 192 231 279
#     4   8  16  31  50  71  96 125 156 191 234 284
#
# _framework density 19.491094
#
# number of rings (size 3 to 8) (size 9 to 14) (size 15 to 20)
#    0.000    2.533    1.333    3.600    0.000    1.333 
#    0.000    4.667    0.000    0.800    0.000    5.600 
#    0.000    0.000    0.000    0.000    0.000    0.000 
#
# Total GULP energy -167025.523861 kJ/mol
# GULP energy per Si atom -5567.517462 kJ/mol
# Density = 1.944673 g / cm^3
# Si number density = 19.491094 Si / 1000 Ang^3
#
#
#
# Elastic Constant Matrix: (Units=GPa)
#
#
# Indices 1 2 3 4 5 6 
#
# 1 160.5802 13.7825 61.1279 0.0000 -3.5307 0.0000
# 2 13.7825 37.9040 5.6612 0.0000 -2.2067 0.0000
# 3 61.1279 5.6612 100.2968 0.0000 2.9595 0.0000
# 4 0.0000 0.0000 0.0000 25.1228 0.0000 -2.1783
# 5 -3.5307 -2.2067 2.9595 0.0000 30.5071 0.0000
# 6 0.0000 0.0000 0.0000 -2.1783 0.0000 5.5106
#
#
#
# Elastic Compliance Matrix: (Units=1/GPa)
#
#
# Indices 1 2 3 4 5 6 
#
# 1 0.008350 -0.002214 -0.005002 0.000000 0.001292 0.000000
# 2 -0.002214 0.027325 -0.000245 0.000000 0.001744 0.000000
# 3 -0.005002 -0.000245 0.013088 0.000000 -0.001866 0.000000
# 4 0.000000 0.000000 0.000000 0.041217 0.000000 0.016293
# 5 0.001292 0.001744 -0.001866 0.000000 0.033236 0.000000
# 6 0.000000 0.000000 0.000000 0.016293 0.000000 0.187910
#
#
# Mechanical properties :
#
#
# Convention : Reuss Voigt Hill
#
# Bulk Modulus (GPa) = 29.54891 51.10268 40.32580
# Shear Modulus (GPa) = 14.82235 26.77539 20.79887
#
# Velocity S-wave (km/s) = 2.76065 3.71040 3.27019
# Velocity P-wave (km/s) = 5.03535 6.68068 5.91550
#
# Compressibility (1/GPa) = 0.03384219
#
# Stress axis : x y z
#
# Youngs Moduli (GPa) = 119.76001 36.59587 76.40587
#
# Poissons Ratio (x) = 0.08102 0.38220
# Poissons Ratio (y) = 0.26514 0.01868
# Poissons Ratio (z) = 0.59907 0.00895
#
# Static dielectric constant tensor:
#      x y z
#    x 1.705260 0.000000 -0.010960 
#    y 0.000000 1.774960 0.000000 
#    z -0.010960 0.000000 1.659720 
# 
# From -- ./inp_files/77561.got.cif
#   From: 2010.05.17/outbox.cif.g08.bks.cpg/sg10_39_cif.got.tgz:77561.got - 2010.06.03 11:33:40.
