data_PCOD9142632
_publ_section_title
;
Structure prediction by ZEFSAII (Michael W. Deem and Ramdas Pophale) SiO2 
 PCOD9142632
Probable space group: P 2/M
;
_chemical_formula_sum "Si O2"
_cell_formula_units_Z 28
_cell_length_a 9.938706
_cell_length_b 12.985901
_cell_length_c 14.228439
_cell_angle_alpha 90.000000
_cell_angle_beta 67.550399
_cell_angle_gamma 90.000000
_cell_volume 1697.198244
_symmetry_space_group_name_H-M "P 2/M"
_symmetry_group_IT_number 10
_symmetry_cell_setting 'monoclinic'
loop_
_space_group_symop_operation_xyz
x,y,z
-x,y,-z
-x,-y,-z
x,-y,z
loop_
_atom_site_type_symbol
_atom_site_label
_atom_site_fract_x
_atom_site_fract_y
_atom_site_fract_z
Si Si1 0.173888 0.874680 0.957763
Si Si2 0.862847 0.275076 0.487965
Si Si3 0.650255 0.382824 0.403075
Si Si4 0.777168 0.881125 0.850162
Si Si5 0.657836 0.813233 0.271275
Si Si6 0.326989 0.123712 0.327890
Si Si7 0.082513 0.888348 0.676913
O O1 0.260400 0.822534 0.849801
O O2 0.189757 0.000000 0.945736
O O3 0.239962 0.838485 0.040445
O O4 0.000000 0.854202 0.000000
O O5 0.768451 0.350399 0.449330
O O6 0.763704 0.201581 0.581062
O O7 0.936248 0.196431 0.395744
O O8 0.000000 0.328435 0.500000
O O9 0.500000 0.374749 0.500000
O O10 0.670751 0.500000 0.365533
O O11 0.651104 0.300715 0.318187
O O12 0.704431 0.844273 0.772598
O O13 0.951217 0.879655 0.785454
O O14 0.730131 0.000000 0.869121
O O15 0.496926 0.859864 0.305805
O O16 0.762488 0.874939 0.314953
O O17 0.291140 0.000000 0.347486
O O18 0.071590 0.000000 0.635027
#
# Coordination Sequence:
#
# PCOD9142632 Si02
#       7
#     4   4   4   4   4   4   4
#     4  10  18  31  52  78 109 147 185 215 251 308
#     4  11  21  33  53  80 109 142 177 211 269 326
#     4  10  22  42  61  79 102 130 177 234 284 331
#     4   9  18  30  46  71 107 151 183 203 239 297
#     4  11  21  34  54  79 101 140 183 228 266 310
#     4  11  21  32  47  79 120 148 176 211 253 310
#     4  10  18  29  47  74 108 145 178 207 244 308
#
# _framework density 16.497778
#
# number of rings (size 3 to 8) (size 9 to 14) (size 15 to 20)
#    0.000    1.714    4.286    1.714    0.000    1.429 
#    0.000    4.286    0.000    0.429    0.000    3.000 
#    0.000    0.000    0.000    0.000    0.000    0.000 
#
# Total GULP energy -155972.410997 kJ/mol
# GULP energy per Si atom -5570.443250 kJ/mol
# Density = 1.646023 g / cm^3
# Si number density = 16.497778 Si / 1000 Ang^3
#
#
#
# Elastic Constant Matrix: (Units=GPa)
#
#
# Indices 1 2 3 4 5 6 
#
# 1 78.4343 9.2613 -0.3190 0.0000 1.3971 0.0000
# 2 9.2613 63.5274 18.3448 0.0000 -0.4465 0.0000
# 3 -0.3190 18.3448 61.5728 0.0000 8.3595 0.0000
# 4 0.0000 0.0000 0.0000 18.3149 0.0000 -0.5719
# 5 1.3971 -0.4465 8.3595 0.0000 23.6676 0.0000
# 6 0.0000 0.0000 0.0000 -0.5719 0.0000 6.6216
#
#
#
# Elastic Compliance Matrix: (Units=1/GPa)
#
#
# Indices 1 2 3 4 5 6 
#
# 1 0.013027 -0.002156 0.000861 0.000000 -0.001114 0.000000
# 2 -0.002156 0.017694 -0.005615 0.000000 0.002444 0.000000
# 3 0.000861 -0.005615 0.018843 0.000000 -0.006812 0.000000
# 4 0.000000 0.000000 0.000000 0.054748 0.000000 0.004728
# 5 -0.001114 0.002444 -0.006812 0.000000 0.044770 0.000000
# 6 0.000000 0.000000 0.000000 0.004728 0.000000 0.151428
#
#
# Mechanical properties :
#
#
# Convention : Reuss Voigt Hill
#
# Bulk Modulus (GPa) = 27.97535 28.67872 28.32704
# Shear Modulus (GPa) = 15.32592 21.47066 18.39829
#
# Velocity S-wave (km/s) = 3.05121 3.61144 3.34308
# Velocity P-wave (km/s) = 5.42282 5.90010 5.66649
#
# Compressibility (1/GPa) = 0.03574576
#
# Stress axis : x y z
#
# Youngs Moduli (GPa) = 76.76129 56.51622 53.06989
#
# Poissons Ratio (x) = 0.12183 -0.04569
# Poissons Ratio (y) = 0.16547 0.29797
# Poissons Ratio (z) = -0.06609 0.31732
#
# Static dielectric constant tensor:
#      x y z
#    x 1.609070 0.000000 0.014760 
#    y 0.000000 1.523870 0.000000 
#    z 0.014760 0.000000 1.568250 
# 
# From -- ./inp_files/28228.got.cif
#   From: 2010.05.17/outbox.cif.g08.bks.cpg/sg10_15_cif.got.tgz:28228.got - 2010.06.03 11:33:40.
