data_PCOD9142724
_publ_section_title
;
Structure prediction by ZEFSAII (Michael W. Deem and Ramdas Pophale) SiO2 
 PCOD9142724
Probable space group: P 2/M
;
_chemical_formula_sum "Si O2"
_cell_formula_units_Z 32
_cell_length_a 31.556360
_cell_length_b 7.315480
_cell_length_c 12.088548
_cell_angle_alpha 90.000000
_cell_angle_beta 30.273272
_cell_angle_gamma 90.000000
_cell_volume 1406.831011
_symmetry_space_group_name_H-M "P 2/M"
_symmetry_group_IT_number 10
_symmetry_cell_setting 'monoclinic'
loop_
_space_group_symop_operation_xyz
x,y,z
-x,y,-z
-x,-y,-z
x,-y,z
loop_
_atom_site_type_symbol
_atom_site_label
_atom_site_fract_x
_atom_site_fract_y
_atom_site_fract_z
Si Si1 0.561727 0.208963 0.767997
Si Si2 0.621267 0.722564 0.054960
Si Si3 0.684123 0.720996 0.675193
Si Si4 0.269832 0.722563 0.985288
Si Si5 0.981053 0.722148 0.222442
Si Si6 0.436765 0.292653 0.488171
Si Si7 0.126233 0.277495 0.747341
Si Si8 0.077477 0.276824 0.404449
O O1 0.647670 0.213163 0.641674
O O2 0.566086 0.297094 0.638840
O O3 0.535248 0.000000 0.808792
O O4 0.500000 0.292327 0.000000
O O5 0.618556 0.500000 0.059815
O O6 0.697677 0.772440 0.964328
O O7 0.529600 0.785808 0.304202
O O8 0.635585 0.780045 0.895844
O O9 0.681421 0.500000 0.680042
O O10 0.779174 0.782863 0.469866
O O11 0.266625 0.500000 0.988208
O O12 0.348665 0.784793 0.731521
O O13 0.175142 0.782098 0.166993
O O14 0.979859 0.500000 0.228143
O O15 0.921394 0.778916 0.256339
O O16 0.948928 0.781768 0.412967
O O17 0.073640 0.778007 0.973744
O O18 0.438393 0.500000 0.528088
O O19 0.126063 0.500000 0.746990
O O20 0.078971 0.500000 0.396256
O O21 0.000000 0.219989 0.500000
#
# Coordination Sequence:
#
# PCOD9142724 Si02
#       8
#     4   4   4   4   4   4   4   4
#     4  11  23  37  50  66  96 133 163 195 243 296
#     4   9  16  27  46  71  98 124 154 199 249 285
#     4  10  18  29  50  76  99 126 166 205 239 284
#     4   9  17  28  44  70  99 127 161 201 242 284
#     4   8  13  23  37  58  96 132 156 187 236 286
#     4  10  19  32  52  74  97 126 163 204 241 284
#     4   8  14  23  39  65  93 124 157 195 237 278
#     4   9  16  24  35  54  90 134 162 183 226 286
#
# _framework density 22.74616
#
# number of rings (size 3 to 8) (size 9 to 14) (size 15 to 20)
#    0.000    2.750    1.250    2.250    0.000    6.000 
#    0.000    3.750    0.000    2.250    0.000    1.750 
#    0.000    4.500    0.000    0.000    0.000    0.000 
#
# Total GULP energy -178575.798816 kJ/mol
# GULP energy per Si atom -5580.493713 kJ/mol
# Density = 2.269439 g / cm^3
# Si number density = 22.746160 Si / 1000 Ang^3
#
#
#
# Elastic Constant Matrix: (Units=GPa)
#
#
# Indices 1 2 3 4 5 6 
#
# 1 106.5405 0.0559 64.2034 0.0000 -22.7226 0.0000
# 2 0.0559 92.9910 6.0514 0.0000 -2.5252 0.0000
# 3 64.2034 6.0514 157.9189 0.0000 -31.7574 0.0000
# 4 0.0000 0.0000 0.0000 -5.2948 0.0000 -37.2605
# 5 -22.7226 -2.5252 -31.7574 0.0000 35.7858 0.0000
# 6 0.0000 0.0000 0.0000 -37.2605 0.0000 74.2378
#
#
#
# Elastic Compliance Matrix: (Units=1/GPa)
#
#
# Indices 1 2 3 4 5 6 
#
# 1 0.012974 0.000398 -0.004416 0.000000 0.004347 0.000000
# 2 0.000398 0.010800 -0.000452 0.000000 0.000613 0.000000
# 3 -0.004416 -0.000452 0.009220 0.000000 0.005346 0.000000
# 4 0.000000 0.000000 0.000000 -0.041674 0.000000 -0.020916
# 5 0.004347 0.000613 0.005346 0.000000 0.035492 0.000000
# 6 0.000000 0.000000 0.000000 -0.020916 0.000000 0.002972
#
#
# Mechanical properties :
#
#
# Convention : Reuss Voigt Hill
#
# Bulk Modulus (GPa) = 41.57438 55.34131 48.45785
# Shear Modulus (GPa) = 106.96731 40.08840 73.52786
#
# Velocity S-wave (km/s) = 6.86503 4.20268 5.69171
# Velocity P-wave (km/s) = 9.00863 6.92335 8.03393
#
# Compressibility (1/GPa) = 0.02405328
#
# Stress axis : x y z
#
# Youngs Moduli (GPa) = 77.07663 92.59628 108.45848
#
# Poissons Ratio (x) = -0.03682 0.47892
# Poissons Ratio (y) = -0.03065 0.04904
# Poissons Ratio (z) = 0.34035 0.04187
#
# Static dielectric constant tensor:
#      x y z
#    x 1.817740 0.000000 -0.027200 
#    y 0.000000 1.900840 0.000000 
#    z -0.027200 0.000000 1.853890 
# 
# From -- ./inp_files/58119.got.cif
#   From: 2010.05.17/outbox.cif.g08.bks.cpg/sg10_30_cif.got.tgz:58119.got - 2010.06.03 11:33:40.
