data_PCOD9142774
_publ_section_title
;
Structure prediction by ZEFSAII (Michael W. Deem and Ramdas Pophale) SiO2 
 PCOD9142774
Probable space group: P 2/M
;
_chemical_formula_sum "Si O2"
_cell_formula_units_Z 30
_cell_length_a 25.023569
_cell_length_b 9.383934
_cell_length_c 14.847881
_cell_angle_alpha 90.000000
_cell_angle_beta 29.102763
_cell_angle_gamma 90.000000
_cell_volume 1695.790370
_symmetry_space_group_name_H-M "P 2/M"
_symmetry_group_IT_number 10
_symmetry_cell_setting 'monoclinic'
loop_
_space_group_symop_operation_xyz
x,y,z
-x,y,-z
-x,-y,-z
x,-y,z
loop_
_atom_site_type_symbol
_atom_site_label
_atom_site_fract_x
_atom_site_fract_y
_atom_site_fract_z
Si Si1 0.083804 0.839387 0.567720
Si Si2 0.222991 0.666801 0.081858
Si Si3 0.884527 0.671967 0.940960
Si Si4 0.426439 0.673119 0.898762
Si Si5 0.692337 0.670564 0.744300
Si Si6 0.000000 0.238491 0.500000
Si Si7 0.663938 0.672963 0.578635
Si Si8 0.123484 0.327133 0.841485
O O1 0.197562 0.756208 0.397612
O O2 0.035748 0.842726 0.537156
O O3 0.095837 0.000000 0.583619
O O4 0.999619 0.747960 0.751201
O O5 0.245555 0.500000 0.038084
O O6 0.110420 0.679780 0.305488
O O7 0.196117 0.720967 0.020893
O O8 0.328353 0.728352 0.979036
O O9 0.898521 0.500000 0.912924
O O10 0.849634 0.704110 0.093910
O O11 0.426919 0.500000 0.891014
O O12 0.550843 0.722494 0.698572
O O13 0.393497 0.704000 0.050526
O O14 0.713566 0.500000 0.717142
O O15 0.657518 0.705216 0.694081
O O16 0.665746 0.500000 0.568912
O O17 0.777917 0.724984 0.367454
O O18 0.120223 0.500000 0.837289
O O19 0.000000 0.276515 0.000000
#
# Coordination Sequence:
#
# PCOD9142774 Si02
#       8
#     4   4   4   4   4   2   4   4
#     4  11  21  31  46  71 100 127 158 196 239 284
#     4   9  16  26  44  70  99 126 157 196 237 280
#     4   9  18  31  48  69  96 128 162 198 238 285
#     4   9  16  27  44  71 101 126 157 197 238 280
#     4  10  18  30  49  72  96 128 161 194 234 285
#     4  10  18  30  44  64  95 132 161 188 229 290
#     4   9  17  28  47  73  98 124 160 203 238 276
#     4   9  16  28  46  69  95 123 159 201 242 280
#
# _framework density 17.690864999999999
#
# number of rings (size 3 to 8) (size 9 to 14) (size 15 to 20)
#    0.000    2.533    1.333    2.000    0.000    4.800 
#    0.000    0.667    0.000    9.200    0.000    0.000 
#    0.000    2.400    0.000    0.000    0.000    0.000 
#
# Total GULP energy -167017.277237 kJ/mol
# GULP energy per Si atom -5567.242575 kJ/mol
# Density = 1.765060 g / cm^3
# Si number density = 17.690865 Si / 1000 Ang^3
#
#
#
# Elastic Constant Matrix: (Units=GPa)
#
#
# Indices 1 2 3 4 5 6 
#
# 1 98.0871 10.6328 65.3077 0.0000 -10.9174 0.0000
# 2 10.6328 10.1596 7.9697 0.0000 1.1321 0.0000
# 3 65.3077 7.9697 112.3360 0.0000 -20.5321 0.0000
# 4 0.0000 0.0000 0.0000 -4.0352 0.0000 1.5295
# 5 -10.9174 1.1321 -20.5321 0.0000 28.5252 0.0000
# 6 0.0000 0.0000 0.0000 1.5295 0.0000 3.8118
#
#
#
# Elastic Compliance Matrix: (Units=1/GPa)
#
#
# Indices 1 2 3 4 5 6 
#
# 1 0.017745 -0.011216 -0.009440 0.000000 0.000442 0.000000
# 2 -0.011216 0.114343 -0.003691 0.000000 -0.011488 0.000000
# 3 -0.009440 -0.003691 0.016142 0.000000 0.008152 0.000000
# 4 0.000000 0.000000 0.000000 -0.215102 0.000000 0.086310
# 5 0.000442 -0.011488 0.008152 0.000000 0.041550 0.000000
# 6 0.000000 0.000000 0.000000 0.086310 0.000000 0.227714
#
#
# Mechanical properties :
#
#
# Convention : Reuss Voigt Hill
#
# Bulk Modulus (GPa) = 10.04660 43.15592 26.60126
# Shear Modulus (GPa) = 17.58926 14.77184 16.18055
#
# Velocity S-wave (km/s) = 3.15660 2.89277 3.02756
# Velocity P-wave (km/s) = 4.35624 5.96698 5.22407
#
# Compressibility (1/GPa) = 0.09953613
#
# Stress axis : x y z
#
# Youngs Moduli (GPa) = 56.35311 8.74559 61.95120
#
# Poissons Ratio (x) = 0.09809 0.58481
# Poissons Ratio (y) = 0.63205 0.22868
# Poissons Ratio (z) = 0.53197 0.03228
#
# Static dielectric constant tensor:
#      x y z
#    x 1.646330 0.000000 -0.012150 
#    y 0.000000 1.579940 0.000000 
#    z -0.012150 0.000000 1.607900 
# 
# From -- ./inp_files/71305.got.cif
#   From: 2010.05.17/outbox.cif.g08.bks.cpg/sg10_36_cif.got.tgz:71305.got - 2010.06.03 11:33:40.
