data_PCOD9142412
_publ_section_title
;
Structure prediction by ZEFSAII (Michael W. Deem and Ramdas Pophale) SiO2 
 PCOD9142412
Probable space group: P 2/M
;
_chemical_formula_sum "Si O2"
_cell_formula_units_Z 32
_cell_length_a 19.392616
_cell_length_b 13.118726
_cell_length_c 19.578669
_cell_angle_alpha 90.000000
_cell_angle_beta 158.636641
_cell_angle_gamma 90.000000
_cell_volume 1814.462906
_symmetry_space_group_name_H-M "P 2/M"
_symmetry_group_IT_number 10
_symmetry_cell_setting 'monoclinic'
loop_
_space_group_symop_operation_xyz
x,y,z
-x,y,-z
-x,-y,-z
x,-y,z
loop_
_atom_site_type_symbol
_atom_site_label
_atom_site_fract_x
_atom_site_fract_y
_atom_site_fract_z
Si Si1 0.715816 0.803033 0.691822
Si Si2 0.677678 0.721324 0.861614
Si Si3 0.938281 0.375922 0.565774
Si Si4 0.515694 0.383140 0.191962
Si Si5 0.975451 0.616496 0.753916
Si Si6 0.098797 0.879226 0.997911
Si Si7 0.316425 0.617127 0.865833
Si Si8 0.396191 0.381811 0.498963
O O1 0.500000 0.846331 0.500000
O O2 0.816650 0.824969 0.856520
O O3 0.681586 0.686995 0.635105
O O4 0.874999 0.849216 0.786575
O O5 0.551390 0.692433 0.810780
O O6 0.755138 0.835812 0.923657
O O7 0.568363 0.676221 0.695206
O O8 0.874094 0.663699 0.056388
O O9 0.954221 0.500000 0.579699
O O10 0.719775 0.354733 0.349149
O O11 0.968783 0.338435 0.671777
O O12 0.105719 0.338322 0.671206
O O13 0.531691 0.500000 0.234794
O O14 0.369518 0.386724 0.994972
O O15 0.034873 0.500000 0.799732
O O16 0.770713 0.618709 0.598914
O O17 0.109465 0.000000 0.015165
O O18 0.305101 0.500000 0.828100
O O19 0.500000 0.665620 0.000000
O O20 0.437835 0.500000 0.521142
#
# Coordination Sequence:
#
# PCOD9142412 Si02
#       8
#     4   4   4   4   4   4   4   4
#     4  11  22  43  60  78 101 134 170 207 261 316
#     4  12  20  35  54  78 102 131 172 213 263 311
#     4   9  16  26  42  65  96 136 176 208 241 286
#     4  10  18  28  47  72  99 135 173 210 254 306
#     4  10  18  30  49  73 104 137 167 208 256 307
#     4  11  26  43  59  79  99 128 178 223 262 313
#     4   9  17  27  39  61  98 144 184 210 240 287
#     4  11  22  35  53  82 111 134 168 209 254 316
#
# _framework density 17.636073
#
# number of rings (size 3 to 8) (size 9 to 14) (size 15 to 20)
#    0.000    1.625    5.000    1.875    0.000    1.750 
#    0.000    3.750    0.000    0.000    0.000    0.000 
#    0.000    0.500    0.000    1.250    0.000    0.250 
#
# Total GULP energy -178137.065708 kJ/mol
# GULP energy per Si atom -5566.783303 kJ/mol
# Density = 1.759593 g / cm^3
# Si number density = 17.636073 Si / 1000 Ang^3
#
#
#
# Elastic Constant Matrix: (Units=GPa)
#
#
# Indices 1 2 3 4 5 6 
#
# 1 67.9751 20.7837 22.1631 0.0000 26.8434 0.0000
# 2 20.7837 68.7924 28.8984 0.0000 3.7420 0.0000
# 3 22.1631 28.8984 108.5571 0.0000 21.8769 0.0000
# 4 0.0000 0.0000 0.0000 11.3572 0.0000 3.5508
# 5 26.8434 3.7420 21.8769 0.0000 38.7620 0.0000
# 6 0.0000 0.0000 0.0000 3.5508 0.0000 20.3532
#
#
#
# Elastic Compliance Matrix: (Units=1/GPa)
#
#
# Indices 1 2 3 4 5 6 
#
# 1 0.022447 -0.005979 0.000028 0.000000 -0.014984 0.000000
# 2 -0.005979 0.017993 -0.004574 0.000000 0.004985 0.000000
# 3 0.000028 -0.004574 0.011665 0.000000 -0.006162 0.000000
# 4 0.000000 0.000000 0.000000 0.093129 0.000000 -0.016247
# 5 -0.014984 0.004985 -0.006162 0.000000 0.039172 0.000000
# 6 0.000000 0.000000 0.000000 -0.016247 0.000000 0.051967
#
#
# Mechanical properties :
#
#
# Convention : Reuss Voigt Hill
#
# Bulk Modulus (GPa) = 32.19854 43.22388 37.71121
# Shear Modulus (GPa) = 18.67250 25.65978 22.16614
#
# Velocity S-wave (km/s) = 3.25740 3.81853 3.54907
# Velocity P-wave (km/s) = 5.69600 6.63352 6.18255
#
# Compressibility (1/GPa) = 0.03105731
#
# Stress axis : x y z
#
# Youngs Moduli (GPa) = 44.54909 55.57731 85.72454
#
# Poissons Ratio (x) = 0.33228 -0.00243
# Poissons Ratio (y) = 0.26634 0.39208
# Poissons Ratio (z) = -0.00126 0.25420
#
# Static dielectric constant tensor:
#      x y z
#    x 1.703070 0.000000 0.017680 
#    y 0.000000 1.576990 0.000000 
#    z 0.017680 0.000000 1.654530 
# 
# From -- ./inp_files/86312.got.cif
#   From: 2010.05.17/outbox.cif.g08.bks.cpg/sg10_44_cif.got.tgz:86312.got - 2010.06.03 11:33:40.
