data_PCOD9142588
_publ_section_title
;
Structure prediction by ZEFSAII (Michael W. Deem and Ramdas Pophale) SiO2 
 PCOD9142588
Probable space group: P 2/M
;
_chemical_formula_sum "Si O2"
_cell_formula_units_Z 32
_cell_length_a 23.776613
_cell_length_b 7.446182
_cell_length_c 18.023753
_cell_angle_alpha 90.000000
_cell_angle_beta 32.415151
_cell_angle_gamma 90.000000
_cell_volume 1710.543807
_symmetry_space_group_name_H-M "P 2/M"
_symmetry_group_IT_number 10
_symmetry_cell_setting 'monoclinic'
loop_
_space_group_symop_operation_xyz
x,y,z
-x,y,-z
-x,-y,-z
x,-y,z
loop_
_atom_site_type_symbol
_atom_site_label
_atom_site_fract_x
_atom_site_fract_y
_atom_site_fract_z
Si Si1 0.573110 0.788035 0.767139
Si Si2 0.990860 0.709948 0.426816
Si Si3 0.686145 0.279108 0.163700
Si Si4 0.453704 0.716656 0.372578
Si Si5 0.171153 0.707218 0.122909
Si Si6 0.660844 0.218242 0.939122
Si Si7 0.248222 0.782681 0.321955
Si Si8 0.378280 0.290767 0.608739
O O1 0.583873 0.765457 0.667148
O O2 0.670196 0.717461 0.706778
O O3 0.569180 0.000000 0.787763
O O4 0.458644 0.717857 0.918301
O O5 0.021181 0.500000 0.400066
O O6 0.870912 0.721855 0.535629
O O7 0.000000 0.787682 0.500000
O O8 0.071968 0.788432 0.276676
O O9 0.685793 0.500000 0.164372
O O10 0.574331 0.224738 0.251934
O O11 0.685409 0.217431 0.250098
O O12 0.780793 0.216159 0.006399
O O13 0.454991 0.500000 0.376004
O O14 0.383437 0.784483 0.519826
O O15 0.144889 0.500000 0.135104
O O16 0.266304 0.713371 0.075877
O O17 0.709383 0.271896 0.806229
O O18 0.661949 0.000000 0.941484
O O19 0.245954 0.000000 0.325486
O O20 0.500000 0.286028 0.500000
O O21 0.348008 0.500000 0.636001
#
# Coordination Sequence:
#
# PCOD9142588 Si02
#       8
#     4   4   4   4   4   4   4   4
#     4  10  20  32  45  65  93 120 149 187 225 260
#     4  10  20  33  48  67  92 116 144 190 236 264
#     4   8  13  23  41  65  92 118 146 177 213 263
#     4   9  15  25  44  67  90 118 149 177 214 268
#     4  10  18  29  47  69  92 119 148 180 224 268
#     4  10  19  31  47  65  88 118 152 186 220 260
#     4  10  21  35  49  63  84 121 161 188 217 264
#     4   7  11  20  37  63  90 115 144 177 209 254
#
# _framework density 18.707502000000002
#
# number of rings (size 3 to 8) (size 9 to 14) (size 15 to 20)
#    0.000    2.750    2.500    1.875    0.000    2.750 
#    0.000    0.000    0.000    6.375    0.000    0.875 
#    0.000    7.000    0.000    0.000    0.000    0.000 
#
# Total GULP energy -178401.048510 kJ/mol
# GULP energy per Si atom -5575.032766 kJ/mol
# Density = 1.866492 g / cm^3
# Si number density = 18.707502 Si / 1000 Ang^3
#
#
#
# Elastic Constant Matrix: (Units=GPa)
#
#
# Indices 1 2 3 4 5 6 
#
# 1 42.8137 -11.1353 66.7476 0.0000 2.6227 0.0000
# 2 -11.1353 55.5379 0.5801 0.0000 1.5558 0.0000
# 3 66.7476 0.5801 177.7876 0.0000 25.7323 0.0000
# 4 0.0000 0.0000 0.0000 6.2583 0.0000 -2.8387
# 5 2.6227 1.5558 25.7323 0.0000 31.3280 0.0000
# 6 0.0000 0.0000 0.0000 -2.8387 0.0000 16.7399
#
#
#
# Elastic Compliance Matrix: (Units=1/GPa)
#
#
# Indices 1 2 3 4 5 6 
#
# 1 0.072534 0.014358 -0.029844 0.000000 0.017728 0.000000
# 2 0.014358 0.020874 -0.005827 0.000000 0.002548 0.000000
# 3 -0.029844 -0.005827 0.018664 0.000000 -0.012542 0.000000
# 4 0.000000 0.000000 0.000000 0.173102 0.000000 0.029354
# 5 0.017728 0.002548 -0.012542 0.000000 0.040612 0.000000
# 6 0.000000 0.000000 0.000000 0.029354 0.000000 0.064715
#
#
# Mechanical properties :
#
#
# Convention : Reuss Voigt Hill
#
# Bulk Modulus (GPa) = 14.40017 43.16934 28.78476
# Shear Modulus (GPa) = 10.95829 25.52835 18.24332
#
# Velocity S-wave (km/s) = 2.42289 3.69806 3.12619
# Velocity P-wave (km/s) = 3.94227 6.43120 5.33394
#
# Compressibility (1/GPa) = 0.06944362
#
# Stress axis : x y z
#
# Youngs Moduli (GPa) = 13.78673 47.90652 53.58020
#
# Poissons Ratio (x) = -0.68784 1.59907
# Poissons Ratio (y) = -0.19795 0.31223
# Poissons Ratio (z) = 0.41146 0.27917
#
# Static dielectric constant tensor:
#      x y z
#    x 1.622440 0.000000 0.040960 
#    y 0.000000 1.723790 0.000000 
#    z 0.040960 0.000000 1.672930 
# 
# From -- ./inp_files/52732.got.cif
#   From: 2010.05.17/outbox.cif.g08.bks.cpg/sg10_27_cif.got.tgz:52732.got - 2010.06.03 11:33:40.
