data_PCOD9142240
_publ_section_title
;
Structure prediction by ZEFSAII (Michael W. Deem and Ramdas Pophale) SiO2 
 PCOD9142240
Probable space group: P 2/M
;
_chemical_formula_sum "Si O2"
_cell_formula_units_Z 32
_cell_length_a 23.466998
_cell_length_b 9.304076
_cell_length_c 29.536633
_cell_angle_alpha 90.000000
_cell_angle_beta 16.873948
_cell_angle_gamma 90.000000
_cell_volume 1871.929967
_symmetry_space_group_name_H-M "P 2/M"
_symmetry_group_IT_number 10
_symmetry_cell_setting 'monoclinic'
loop_
_space_group_symop_operation_xyz
x,y,z
-x,y,-z
-x,-y,-z
x,-y,z
loop_
_atom_site_type_symbol
_atom_site_label
_atom_site_fract_x
_atom_site_fract_y
_atom_site_fract_z
Si Si1 0.011090 0.828549 0.273345
Si Si2 0.206496 0.170891 0.469430
Si Si3 0.038895 0.668446 0.860637
Si Si4 0.580438 0.169742 0.078701
Si Si5 0.815660 0.671466 0.608232
Si Si6 0.393766 0.834488 0.630183
Si Si7 0.249887 0.331269 0.602121
Si Si8 0.346073 0.169116 0.870641
O O1 0.939655 0.800144 0.378382
O O2 0.876367 0.742527 0.340885
O O3 0.988337 0.000000 0.281909
O O4 0.237789 0.792942 0.091559
O O5 0.159343 0.258740 0.460270
O O6 0.431210 0.203135 0.313400
O O7 0.203352 0.000000 0.461164
O O8 0.034483 0.500000 0.875184
O O9 0.187950 0.754186 0.779627
O O10 0.130542 0.682473 0.740248
O O11 0.823419 0.736975 0.022719
O O12 0.385582 0.261355 0.219636
O O13 0.650936 0.191647 0.077131
O O14 0.535267 0.000000 0.108536
O O15 0.797397 0.500000 0.618313
O O16 0.000000 0.705191 0.500000
O O17 0.500000 0.834615 0.500000
O O18 0.543399 0.749145 0.548374
O O19 0.369063 0.000000 0.662818
O O20 0.279185 0.500000 0.571423
O O21 0.307407 0.000000 0.892010
#
# Coordination Sequence:
#
# PCOD9142240 Si02
#       8
#     4   4   4   4   4   4   4   4
#     4  10  19  34  54  77 106 136 171 212 257 305
#     4   9  20  36  55  79 105 136 172 212 253 301
#     4  10  18  27  43  69  99 130 168 214 260 306
#     4   9  18  32  54  80 104 134 172 213 251 297
#     4  10  21  37  57  80 107 139 172 207 250 301
#     4   9  17  28  43  64  93 131 172 215 261 306
#     4  10  19  29  44  70 103 135 168 208 260 312
#     4   9  16  29  48  72  99 129 168 211 255 301
#
# _framework density 17.094657000000002
#
# number of rings (size 3 to 8) (size 9 to 14) (size 15 to 20)
#    0.000    2.500    1.250    2.250    0.000    6.500 
#    0.000    0.625    0.000    4.500    0.000    5.250 
#    0.000    0.000    0.000    0.000    0.000    0.000 
#
# Total GULP energy -178497.839742 kJ/mol
# GULP energy per Si atom -5578.057492 kJ/mol
# Density = 1.705575 g / cm^3
# Si number density = 17.094657 Si / 1000 Ang^3
#
#
#
# Elastic Constant Matrix: (Units=GPa)
#
#
# Indices 1 2 3 4 5 6 
#
# 1 67.1923 64.3282 67.8095 0.0000 -21.1292 0.0000
# 2 64.3282 97.9403 74.6963 0.0000 -22.6363 0.0000
# 3 67.8095 74.6963 134.3743 0.0000 -13.3489 0.0000
# 4 0.0000 0.0000 0.0000 92.4885 0.0000 10.3276
# 5 -21.1292 -22.6363 -13.3489 0.0000 29.8585 0.0000
# 6 0.0000 0.0000 0.0000 10.3276 0.0000 30.5836
#
#
#
# Elastic Compliance Matrix: (Units=1/GPa)
#
#
# Indices 1 2 3 4 5 6 
#
# 1 0.054728 -0.021480 -0.014073 0.000000 0.016152 0.000000
# 2 -0.021480 0.029133 -0.004888 0.000000 0.004701 0.000000
# 3 -0.014073 -0.004888 0.016642 0.000000 -0.006224 0.000000
# 4 0.000000 0.000000 0.000000 0.011236 0.000000 -0.003794
# 5 0.016152 0.004701 -0.006224 0.000000 0.045703 0.000000
# 6 0.000000 0.000000 0.000000 -0.003794 0.000000 0.033978
#
#
# Mechanical properties :
#
#
# Convention : Reuss Voigt Hill
#
# Bulk Modulus (GPa) = 50.96301 79.24166 65.10233
# Shear Modulus (GPa) = 17.93121 36.76431 27.34776
#
# Velocity S-wave (km/s) = 3.24224 4.64252 4.00407
# Velocity P-wave (km/s) = 6.62519 8.67137 7.71640
#
# Compressibility (1/GPa) = 0.01962208
#
# Stress axis : x y z
#
# Youngs Moduli (GPa) = 18.27202 34.32508 60.08806
#
# Poissons Ratio (x) = 0.73731 0.84559
# Poissons Ratio (y) = 0.39249 0.29371
# Poissons Ratio (z) = 0.25713 0.16778
#
# Static dielectric constant tensor:
#      x y z
#    x 1.546720 0.000000 0.011250 
#    y 0.000000 1.567530 0.000000 
#    z 0.011250 0.000000 1.578500 
# 
# From -- ./inp_files/86095.got.cif
#   From: 2010.05.17/outbox.cif.g08.bks.cpg/sg10_44_cif.got.tgz:86095.got - 2010.06.03 11:33:40.
