data_PCOD9142462
_publ_section_title
;
Structure prediction by ZEFSAII (Michael W. Deem and Ramdas Pophale) SiO2 
 PCOD9142462
Probable space group: P 2/M
;
_chemical_formula_sum "Si O2"
_cell_formula_units_Z 32
_cell_length_a 24.185806
_cell_length_b 8.987771
_cell_length_c 35.270330
_cell_angle_alpha 90.000000
_cell_angle_beta 163.663938
_cell_angle_gamma 90.000000
_cell_volume 2156.486114
_symmetry_space_group_name_H-M "P 2/M"
_symmetry_group_IT_number 10
_symmetry_cell_setting 'monoclinic'
loop_
_space_group_symop_operation_xyz
x,y,z
-x,y,-z
-x,-y,-z
x,-y,z
loop_
_atom_site_type_symbol
_atom_site_label
_atom_site_fract_x
_atom_site_fract_y
_atom_site_fract_z
Si Si1 0.328849 0.682036 0.858952
Si Si2 0.250885 0.677635 0.087888
Si Si3 0.106604 0.324974 0.424480
Si Si4 0.515519 0.824167 0.198925
Si Si5 0.466878 0.679648 0.309768
Si Si6 0.341835 0.677914 0.779910
Si Si7 0.885191 0.327666 0.478897
Si Si8 0.110763 0.171585 0.113686
O O1 0.321694 0.500000 0.854351
O O2 0.368063 0.723854 0.841005
O O3 0.110497 0.736011 0.727004
O O4 0.500000 0.728954 0.000000
O O5 0.245809 0.500000 0.081053
O O6 0.352381 0.749047 0.118214
O O7 0.382905 0.713001 0.212224
O O8 0.034790 0.741617 0.954130
O O9 0.102234 0.500000 0.411511
O O10 0.308586 0.264449 0.540042
O O11 0.128428 0.318495 0.484462
O O12 0.523300 0.760059 0.161564
O O13 0.724726 0.777227 0.354871
O O14 0.492265 0.000000 0.183680
O O15 0.462708 0.500000 0.310597
O O16 0.318747 0.751292 0.242339
O O17 0.371188 0.500000 0.796877
O O18 0.111744 0.705087 0.618437
O O19 0.842591 0.500000 0.440098
O O20 0.132910 0.000000 0.139500
O O21 0.000000 0.174868 0.000000
#
# Coordination Sequence:
#
# PCOD9142462 Si02
#       8
#     4   4   4   4   4   4   4   4
#     4   8  14  26  46  69  88 106 136 182 225 252
#     4  10  18  29  43  56  77 113 152 178 206 249
#     4   8  13  23  40  62  85 110 142 177 212 252
#     4  12  22  28  38  58  86 113 143 181 215 246
#     4   9  15  25  41  58  79 111 148 177 204 247
#     4   9  18  30  45  61  81 110 144 176 212 258
#     4   9  16  29  43  56  78 113 148 176 208 248
#     4   9  17  27  38  56  83 110 140 178 215 244
#
# _framework density 14.838955
#
# number of rings (size 3 to 8) (size 9 to 14) (size 15 to 20)
#    0.000    2.750    1.250    3.750    0.000    4.000 
#    0.000    0.000    0.000    0.375    0.000    0.000 
#    0.000    1.000    0.000   11.750    0.000    2.250 
#
# Total GULP energy -178255.234808 kJ/mol
# GULP energy per Si atom -5570.476088 kJ/mol
# Density = 1.480518 g / cm^3
# Si number density = 14.838955 Si / 1000 Ang^3
#
#
#
# Elastic Constant Matrix: (Units=GPa)
#
#
# Indices 1 2 3 4 5 6 
#
# 1 101.0979 45.6996 61.0640 0.0000 31.7612 0.0000
# 2 45.6996 42.2505 30.6113 0.0000 17.3138 0.0000
# 3 61.0640 30.6113 91.0049 0.0000 20.0249 0.0000
# 4 0.0000 0.0000 0.0000 0.0353 0.0000 1.8185
# 5 31.7612 17.3138 20.0249 0.0000 24.0495 0.0000
# 6 0.0000 0.0000 0.0000 1.8185 0.0000 8.8588
#
#
#
# Elastic Compliance Matrix: (Units=1/GPa)
#
#
# Indices 1 2 3 4 5 6 
#
# 1 0.029305 -0.017066 -0.009930 0.000000 -0.018147 0.000000
# 2 -0.017066 0.048023 -0.002515 0.000000 -0.009941 0.000000
# 3 -0.009930 -0.002515 0.018626 0.000000 -0.000585 0.000000
# 4 0.000000 0.000000 0.000000 -2.958905 0.000000 0.607403
# 5 -0.018147 -0.009941 -0.000585 0.000000 0.073190 0.000000
# 6 0.000000 0.000000 0.000000 0.607403 0.000000 -0.011806
#
#
# Mechanical properties :
#
#
# Convention : Reuss Voigt Hill
#
# Bulk Modulus (GPa) = 27.07658 56.56700 41.82179
# Shear Modulus (GPa) = -1.83134 13.05396 5.61131
#
# Velocity S-wave (km/s) = -1.11213 2.96921 1.94671
# Velocity P-wave (km/s) = 4.07891 7.06812 5.77043
#
# Compressibility (1/GPa) = 0.03693229
#
# Stress axis : x y z
#
# Youngs Moduli (GPa) = 34.12435 20.82319 53.68914
#
# Poissons Ratio (x) = 0.35537 0.53311
# Poissons Ratio (y) = 0.58237 0.13502
# Poissons Ratio (z) = 0.33884 0.05237
#
# Static dielectric constant tensor:
#      x y z
#    x 1.494920 0.000000 0.019480 
#    y 0.000000 1.487250 0.000000 
#    z 0.019480 0.000000 1.493040 
# 
# From -- ./inp_files/78511.got.cif
#   From: 2010.05.17/outbox.cif.g08.bks.cpg/sg10_40_cif.got.tgz:78511.got - 2010.06.03 11:33:40.
