data_PCOD9142560
_publ_section_title
;
Structure prediction by ZEFSAII (Michael W. Deem and Ramdas Pophale) SiO2 
 PCOD9142560
Probable space group: P 2/M
;
_chemical_formula_sum "Si O2"
_cell_formula_units_Z 32
_cell_length_a 28.064462
_cell_length_b 7.824785
_cell_length_c 19.784624
_cell_angle_alpha 90.000000
_cell_angle_beta 157.907289
_cell_angle_gamma 90.000000
_cell_volume 1634.058677
_symmetry_space_group_name_H-M "P 2/M"
_symmetry_group_IT_number 10
_symmetry_cell_setting 'monoclinic'
loop_
_space_group_symop_operation_xyz
x,y,z
-x,y,-z
-x,-y,-z
x,-y,z
loop_
_atom_site_type_symbol
_atom_site_label
_atom_site_fract_x
_atom_site_fract_y
_atom_site_fract_z
Si Si1 0.391938 0.699202 0.557613
Si Si2 0.087689 0.195497 0.810643
Si Si3 0.335038 0.198232 0.910083
Si Si4 0.935569 0.302358 0.484930
Si Si5 0.660583 0.299084 0.929219
Si Si6 0.388292 0.208481 0.710436
Si Si7 0.882156 0.707153 0.800840
Si Si8 0.888520 0.794724 0.651495
O O1 0.391205 0.500000 0.537123
O O2 0.531542 0.768684 0.724611
O O3 0.389390 0.718291 0.635823
O O4 0.256356 0.772626 0.357124
O O5 0.991668 0.201359 0.621231
O O6 0.007323 0.275241 0.766107
O O7 0.119760 0.000000 0.869145
O O8 0.216776 0.280063 0.955605
O O9 0.215184 0.290711 0.720543
O O10 0.326008 0.000000 0.878736
O O11 0.321642 0.212387 0.974222
O O12 0.477726 0.260222 0.080882
O O13 0.974495 0.500000 0.544767
O O14 0.000000 0.240474 0.500000
O O15 0.642177 0.500000 0.919913
O O16 0.251044 0.260713 0.558444
O O17 0.391015 0.000000 0.709569
O O18 0.879131 0.500000 0.800456
O O19 0.897293 0.754185 0.742187
O O20 0.000000 0.768446 0.000000
O O21 0.890919 0.000000 0.646747
#
# Coordination Sequence:
#
# PCOD9142560 Si02
#       8
#     4   4   4   4   4   4   4   4
#     4   8  15  27  45  71 100 126 155 194 237 281
#     4  11  22  34  50  70  95 130 168 205 244 289
#     4  10  18  29  49  72  93 121 160 206 249 288
#     4  11  22  34  48  68  96 129 165 206 249 292
#     4  10  18  29  46  69  97 128 162 201 244 286
#     4   8  15  29  48  69  93 122 157 198 242 287
#     4   9  17  31  54  82 106 128 157 194 236 285
#     4   9  19  35  52  73 101 130 162 198 240 291
#
# _framework density 19.583141000000001
#
# number of rings (size 3 to 8) (size 9 to 14) (size 15 to 20)
#    0.000    2.500    1.250    1.500    0.000    2.750 
#    0.000    0.625    0.000    4.500    0.000    5.250 
#    0.000    0.000    0.000    0.000    0.000    0.000 
#
# Total GULP energy -178304.567424 kJ/mol
# GULP energy per Si atom -5572.017732 kJ/mol
# Density = 1.953857 g / cm^3
# Si number density = 19.583141 Si / 1000 Ang^3
#
#
#
# Elastic Constant Matrix: (Units=GPa)
#
#
# Indices 1 2 3 4 5 6 
#
# 1 51.2668 -3.8858 40.4924 0.0000 21.1629 0.0000
# 2 -3.8858 28.1570 -2.9845 0.0000 2.6329 0.0000
# 3 40.4924 -2.9845 156.0964 0.0000 30.5755 0.0000
# 4 0.0000 0.0000 0.0000 -3.5743 0.0000 -6.6297
# 5 21.1629 2.6329 30.5755 0.0000 23.6321 0.0000
# 6 0.0000 0.0000 0.0000 -6.6297 0.0000 9.3653
#
#
#
# Elastic Compliance Matrix: (Units=1/GPa)
#
#
# Indices 1 2 3 4 5 6 
#
# 1 0.033635 0.006754 -0.003414 0.000000 -0.026456 0.000000
# 2 0.006754 0.037702 0.001308 0.000000 -0.011941 0.000000
# 3 -0.003414 0.001308 0.009037 0.000000 -0.008780 0.000000
# 4 0.000000 0.000000 0.000000 -0.120958 0.000000 -0.085625
# 5 -0.026456 -0.011941 -0.008780 0.000000 0.078698 0.000000
# 6 0.000000 0.000000 0.000000 -0.085625 0.000000 0.046163
#
#
# Mechanical properties :
#
#
# Convention : Reuss Voigt Hill
#
# Bulk Modulus (GPa) = 11.15205 33.64049 22.39627
# Shear Modulus (GPa) = 47.67711 19.34451 33.51081
#
# Velocity S-wave (km/s) = 4.93952 3.14636 4.14116
# Velocity P-wave (km/s) = 6.18376 5.51498 5.85892
#
# Compressibility (1/GPa) = 0.08966959
#
# Stress axis : x y z
#
# Youngs Moduli (GPa) = 29.73077 26.52352 110.65917
#
# Poissons Ratio (x) = -0.17913 0.37778
# Poissons Ratio (y) = -0.20080 -0.14472
# Poissons Ratio (z) = 0.10150 -0.03469
#
# Static dielectric constant tensor:
#      x y z
#    x 1.679600 0.000000 0.051950 
#    y 0.000000 1.727170 0.000000 
#    z 0.051950 0.000000 1.738040 
# 
# From -- ./inp_files/54883.got.cif
#   From: 2010.05.17/outbox.cif.g08.bks.cpg/sg10_28_cif.got.tgz:54883.got - 2010.06.03 11:33:40.
