data_PCOD9142551
_publ_section_title
;
Structure prediction by ZEFSAII (Michael W. Deem and Ramdas Pophale) SiO2 
 PCOD9142551
Probable space group: P 2/M
;
_chemical_formula_sum "Si O2"
_cell_formula_units_Z 28
_cell_length_a 26.732059
_cell_length_b 12.459599
_cell_length_c 26.732403
_cell_angle_alpha 90.000000
_cell_angle_beta 168.662176
_cell_angle_gamma 90.000000
_cell_volume 1750.425118
_symmetry_space_group_name_H-M "P 2/M"
_symmetry_group_IT_number 10
_symmetry_cell_setting 'monoclinic'
loop_
_space_group_symop_operation_xyz
x,y,z
-x,y,-z
-x,-y,-z
x,-y,z
loop_
_atom_site_type_symbol
_atom_site_label
_atom_site_fract_x
_atom_site_fract_y
_atom_site_fract_z
Si Si1 0.887126 0.748095 0.113085
Si Si2 0.371382 0.127742 0.628768
Si Si3 0.939432 0.370095 0.059004
Si Si4 0.733865 0.128276 0.266128
Si Si5 0.318920 0.248972 0.680996
Si Si6 0.470456 0.630154 0.528004
Si Si7 0.165346 0.372505 0.834684
O O1 0.863977 0.663817 0.136194
O O2 0.133846 0.820254 0.366689
O O3 0.633668 0.820348 0.866556
O O4 0.913155 0.686325 0.086562
O O5 0.341988 0.164188 0.657907
O O6 0.373318 0.000000 0.626611
O O7 0.936373 0.500000 0.062201
O O8 0.706127 0.339414 0.794140
O O9 0.203770 0.339424 0.291574
O O10 0.707544 0.189672 0.292390
O O11 0.000000 0.153863 0.500000
O O12 0.729187 0.000000 0.270872
O O13 0.500000 0.153839 0.000000
O O14 0.072360 0.320881 0.427453
O O15 0.572420 0.320908 0.927487
O O16 0.500000 0.668961 0.500000
O O17 0.471567 0.500000 0.526963
O O18 0.167425 0.500000 0.832554
#
# Coordination Sequence:
#
# PCOD9142551 Si02
#       7
#     4   4   4   4   4   4   4
#     4  10  20  32  49  74  99 128 163 196 237 286
#     4  10  20  34  51  72 100 127 156 197 242 292
#     4  10  18  29  46  68 100 132 159 196 234 279
#     4  10  20  34  54  78 101 124 156 203 253 295
#     4  10  20  34  54  75  98 130 162 196 239 290
#     4   9  17  28  43  65  95 132 165 194 235 282
#     4  10  20  34  52  73 100 133 167 198 229 278
#
# _framework density 15.996114
#
# number of rings (size 3 to 8) (size 9 to 14) (size 15 to 20)
#    0.000    2.143    0.000    3.857    0.000    1.714 
#    0.000    8.571    0.000    8.571    0.000    0.000 
#    0.000   40.000    0.000    0.000    0.000    0.000 
#
# Total GULP energy -156269.585985 kJ/mol
# GULP energy per Si atom -5581.056642 kJ/mol
# Density = 1.595971 g / cm^3
# Si number density = 15.996114 Si / 1000 Ang^3
#
#
#
# Elastic Constant Matrix: (Units=GPa)
#
#
# Indices 1 2 3 4 5 6 
#
# 1 168.3377 73.3853 100.6491 0.0000 -4.7411 0.0000
# 2 73.3853 86.3185 63.7527 0.0000 -1.2270 0.0000
# 3 100.6491 63.7527 187.9616 0.0000 4.9661 0.0000
# 4 0.0000 0.0000 0.0000 7.4431 0.0000 -1.3247
# 5 -4.7411 -1.2270 4.9661 0.0000 12.0034 0.0000
# 6 0.0000 0.0000 0.0000 -1.3247 0.0000 21.9140
#
#
#
# Elastic Compliance Matrix: (Units=1/GPa)
#
#
# Indices 1 2 3 4 5 6 
#
# 1 0.011373 -0.006654 -0.003977 0.000000 0.005457 0.000000
# 2 -0.006654 0.019522 -0.003076 0.000000 0.000640 0.000000
# 3 -0.003977 -0.003076 0.008637 0.000000 -0.005459 0.000000
# 4 0.000000 0.000000 0.000000 0.135814 0.000000 0.008210
# 5 0.005457 0.000640 -0.005459 0.000000 0.087789 0.000000
# 6 0.000000 0.000000 0.000000 0.008210 0.000000 0.046129
#
#
# Mechanical properties :
#
#
# Convention : Reuss Voigt Hill
#
# Bulk Modulus (GPa) = 82.51193 102.02133 92.26663
# Shear Modulus (GPa) = 14.67492 21.92748 18.30120
#
# Velocity S-wave (km/s) = 3.03216 3.70645 3.38613
# Velocity P-wave (km/s) = 7.99707 9.06831 8.54949
#
# Compressibility (1/GPa) = 0.01211946
#
# Stress axis : x y z
#
# Youngs Moduli (GPa) = 87.92950 51.22309 115.77604
#
# Poissons Ratio (x) = 0.34082 0.46047
# Poissons Ratio (y) = 0.58506 0.35608
# Poissons Ratio (z) = 0.34972 0.15754
#
# Static dielectric constant tensor:
#      x y z
#    x 1.508880 0.000000 0.002340 
#    y 0.000000 1.495570 0.000000 
#    z 0.002340 0.000000 1.535300 
# 
# From -- ./inp_files/12259.got.cif
#   From: 2010.05.17/outbox.cif.g08.bks.cpg/sg10_7_cif.got.tgz:12259.got - 2010.06.03 11:33:40.
