data_PCOD9142075
_publ_section_title
;
Structure prediction by ZEFSAII (Michael W. Deem and Ramdas Pophale) SiO2 
 PCOD9142075
Probable space group: P 2/M
;
_chemical_formula_sum "Si O2"
_cell_formula_units_Z 32
_cell_length_a 11.221252
_cell_length_b 19.469369
_cell_length_c 7.420602
_cell_angle_alpha 90.000000
_cell_angle_beta 116.731966
_cell_angle_gamma 90.000000
_cell_volume 1447.912850
_symmetry_space_group_name_H-M "P 2/M"
_symmetry_group_IT_number 10
_symmetry_cell_setting 'monoclinic'
loop_
_space_group_symop_operation_xyz
x,y,z
-x,y,-z
-x,-y,-z
x,-y,z
loop_
_atom_site_type_symbol
_atom_site_label
_atom_site_fract_x
_atom_site_fract_y
_atom_site_fract_z
Si Si1 0.750768 0.671048 0.014579
Si Si2 0.106793 0.146838 0.861704
Si Si3 0.019809 0.294354 0.296326
Si Si4 0.848989 0.079864 0.717993
Si Si5 0.401199 0.155019 0.598123
Si Si6 0.520112 0.578085 0.795242
Si Si7 0.617425 0.197622 0.978070
Si Si8 0.694525 0.311401 0.409185
O O1 0.908674 0.662993 0.114424
O O2 0.729372 0.680252 0.218655
O O3 0.666401 0.610142 0.875750
O O4 0.688374 0.743796 0.903247
O O5 0.021588 0.217274 0.790326
O O6 0.994341 0.092404 0.727408
O O7 0.148246 0.122524 0.091231
O O8 0.248285 0.160733 0.857390
O O9 0.000000 0.296046 0.500000
O O10 0.171753 0.316972 0.380511
O O11 0.726349 0.107923 0.518264
O O12 0.832439 0.000000 0.747554
O O13 0.500000 0.150044 0.500000
O O14 0.512690 0.143001 0.827147
O O15 0.353729 0.233783 0.588500
O O16 0.506154 0.500000 0.724740
O O17 0.414804 0.630125 0.634668
O O18 0.500000 0.578451 0.000000
O O19 0.500000 0.240736 0.000000
#
# Coordination Sequence:
#
# PCOD9142075 Si02
#       8
#     4   4   4   4   4   4   4   4
#     4   9  16  29  51  80 110 142 177 224 276 319
#     4  10  20  36  57  80 106 144 189 223 278 337
#     4   9  18  29  53  82 104 136 179 236 277 313
#     4  11  24  41  58  77 111 152 185 226 285 344
#     4  12  22  36  57  88 108 139 187 238 275 331
#     4   9  16  27  48  77 114 153 182 213 267 334
#     4  11  19  34  58  88 112 139 179 242 287 321
#     4  10  17  32  50  79 112 138 182 226 273 315
#
# _framework density 22.100778999999999
#
# number of rings (size 3 to 8) (size 9 to 14) (size 15 to 20)
#    0.000    1.875    5.000    1.125    0.000    0.250 
#    0.000    0.625    0.000   12.750    0.000    0.000 
#    0.000    2.000    0.000    0.000    0.000    0.000 
#
# Total GULP energy -178187.517549 kJ/mol
# GULP energy per Si atom -5568.359923 kJ/mol
# Density = 2.205048 g / cm^3
# Si number density = 22.100779 Si / 1000 Ang^3
#
#
#
# Elastic Constant Matrix: (Units=GPa)
#
#
# Indices 1 2 3 4 5 6 
#
# 1 94.7157 40.5378 67.1005 0.0000 43.2176 0.0000
# 2 40.5378 107.1768 47.5876 0.0000 33.5006 0.0000
# 3 67.1005 47.5876 128.3032 0.0000 47.5738 0.0000
# 4 0.0000 0.0000 0.0000 26.2412 0.0000 2.3730
# 5 43.2176 33.5006 47.5738 0.0000 55.7110 0.0000
# 6 0.0000 0.0000 0.0000 2.3730 0.0000 21.8491
#
#
#
# Elastic Compliance Matrix: (Units=1/GPa)
#
#
# Indices 1 2 3 4 5 6 
#
# 1 0.019993 -0.001932 -0.006467 0.000000 -0.008825 0.000000
# 2 -0.001932 0.012246 -0.001986 0.000000 -0.004170 0.000000
# 3 -0.006467 -0.001986 0.014062 0.000000 -0.005798 0.000000
# 4 0.000000 0.000000 0.000000 0.038486 0.000000 -0.004180
# 5 -0.008825 -0.004170 -0.005798 0.000000 0.032254 0.000000
# 6 0.000000 0.000000 0.000000 -0.004180 0.000000 0.046222
#
#
# Mechanical properties :
#
#
# Convention : Reuss Voigt Hill
#
# Bulk Modulus (GPa) = 39.16640 71.18307 55.17473
# Shear Modulus (GPa) = 25.96799 32.42492 29.19646
#
# Velocity S-wave (km/s) = 3.43152 3.83448 3.63858
# Velocity P-wave (km/s) = 5.78452 7.20296 6.53235
#
# Compressibility (1/GPa) = 0.02553209
#
# Stress axis : x y z
#
# Youngs Moduli (GPa) = 50.01653 81.65896 71.11141
#
# Poissons Ratio (x) = 0.15777 0.45990
# Poissons Ratio (y) = 0.09663 0.14120
# Poissons Ratio (z) = 0.32347 0.16214
#
# Static dielectric constant tensor:
#      x y z
#    x 2.480300 0.000000 -0.909370 
#    y 0.000000 1.771150 0.000000 
#    z -0.909370 0.000000 3.259400 
# 
# From -- ./inp_files/26080.got.cif
#   From: 2010.05.17/outbox.cif.g08.bks.cpg/sg10_14_cif.got.tgz:26080.got - 2010.06.03 11:33:40.
