data_PCOD9142516
_publ_section_title
;
Structure prediction by ZEFSAII (Michael W. Deem and Ramdas Pophale) SiO2 
 PCOD9142516
Probable space group: P 2/M
;
_chemical_formula_sum "Si O2"
_cell_formula_units_Z 32
_cell_length_a 18.425096
_cell_length_b 8.387842
_cell_length_c 23.468245
_cell_angle_alpha 90.000000
_cell_angle_beta 22.999392
_cell_angle_gamma 90.000000
_cell_volume 1417.123723
_symmetry_space_group_name_H-M "P 2/M"
_symmetry_group_IT_number 10
_symmetry_cell_setting 'monoclinic'
loop_
_space_group_symop_operation_xyz
x,y,z
-x,y,-z
-x,-y,-z
x,-y,z
loop_
_atom_site_type_symbol
_atom_site_label
_atom_site_fract_x
_atom_site_fract_y
_atom_site_fract_z
Si Si1 0.059897 0.818736 0.266692
Si Si2 0.294193 0.181657 0.415883
Si Si3 0.075413 0.682376 0.860798
Si Si4 0.595686 0.194962 0.045785
Si Si5 0.798512 0.818468 0.649750
Si Si6 0.462250 0.820176 0.596023
Si Si7 0.161532 0.324818 0.664192
Si Si8 0.318351 0.309763 0.887719
O O1 0.897531 0.743473 0.422416
O O2 0.958345 0.810568 0.278853
O O3 0.086724 0.000000 0.267691
O O4 0.261044 0.750369 0.106479
O O5 0.268062 0.171159 0.367137
O O6 0.490951 0.265690 0.281809
O O7 0.305329 0.000000 0.430015
O O8 0.074788 0.500000 0.882308
O O9 0.250672 0.771836 0.760889
O O10 0.125277 0.677628 0.757466
O O11 0.866705 0.750536 0.010906
O O12 0.383698 0.250416 0.188336
O O13 0.663845 0.248317 0.059650
O O14 0.594345 0.000000 0.047082
O O15 0.000000 0.738800 0.500000
O O16 0.827865 0.000000 0.651175
O O17 0.500000 0.816811 0.500000
O O18 0.621991 0.705721 0.504187
O O19 0.496425 0.000000 0.590188
O O20 0.104341 0.500000 0.684560
O O21 0.298849 0.500000 0.905280
#
# Coordination Sequence:
#
# PCOD9142516 Si02
#       8
#     4   4   4   4   4   4   4   4
#     4  10  19  31  47  69  99 129 162 201 243 292
#     4   9  19  33  48  70  99 130 161 199 244 288
#     4   9  17  28  43  66  94 122 157 202 247 288
#     4   9  17  29  48  72  97 127 161 199 241 284
#     4   8  14  28  50  73  98 129 163 196 234 283
#     4   9  17  27  41  65  94 125 161 199 241 290
#     4  10  18  29  45  66  95 128 160 198 247 291
#     4  10  18  30  48  71  96 125 163 205 245 289
#
# _framework density 22.580950000000001
#
# number of rings (size 3 to 8) (size 9 to 14) (size 15 to 20)
#    0.000    2.750    1.250    1.875    0.000    3.500 
#    0.000    0.625    0.000   10.500    0.000    5.250 
#    0.000    9.000    0.000    0.000    0.000    0.000 
#
# Total GULP energy -178303.458884 kJ/mol
# GULP energy per Si atom -5571.983090 kJ/mol
# Density = 2.252956 g / cm^3
# Si number density = 22.580950 Si / 1000 Ang^3
#
#
#
# Elastic Constant Matrix: (Units=GPa)
#
#
# Indices 1 2 3 4 5 6 
#
# 1 18.6846 1.9597 19.5778 0.0000 -1.5424 0.0000
# 2 1.9597 30.8578 16.1780 0.0000 -1.7315 0.0000
# 3 19.5778 16.1780 231.1677 0.0000 -24.1951 0.0000
# 4 0.0000 0.0000 0.0000 66.9388 0.0000 -23.7855
# 5 -1.5424 -1.7315 -24.1951 0.0000 36.9694 0.0000
# 6 0.0000 0.0000 0.0000 -23.7855 0.0000 12.7163
#
#
#
# Elastic Compliance Matrix: (Units=1/GPa)
#
#
# Indices 1 2 3 4 5 6 
#
# 1 0.058798 -0.001167 -0.004989 0.000000 -0.000866 0.000000
# 2 -0.001167 0.033664 -0.002251 0.000000 0.000055 0.000000
# 3 -0.004989 -0.002251 0.005231 0.000000 0.003110 0.000000
# 4 0.000000 0.000000 0.000000 0.044546 0.000000 0.083321
# 5 -0.000866 0.000055 0.003110 0.000000 0.029051 0.000000
# 6 0.000000 0.000000 0.000000 0.083321 0.000000 0.234488
#
#
# Mechanical properties :
#
#
# Convention : Reuss Voigt Hill
#
# Bulk Modulus (GPa) = 12.36413 39.57124 25.96769
# Shear Modulus (GPa) = 11.12216 39.52455 25.32335
#
# Velocity S-wave (km/s) = 2.22175 4.18826 3.35244
# Velocity P-wave (km/s) = 3.47403 6.39929 5.14877
#
# Compressibility (1/GPa) = 0.08087910
#
# Stress axis : x y z
#
# Youngs Moduli (GPa) = 17.00741 29.70507 191.15161
#
# Poissons Ratio (x) = 0.03467 0.95359
# Poissons Ratio (y) = 0.01985 0.43036
# Poissons Ratio (z) = 0.08484 0.06688
#
# Static dielectric constant tensor:
#      x y z
#    x 1.852580 0.000000 0.019060 
#    y 0.000000 1.808500 0.000000 
#    z 0.019060 0.000000 1.928830 
# 
# From -- ./inp_files/86161.got.cif
#   From: 2010.05.17/outbox.cif.g08.bks.cpg/sg10_44_cif.got.tgz:86161.got - 2010.06.03 11:33:40.
