data_PCOD9142976
_publ_section_title
;
Structure prediction by ZEFSAII (Michael W. Deem and Ramdas Pophale) SiO2 
 PCOD9142976
Probable space group: P 2/M
;
_chemical_formula_sum "Si O2"
_cell_formula_units_Z 32
_cell_length_a 16.889424
_cell_length_b 7.702406
_cell_length_c 21.807945
_cell_angle_alpha 90.000000
_cell_angle_beta 151.994256
_cell_angle_gamma 90.000000
_cell_volume 1332.131673
_symmetry_space_group_name_H-M "P 2/M"
_symmetry_group_IT_number 10
_symmetry_cell_setting 'monoclinic'
loop_
_space_group_symop_operation_xyz
x,y,z
-x,y,-z
-x,-y,-z
x,-y,z
loop_
_atom_site_type_symbol
_atom_site_label
_atom_site_fract_x
_atom_site_fract_y
_atom_site_fract_z
Si Si1 0.671479 0.210827 0.152340
Si Si2 0.655140 0.208570 0.396462
Si Si3 0.503804 0.794811 0.420552
Si Si4 0.194182 0.708420 0.137326
Si Si5 0.998695 0.207708 0.690332
Si Si6 0.530530 0.208063 0.182176
Si Si7 0.192281 0.289812 0.001906
Si Si8 0.845610 0.303513 0.715520
O O1 0.828742 0.274332 0.220396
O O2 0.637497 0.274396 0.198003
O O3 0.691570 0.000000 0.168849
O O4 0.500000 0.247983 0.000000
O O5 0.573706 0.280375 0.403410
O O6 0.593926 0.280829 0.290267
O O7 0.854045 0.230352 0.540754
O O8 0.622653 0.000000 0.375163
O O9 0.304654 0.761323 0.271758
O O10 0.648835 0.747520 0.569709
O O11 0.517389 0.000000 0.430270
O O12 0.195055 0.500000 0.138482
O O13 0.259362 0.769044 0.114796
O O14 0.000000 0.764113 0.000000
O O15 0.929068 0.292906 0.704550
O O16 0.010596 0.000000 0.711928
O O17 0.552151 0.000000 0.197386
O O18 0.329008 0.239350 0.044258
O O19 0.183823 0.500000 0.996828
O O20 0.002491 0.221394 0.860560
O O21 0.834114 0.500000 0.729413
#
# Coordination Sequence:
#
# PCOD9142976 Si02
#       8
#     4   4   4   4   4   4   4   4
#     4   9  17  27  42  67  98 135 178 222 267 312
#     4   8  15  27  46  73  97 126 168 214 259 304
#     4  10  19  35  57  83 111 139 177 219 263 315
#     4  10  21  38  60  84 110 142 176 213 263 318
#     4   9  17  31  48  70 103 137 178 226 266 309
#     4  10  18  30  50  73 100 136 178 221 267 314
#     4  10  21  36  54  80 109 137 177 222 262 315
#     4  10  20  34  54  79 107 143 182 218 262 315
#
# _framework density 24.021649
#
# number of rings (size 3 to 8) (size 9 to 14) (size 15 to 20)
#    0.000    2.500    1.250    2.250    0.000    2.750 
#    0.000    3.750    0.000    6.000    0.000    2.625 
#    0.000    0.000    0.000    0.000    0.000    0.000 
#
# Total GULP energy -178532.246636 kJ/mol
# GULP energy per Si atom -5579.132707 kJ/mol
# Density = 2.396697 g / cm^3
# Si number density = 24.021649 Si / 1000 Ang^3
#
#
#
# Elastic Constant Matrix: (Units=GPa)
#
#
# Indices 1 2 3 4 5 6 
#
# 1 45.3476 -11.1043 39.5311 0.0000 -4.2869 0.0000
# 2 -11.1043 41.6264 6.8502 0.0000 -3.5526 0.0000
# 3 39.5311 6.8502 147.5751 0.0000 -8.1852 0.0000
# 4 0.0000 0.0000 0.0000 23.4152 0.0000 5.6571
# 5 -4.2869 -3.5526 -8.1852 0.0000 52.7494 0.0000
# 6 0.0000 0.0000 0.0000 5.6571 0.0000 15.4850
#
#
#
# Elastic Compliance Matrix: (Units=1/GPa)
#
#
# Indices 1 2 3 4 5 6 
#
# 1 0.032763 0.010412 -0.009152 0.000000 0.001944 0.000000
# 2 0.010412 0.027630 -0.003955 0.000000 0.002093 0.000000
# 3 -0.009152 -0.003955 0.009437 0.000000 0.000454 0.000000
# 4 0.000000 0.000000 0.000000 0.046842 0.000000 -0.017113
# 5 0.001944 0.002093 0.000454 0.000000 0.019327 0.000000
# 6 0.000000 0.000000 0.000000 -0.017113 0.000000 0.070830
#
#
# Mechanical properties :
#
#
# Convention : Reuss Voigt Hill
#
# Bulk Modulus (GPa) = 15.51853 33.90036 24.70945
# Shear Modulus (GPa) = 21.39500 31.61473 26.50487
#
# Velocity S-wave (km/s) = 2.98762 3.63174 3.32531
# Velocity P-wave (km/s) = 4.28666 5.63286 5.00522
#
# Compressibility (1/GPa) = 0.06443908
#
# Stress axis : x y z
#
# Youngs Moduli (GPa) = 30.52206 36.19221 105.97133
#
# Poissons Ratio (x) = -0.37683 0.96983
# Poissons Ratio (y) = -0.31779 0.41917
# Poissons Ratio (z) = 0.27933 0.14316
#
# Static dielectric constant tensor:
#      x y z
#    x 1.993590 0.000000 0.020120 
#    y 0.000000 1.885230 0.000000 
#    z 0.020120 0.000000 1.970880 
# 
# From -- ./inp_files/93758.got.cif
#   From: 2010.05.17/outbox.cif.g08.bks.cpg/sg10_47_cif.got.tgz:93758.got - 2010.06.03 11:33:40.
