data_PCOD9142309
_publ_section_title
;
Structure prediction by ZEFSAII (Michael W. Deem and Ramdas Pophale) SiO2 
 PCOD9142309
Probable space group: P 2/M
;
_chemical_formula_sum "Si O2"
_cell_formula_units_Z 26
_cell_length_a 17.312564
_cell_length_b 14.061970
_cell_length_c 5.554570
_cell_angle_alpha 90.000000
_cell_angle_beta 68.052634
_cell_angle_gamma 90.000000
_cell_volume 1254.252110
_symmetry_space_group_name_H-M "P 2/M"
_symmetry_group_IT_number 10
_symmetry_cell_setting 'monoclinic'
loop_
_space_group_symop_operation_xyz
x,y,z
-x,y,-z
-x,-y,-z
x,-y,z
loop_
_atom_site_type_symbol
_atom_site_label
_atom_site_fract_x
_atom_site_fract_y
_atom_site_fract_z
Si Si1 0.702763 0.219477 0.009682
Si Si2 0.691949 0.790566 0.520270
Si Si3 0.465453 0.108971 0.290551
Si Si4 0.947907 0.500000 0.809010
Si Si5 0.754608 0.000000 0.973066
Si Si6 0.895899 0.203843 0.276941
Si Si7 0.137234 0.000000 0.648783
Si Si8 0.890720 0.707532 0.783719
O O1 0.666518 0.254639 0.801661
O O2 0.796945 0.254971 0.886965
O O3 0.706528 0.102564 0.020253
O O4 0.667692 0.257680 0.299413
O O5 0.634569 0.884510 0.590435
O O6 0.792341 0.800693 0.397287
O O7 0.500000 0.151027 0.500000
O O8 0.493686 0.000000 0.257961
O O9 0.500000 0.150245 0.000000
O O10 0.896934 0.597526 0.847238
O O11 0.000000 0.500000 0.500000
O O12 0.000000 0.500000 0.000000
O O13 0.807914 0.000000 0.661709
O O14 0.810276 0.000000 0.156635
O O15 0.920870 0.269652 0.475519
O O16 0.917393 0.094884 0.296631
O O17 0.923713 0.237112 0.980640
#
# Coordination Sequence:
#
# PCOD9142309 Si02
#       8
#     4   4   4   2   2   4   2   4
#     4  10  19  28  48  78  98 129 160 225 285 291
#     4  10  18  28  44  61  91 131 178 224 256 317
#     4  10  21  31  35  52  87 142 190 220 248 281
#     4  12  26  44  66  88 104 150 184 192 240 318
#     4  12  16  26  42  78 106 130 170 196 272 336
#     4  10  19  31  52  84 105 138 164 227 286 293
#     4  12  16  28  44  80 110 132 166 192 276 336
#     4  10  20  37  54  79 114 127 171 223 252 304
#
# _framework density 20.729485
#
# number of rings (size 3 to 8) (size 9 to 14) (size 15 to 20)
#    0.000    1.538    6.154    1.846    3.231    0.000 
#    0.000    0.000    0.000    0.000    0.000   18.308 
#    0.000    0.000    0.000  221.538    0.000    0.000 
#
# Total GULP energy -144760.113170 kJ/mol
# GULP energy per Si atom -5567.696660 kJ/mol
# Density = 2.068230 g / cm^3
# Si number density = 20.729485 Si / 1000 Ang^3
#
#
#
# Elastic Constant Matrix: (Units=GPa)
#
#
# Indices 1 2 3 4 5 6 
#
# 1 57.4904 -3.5532 34.1425 0.0000 12.7146 0.0000
# 2 -3.5532 58.4522 21.9413 0.0000 12.8920 0.0000
# 3 34.1425 21.9413 218.8747 0.0000 50.7406 0.0000
# 4 0.0000 0.0000 0.0000 18.9860 0.0000 10.8818
# 5 12.7146 12.8920 50.7406 0.0000 39.3955 0.0000
# 6 0.0000 0.0000 0.0000 10.8818 0.0000 -11.6246
#
#
#
# Elastic Compliance Matrix: (Units=1/GPa)
#
#
# Indices 1 2 3 4 5 6 
#
# 1 0.019981 0.003080 -0.002419 0.000000 -0.004341 0.000000
# 2 0.003080 0.018977 -0.001016 0.000000 -0.005895 0.000000
# 3 -0.002419 -0.001016 0.006829 0.000000 -0.007682 0.000000
# 4 0.000000 0.000000 0.000000 0.034279 0.000000 0.032088
# 5 -0.004341 -0.005895 -0.007682 0.000000 0.038608 0.000000
# 6 0.000000 0.000000 0.000000 0.032088 0.000000 -0.055986
#
#
# Mechanical properties :
#
#
# Convention : Reuss Voigt Hill
#
# Bulk Modulus (GPa) = 22.18444 48.87537 35.52991
# Shear Modulus (GPa) = 63.75559 28.17051 45.96305
#
# Velocity S-wave (km/s) = 5.55183 3.69040 4.71391
# Velocity P-wave (km/s) = 7.19876 6.46434 6.84141
#
# Compressibility (1/GPa) = 0.04507663
#
# Stress axis : x y z
#
# Youngs Moduli (GPa) = 50.04656 52.69554 146.43345
#
# Poissons Ratio (x) = -0.16231 0.35428
# Poissons Ratio (y) = -0.15415 0.14879
# Poissons Ratio (z) = 0.12108 0.05355
#
# Static dielectric constant tensor:
#      x y z
#    x 1.900560 0.000000 -0.121680 
#    y 0.000000 1.719740 0.000000 
#    z -0.121680 0.000000 1.981080 
# 
# From -- ./inp_files/12237.got.cif
#   From: 2010.05.17/outbox.cif.g08.bks.cpg/sg10_7_cif.got.tgz:12237.got - 2010.06.03 11:33:40.
