data_PCOD9142830
_publ_section_title
;
Structure prediction by ZEFSAII (Michael W. Deem and Ramdas Pophale) SiO2 
 PCOD9142830
Probable space group: P 2/M
;
_chemical_formula_sum "Si O2"
_cell_formula_units_Z 30
_cell_length_a 11.025855
_cell_length_b 13.120211
_cell_length_c 14.634058
_cell_angle_alpha 90.000000
_cell_angle_beta 127.398292
_cell_angle_gamma 90.000000
_cell_volume 1681.802503
_symmetry_space_group_name_H-M "P 2/M"
_symmetry_group_IT_number 10
_symmetry_cell_setting 'monoclinic'
loop_
_space_group_symop_operation_xyz
x,y,z
-x,y,-z
-x,-y,-z
x,-y,z
loop_
_atom_site_type_symbol
_atom_site_label
_atom_site_fract_x
_atom_site_fract_y
_atom_site_fract_z
Si Si1 0.780038 0.617700 0.024827
Si Si2 0.159694 0.390280 0.515269
Si Si3 0.995780 0.297779 0.720554
Si Si4 0.226329 0.824803 0.072656
Si Si5 0.950559 0.115430 0.825840
Si Si6 0.500000 0.284753 0.000000
Si Si7 0.438299 0.113714 0.830839
Si Si8 0.841277 0.200886 0.378632
O O1 0.784367 0.500000 0.998407
O O2 0.910980 0.640631 0.160167
O O3 0.791579 0.702841 0.950479
O O4 0.621919 0.646601 0.003173
O O5 0.236135 0.500000 0.561072
O O6 0.232873 0.291187 0.593936
O O7 0.000000 0.395540 0.500000
O O8 0.117277 0.367064 0.391206
O O9 0.105292 0.249996 0.692851
O O10 0.921816 0.201341 0.737494
O O11 0.153261 0.862160 0.133240
O O12 0.399904 0.860815 0.142450
O O13 0.123960 0.870809 0.943144
O O14 0.929551 0.000000 0.784191
O O15 0.579780 0.205178 0.105149
O O16 0.290191 0.120416 0.699059
O O17 0.446138 0.000000 0.873493
O O18 0.000000 0.167270 0.500000
#
# Coordination Sequence:
#
# PCOD9142830 Si02
#       8
#     4   4   4   4   4   2   4   4
#     4  10  18  30  47  70 105 136 164 206 258 300
#     4   8  15  30  51  71  96 130 166 208 254 295
#     4   9  17  30  48  77 101 124 172 210 246 310
#     4   9  20  34  49  73 102 133 181 209 244 314
#     4  10  18  33  53  73 101 139 172 211 253 297
#     4  10  20  32  44  74 104 136 170 202 246 328
#     4  11  20  33  51  73 104 138 168 213 258 298
#     4   9  19  34  49  75 105 131 172 211 251 311
#
# _framework density 17.838004000000002
#
# number of rings (size 3 to 8) (size 9 to 14) (size 15 to 20)
#    0.000    2.800    1.333    2.400    0.000    1.333 
#    0.000    8.667    0.000    3.600    0.000    8.400 
#    0.000    0.000    0.000    0.000    0.000    0.000 
#
# Total GULP energy -167032.010785 kJ/mol
# GULP energy per Si atom -5567.733693 kJ/mol
# Density = 1.779740 g / cm^3
# Si number density = 17.838004 Si / 1000 Ang^3
#
#
#
# Elastic Constant Matrix: (Units=GPa)
#
#
# Indices 1 2 3 4 5 6 
#
# 1 19.4567 3.1656 16.7113 0.0000 10.4085 0.0000
# 2 3.1656 104.3772 20.1663 0.0000 0.3850 0.0000
# 3 16.7113 20.1663 50.1448 0.0000 1.8659 0.0000
# 4 0.0000 0.0000 0.0000 26.2061 0.0000 -4.2434
# 5 10.4085 0.3850 1.8659 0.0000 17.6351 0.0000
# 6 0.0000 0.0000 0.0000 -4.2434 0.0000 17.8049
#
#
#
# Elastic Compliance Matrix: (Units=1/GPa)
#
#
# Indices 1 2 3 4 5 6 
#
# 1 0.120219 0.004186 -0.039258 0.000000 -0.066893 0.000000
# 2 0.004186 0.010534 -0.005553 0.000000 -0.002113 0.000000
# 3 -0.039258 -0.005553 0.034528 0.000000 0.019639 0.000000
# 4 0.000000 0.000000 0.000000 0.039691 0.000000 0.009459
# 5 -0.066893 -0.002113 0.019639 0.000000 0.094155 0.000000
# 6 0.000000 0.000000 0.000000 0.009459 0.000000 0.058419
#
#
# Mechanical properties :
#
#
# Convention : Reuss Voigt Hill
#
# Bulk Modulus (GPa) = 11.90052 28.22943 20.06498
# Shear Modulus (GPa) = 10.71108 21.25825 15.98467
#
# Velocity S-wave (km/s) = 2.45310 3.45590 2.99674
# Velocity P-wave (km/s) = 3.83530 5.63774 4.82150
#
# Compressibility (1/GPa) = 0.08402995
#
# Stress axis : x y z
#
# Youngs Moduli (GPa) = 8.31817 94.92782 28.96210
#
# Poissons Ratio (x) = -0.39734 1.13701
# Poissons Ratio (y) = -0.03482 0.16082
# Poissons Ratio (z) = 0.32656 0.52711
#
# Static dielectric constant tensor:
#      x y z
#    x 1.602700 0.000000 0.002690 
#    y 0.000000 1.638760 0.000000 
#    z 0.002690 0.000000 1.634850 
# 
# From -- ./inp_files/64689.got.cif
#   From: 2010.05.17/outbox.cif.g08.bks.cpg/sg10_33_cif.got.tgz:64689.got - 2010.06.03 11:33:40.
