data_PCOD9142143
_publ_section_title
;
Structure prediction by ZEFSAII (Michael W. Deem and Ramdas Pophale) SiO2 
 PCOD9142143
Probable space group: P 2/M
;
_chemical_formula_sum "Si O2"
_cell_formula_units_Z 32
_cell_length_a 23.627029
_cell_length_b 8.858958
_cell_length_c 14.590870
_cell_angle_alpha 90.000000
_cell_angle_beta 45.481955
_cell_angle_gamma 90.000000
_cell_volume 2177.612218
_symmetry_space_group_name_H-M "P 2/M"
_symmetry_group_IT_number 10
_symmetry_cell_setting 'monoclinic'
loop_
_space_group_symop_operation_xyz
x,y,z
-x,y,-z
-x,-y,-z
x,-y,z
loop_
_atom_site_type_symbol
_atom_site_label
_atom_site_fract_x
_atom_site_fract_y
_atom_site_fract_z
Si Si1 0.038366 0.180293 0.827575
Si Si2 0.671915 0.318768 0.706155
Si Si3 0.802815 0.179713 0.441133
Si Si4 0.892506 0.320155 0.062826
Si Si5 0.575075 0.673866 0.984695
Si Si6 0.264625 0.680921 0.669993
Si Si7 0.551814 0.681658 0.528709
Si Si8 0.471987 0.178862 0.248197
O O1 0.103184 0.213190 0.675603
O O2 0.074556 0.260632 0.876725
O O3 0.037236 0.000000 0.843161
O O4 0.948671 0.241272 0.924128
O O5 0.667431 0.500000 0.705761
O O6 0.756165 0.260236 0.575645
O O7 0.605146 0.251806 0.713649
O O8 0.647171 0.274993 0.837815
O O9 0.762207 0.235859 0.392439
O O10 0.792983 0.000000 0.459219
O O11 0.902618 0.500000 0.045289
O O12 0.799029 0.284795 0.177571
O O13 0.587201 0.500000 0.999577
O O14 0.547611 0.772078 0.101437
O O15 0.500000 0.674607 0.000000
O O16 0.259441 0.500000 0.658587
O O17 0.355089 0.718148 0.590215
O O18 0.500000 0.726731 0.500000
O O19 0.545681 0.500000 0.546157
O O20 0.523753 0.758148 0.654247
O O21 0.463004 0.000000 0.258105
#
# Coordination Sequence:
#
# PCOD9142143 Si02
#       8
#     4   4   4   4   4   4   4   4
#     4   9  16  24  33  50  75 101 128 157 192 233
#     4  10  18  28  42  59  80 107 137 166 197 238
#     4  10  18  25  37  57  80 106 133 163 200 236
#     4   9  15  23  36  52  69  94 130 164 195 230
#     4   8  16  29  43  58  77 103 133 163 197 239
#     4   9  17  28  41  55  73 100 133 170 206 241
#     4  10  20  33  47  60  77 106 141 174 210 248
#     4  11  20  29  43  61  80 102 131 170 210 244
#
# _framework density 14.694995
#
# number of rings (size 3 to 8) (size 9 to 14) (size 15 to 20)
#    0.000    2.500    1.250    4.125    0.000    5.000 
#    0.000    0.000    0.000    0.000    0.000    0.000 
#    0.000    0.000    0.000    1.125    0.000   23.500 
#
# Total GULP energy -178163.097154 kJ/mol
# GULP energy per Si atom -5567.596786 kJ/mol
# Density = 1.466155 g / cm^3
# Si number density = 14.694995 Si / 1000 Ang^3
#
#
#
# Elastic Constant Matrix: (Units=GPa)
#
#
# Indices 1 2 3 4 5 6 
#
# 1 34.3558 21.4940 42.7649 0.0000 -4.8265 0.0000
# 2 21.4940 51.7727 51.7227 0.0000 -5.7617 0.0000
# 3 42.7649 51.7227 148.8423 0.0000 -24.8088 0.0000
# 4 0.0000 0.0000 0.0000 36.7595 0.0000 13.3108
# 5 -4.8265 -5.7617 -24.8088 0.0000 17.3471 0.0000
# 6 0.0000 0.0000 0.0000 13.3108 0.0000 29.2311
#
#
#
# Elastic Compliance Matrix: (Units=1/GPa)
#
#
# Indices 1 2 3 4 5 6 
#
# 1 0.048701 -0.009005 -0.011953 0.000000 -0.006535 0.000000
# 2 -0.009005 0.031803 -0.009350 0.000000 -0.005314 0.000000
# 3 -0.011953 -0.009350 0.016189 0.000000 0.016721 0.000000
# 4 0.000000 0.000000 0.000000 0.032575 0.000000 -0.014834
# 5 -0.006535 -0.005314 0.016721 0.000000 0.077977 0.000000
# 6 0.000000 0.000000 0.000000 -0.014834 0.000000 0.040965
#
#
# Mechanical properties :
#
#
# Convention : Reuss Voigt Hill
#
# Bulk Modulus (GPa) = 27.71770 51.88154 39.79962
# Shear Modulus (GPa) = 15.58348 24.60016 20.09182
#
# Velocity S-wave (km/s) = 3.26001 4.09596 3.70165
# Velocity P-wave (km/s) = 5.75092 7.59943 6.73886
#
# Compressibility (1/GPa) = 0.03607804
#
# Stress axis : x y z
#
# Youngs Moduli (GPa) = 20.53340 31.44315 61.77022
#
# Poissons Ratio (x) = 0.28314 0.73832
# Poissons Ratio (y) = 0.18490 0.57757
# Poissons Ratio (z) = 0.24543 0.29400
#
# Static dielectric constant tensor:
#      x y z
#    x 1.456550 0.000000 -0.045830 
#    y 0.000000 1.489550 0.000000 
#    z -0.045830 0.000000 1.540600 
# 
# From -- ./inp_files/56392.got.cif
#   From: 2010.05.17/outbox.cif.g08.bks.cpg/sg10_29_cif.got.tgz:56392.got - 2010.06.03 11:33:40.
