data_PCOD9142543
_publ_section_title
;
Structure prediction by ZEFSAII (Michael W. Deem and Ramdas Pophale) SiO2 
 PCOD9142543
Probable space group: P 2/M
;
_chemical_formula_sum "Si O2"
_cell_formula_units_Z 32
_cell_length_a 10.275175
_cell_length_b 7.373719
_cell_length_c 26.870541
_cell_angle_alpha 90.000000
_cell_angle_beta 46.605752
_cell_angle_gamma 90.000000
_cell_volume 1479.359417
_symmetry_space_group_name_H-M "P 2/M"
_symmetry_group_IT_number 10
_symmetry_cell_setting 'monoclinic'
loop_
_space_group_symop_operation_xyz
x,y,z
-x,y,-z
-x,-y,-z
x,-y,z
loop_
_atom_site_type_symbol
_atom_site_label
_atom_site_fract_x
_atom_site_fract_y
_atom_site_fract_z
Si Si1 0.664393 0.282886 0.677658
Si Si2 0.614921 0.721420 0.582271
Si Si3 0.777780 0.782624 0.906863
Si Si4 0.395456 0.782778 0.952008
Si Si5 0.956173 0.220350 0.763013
Si Si6 0.073713 0.278523 0.567685
Si Si7 0.587587 0.784677 0.808314
Si Si8 0.715846 0.708422 0.391673
O O1 0.672606 0.500000 0.672346
O O2 0.581664 0.218220 0.647421
O O3 0.568434 0.243259 0.754821
O O4 0.869955 0.215661 0.625130
O O5 0.605860 0.500000 0.584212
O O6 0.812319 0.769990 0.510930
O O7 0.465847 0.787472 0.582725
O O8 0.587541 0.755291 0.928718
O O9 0.922883 0.718743 0.828660
O O10 0.800937 0.000000 0.904455
O O11 0.750944 0.712010 0.970051
O O12 0.433231 0.714707 0.886274
O O13 0.365260 0.000000 0.957186
O O14 0.783386 0.280980 0.775654
O O15 0.136278 0.287088 0.690578
O O16 0.959778 0.000000 0.761274
O O17 0.066552 0.500000 0.570999
O O18 0.187986 0.213809 0.585110
O O19 0.592665 0.000000 0.815222
O O20 0.675304 0.500000 0.415547
#
# Coordination Sequence:
#
# PCOD9142543 Si02
#       8
#     4   4   4   4   4   4   4   4
#     4  10  18  29  46  67  87 111 143 179 216 254
#     4   9  18  30  45  65  88 111 142 182 217 251
#     4   7  10  18  34  57  83 110 140 171 204 245
#     4   7  10  18  34  57  83 110 140 171 204 245
#     4   9  16  26  42  64  90 117 142 173 213 255
#     4   9  16  28  47  67  84 107 142 182 219 253
#     4   9  16  26  42  64  90 117 142 173 213 255
#     4  10  18  29  46  67  87 111 143 179 216 254
#
# _framework density 21.630984000000002
#
# number of rings (size 3 to 8) (size 9 to 14) (size 15 to 20)
#    0.000    3.250    1.250    3.000    0.000    3.000 
#    0.000    0.625    0.000    5.250    0.000    4.375 
#    0.000    7.000    0.000    0.000    0.000    0.000 
#
# Total GULP energy -178344.972384 kJ/mol
# GULP energy per Si atom -5573.280387 kJ/mol
# Density = 2.158175 g / cm^3
# Si number density = 21.630984 Si / 1000 Ang^3
#
#
#
# Elastic Constant Matrix: (Units=GPa)
#
#
# Indices 1 2 3 4 5 6 
#
# 1 30.4069 0.5255 -12.6845 0.0000 10.3929 0.0000
# 2 0.5255 75.3965 -6.3517 0.0000 -0.3572 0.0000
# 3 -12.6845 -6.3517 99.4748 0.0000 21.0702 0.0000
# 4 0.0000 0.0000 0.0000 14.7145 0.0000 5.6587
# 5 10.3929 -0.3572 21.0702 0.0000 21.4530 0.0000
# 6 0.0000 0.0000 0.0000 5.6587 0.0000 -0.2797
#
#
#
# Elastic Compliance Matrix: (Units=1/GPa)
#
#
# Indices 1 2 3 4 5 6 
#
# 1 0.053460 0.000746 0.015591 0.000000 -0.041199 0.000000
# 2 0.000746 0.013356 0.001234 0.000000 -0.001351 0.000000
# 3 0.015591 0.001234 0.017318 0.000000 -0.024542 0.000000
# 4 0.000000 0.000000 0.000000 0.007740 0.000000 0.156593
# 5 -0.041199 -0.001351 -0.024542 0.000000 0.090654 0.000000
# 6 0.000000 0.000000 0.000000 0.156593 0.000000 -0.407195
#
#
# Mechanical properties :
#
#
# Convention : Reuss Voigt Hill
#
# Bulk Modulus (GPa) = 8.38395 18.69519 13.53957
# Shear Modulus (GPa) = -22.72204 22.09681 -0.31262
#
# Velocity S-wave (km/s) = -3.24456 3.19961 -0.38057
# Velocity P-wave (km/s) = 3.18621 4.72351 2.46573
#
# Compressibility (1/GPa) = 0.11927556
#
# Stress axis : x y z
#
# Youngs Moduli (GPa) = 18.70551 74.87512 57.74346
#
# Poissons Ratio (x) = -0.05583 -0.90029
# Poissons Ratio (y) = -0.01395 -0.07126
# Poissons Ratio (z) = -0.29164 -0.09240
#
# Static dielectric constant tensor:
#      x y z
#    x 1.759070 0.000000 0.046070 
#    y 0.000000 1.853960 0.000000 
#    z 0.046070 0.000000 1.830780 
# 
# From -- ./inp_files/34601.got.cif
#   From: 2010.05.17/outbox.cif.g08.bks.cpg/sg10_18_cif.got.tgz:34601.got - 2010.06.03 11:33:40.
