data_PCOD9142261
_publ_section_title
;
Structure prediction by ZEFSAII (Michael W. Deem and Ramdas Pophale) SiO2 
 PCOD9142261
Probable space group: P 2/M
;
_chemical_formula_sum "Si O2"
_cell_formula_units_Z 22
_cell_length_a 7.506871
_cell_length_b 8.440792
_cell_length_c 13.437915
_cell_angle_alpha 90.000000
_cell_angle_beta 105.371796
_cell_angle_gamma 90.000000
_cell_volume 821.018385
_symmetry_space_group_name_H-M "P 2/M"
_symmetry_group_IT_number 10
_symmetry_cell_setting 'monoclinic'
loop_
_space_group_symop_operation_xyz
x,y,z
-x,y,-z
-x,-y,-z
x,-y,z
loop_
_atom_site_type_symbol
_atom_site_label
_atom_site_fract_x
_atom_site_fract_y
_atom_site_fract_z
Si Si1 0.188329 0.810737 0.119830
Si Si2 0.842680 0.827263 0.182656
Si Si3 0.341346 0.500000 0.687253
Si Si4 0.888825 0.833929 0.588228
Si Si5 0.456538 0.180221 0.710313
Si Si6 0.617889 0.500000 0.917765
Si Si7 0.922458 0.500000 0.600477
O O1 0.987709 0.753678 0.128255
O O2 0.327168 0.816591 0.235241
O O3 0.268686 0.665749 0.067742
O O4 0.185393 0.000000 0.088471
O O5 0.958356 0.840513 0.302181
O O6 0.643060 0.788505 0.196292
O O7 0.814384 0.000000 0.134012
O O8 0.381288 0.331894 0.639458
O O9 0.493283 0.500000 0.798424
O O10 0.123240 0.500000 0.688425
O O11 0.809024 0.660023 0.595478
O O12 0.000000 0.831832 0.500000
O O13 0.780374 0.000000 0.575520
O O14 0.406825 0.000000 0.672292
O O15 0.500000 0.500000 0.000000
O O16 0.000000 0.500000 0.500000
#
# Coordination Sequence:
#
# PCOD9142261 Si02
#       7
#     4   4   2   4   4   2   2
#     4   9  19  34  54  80 107 139 182 226 269 326
#     4   9  16  29  52  78 103 140 188 221 265 332
#     4  10  18  31  52  76 102 139 178 217 269 323
#     4   9  17  28  44  73 108 139 177 223 265 314
#     4   9  17  30  49  76 105 135 177 225 266 319
#     4  10  22  38  57  83 109 140 185 227 278 342
#     4  10  18  27  45  78 105 133 181 217 257 325
#
# _framework density 26.79599
#
# number of rings (size 3 to 8) (size 9 to 14) (size 15 to 20)
#    0.000    2.727    1.818    0.000    0.000    1.818 
#    0.000    0.000    0.000    9.818    0.000   29.273 
#    0.000    0.000    0.000    0.000    0.000    0.000 
#
# Total GULP energy -122504.513114 kJ/mol
# GULP energy per Si atom -5568.386960 kJ/mol
# Density = 2.673500 g / cm^3
# Si number density = 26.795990 Si / 1000 Ang^3
#
#
#
# Elastic Constant Matrix: (Units=GPa)
#
#
# Indices 1 2 3 4 5 6 
#
# 1 116.5378 30.6300 41.3355 0.0000 -7.4439 0.0000
# 2 30.6300 292.6949 22.1141 0.0000 -7.3243 0.0000
# 3 41.3355 22.1141 90.4586 0.0000 4.1423 0.0000
# 4 0.0000 0.0000 0.0000 15.1280 0.0000 8.0162
# 5 -7.4439 -7.3243 4.1423 0.0000 41.4718 0.0000
# 6 0.0000 0.0000 0.0000 8.0162 0.0000 63.0785
#
#
#
# Elastic Compliance Matrix: (Units=1/GPa)
#
#
# Indices 1 2 3 4 5 6 
#
# 1 0.010602 -0.000692 -0.004779 0.000000 0.002258 0.000000
# 2 -0.000692 0.003546 -0.000576 0.000000 0.000560 0.000000
# 3 -0.004779 -0.000576 0.013485 0.000000 -0.002307 0.000000
# 4 0.000000 0.000000 0.000000 0.070876 0.000000 -0.009007
# 5 0.002258 0.000560 -0.002307 0.000000 0.024847 0.000000
# 6 0.000000 0.000000 0.000000 -0.009007 0.000000 0.016998
#
#
# Mechanical properties :
#
#
# Convention : Reuss Voigt Hill
#
# Bulk Modulus (GPa) = 64.35401 76.42786 70.39093
# Shear Modulus (GPa) = 31.72011 50.97641 41.34826
#
# Velocity S-wave (km/s) = 3.44432 4.36637 3.93246
# Velocity P-wave (km/s) = 6.31555 7.34876 6.85166
#
# Compressibility (1/GPa) = 0.01553905
#
# Stress axis : x y z
#
# Youngs Moduli (GPa) = 94.32122 281.96854 74.15602
#
# Poissons Ratio (x) = 0.19510 0.35439
# Poissons Ratio (y) = 0.06526 0.04275
# Poissons Ratio (z) = 0.45075 0.16254
#
# Static dielectric constant tensor:
#      x y z
#    x 2.074280 0.000000 0.016920 
#    y 0.000000 2.227450 0.000000 
#    z 0.016920 0.000000 2.087910 
# 
# From -- ./inp_files/60312.got.cif
#   From: 2010.05.17/outbox.cif.g08.bks.cpg/sg10_31_cif.got.tgz:60312.got - 2010.06.03 11:33:40.
