data_PCOD9142977
_publ_section_title
;
Structure prediction by ZEFSAII (Michael W. Deem and Ramdas Pophale) SiO2 
 PCOD9142977
Probable space group: P 2/M
;
_chemical_formula_sum "Si O2"
_cell_formula_units_Z 30
_cell_length_a 25.861147
_cell_length_b 12.891632
_cell_length_c 5.360305
_cell_angle_alpha 90.000000
_cell_angle_beta 76.142810
_cell_angle_gamma 90.000000
_cell_volume 1735.073047
_symmetry_space_group_name_H-M "P 2/M"
_symmetry_group_IT_number 10
_symmetry_cell_setting 'monoclinic'
loop_
_space_group_symop_operation_xyz
x,y,z
-x,y,-z
-x,-y,-z
x,-y,z
loop_
_atom_site_type_symbol
_atom_site_label
_atom_site_fract_x
_atom_site_fract_y
_atom_site_fract_z
Si Si1 0.115718 0.808916 0.622807
Si Si2 0.965329 0.000000 0.290209
Si Si3 0.444083 0.620552 0.800662
Si Si4 0.176944 0.126610 0.053140
Si Si5 0.563353 0.295657 0.692428
Si Si6 0.300955 0.874548 0.861158
Si Si7 0.034936 0.377266 0.709506
Si Si8 0.637710 0.875894 0.710546
O O1 0.070909 0.898080 0.667825
O O2 0.151443 0.828689 0.335919
O O3 0.085548 0.698826 0.653045
O O4 0.148287 0.828768 0.840026
O O5 0.000000 0.000000 0.500000
O O6 0.000000 0.000000 0.000000
O O7 0.456530 0.500000 0.754920
O O8 0.414496 0.663699 0.594656
O O9 0.500184 0.682490 0.750612
O O10 0.416528 0.638513 0.095779
O O11 0.171478 0.000000 0.060549
O O12 0.239445 0.153738 0.967588
O O13 0.581606 0.179743 0.725672
O O14 0.324624 0.844669 0.565255
O O15 0.302193 0.000000 0.862730
O O16 0.336777 0.842081 0.055912
O O17 0.048916 0.500000 0.692192
O O18 0.000000 0.356856 0.500000
O O19 0.000000 0.357613 0.000000
O O20 0.632509 0.000000 0.717698
#
# Coordination Sequence:
#
# PCOD9142977 Si02
#       8
#     4   2   4   4   4   4   4   4
#     4  12  21  34  53  79 107 138 172 208 256 307
#     4  12  22  32  46  72 114 146 160 192 256 314
#     4  10  19  33  50  75 102 133 171 213 254 296
#     4  11  20  35  52  79 106 132 168 212 250 315
#     4  10  18  30  50  73 101 132 168 208 246 301
#     4   9  19  33  52  70 101 136 170 210 256 291
#     4  10  21  38  56  75 100 134 178 216 240 285
#     4  10  19  33  49  75 102 136 170 208 250 307
#
# _framework density 17.290338999999999
#
# number of rings (size 3 to 8) (size 9 to 14) (size 15 to 20)
#    0.000    1.600    1.333    6.000    0.000    2.133 
#    0.000    2.667    0.000    0.000    0.000   24.267 
#    0.000    0.000    0.000    0.000    0.000    0.000 
#
# Total GULP energy -167266.527916 kJ/mol
# GULP energy per Si atom -5575.550931 kJ/mol
# Density = 1.725099 g / cm^3
# Si number density = 17.290339 Si / 1000 Ang^3
#
#
#
# Elastic Constant Matrix: (Units=GPa)
#
#
# Indices 1 2 3 4 5 6 
#
# 1 46.8851 31.1814 8.2456 0.0000 16.3309 0.0000
# 2 31.1814 64.1816 15.0657 0.0000 5.8086 0.0000
# 3 8.2456 15.0657 114.2263 0.0000 35.0770 0.0000
# 4 0.0000 0.0000 0.0000 16.7349 0.0000 6.5665
# 5 16.3309 5.8086 35.0770 0.0000 21.8814 0.0000
# 6 0.0000 0.0000 0.0000 6.5665 0.0000 -23.5809
#
#
#
# Elastic Compliance Matrix: (Units=1/GPa)
#
#
# Indices 1 2 3 4 5 6 
#
# 1 0.062698 -0.028916 0.022256 0.000000 -0.074796 0.000000
# 2 -0.028916 0.029447 -0.011863 0.000000 0.032781 0.000000
# 3 0.022256 -0.011863 0.025302 0.000000 -0.054021 0.000000
# 4 0.000000 0.000000 0.000000 0.053869 0.000000 0.015001
# 5 -0.074796 0.032781 -0.054021 0.000000 0.179421 0.000000
# 6 0.000000 0.000000 0.000000 0.015001 0.000000 -0.038230
#
#
# Mechanical properties :
#
#
# Convention : Reuss Voigt Hill
#
# Bulk Modulus (GPa) = 12.43752 37.14204 24.78978
# Shear Modulus (GPa) = 13.28546 14.39375 13.83961
#
# Velocity S-wave (km/s) = 2.77496 2.88839 2.83225
# Velocity P-wave (km/s) = 4.18045 5.71417 5.00639
#
# Compressibility (1/GPa) = 0.08040185
#
# Stress axis : x y z
#
# Youngs Moduli (GPa) = 15.94953 33.95961 39.52316
#
# Poissons Ratio (x) = 0.98196 -0.87964
# Poissons Ratio (y) = 0.46119 0.46886
# Poissons Ratio (z) = -0.35498 0.40286
#
# Static dielectric constant tensor:
#      x y z
#    x 1.570860 0.000000 0.015130 
#    y 0.000000 1.578980 0.000000 
#    z 0.015130 0.000000 1.646180 
# 
# From -- ./inp_files/13158.got.cif
#   From: 2010.05.17/outbox.cif.g08.bks.cpg/sg10_7_cif.got.tgz:13158.got - 2010.06.03 11:33:40.
