data_PCOD9142078
_publ_section_title
;
Structure prediction by ZEFSAII (Michael W. Deem and Ramdas Pophale) SiO2 
 PCOD9142078
Probable space group: P 2/M
;
_chemical_formula_sum "Si O2"
_cell_formula_units_Z 32
_cell_length_a 29.490040
_cell_length_b 14.148711
_cell_length_c 9.661867
_cell_angle_alpha 90.000000
_cell_angle_beta 26.275301
_cell_angle_gamma 90.000000
_cell_volume 1784.628392
_symmetry_space_group_name_H-M "P 2/M"
_symmetry_group_IT_number 10
_symmetry_cell_setting 'monoclinic'
loop_
_space_group_symop_operation_xyz
x,y,z
-x,y,-z
-x,-y,-z
x,-y,z
loop_
_atom_site_type_symbol
_atom_site_label
_atom_site_fract_x
_atom_site_fract_y
_atom_site_fract_z
Si Si1 0.111866 0.391547 0.640757
Si Si2 0.431924 0.330675 0.807861
Si Si3 0.516556 0.184394 0.112413
Si Si4 0.271897 0.601769 0.452971
Si Si5 0.743219 0.812634 0.423469
Si Si6 0.115835 0.112330 0.729751
Si Si7 0.243712 0.230364 0.167811
Si Si8 0.698632 0.107242 0.250884
O O1 0.108384 0.500000 0.598218
O O2 0.180945 0.391340 0.590007
O O3 0.164641 0.318882 0.390546
O O4 0.000000 0.363488 0.000000
O O5 0.500000 0.374630 0.500000
O O6 0.495005 0.261925 0.736202
O O7 0.371623 0.395154 0.081242
O O8 0.345498 0.268757 0.965402
O O9 0.424738 0.111898 0.389439
O O10 0.500000 0.220950 0.000000
O O11 0.635584 0.152637 0.788277
O O12 0.266400 0.500000 0.540725
O O13 0.268949 0.698428 0.547858
O O14 0.840151 0.839116 0.252055
O O15 0.746827 0.860062 0.264374
O O16 0.190936 0.150759 0.406175
O O17 0.122701 0.000000 0.727713
O O18 0.000000 0.135358 0.000000
O O19 0.269182 0.182526 0.953045
O O20 0.728118 0.000000 0.134845
#
# Coordination Sequence:
#
# PCOD9142078 Si02
#       8
#     4   4   4   4   4   4   4   4
#     4   9  17  32  59  88 108 133 181 235 279 326
#     4  10  17  32  52  80 112 147 173 218 274 333
#     4   9  18  33  54  77 107 145 185 230 269 323
#     4   9  18  32  55  83 106 138 182 225 277 331
#     4  10  20  38  57  78 111 148 185 234 277 324
#     4  11  22  36  57  80 104 143 194 233 273 330
#     4  11  20  35  54  81 117 144 178 228 281 324
#     4  11  23  36  54  81 114 152 187 226 277 328
#
# _framework density 17.930904999999999
#
# number of rings (size 3 to 8) (size 9 to 14) (size 15 to 20)
#    0.000    2.000    5.000    1.125    0.000    3.000 
#    0.000    1.875    0.000   26.250    0.000    2.625 
#    0.000    0.000    0.000    0.000    0.000    0.000 
#
# Total GULP energy -178204.567563 kJ/mol
# GULP energy per Si atom -5568.892736 kJ/mol
# Density = 1.789009 g / cm^3
# Si number density = 17.930905 Si / 1000 Ang^3
#
#
#
# Elastic Constant Matrix: (Units=GPa)
#
#
# Indices 1 2 3 4 5 6 
#
# 1 69.3733 35.0149 31.6993 0.0000 -4.0879 0.0000
# 2 35.0149 120.4543 35.6513 0.0000 1.8182 0.0000
# 3 31.6993 35.6513 61.8671 0.0000 -6.2977 0.0000
# 4 0.0000 0.0000 0.0000 -18.1833 0.0000 13.3480
# 5 -4.0879 1.8182 -6.2977 0.0000 27.8741 0.0000
# 6 0.0000 0.0000 0.0000 13.3480 0.0000 11.6793
#
#
#
# Elastic Compliance Matrix: (Units=1/GPa)
#
#
# Indices 1 2 3 4 5 6 
#
# 1 0.019918 -0.003410 -0.008107 0.000000 0.001312 0.000000
# 2 -0.003410 0.010703 -0.004649 0.000000 -0.002249 0.000000
# 3 -0.008107 -0.004649 0.023446 0.000000 0.004412 0.000000
# 4 0.000000 0.000000 0.000000 -0.029906 0.000000 0.034179
# 5 0.001312 -0.002249 0.004412 0.000000 0.037211 0.000000
# 6 0.000000 0.000000 0.000000 0.034179 0.000000 0.046560
#
#
# Mechanical properties :
#
#
# Convention : Reuss Voigt Hill
#
# Bulk Modulus (GPa) = 46.01095 50.71396 48.36246
# Shear Modulus (GPa) = 33.89621 14.22929 24.06275
#
# Velocity S-wave (km/s) = 4.35257 2.82008 3.66727
# Velocity P-wave (km/s) = 7.13972 6.24085 6.70536
#
# Compressibility (1/GPa) = 0.02173396
#
# Stress axis : x y z
#
# Youngs Moduli (GPa) = 50.20699 93.42928 42.65199
#
# Poissons Ratio (x) = 0.31862 0.34576
# Poissons Ratio (y) = 0.17122 0.19830
# Poissons Ratio (z) = 0.40700 0.43439
#
# Static dielectric constant tensor:
#      x y z
#    x 1.600220 0.000000 -0.024820 
#    y 0.000000 1.638080 0.000000 
#    z -0.024820 0.000000 1.636480 
# 
# From -- ./inp_files/37688.got.cif
#   From: 2010.05.17/outbox.cif.g08.bks.cpg/sg10_19_cif.got.tgz:37688.got - 2010.06.03 11:33:40.
