data_PCOD9142617
_publ_section_title
;
Structure prediction by ZEFSAII (Michael W. Deem and Ramdas Pophale) SiO2 
 PCOD9142617
Probable space group: P 2/M
;
_chemical_formula_sum "Si O2"
_cell_formula_units_Z 28
_cell_length_a 14.591099
_cell_length_b 9.322534
_cell_length_c 17.725356
_cell_angle_alpha 90.000000
_cell_angle_beta 130.985409
_cell_angle_gamma 90.000000
_cell_volume 1820.090261
_symmetry_space_group_name_H-M "P 2/M"
_symmetry_group_IT_number 10
_symmetry_cell_setting 'monoclinic'
loop_
_space_group_symop_operation_xyz
x,y,z
-x,y,-z
-x,-y,-z
x,-y,z
loop_
_atom_site_type_symbol
_atom_site_label
_atom_site_fract_x
_atom_site_fract_y
_atom_site_fract_z
Si Si1 0.181019 0.663845 0.083153
Si Si2 0.079037 0.330457 0.859829
Si Si3 0.149121 0.170083 0.215627
Si Si4 0.530239 0.171085 0.139605
Si Si5 0.566857 0.171240 0.613546
Si Si6 0.699344 0.171380 0.091042
Si Si7 0.528696 0.333460 0.744874
O O1 0.149937 0.500000 0.089479
O O2 0.136861 0.771929 0.123391
O O3 0.326822 0.674272 0.159289
O O4 0.128001 0.689923 0.972028
O O5 0.069161 0.500000 0.840833
O O6 0.179521 0.258023 0.861045
O O7 0.949391 0.252739 0.787666
O O8 0.288720 0.201079 0.313401
O O9 0.129170 0.000000 0.207892
O O10 0.637578 0.202927 0.138332
O O11 0.536309 0.255583 0.220742
O O12 0.529690 0.000000 0.153093
O O13 0.404488 0.205014 0.027470
O O14 0.500000 0.209629 0.500000
O O15 0.514429 0.254205 0.657375
O O16 0.553847 0.000000 0.618653
O O17 0.721314 0.000000 0.098759
O O18 0.494944 0.500000 0.721535
#
# Coordination Sequence:
#
# PCOD9142617 Si02
#       7
#     4   4   4   4   4   4   4
#     4   9  18  30  41  60  92 127 157 186 222 267
#     4  11  20  30  43  63  94 130 159 188 228 272
#     4  10  20  31  46  67  88 117 156 194 230 276
#     4   9  17  30  46  66  93 126 162 199 234 265
#     4   9  19  36  54  71  92 119 153 195 241 285
#     4   9  18  30  45  65  92 127 166 201 227 261
#     4  10  18  29  47  71  97 125 157 192 232 279
#
# _framework density 15.383851999999999
#
# number of rings (size 3 to 8) (size 9 to 14) (size 15 to 20)
#    0.000    2.429    1.429    2.571    0.000    4.857 
#    0.000    1.429    0.000    0.000    0.000    1.000 
#    0.000    8.000    0.000    0.000    0.000    0.000 
#
# Total GULP energy -156157.812992 kJ/mol
# GULP energy per Si atom -5577.064750 kJ/mol
# Density = 1.534884 g / cm^3
# Si number density = 15.383852 Si / 1000 Ang^3
#
#
#
# Elastic Constant Matrix: (Units=GPa)
#
#
# Indices 1 2 3 4 5 6 
#
# 1 129.8921 80.7106 45.5054 0.0000 -7.7885 0.0000
# 2 80.7106 75.1433 43.8677 0.0000 -7.6375 0.0000
# 3 45.5054 43.8677 63.8879 0.0000 -16.1234 0.0000
# 4 0.0000 0.0000 0.0000 15.1559 0.0000 -0.4406
# 5 -7.7885 -7.6375 -16.1234 0.0000 17.4912 0.0000
# 6 0.0000 0.0000 0.0000 -0.4406 0.0000 -20.7332
#
#
#
# Elastic Compliance Matrix: (Units=1/GPa)
#
#
# Indices 1 2 3 4 5 6 
#
# 1 0.023184 -0.025482 0.001018 0.000000 0.000135 0.000000
# 2 -0.025482 0.050661 -0.018135 0.000000 -0.005943 0.000000
# 3 0.001018 -0.018135 0.033225 0.000000 0.023162 0.000000
# 4 0.000000 0.000000 0.000000 0.065940 0.000000 -0.001401
# 5 0.000135 -0.005943 0.023162 0.000000 0.075987 0.000000
# 6 0.000000 0.000000 0.000000 -0.001401 0.000000 -0.048202
#
#
# Mechanical properties :
#
#
# Convention : Reuss Voigt Hill
#
# Bulk Modulus (GPa) = 45.72328 67.67673 56.70000
# Shear Modulus (GPa) = 17.04828 8.97210 13.01019
#
# Velocity S-wave (km/s) = 3.33256 2.41761 2.91125
# Velocity P-wave (km/s) = 6.67788 7.20282 6.94531
#
# Compressibility (1/GPa) = 0.02187070
#
# Stress axis : x y z
#
# Youngs Moduli (GPa) = 43.13341 19.73907 30.09756
#
# Poissons Ratio (x) = 0.50299 -0.03063
# Poissons Ratio (y) = 1.09912 0.54583
# Poissons Ratio (z) = -0.04390 0.35798
#
# Static dielectric constant tensor:
#      x y z
#    x 1.511130 0.000000 0.012320 
#    y 0.000000 1.512480 0.000000 
#    z 0.012320 0.000000 1.490740 
# 
# From -- ./inp_files/65774.got.cif
#   From: 2010.05.17/outbox.cif.g08.bks.cpg/sg10_33_cif.got.tgz:65774.got - 2010.06.03 11:33:40.
