data_PCOD9142961
_publ_section_title
;
Structure prediction by ZEFSAII (Michael W. Deem and Ramdas Pophale) SiO2 
 PCOD9142961
Probable space group: P 2/M
;
_chemical_formula_sum "Si O2"
_cell_formula_units_Z 24
_cell_length_a 15.640341
_cell_length_b 8.755693
_cell_length_c 24.209954
_cell_angle_alpha 90.000000
_cell_angle_beta 153.404409
_cell_angle_gamma 90.000000
_cell_volume 1484.254494
_symmetry_space_group_name_H-M "P 2/M"
_symmetry_group_IT_number 10
_symmetry_cell_setting 'monoclinic'
loop_
_space_group_symop_operation_xyz
x,y,z
-x,y,-z
-x,-y,-z
x,-y,z
loop_
_atom_site_type_symbol
_atom_site_label
_atom_site_fract_x
_atom_site_fract_y
_atom_site_fract_z
Si Si1 0.674738 0.181754 0.669125
Si Si2 0.256345 0.682628 0.404673
Si Si3 0.572844 0.180568 0.305855
Si Si4 0.201757 0.317997 0.144832
Si Si5 0.907962 0.684289 0.575542
Si Si6 0.811130 0.323509 0.351778
O O1 0.781855 0.236956 0.675650
O O2 0.465786 0.260157 0.544837
O O3 0.774372 0.236260 0.782485
O O4 0.650925 0.000000 0.654767
O O5 0.262774 0.500000 0.400780
O O6 0.113176 0.718615 0.372096
O O7 0.376459 0.262782 0.207710
O O8 0.733111 0.238109 0.441961
O O9 0.653624 0.225762 0.292323
O O10 0.550824 0.000000 0.298238
O O11 0.215965 0.500000 0.161231
O O12 0.000000 0.282871 0.000000
O O13 0.887661 0.500000 0.556866
O O14 0.104765 0.727601 0.658617
O O15 0.748183 0.500000 0.312387
O O16 0.000000 0.320041 0.500000
#
# Coordination Sequence:
#
# PCOD9142961 Si02
#       6
#     4   4   4   4   4   4
#     4  11  21  32  47  71 100 127 159 201 248 290
#     4  10  18  30  50  71  98 134 166 195 234 287
#     4  11  20  29  45  69  98 127 156 199 246 290
#     4  11  23  38  54  69  90 127 171 207 241 289
#     4   9  17  29  47  69  96 131 165 195 232 281
#     4   8  15  28  44  64  93 128 162 194 231 282
#
# _framework density 16.169733999999998
#
# number of rings (size 3 to 8) (size 9 to 14) (size 15 to 20)
#    0.000    2.000    1.667    6.000    0.000    5.000 
#    0.000    0.000    0.000    0.000    0.000    1.167 
#    0.000    9.333    0.000    0.000    0.000    0.000 
#
# Total GULP energy -133852.575525 kJ/mol
# GULP energy per Si atom -5577.190647 kJ/mol
# Density = 1.613293 g / cm^3
# Si number density = 16.169734 Si / 1000 Ang^3
#
#
#
# Elastic Constant Matrix: (Units=GPa)
#
#
# Indices 1 2 3 4 5 6 
#
# 1 136.3395 25.9611 32.5635 0.0000 10.3018 0.0000
# 2 25.9611 47.2305 22.7218 0.0000 -1.2298 0.0000
# 3 32.5635 22.7218 46.1134 0.0000 1.2375 0.0000
# 4 0.0000 0.0000 0.0000 -13.4040 0.0000 -10.5433
# 5 10.3018 -1.2298 1.2375 0.0000 13.8462 0.0000
# 6 0.0000 0.0000 0.0000 -10.5433 0.0000 2.0256
#
#
#
# Elastic Compliance Matrix: (Units=1/GPa)
#
#
# Indices 1 2 3 4 5 6 
#
# 1 0.009669 -0.003018 -0.005153 0.000000 -0.007002 0.000000
# 2 -0.003018 0.028883 -0.012259 0.000000 0.005907 0.000000
# 3 -0.005153 -0.012259 0.031366 0.000000 -0.000058 0.000000
# 4 0.000000 0.000000 0.000000 -0.014645 0.000000 -0.076229
# 5 -0.007002 0.005907 -0.000058 0.000000 0.077961 0.000000
# 6 0.000000 0.000000 0.000000 -0.076229 0.000000 0.096912
#
#
# Mechanical properties :
#
#
# Convention : Reuss Voigt Hill
#
# Bulk Modulus (GPa) = 34.41320 43.57512 38.99416
# Shear Modulus (GPa) = 17.81308 10.38937 14.10123
#
# Velocity S-wave (km/s) = 3.32268 2.53755 2.95630
# Velocity P-wave (km/s) = 6.00408 5.96595 5.98505
#
# Compressibility (1/GPa) = 0.02905862
#
# Stress axis : x y z
#
# Youngs Moduli (GPa) = 103.42248 34.62236 31.88124
#
# Poissons Ratio (x) = 0.10449 0.16428
# Poissons Ratio (y) = 0.31214 0.39083
# Poissons Ratio (z) = 0.53292 0.42443
#
# Static dielectric constant tensor:
#      x y z
#    x 1.593900 0.000000 0.014140 
#    y 0.000000 1.536730 0.000000 
#    z 0.014140 0.000000 1.498610 
# 
# From -- ./inp_files/95416.got.cif
#   From: 2010.05.17/outbox.cif.g08.bks.cpg/sg10_48_cif.got.tgz:95416.got - 2010.06.03 11:33:40.
