data_PCOD9142035
_publ_section_title
;
Structure prediction by ZEFSAII (Michael W. Deem and Ramdas Pophale) SiO2 
 PCOD9142035
Probable space group: P 2/M
;
_chemical_formula_sum "Si O2"
_cell_formula_units_Z 32
_cell_length_a 18.057403
_cell_length_b 14.542288
_cell_length_c 12.546882
_cell_angle_alpha 90.000000
_cell_angle_beta 149.535664
_cell_angle_gamma 90.000000
_cell_volume 1670.449945
_symmetry_space_group_name_H-M "P 2/M"
_symmetry_group_IT_number 10
_symmetry_cell_setting 'monoclinic'
loop_
_space_group_symop_operation_xyz
x,y,z
-x,y,-z
-x,-y,-z
x,-y,z
loop_
_atom_site_type_symbol
_atom_site_label
_atom_site_fract_x
_atom_site_fract_y
_atom_site_fract_z
Si Si1 0.570611 0.108308 0.201913
Si Si2 0.367340 0.405063 0.752787
Si Si3 0.160221 0.143147 0.599450
Si Si4 0.535767 0.725237 0.301649
Si Si5 0.222204 0.296566 0.003078
Si Si6 0.826431 0.099510 0.146976
Si Si7 0.932927 0.647237 0.523885
Si Si8 0.659034 0.393096 0.644077
O O1 0.739768 0.121061 0.377276
O O2 0.532608 0.168047 0.260227
O O3 0.540434 0.000000 0.179169
O O4 0.500000 0.139456 0.000000
O O5 0.382376 0.500000 0.706740
O O6 0.391899 0.318357 0.711759
O O7 0.207863 0.402860 0.605685
O O8 0.500000 0.404313 0.000000
O O9 0.226466 0.111085 0.795297
O O10 0.130614 0.251103 0.579031
O O11 0.001361 0.101409 0.381064
O O12 0.371351 0.687819 0.119634
O O13 0.632511 0.681162 0.516647
O O14 0.245555 0.342041 0.147224
O O15 0.208153 0.185860 0.971650
O O16 0.073150 0.338966 0.772683
O O17 0.779202 0.000000 0.047813
O O18 0.000000 0.606815 0.500000
O O19 0.500000 0.402419 0.500000
O O20 0.705519 0.500000 0.676123
#
# Coordination Sequence:
#
# PCOD9142035 Si02
#       8
#     4   4   4   4   4   4   4   4
#     4  11  22  32  52  87 124 159 194 233 287 348
#     4  11  24  38  57  85 118 155 190 234 298 360
#     4  10  17  31  51  79 116 158 193 228 276 342
#     4  11  21  38  62  82 115 154 197 247 288 348
#     4  10  21  36  60  88 113 151 194 246 303 340
#     4  10  18  30  53  83 117 153 193 232 280 345
#     4  11  20  36  58  86 120 155 189 238 292 355
#     4   9  20  40  63  84 106 145 203 254 300 352
#
# _framework density 19.156514999999999
#
# number of rings (size 3 to 8) (size 9 to 14) (size 15 to 20)
#    0.000    1.625    3.750    3.750    0.000    2.750 
#    0.000    1.250    0.000    3.750    0.000    2.625 
#    0.000    0.000    0.000    0.000    0.000    0.000 
#
# Total GULP energy -178186.746583 kJ/mol
# GULP energy per Si atom -5568.335831 kJ/mol
# Density = 1.911291 g / cm^3
# Si number density = 19.156515 Si / 1000 Ang^3
#
#
#
# Elastic Constant Matrix: (Units=GPa)
#
#
# Indices 1 2 3 4 5 6 
#
# 1 71.4852 27.0331 40.9341 0.0000 6.2266 0.0000
# 2 27.0331 125.2359 48.5826 0.0000 -19.7866 0.0000
# 3 40.9341 48.5826 105.7770 0.0000 -5.6625 0.0000
# 4 0.0000 0.0000 0.0000 8.1233 0.0000 -9.0627
# 5 6.2266 -19.7866 -5.6625 0.0000 30.7463 0.0000
# 6 0.0000 0.0000 0.0000 -9.0627 0.0000 -11.1528
#
#
#
# Elastic Compliance Matrix: (Units=1/GPa)
#
#
# Indices 1 2 3 4 5 6 
#
# 1 0.019414 -0.002704 -0.006640 0.000000 -0.006895 0.000000
# 2 -0.002704 0.011104 -0.003678 0.000000 0.007016 0.000000
# 3 -0.006640 -0.003678 0.013794 0.000000 0.001518 0.000000
# 4 0.000000 0.000000 0.000000 0.064568 0.000000 -0.052467
# 5 -0.006895 0.007016 0.001518 0.000000 0.038715 0.000000
# 6 0.000000 0.000000 0.000000 -0.052467 0.000000 -0.047029
#
#
# Mechanical properties :
#
#
# Convention : Reuss Voigt Hill
#
# Bulk Modulus (GPa) = 54.74096 59.51086 57.12591
# Shear Modulus (GPa) = 37.67888 17.93991 27.80940
#
# Velocity S-wave (km/s) = 4.43978 3.06353 3.81424
# Velocity P-wave (km/s) = 7.41080 6.60656 7.02021
#
# Compressibility (1/GPa) = 0.01826786
#
# Stress axis : x y z
#
# Youngs Moduli (GPa) = 51.50806 90.05828 72.49521
#
# Poissons Ratio (x) = 0.24353 0.48138
# Poissons Ratio (y) = 0.13929 0.26663
# Poissons Ratio (z) = 0.34202 0.33122
#
# Static dielectric constant tensor:
#      x y z
#    x 1.696440 0.000000 0.021970 
#    y 0.000000 1.722570 0.000000 
#    z 0.021970 0.000000 1.702660 
# 
# From -- ./inp_files/54069.got.cif
#   From: 2010.05.17/outbox.cif.g08.bks.cpg/sg10_28_cif.got.tgz:54069.got - 2010.06.03 11:33:40.
