data_PCOD9142911
_publ_section_title
;
Structure prediction by ZEFSAII (Michael W. Deem and Ramdas Pophale) SiO2 
 PCOD9142911
Probable space group: P 2/M
;
_chemical_formula_sum "Si O2"
_cell_formula_units_Z 32
_cell_length_a 22.305389
_cell_length_b 8.554323
_cell_length_c 12.104968
_cell_angle_alpha 90.000000
_cell_angle_beta 129.451293
_cell_angle_gamma 90.000000
_cell_volume 1783.484022
_symmetry_space_group_name_H-M "P 2/M"
_symmetry_group_IT_number 10
_symmetry_cell_setting 'monoclinic'
loop_
_space_group_symop_operation_xyz
x,y,z
-x,y,-z
-x,-y,-z
x,-y,z
loop_
_atom_site_type_symbol
_atom_site_label
_atom_site_fract_x
_atom_site_fract_y
_atom_site_fract_z
Si Si1 0.955402 0.687264 0.832470
Si Si2 0.418231 0.690581 0.951829
Si Si3 0.819127 0.815054 0.257288
Si Si4 0.089917 0.686746 0.824905
Si Si5 0.327412 0.314277 0.050123
Si Si6 0.737465 0.314305 0.358115
Si Si7 0.236759 0.186338 0.134093
Si Si8 0.216422 0.185002 0.359572
O O1 0.940740 0.500000 0.809127
O O2 0.874730 0.776633 0.738270
O O3 0.011428 0.731386 0.796586
O O4 0.000000 0.716460 0.000000
O O5 0.419359 0.500000 0.952365
O O6 0.344862 0.737884 0.790545
O O7 0.500000 0.746227 0.000000
O O8 0.398231 0.736988 0.054467
O O9 0.894274 0.763405 0.275801
O O10 0.807029 0.765253 0.369603
O O11 0.808755 0.000000 0.233779
O O12 0.748702 0.726072 0.112323
O O13 0.091529 0.500000 0.814981
O O14 0.161257 0.736587 0.988474
O O15 0.331107 0.500000 0.070797
O O16 0.310590 0.232195 0.146190
O O17 0.744161 0.500000 0.350950
O O18 0.742478 0.270860 0.491414
O O19 0.242696 0.235964 0.268044
O O20 0.225645 0.000000 0.117161
O O21 0.229108 0.000000 0.384553
#
# Coordination Sequence:
#
# PCOD9142911 Si02
#       8
#     4   4   4   4   4   4   4   4
#     4  10  20  34  51  73 100 132 171 217 260 299
#     4   8  15  30  54  83 107 126 156 203 253 296
#     4  10  18  30  49  71 100 132 165 207 252 299
#     4  10  18  30  50  73  98 127 168 216 257 297
#     4   9  16  27  48  76 102 130 165 205 246 291
#     4  10  20  35  55  76 101 133 168 205 249 303
#     4  10  19  30  46  70 100 134 170 209 251 293
#     4  11  23  35  50  72 102 138 172 210 255 303
#
# _framework density 17.942409999999999
#
# number of rings (size 3 to 8) (size 9 to 14) (size 15 to 20)
#    0.000    2.250    1.250    5.250    0.000    2.750 
#    0.000    0.625    0.000   18.000    0.000    5.250 
#    0.000    0.000    0.000    0.000    0.000    0.000 
#
# Total GULP energy -178442.748689 kJ/mol
# GULP energy per Si atom -5576.335897 kJ/mol
# Density = 1.790157 g / cm^3
# Si number density = 17.942410 Si / 1000 Ang^3
#
#
#
# Elastic Constant Matrix: (Units=GPa)
#
#
# Indices 1 2 3 4 5 6 
#
# 1 140.3286 11.9087 36.7238 0.0000 -24.2613 0.0000
# 2 11.9087 18.0711 10.7522 0.0000 -3.2724 0.0000
# 3 36.7238 10.7522 50.6749 0.0000 -20.1710 0.0000
# 4 0.0000 0.0000 0.0000 43.0240 0.0000 11.9453
# 5 -24.2613 -3.2724 -20.1710 0.0000 22.3061 0.0000
# 6 0.0000 0.0000 0.0000 11.9453 0.0000 39.7692
#
#
#
# Elastic Compliance Matrix: (Units=1/GPa)
#
#
# Indices 1 2 3 4 5 6 
#
# 1 0.009457 -0.002886 -0.003617 0.000000 0.006592 0.000000
# 2 -0.002886 0.064500 -0.014182 0.000000 -0.006501 0.000000
# 3 -0.003617 -0.014182 0.035888 0.000000 0.026438 0.000000
# 4 0.000000 0.000000 0.000000 0.025358 0.000000 -0.007617
# 5 0.006592 -0.006501 0.026438 0.000000 0.074954 0.000000
# 6 0.000000 0.000000 0.000000 -0.007617 0.000000 0.027433
#
#
# Mechanical properties :
#
#
# Convention : Reuss Voigt Hill
#
# Bulk Modulus (GPa) = 14.60410 36.42711 25.51560
# Shear Modulus (GPa) = 16.56813 30.99917 23.78365
#
# Velocity S-wave (km/s) = 3.04206 4.16108 3.64477
# Velocity P-wave (km/s) = 4.52724 6.59032 5.65368
#
# Compressibility (1/GPa) = 0.06847394
#
# Stress axis : x y z
#
# Youngs Moduli (GPa) = 105.73738 15.50396 27.86466
#
# Poissons Ratio (x) = 0.04475 0.10080
# Poissons Ratio (y) = 0.30519 0.39517
# Poissons Ratio (z) = 0.38250 0.21987
#
# Static dielectric constant tensor:
#      x y z
#    x 1.655120 0.000000 -0.026890 
#    y 0.000000 1.599760 0.000000 
#    z -0.026890 0.000000 1.607920 
# 
# From -- ./inp_files/56471.got.cif
#   From: 2010.05.17/outbox.cif.g08.bks.cpg/sg10_29_cif.got.tgz:56471.got - 2010.06.03 11:33:40.
