data_PCOD9142720
_publ_section_title
;
Structure prediction by ZEFSAII (Michael W. Deem and Ramdas Pophale) SiO2 
 PCOD9142720
Probable space group: P 2/M
;
_chemical_formula_sum "Si O2"
_cell_formula_units_Z 32
_cell_length_a 17.495832
_cell_length_b 13.300909
_cell_length_c 23.320573
_cell_angle_alpha 90.000000
_cell_angle_beta 158.765703
_cell_angle_gamma 90.000000
_cell_volume 1965.543725
_symmetry_space_group_name_H-M "P 2/M"
_symmetry_group_IT_number 10
_symmetry_cell_setting 'monoclinic'
loop_
_space_group_symop_operation_xyz
x,y,z
-x,y,-z
-x,-y,-z
x,-y,z
loop_
_atom_site_type_symbol
_atom_site_label
_atom_site_fract_x
_atom_site_fract_y
_atom_site_fract_z
Si Si1 0.879385 0.618873 0.059968
Si Si2 0.587025 0.384117 0.292845
Si Si3 0.580459 0.881217 0.990782
Si Si4 0.076599 0.717524 0.790079
Si Si5 0.740053 0.614434 0.190819
Si Si6 0.331509 0.379201 0.334154
Si Si7 0.330726 0.618316 0.518054
Si Si8 0.233457 0.757750 0.681386
O O1 0.904628 0.500000 0.089279
O O2 0.838540 0.672940 0.091531
O O3 0.094201 0.656801 0.180491
O O4 0.663944 0.630752 0.874843
O O5 0.620432 0.500000 0.296580
O O6 0.679505 0.373312 0.420853
O O7 0.677764 0.307232 0.309796
O O8 0.403863 0.839084 0.823112
O O9 0.608280 0.000000 0.003200
O O10 0.500000 0.862577 0.000000
O O11 0.799235 0.820670 0.134705
O O12 0.131263 0.647039 0.774628
O O13 0.826264 0.700536 0.618732
O O14 0.783533 0.500000 0.237289
O O15 0.784318 0.684089 0.276036
O O16 0.500000 0.622380 0.000000
O O17 0.500000 0.344566 0.500000
O O18 0.319778 0.500000 0.331503
O O19 0.439010 0.361313 0.347896
O O20 0.278951 0.500000 0.466460
O O21 0.000000 0.795439 0.500000
#
# Coordination Sequence:
#
# PCOD9142720 Si02
#       8
#     4   4   4   4   4   4   4   4
#     4  10  18  29  50  75 107 144 179 211 245 301
#     4  10  21  33  46  74 113 147 175 208 244 297
#     4  11  24  43  59  75  97 128 178 233 277 312
#     4  12  18  33  54  75  96 135 175 217 257 301
#     4  11  20  31  49  75 106 142 177 205 240 299
#     4   9  16  28  45  73 108 146 181 211 244 287
#     4  10  20  31  49  78 115 146 173 207 249 303
#     4  12  22  36  54  75 106 138 172 213 268 321
#
# _framework density 16.280481999999999
#
# number of rings (size 3 to 8) (size 9 to 14) (size 15 to 20)
#    0.000    1.375    5.000    2.250    0.000    4.750 
#    0.000    2.500    0.000    0.000    0.000    1.750 
#    0.000    1.000    0.000    0.000    0.000    0.000 
#
# Total GULP energy -178345.031228 kJ/mol
# GULP energy per Si atom -5573.282226 kJ/mol
# Density = 1.624343 g / cm^3
# Si number density = 16.280482 Si / 1000 Ang^3
#
#
#
# Elastic Constant Matrix: (Units=GPa)
#
#
# Indices 1 2 3 4 5 6 
#
# 1 63.6477 17.2569 28.9278 0.0000 7.4955 0.0000
# 2 17.2569 63.7943 42.5557 0.0000 3.0886 0.0000
# 3 28.9278 42.5557 85.4515 0.0000 3.3829 0.0000
# 4 0.0000 0.0000 0.0000 3.0582 0.0000 3.3333
# 5 7.4955 3.0886 3.3829 0.0000 27.2992 0.0000
# 6 0.0000 0.0000 0.0000 3.3333 0.0000 9.0327
#
#
#
# Elastic Compliance Matrix: (Units=1/GPa)
#
#
# Indices 1 2 3 4 5 6 
#
# 1 0.019149 -0.001136 -0.005742 0.000000 -0.004418 0.000000
# 2 -0.001136 0.023581 -0.011321 0.000000 -0.000953 0.000000
# 3 -0.005742 -0.011321 0.019266 0.000000 0.000470 0.000000
# 4 0.000000 0.000000 0.000000 0.547013 0.000000 -0.201859
# 5 -0.004418 -0.000953 0.000470 0.000000 0.037894 0.000000
# 6 0.000000 0.000000 0.000000 -0.201859 0.000000 0.185199
#
#
# Mechanical properties :
#
#
# Convention : Reuss Voigt Hill
#
# Bulk Modulus (GPa) = 39.06564 43.37492 41.22028
# Shear Modulus (GPa) = 5.70104 16.15489 10.92796
#
# Velocity S-wave (km/s) = 1.87333 3.15347 2.59362
# Velocity P-wave (km/s) = 5.35972 6.32134 5.86029
#
# Compressibility (1/GPa) = 0.02559794
#
# Stress axis : x y z
#
# Youngs Moduli (GPa) = 52.22069 42.40715 51.90507
#
# Poissons Ratio (x) = 0.04816 0.29805
# Poissons Ratio (y) = 0.05931 0.58763
# Poissons Ratio (z) = 0.29986 0.48010
#
# Static dielectric constant tensor:
#      x y z
#    x 1.558100 0.000000 0.032680 
#    y 0.000000 1.518580 0.000000 
#    z 0.032680 0.000000 1.628210 
# 
# From -- ./inp_files/38283.got.cif
#   From: 2010.05.17/outbox.cif.g08.bks.cpg/sg10_20_cif.got.tgz:38283.got - 2010.06.03 11:33:40.
