data_PCOD9142097
_publ_section_title
;
Structure prediction by ZEFSAII (Michael W. Deem and Ramdas Pophale) SiO2 
 PCOD9142097
Probable space group: P 2/M
;
_chemical_formula_sum "Si O2"
_cell_formula_units_Z 24
_cell_length_a 10.476306
_cell_length_b 7.852427
_cell_length_c 18.753616
_cell_angle_alpha 90.000000
_cell_angle_beta 58.759149
_cell_angle_gamma 90.000000
_cell_volume 1319.047768
_symmetry_space_group_name_H-M "P 2/M"
_symmetry_group_IT_number 10
_symmetry_cell_setting 'monoclinic'
loop_
_space_group_symop_operation_xyz
x,y,z
-x,y,-z
-x,-y,-z
x,-y,z
loop_
_atom_site_type_symbol
_atom_site_label
_atom_site_fract_x
_atom_site_fract_y
_atom_site_fract_z
Si Si1 0.667472 0.795691 0.439800
Si Si2 0.031724 0.702447 0.569861
Si Si3 0.178121 0.801289 0.753948
Si Si4 0.815120 0.500000 0.979843
Si Si5 0.878732 0.706029 0.758158
Si Si6 0.172591 0.500000 0.862318
Si Si7 0.324719 0.807967 0.066272
O O1 0.500000 0.730602 0.500000
O O2 0.797952 0.729171 0.453731
O O3 0.718517 0.761492 0.344219
O O4 0.666333 0.000000 0.449352
O O5 0.005223 0.500000 0.574491
O O6 0.000000 0.772803 0.500000
O O7 0.925815 0.766299 0.665298
O O8 0.211629 0.668908 0.806633
O O9 0.011242 0.768620 0.772057
O O10 0.193757 0.000000 0.768832
O O11 0.764832 0.500000 0.076317
O O12 0.755544 0.666069 0.957332
O O13 0.993378 0.500000 0.922534
O O14 0.878639 0.500000 0.759117
O O15 0.726384 0.772116 0.837435
O O16 0.277767 0.000000 0.061593
O O17 0.500000 0.793437 0.000000
#
# Coordination Sequence:
#
# PCOD9142097 Si02
#       7
#     4   4   4   2   4   2   4
#     4   9  19  34  54  80 109 145 184 224 271 322
#     4   9  19  34  54  83 113 142 181 226 273 328
#     4  10  18  33  56  79 110 144 183 228 263 316
#     4  11  23  38  56  78 115 140 171 233 282 319
#     4  10  17  32  57  80 109 144 185 227 268 323
#     4  11  22  36  55  84 106 141 184 219 277 335
#     4  11  22  37  59  83 107 144 189 226 271 328
#
# _framework density 18.194942999999999
#
# number of rings (size 3 to 8) (size 9 to 14) (size 15 to 20)
#    0.000    2.000    3.333    0.750    1.167    2.000 
#    0.000    3.333    0.000    4.000    0.000    0.000 
#    0.000    0.000    0.000    0.000    0.000    0.000 
#
# Total GULP energy -133856.259754 kJ/mol
# GULP energy per Si atom -5577.344156 kJ/mol
# Density = 1.815353 g / cm^3
# Si number density = 18.194943 Si / 1000 Ang^3
#
#
#
# Elastic Constant Matrix: (Units=GPa)
#
#
# Indices 1 2 3 4 5 6 
#
# 1 50.7919 30.3940 64.1364 0.0000 6.5536 0.0000
# 2 30.3940 90.4468 50.3486 0.0000 12.1748 0.0000
# 3 64.1364 50.3486 152.1193 0.0000 4.6336 0.0000
# 4 0.0000 0.0000 0.0000 22.0527 0.0000 -7.3827
# 5 6.5536 12.1748 4.6336 0.0000 38.5304 0.0000
# 6 0.0000 0.0000 0.0000 -7.3827 0.0000 7.7162
#
#
#
# Elastic Compliance Matrix: (Units=1/GPa)
#
#
# Indices 1 2 3 4 5 6 
#
# 1 0.044802 -0.004991 -0.017116 0.000000 -0.003985 0.000000
# 2 -0.004991 0.014674 -0.002647 0.000000 -0.003469 0.000000
# 3 -0.017116 -0.002647 0.014606 0.000000 0.001991 0.000000
# 4 0.000000 0.000000 0.000000 0.066715 0.000000 0.063832
# 5 -0.003985 -0.003469 0.001991 0.000000 0.027488 0.000000
# 6 0.000000 0.000000 0.000000 0.063832 0.000000 0.190671
#
#
# Mechanical properties :
#
#
# Convention : Reuss Voigt Hill
#
# Bulk Modulus (GPa) = 40.69395 64.79065 52.74230
# Shear Modulus (GPa) = 12.00036 23.55845 17.77940
#
# Velocity S-wave (km/s) = 2.57094 3.60221 3.12935
# Velocity P-wave (km/s) = 5.58812 7.27926 6.48902
#
# Compressibility (1/GPa) = 0.02457368
#
# Stress axis : x y z
#
# Youngs Moduli (GPa) = 22.32051 68.14871 68.46702
#
# Poissons Ratio (x) = 0.34013 1.17188
# Poissons Ratio (y) = 0.11140 0.18121
# Poissons Ratio (z) = 0.38204 0.18037
#
# Static dielectric constant tensor:
#      x y z
#    x 1.596880 0.000000 -0.007690 
#    y 0.000000 1.631920 0.000000 
#    z -0.007690 0.000000 1.673560 
# 
# From -- ./inp_files/75905.got.cif
#   From: 2010.05.17/outbox.cif.g08.bks.cpg/sg10_38_cif.got.tgz:75905.got - 2010.06.03 11:33:40.
