data_PCOD9142573
_publ_section_title
;
Structure prediction by ZEFSAII (Michael W. Deem and Ramdas Pophale) SiO2 
 PCOD9142573
Probable space group: P 2/M
;
_chemical_formula_sum "Si O2"
_cell_formula_units_Z 24
_cell_length_a 11.988590
_cell_length_b 25.283539
_cell_length_c 5.257062
_cell_angle_alpha 90.000000
_cell_angle_beta 56.540376
_cell_angle_gamma 90.000000
_cell_volume 1329.407338
_symmetry_space_group_name_H-M "P 2/M"
_symmetry_group_IT_number 10
_symmetry_cell_setting 'monoclinic'
loop_
_space_group_symop_operation_xyz
x,y,z
-x,y,-z
-x,-y,-z
x,-y,z
loop_
_atom_site_type_symbol
_atom_site_label
_atom_site_fract_x
_atom_site_fract_y
_atom_site_fract_z
Si Si1 0.255282 0.244558 0.251610
Si Si2 0.093194 0.500000 0.133710
Si Si3 0.337704 0.939631 0.703609
Si Si4 0.662397 0.124951 0.796805
Si Si5 0.000000 0.302883 0.500000
Si Si6 0.139920 0.614768 0.975547
Si Si7 0.350487 0.697886 0.614760
O O1 0.272648 0.181969 0.243131
O O2 0.346051 0.269563 0.359193
O O3 0.104459 0.264426 0.509047
O O4 0.295376 0.266105 0.919893
O O5 0.171843 0.555493 0.025685
O O6 0.000000 0.500000 0.500000
O O7 0.000000 0.500000 0.000000
O O8 0.500000 0.941487 0.500000
O O9 0.298815 0.902641 0.516613
O O10 0.290349 0.000000 0.736295
O O11 0.300290 0.913369 0.017552
O O12 0.500000 0.131584 0.000000
O O13 0.900267 0.344192 0.756429
O O14 0.259206 0.645672 0.689328
O O15 0.000000 0.611569 0.000000
O O16 0.500000 0.682602 0.500000
#
# Coordination Sequence:
#
# PCOD9142573 Si02
#       7
#     4   2   4   4   2   4   4
#     4  11  22  35  54  77 110 141 183 217 270 318
#     4  10  20  32  57  82 105 134 183 228 269 308
#     4   9  17  29  46  69  98 131 168 209 257 311
#     4  10  18  29  46  71 101 131 165 210 262 314
#     4  10  20  35  56  78 105 140 180 228 264 314
#     4  10  19  36  55  80 108 140 182 226 268 317
#     4  11  22  35  54  78 111 146 179 217 274 331
#
# _framework density 18.053158
#
# number of rings (size 3 to 8) (size 9 to 14) (size 15 to 20)
#    0.000    1.833    2.500    3.000    0.000    3.333 
#    0.000    0.417    0.000    0.000    0.000    9.333 
#    0.000    0.000    0.000    0.000    0.000    0.000 
#
# Total GULP energy -133667.091862 kJ/mol
# GULP energy per Si atom -5569.462161 kJ/mol
# Density = 1.801207 g / cm^3
# Si number density = 18.053158 Si / 1000 Ang^3
#
#
#
# Elastic Constant Matrix: (Units=GPa)
#
#
# Indices 1 2 3 4 5 6 
#
# 1 58.4202 31.4664 8.2306 0.0000 7.1084 0.0000
# 2 31.4664 160.0545 24.5010 0.0000 3.9542 0.0000
# 3 8.2306 24.5010 39.8211 0.0000 22.5389 0.0000
# 4 0.0000 0.0000 0.0000 20.0797 0.0000 3.2388
# 5 7.1084 3.9542 22.5389 0.0000 29.3025 0.0000
# 6 0.0000 0.0000 0.0000 3.2388 0.0000 23.6335
#
#
#
# Elastic Compliance Matrix: (Units=1/GPa)
#
#
# Indices 1 2 3 4 5 6 
#
# 1 0.019697 -0.003948 0.001348 0.000000 -0.005282 0.000000
# 2 -0.003948 0.007984 -0.007134 0.000000 0.005368 0.000000
# 3 0.001348 -0.007134 0.051118 0.000000 -0.038684 0.000000
# 4 0.000000 0.000000 0.000000 0.050927 0.000000 -0.006979
# 5 -0.005282 0.005368 -0.038684 0.000000 0.064438 0.000000
# 6 0.000000 0.000000 0.000000 -0.006979 0.000000 0.043269
#
#
# Mechanical properties :
#
#
# Convention : Reuss Voigt Hill
#
# Bulk Modulus (GPa) = 16.85511 42.96576 29.91043
# Shear Modulus (GPa) = 18.07144 27.54299 22.80721
#
# Velocity S-wave (km/s) = 3.16731 3.91021 3.55820
# Velocity P-wave (km/s) = 4.76786 6.65113 5.78662
#
# Compressibility (1/GPa) = 0.05932919
#
# Stress axis : x y z
#
# Youngs Moduli (GPa) = 50.76977 125.25688 19.56239
#
# Poissons Ratio (x) = 0.49454 -0.02637
# Poissons Ratio (y) = 0.20045 0.13957
# Poissons Ratio (z) = -0.06843 0.89364
#
# Static dielectric constant tensor:
#      x y z
#    x 1.637130 0.000000 -0.005620 
#    y 0.000000 1.629960 0.000000 
#    z -0.005620 0.000000 1.647030 
# 
# From -- ./inp_files/7495.got.cif
#   From: 2010.05.17/outbox.cif.g08.bks.cpg/sg10_4_cif.got.tgz:7495.got - 2010.06.03 11:33:40.
