data_PCOD9142445
_publ_section_title
;
Structure prediction by ZEFSAII (Michael W. Deem and Ramdas Pophale) SiO2 
 PCOD9142445
Probable space group: P 2/M
;
_chemical_formula_sum "Si O2"
_cell_formula_units_Z 32
_cell_length_a 11.689105
_cell_length_b 15.047072
_cell_length_c 18.865061
_cell_angle_alpha 90.000000
_cell_angle_beta 29.404914
_cell_angle_gamma 90.000000
_cell_volume 1629.123178
_symmetry_space_group_name_H-M "P 2/M"
_symmetry_group_IT_number 10
_symmetry_cell_setting 'monoclinic'
loop_
_space_group_symop_operation_xyz
x,y,z
-x,y,-z
-x,-y,-z
x,-y,z
loop_
_atom_site_type_symbol
_atom_site_label
_atom_site_fract_x
_atom_site_fract_y
_atom_site_fract_z
Si Si1 0.854026 0.402479 0.506165
Si Si2 0.055506 0.771740 0.345665
Si Si3 0.691482 0.400915 0.953779
Si Si4 0.620774 0.401744 0.153503
Si Si5 0.327678 0.900389 0.659552
Si Si6 0.914710 0.219676 0.834319
Si Si7 0.553217 0.784845 0.147522
Si Si8 0.656042 0.896984 0.618166
O O1 0.905387 0.500000 0.448302
O O2 0.590815 0.400651 0.677065
O O3 0.000000 0.392697 0.500000
O O4 0.921347 0.322412 0.419231
O O5 0.095825 0.803205 0.243299
O O6 0.298291 0.757689 0.255272
O O7 0.886850 0.839367 0.478245
O O8 0.771675 0.500000 0.891692
O O9 0.890403 0.326969 0.850762
O O10 0.500000 0.371512 0.000000
O O11 0.569879 0.407172 0.096440
O O12 0.740981 0.500000 0.101363
O O13 0.689673 0.296492 0.114388
O O14 0.500000 0.900378 0.500000
O O15 0.486469 0.886467 0.642334
O O16 0.140267 0.824314 0.746960
O O17 0.220186 0.000000 0.722088
O O18 0.701239 0.188592 0.998948
O O19 0.489614 0.861080 0.236848
O O20 0.717446 0.000000 0.593075
#
# Coordination Sequence:
#
# PCOD9142445 Si02
#       8
#     4   4   4   4   4   4   4   4
#     4  10  18  28  49  81 119 161 203 240 274 331
#     4  12  21  36  58  89 127 161 191 239 308 377
#     4   9  18  32  53  85 128 169 199 230 290 366
#     4   9  16  29  48  76 117 159 193 230 275 339
#     4  10  22  45  69  86 107 151 215 264 304 362
#     4  11  23  37  63  90 122 160 203 253 302 353
#     4  11  22  37  56  93 128 153 191 247 309 370
#     4  11  24  42  65  85 111 155 203 250 303 368
#
# _framework density 19.642467
#
# number of rings (size 3 to 8) (size 9 to 14) (size 15 to 20)
#    0.000    1.625    3.750    2.250    0.000    2.500 
#    0.000    1.250    0.000    6.000    0.000    3.500 
#    0.000    0.000    0.000    0.000    0.000    0.000 
#
# Total GULP energy -178200.516054 kJ/mol
# GULP energy per Si atom -5568.766127 kJ/mol
# Density = 1.959776 g / cm^3
# Si number density = 19.642467 Si / 1000 Ang^3
#
#
#
# Elastic Constant Matrix: (Units=GPa)
#
#
# Indices 1 2 3 4 5 6 
#
# 1 33.9877 27.1908 29.7241 0.0000 8.8263 0.0000
# 2 27.1908 111.6598 52.0681 0.0000 -7.0181 0.0000
# 3 29.7241 52.0681 87.8193 0.0000 20.5221 0.0000
# 4 0.0000 0.0000 0.0000 13.7055 0.0000 2.3845
# 5 8.8263 -7.0181 20.5221 0.0000 30.2678 0.0000
# 6 0.0000 0.0000 0.0000 2.3845 0.0000 12.6072
#
#
#
# Elastic Compliance Matrix: (Units=1/GPa)
#
#
# Indices 1 2 3 4 5 6 
#
# 1 0.045517 -0.007536 -0.008826 0.000000 -0.009036 0.000000
# 2 -0.007536 0.016322 -0.010129 0.000000 0.012850 0.000000
# 3 -0.008826 -0.010129 0.024155 0.000000 -0.016152 0.000000
# 4 0.000000 0.000000 0.000000 0.075446 0.000000 -0.014269
# 5 -0.009036 0.012850 -0.016152 0.000000 0.049604 0.000000
# 6 0.000000 0.000000 0.000000 -0.014269 0.000000 0.082018
#
#
# Mechanical properties :
#
#
# Convention : Reuss Voigt Hill
#
# Bulk Modulus (GPa) = 30.29377 50.15917 40.22647
# Shear Modulus (GPa) = 14.00363 19.61504 16.80934
#
# Velocity S-wave (km/s) = 2.67296 3.16350 2.92852
# Velocity P-wave (km/s) = 4.99824 6.23980 5.65321
#
# Compressibility (1/GPa) = 0.03301009
#
# Stress axis : x y z
#
# Youngs Moduli (GPa) = 21.96966 61.26652 41.39981
#
# Poissons Ratio (x) = 0.46172 0.36540
# Poissons Ratio (y) = 0.16557 0.41936
# Poissons Ratio (z) = 0.19391 0.62060
#
# Static dielectric constant tensor:
#      x y z
#    x 1.683090 0.000000 -0.000890 
#    y 0.000000 1.759190 0.000000 
#    z -0.000890 0.000000 1.693490 
# 
# From -- ./inp_files/76978.got.cif
#   From: 2010.05.17/outbox.cif.g08.bks.cpg/sg10_39_cif.got.tgz:76978.got - 2010.06.03 11:33:40.
