data_PCOD9142437
_publ_section_title
;
Structure prediction by ZEFSAII (Michael W. Deem and Ramdas Pophale) SiO2 
 PCOD9142437
Probable space group: P 2/M
;
_chemical_formula_sum "Si O2"
_cell_formula_units_Z 32
_cell_length_a 12.215907
_cell_length_b 8.045303
_cell_length_c 21.980012
_cell_angle_alpha 90.000000
_cell_angle_beta 127.381295
_cell_angle_gamma 90.000000
_cell_volume 1716.530956
_symmetry_space_group_name_H-M "P 2/M"
_symmetry_group_IT_number 10
_symmetry_cell_setting 'monoclinic'
loop_
_space_group_symop_operation_xyz
x,y,z
-x,y,-z
-x,-y,-z
x,-y,z
loop_
_atom_site_type_symbol
_atom_site_label
_atom_site_fract_x
_atom_site_fract_y
_atom_site_fract_z
Si Si1 0.224871 0.796723 0.647452
Si Si2 0.699595 0.200754 0.464527
Si Si3 0.897523 0.700552 0.739127
Si Si4 0.013007 0.695297 0.098237
Si Si5 0.521030 0.801460 0.779973
Si Si6 0.955258 0.198890 0.626496
Si Si7 0.406095 0.697550 0.331838
Si Si8 0.218784 0.805225 0.063950
O O1 0.242910 0.750021 0.582872
O O2 0.363947 0.739735 0.728575
O O3 0.084957 0.737564 0.631404
O O4 0.224087 0.000000 0.648230
O O5 0.809234 0.261558 0.551016
O O6 0.543053 0.261807 0.416031
O O7 0.693838 0.000000 0.463923
O O8 0.899192 0.500000 0.737449
O O9 0.969109 0.751822 0.826487
O O10 0.966628 0.764019 0.701281
O O11 0.737856 0.757232 0.688783
O O12 0.048431 0.500000 0.107396
O O13 0.119940 0.786110 0.089612
O O14 0.862720 0.720233 0.018523
O O15 0.572967 0.770431 0.728679
O O16 0.633310 0.735442 0.865429
O O17 0.517132 0.000000 0.787205
O O18 0.953609 0.000000 0.617608
O O19 0.396432 0.500000 0.321507
O O20 0.230833 0.000000 0.053700
#
# Coordination Sequence:
#
# PCOD9142437 Si02
#       8
#     4   4   4   4   4   4   4   4
#     4   8  15  31  53  75  97 124 159 201 248 292
#     4   9  18  33  52  75  99 122 156 208 256 291
#     4  10  22  36  48  66 100 137 166 199 239 286
#     4  10  19  32  48  68  99 137 164 191 234 290
#     4   9  17  30  51  76 103 127 153 200 251 289
#     4  10  20  33  53  74  93 127 170 204 241 293
#     4  10  19  32  49  70  97 132 167 197 239 293
#     4  10  18  28  48  79 104 123 154 200 245 284
#
# _framework density 18.642251000000002
#
# number of rings (size 3 to 8) (size 9 to 14) (size 15 to 20)
#    0.000    2.500    1.250    3.000    0.000    5.000 
#    0.000    5.000    0.000    4.500    0.000    5.250 
#    0.000    0.000    0.000    0.000    0.000    0.000 
#
# Total GULP energy -178458.833686 kJ/mol
# GULP energy per Si atom -5576.838553 kJ/mol
# Density = 1.859982 g / cm^3
# Si number density = 18.642251 Si / 1000 Ang^3
#
#
#
# Elastic Constant Matrix: (Units=GPa)
#
#
# Indices 1 2 3 4 5 6 
#
# 1 7.4407 -1.9632 9.7060 0.0000 -1.1448 0.0000
# 2 -1.9632 11.3058 1.8410 0.0000 3.4295 0.0000
# 3 9.7060 1.8410 99.1930 0.0000 8.5619 0.0000
# 4 0.0000 0.0000 0.0000 18.7508 0.0000 -0.4600
# 5 -1.1448 3.4295 8.5619 0.0000 20.1509 0.0000
# 6 0.0000 0.0000 0.0000 -0.4600 0.0000 29.6561
#
#
#
# Elastic Compliance Matrix: (Units=1/GPa)
#
#
# Indices 1 2 3 4 5 6 
#
# 1 0.167137 0.028208 -0.017941 0.000000 0.012318 0.000000
# 2 0.028208 0.098039 -0.003403 0.000000 -0.013637 0.000000
# 3 -0.017941 -0.003403 0.012393 0.000000 -0.005706 0.000000
# 4 0.000000 0.000000 0.000000 0.053351 0.000000 0.000828
# 5 0.012318 -0.013637 -0.005706 0.000000 0.055071 0.000000
# 6 0.000000 0.000000 0.000000 0.000828 0.000000 0.033733
#
#
# Mechanical properties :
#
#
# Convention : Reuss Voigt Hill
#
# Bulk Modulus (GPa) = 3.43291 15.23410 9.33351
# Shear Modulus (GPa) = 9.93850 20.93527 15.43689
#
# Velocity S-wave (km/s) = 2.31144 3.35476 2.88072
# Velocity P-wave (km/s) = 2.99485 4.81616 4.01027
#
# Compressibility (1/GPa) = 0.29129783
#
# Stress axis : x y z
#
# Youngs Moduli (GPa) = 5.98311 10.20000 80.69386
#
# Poissons Ratio (x) = -0.28772 1.44773
# Poissons Ratio (y) = -0.16877 0.27457
# Poissons Ratio (z) = 0.10734 0.03471
#
# Static dielectric constant tensor:
#      x y z
#    x 1.628750 0.000000 0.040560 
#    y 0.000000 1.661500 0.000000 
#    z 0.040560 0.000000 1.665080 
# 
# From -- ./inp_files/83376.got.cif
#   From: 2010.05.17/outbox.cif.g08.bks.cpg/sg10_42_cif.got.tgz:83376.got - 2010.06.03 11:33:40.
