data_PCOD9142812
_publ_section_title
;
Structure prediction by ZEFSAII (Michael W. Deem and Ramdas Pophale) SiO2 
 PCOD9142812
Probable space group: P 2/M
;
_chemical_formula_sum "Si O2"
_cell_formula_units_Z 24
_cell_length_a 12.198394
_cell_length_b 7.551653
_cell_length_c 21.791004
_cell_angle_alpha 90.000000
_cell_angle_beta 38.479178
_cell_angle_gamma 90.000000
_cell_volume 1249.030372
_symmetry_space_group_name_H-M "P 2/M"
_symmetry_group_IT_number 10
_symmetry_cell_setting 'monoclinic'
loop_
_space_group_symop_operation_xyz
x,y,z
-x,y,-z
-x,-y,-z
x,-y,z
loop_
_atom_site_type_symbol
_atom_site_label
_atom_site_fract_x
_atom_site_fract_y
_atom_site_fract_z
Si Si1 0.857255 0.208413 0.109565
Si Si2 0.457157 0.703810 0.429362
Si Si3 0.144544 0.714452 0.751915
Si Si4 0.459128 0.789111 0.292562
Si Si5 0.097847 0.282896 0.640084
Si Si6 0.900221 0.711941 0.605095
O O1 0.917285 0.226771 0.153997
O O2 0.656711 0.279496 0.192639
O O3 0.841912 0.000000 0.102353
O O4 0.000000 0.284719 0.000000
O O5 0.477462 0.500000 0.439437
O O6 0.652996 0.780625 0.343392
O O7 0.398457 0.709444 0.384170
O O8 0.298257 0.778132 0.538724
O O9 0.147464 0.500000 0.752863
O O10 0.048201 0.768067 0.731272
O O11 0.306753 0.750061 0.311024
O O12 0.469623 0.000000 0.296626
O O13 0.099605 0.500000 0.637972
O O14 0.980749 0.222542 0.634035
O O15 0.923657 0.500000 0.594727
O O16 0.000000 0.780773 0.500000
#
# Coordination Sequence:
#
# PCOD9142812 Si02
#       6
#     4   4   4   4   4   4
#     4   9  19  36  54  69  90 121 153 193 247 294
#     4   9  15  27  45  65  93 128 158 182 223 280
#     4   9  17  28  47  73  95 116 152 199 235 270
#     4  10  19  30  46  70  95 119 157 202 235 265
#     4   9  16  27  44  67  96 129 158 184 221 273
#     4  10  18  30  47  66  95 135 167 184 214 274
#
# _framework density 19.214905000000002
#
# number of rings (size 3 to 8) (size 9 to 14) (size 15 to 20)
#    0.000    2.667    1.667    1.000    0.000    3.333 
#    0.000    1.667    0.000    5.000    0.000    7.000 
#    0.000    0.000    0.000    0.000    0.000    0.000 
#
# Total GULP energy -133778.810541 kJ/mol
# GULP energy per Si atom -5574.117106 kJ/mol
# Density = 1.917117 g / cm^3
# Si number density = 19.214905 Si / 1000 Ang^3
#
#
#
# Elastic Constant Matrix: (Units=GPa)
#
#
# Indices 1 2 3 4 5 6 
#
# 1 115.1685 -2.8252 58.7683 0.0000 23.9348 0.0000
# 2 -2.8252 45.8640 -1.0857 0.0000 -1.1427 0.0000
# 3 58.7683 -1.0857 119.7363 0.0000 20.9782 0.0000
# 4 0.0000 0.0000 0.0000 11.0259 0.0000 2.7392
# 5 23.9348 -1.1427 20.9782 0.0000 17.3459 0.0000
# 6 0.0000 0.0000 0.0000 2.7392 0.0000 14.2888
#
#
#
# Elastic Compliance Matrix: (Units=1/GPa)
#
#
# Indices 1 2 3 4 5 6 
#
# 1 0.013759 0.000403 -0.004349 0.000000 -0.013699 0.000000
# 2 0.000403 0.021852 -0.000196 0.000000 0.001120 0.000000
# 3 -0.004349 -0.000196 0.011972 0.000000 -0.008491 0.000000
# 4 0.000000 0.000000 0.000000 0.095231 0.000000 -0.018256
# 5 -0.013699 0.001120 -0.008491 0.000000 0.086895 0.000000
# 6 0.000000 0.000000 0.000000 -0.018256 0.000000 0.073485
#
#
# Mechanical properties :
#
#
# Convention : Reuss Voigt Hill
#
# Bulk Modulus (GPa) = 25.44613 43.38705 34.41659
# Shear Modulus (GPa) = 15.40461 23.59289 19.49875
#
# Velocity S-wave (km/s) = 2.83450 3.50786 3.18900
# Velocity P-wave (km/s) = 4.89737 6.24786 5.61337
#
# Compressibility (1/GPa) = 0.03929870
#
# Stress axis : x y z
#
# Youngs Moduli (GPa) = 72.67835 45.76304 83.52635
#
# Poissons Ratio (x) = -0.01846 0.36330
# Poissons Ratio (y) = -0.02931 0.01638
# Poissons Ratio (z) = 0.31611 0.00897
#
# Static dielectric constant tensor:
#      x y z
#    x 1.705070 0.000000 0.003180 
#    y 0.000000 1.730390 0.000000 
#    z 0.003180 0.000000 1.668220 
# 
# From -- ./inp_files/48507.got.cif
#   From: 2010.05.17/outbox.cif.g08.bks.cpg/sg10_25_cif.got.tgz:48507.got - 2010.06.03 11:33:40.
