data_PCOD9142312
_publ_section_title
;
Structure prediction by ZEFSAII (Michael W. Deem and Ramdas Pophale) SiO2 
 PCOD9142312
Probable space group: P 2/M
;
_chemical_formula_sum "Si O2"
_cell_formula_units_Z 28
_cell_length_a 14.245580
_cell_length_b 18.737607
_cell_length_c 5.551918
_cell_angle_alpha 90.000000
_cell_angle_beta 61.959982
_cell_angle_gamma 90.000000
_cell_volume 1308.009240
_symmetry_space_group_name_H-M "P 2/M"
_symmetry_group_IT_number 10
_symmetry_cell_setting 'monoclinic'
loop_
_space_group_symop_operation_xyz
x,y,z
-x,y,-z
-x,-y,-z
x,-y,z
loop_
_atom_site_type_symbol
_atom_site_label
_atom_site_fract_x
_atom_site_fract_y
_atom_site_fract_z
Si Si1 0.385695 0.081353 0.262152
Si Si2 0.808054 0.152745 0.743388
Si Si3 0.882291 0.810938 0.153936
Si Si4 0.237845 0.414794 0.184098
Si Si5 0.356471 0.776901 0.552408
Si Si6 0.119669 0.413678 0.824448
Si Si7 0.353761 0.721033 0.055133
O O1 0.293802 0.102601 0.182094
O O2 0.372333 0.138804 0.490981
O O3 0.374226 0.000000 0.355552
O O4 0.500000 0.090337 0.000000
O O5 0.876382 0.148184 0.417026
O O6 0.757763 0.233150 0.806835
O O7 0.865124 0.143468 0.929526
O O8 0.772846 0.764778 0.288933
O O9 0.000000 0.777619 0.000000
O O10 0.257282 0.500000 0.169322
O O11 0.180792 0.397750 0.998970
O O12 0.338563 0.363193 0.063544
O O13 0.171634 0.393941 0.505077
O O14 0.399454 0.740912 0.258948
O O15 0.400080 0.750195 0.750990
O O16 0.115523 0.500000 0.818944
O O17 0.000000 0.387216 0.000000
#
# Coordination Sequence:
#
# PCOD9142312 Si02
#       7
#     4   4   4   4   4   4   4
#     4   9  18  36  62  89 114 139 169 209 263 329
#     4   9  19  33  50  75 107 137 170 217 263 312
#     4   9  16  31  52  71  99 140 183 221 254 294
#     4  10  18  28  44  63  86 125 176 219 256 306
#     4   9  19  34  52  74 106 138 168 213 262 315
#     4   9  17  28  39  57  90 126 163 215 273 321
#     4   9  17  33  47  65 100 135 167 215 266 305
#
# _framework density 21.406579000000001
#
# number of rings (size 3 to 8) (size 9 to 14) (size 15 to 20)
#    0.000    3.143    0.000    1.714    0.000    1.714 
#    0.000   40.000    0.000   41.571    0.000    0.000 
#    0.000   18.857    0.000    0.000    0.000    0.000 
#
# Total GULP energy -155949.457642 kJ/mol
# GULP energy per Si atom -5569.623487 kJ/mol
# Density = 2.135786 g / cm^3
# Si number density = 21.406579 Si / 1000 Ang^3
#
#
#
# Elastic Constant Matrix: (Units=GPa)
#
#
# Indices 1 2 3 4 5 6 
#
# 1 89.6261 34.3346 67.1084 0.0000 5.9156 0.0000
# 2 34.3346 114.4905 49.5753 0.0000 6.8377 0.0000
# 3 67.1084 49.5753 188.1143 0.0000 43.5002 0.0000
# 4 0.0000 0.0000 0.0000 9.8978 0.0000 2.5042
# 5 5.9156 6.8377 43.5002 0.0000 38.7873 0.0000
# 6 0.0000 0.0000 0.0000 2.5042 0.0000 2.4762
#
#
#
# Elastic Compliance Matrix: (Units=1/GPa)
#
#
# Indices 1 2 3 4 5 6 
#
# 1 0.016608 -0.002491 -0.006459 0.000000 0.005150 0.000000
# 2 -0.002491 0.010306 -0.002018 0.000000 0.000827 0.000000
# 3 -0.006459 -0.002018 0.010588 0.000000 -0.010534 0.000000
# 4 0.000000 0.000000 0.000000 0.135772 0.000000 -0.137307
# 5 0.005150 0.000827 -0.010534 0.000000 0.036664 0.000000
# 6 0.000000 0.000000 0.000000 -0.137307 0.000000 0.542705
#
#
# Mechanical properties :
#
#
# Convention : Reuss Voigt Hill
#
# Bulk Modulus (GPa) = 64.25025 77.14084 70.69555
# Shear Modulus (GPa) = 6.41215 26.31310 16.36263
#
# Velocity S-wave (km/s) = 1.73260 3.50981 2.76773
# Velocity P-wave (km/s) = 5.83798 7.24840 6.58108
#
# Compressibility (1/GPa) = 0.01556414
#
# Stress axis : x y z
#
# Youngs Moduli (GPa) = 60.21039 97.02971 94.44655
#
# Poissons Ratio (x) = 0.24174 0.61006
# Poissons Ratio (y) = 0.15001 0.19064
# Poissons Ratio (z) = 0.38892 0.19585
#
# Static dielectric constant tensor:
#      x y z
#    x 1.838490 0.000000 -0.011700 
#    y 0.000000 1.753280 0.000000 
#    z -0.011700 0.000000 1.819510 
# 
# From -- ./inp_files/9619.got.cif
#   From: 2010.05.17/outbox.cif.g08.bks.cpg/sg10_5_cif.got.tgz:9619.got - 2010.06.03 11:33:40.
