data_PCOD9142808
_publ_section_title
;
Structure prediction by ZEFSAII (Michael W. Deem and Ramdas Pophale) SiO2 
 PCOD9142808
Probable space group: P 2/M
;
_chemical_formula_sum "Si O2"
_cell_formula_units_Z 24
_cell_length_a 14.180795
_cell_length_b 7.865845
_cell_length_c 14.242729
_cell_angle_alpha 90.000000
_cell_angle_beta 120.083502
_cell_angle_gamma 90.000000
_cell_volume 1374.686810
_symmetry_space_group_name_H-M "P 2/M"
_symmetry_group_IT_number 10
_symmetry_cell_setting 'monoclinic'
loop_
_space_group_symop_operation_xyz
x,y,z
-x,y,-z
-x,-y,-z
x,-y,z
loop_
_atom_site_type_symbol
_atom_site_label
_atom_site_fract_x
_atom_site_fract_y
_atom_site_fract_z
Si Si1 0.829864 0.207882 0.455291
Si Si2 0.628551 0.692073 0.651955
Si Si3 0.169241 0.205300 0.126148
Si Si4 0.951350 0.207511 0.330609
Si Si5 0.389584 0.805029 0.562032
Si Si6 0.053493 0.207513 0.882989
O O1 0.866831 0.259950 0.369442
O O2 0.712404 0.267457 0.431495
O O3 0.928081 0.258581 0.574016
O O4 0.827392 0.000000 0.456110
O O5 0.641828 0.500000 0.625643
O O6 0.718966 0.731832 0.774090
O O7 0.505983 0.715462 0.628258
O O8 0.640468 0.802468 0.563686
O O9 0.066559 0.256835 0.139895
O O10 0.171974 0.000000 0.127638
O O11 0.139230 0.261597 0.005573
O O12 0.927810 0.266451 0.213622
O O13 0.950710 0.000000 0.329487
O O14 0.406262 0.000000 0.599397
O O15 0.054961 0.000000 0.882938
#
# Coordination Sequence:
#
# PCOD9142808 Si02
#       6
#     4   4   4   4   4   4
#     4   8  14  22  39  66  93 114 136 168 214 260
#     4  11  21  31  43  63  88 116 144 178 220 260
#     4   9  16  28  45  67  89 115 147 178 211 254
#     4   8  12  21  37  65  97 116 131 167 217 259
#     4  10  18  30  47  66  86 113 145 179 213 256
#     4   8  14  24  43  67  92 116 142 176 215 253
#
# _framework density 17.45852
#
# number of rings (size 3 to 8) (size 9 to 14) (size 15 to 20)
#    0.000    3.000    0.000    6.000    0.000    2.667 
#    0.000    1.667    0.000    1.000    0.000   31.500 
#    0.000    0.000    0.000    0.000    0.000    0.000 
#
# Total GULP energy -133757.000510 kJ/mol
# GULP energy per Si atom -5573.208355 kJ/mol
# Density = 1.741878 g / cm^3
# Si number density = 17.458520 Si / 1000 Ang^3
#
#
#
# Elastic Constant Matrix: (Units=GPa)
#
#
# Indices 1 2 3 4 5 6 
#
# 1 118.2802 0.4053 79.5632 0.0000 1.6555 0.0000
# 2 0.4053 24.4544 2.1408 0.0000 2.3431 0.0000
# 3 79.5632 2.1408 145.2531 0.0000 2.1269 0.0000
# 4 0.0000 0.0000 0.0000 -29.6477 0.0000 -33.0082
# 5 1.6555 2.3431 2.1269 0.0000 23.8780 0.0000
# 6 0.0000 0.0000 0.0000 -33.0082 0.0000 -61.3596
#
#
#
# Elastic Compliance Matrix: (Units=1/GPa)
#
#
# Indices 1 2 3 4 5 6 
#
# 1 0.013394 0.000451 -0.007338 0.000000 -0.000319 0.000000
# 2 0.000451 0.041340 -0.000798 0.000000 -0.004017 0.000000
# 3 -0.007338 -0.000798 0.010922 0.000000 -0.000386 0.000000
# 4 0.000000 0.000000 0.000000 -0.084097 0.000000 0.045239
# 5 -0.000319 -0.004017 -0.000386 0.000000 0.042330 0.000000
# 6 0.000000 0.000000 0.000000 0.045239 0.000000 -0.040634
#
#
# Mechanical properties :
#
#
# Convention : Reuss Voigt Hill
#
# Bulk Modulus (GPa) = 19.88663 50.24514 35.06589
# Shear Modulus (GPa) = 324.95989 0.29936 162.62963
#
# Velocity S-wave (km/s) = 13.65784 0.41454 9.66200
# Velocity P-wave (km/s) = 16.12858 5.39178 12.02502
#
# Compressibility (1/GPa) = 0.05028503
#
# Stress axis : x y z
#
# Youngs Moduli (GPa) = 74.66145 24.18988 91.56132
#
# Poissons Ratio (x) = -0.01091 0.67192
# Poissons Ratio (y) = -0.03367 0.07302
# Poissons Ratio (z) = 0.54790 0.01929
#
# Static dielectric constant tensor:
#      x y z
#    x 1.585060 0.000000 -0.008660 
#    y 0.000000 1.612150 0.000000 
#    z -0.008660 0.000000 1.582430 
# 
# From -- ./inp_files/65834.got.cif
#   From: 2010.05.17/outbox.cif.g08.bks.cpg/sg10_33_cif.got.tgz:65834.got - 2010.06.03 11:33:40.
