data_PCOD9142366
_publ_section_title
;
Structure prediction by ZEFSAII (Michael W. Deem and Ramdas Pophale) SiO2 
 PCOD9142366
Probable space group: P 2/M
;
_chemical_formula_sum "Si O2"
_cell_formula_units_Z 32
_cell_length_a 24.255387
_cell_length_b 8.691218
_cell_length_c 12.985292
_cell_angle_alpha 90.000000
_cell_angle_beta 46.575394
_cell_angle_gamma 90.000000
_cell_volume 1988.128156
_symmetry_space_group_name_H-M "P 2/M"
_symmetry_group_IT_number 10
_symmetry_cell_setting 'monoclinic'
loop_
_space_group_symop_operation_xyz
x,y,z
-x,y,-z
-x,-y,-z
x,-y,z
loop_
_atom_site_type_symbol
_atom_site_label
_atom_site_fract_x
_atom_site_fract_y
_atom_site_fract_z
Si Si1 0.512138 0.321450 0.608475
Si Si2 0.083054 0.187185 0.432983
Si Si3 0.654536 0.315148 0.162415
Si Si4 0.926701 0.813760 0.320364
Si Si5 0.908008 0.316504 0.945253
Si Si6 0.667972 0.182887 0.374827
Si Si7 0.193744 0.815041 0.109122
Si Si8 0.831132 0.814529 0.246368
O O1 0.500000 0.316354 0.500000
O O2 0.523027 0.500000 0.622644
O O3 0.431382 0.265001 0.755552
O O4 0.589165 0.230342 0.529682
O O5 0.093918 0.234779 0.537116
O O6 0.147623 0.235579 0.269807
O O7 0.000000 0.237590 0.500000
O O8 0.082485 0.000000 0.432099
O O9 0.655805 0.500000 0.158925
O O10 0.670281 0.261725 0.259574
O O11 0.721067 0.247490 0.007517
O O12 0.865061 0.771371 0.313403
O O13 0.007679 0.743837 0.185861
O O14 0.934304 0.000000 0.310564
O O15 0.905419 0.500000 0.943129
O O16 0.852181 0.246311 0.930819
O O17 0.880015 0.260228 0.092545
O O18 0.743257 0.227028 0.340820
O O19 0.668793 0.000000 0.357633
O O20 0.194547 0.000000 0.103946
O O21 0.837205 0.000000 0.228563
#
# Coordination Sequence:
#
# PCOD9142366 Si02
#       8
#     4   4   4   4   4   4   4   4
#     4   8  16  29  44  64  95 130 159 188 235 290
#     4   9  17  32  54  74  91 119 163 208 247 287
#     4  10  19  31  46  69  99 129 158 194 242 291
#     4  10  20  37  55  69  93 129 166 204 245 289
#     4  12  23  33  48  71 100 131 163 201 243 285
#     4  10  18  28  45  70  98 128 162 195 231 283
#     4  11  20  32  52  74  96 126 165 203 243 291
#     4  10  21  34  50  72  98 131 165 198 239 288
#
# _framework density 16.095541000000001
#
# number of rings (size 3 to 8) (size 9 to 14) (size 15 to 20)
#    0.000    2.000    2.500    3.375    0.000    5.250 
#    0.000    1.875    0.000    0.000    0.000    0.875 
#    0.000    7.000    0.000    0.000    0.000    0.000 
#
# Total GULP energy -178502.025127 kJ/mol
# GULP energy per Si atom -5578.188285 kJ/mol
# Density = 1.605891 g / cm^3
# Si number density = 16.095541 Si / 1000 Ang^3
#
#
#
# Elastic Constant Matrix: (Units=GPa)
#
#
# Indices 1 2 3 4 5 6 
#
# 1 68.6663 23.4027 77.5605 0.0000 2.6454 0.0000
# 2 23.4027 29.6310 31.0113 0.0000 -0.8519 0.0000
# 3 77.5605 31.0113 142.6368 0.0000 -12.2640 0.0000
# 4 0.0000 0.0000 0.0000 31.8104 0.0000 -44.2705
# 5 2.6454 -0.8519 -12.2640 0.0000 27.4826 0.0000
# 6 0.0000 0.0000 0.0000 -44.2705 0.0000 52.9723
#
#
#
# Elastic Compliance Matrix: (Units=1/GPa)
#
#
# Indices 1 2 3 4 5 6 
#
# 1 0.046126 -0.011956 -0.023809 0.000000 -0.015435 0.000000
# 2 -0.011956 0.047028 -0.003639 0.000000 0.000985 0.000000
# 3 -0.023809 -0.003639 0.021771 0.000000 0.011894 0.000000
# 4 0.000000 0.000000 0.000000 -0.192759 0.000000 -0.161094
# 5 -0.015435 0.000985 0.011894 0.000000 0.043211 0.000000
# 6 0.000000 0.000000 0.000000 -0.161094 0.000000 -0.115753
#
#
# Mechanical properties :
#
#
# Convention : Reuss Voigt Hill
#
# Bulk Modulus (GPa) = 27.68763 56.09812 41.89287
# Shear Modulus (GPa) = -83.99178 29.71703 -27.13738
#
# Velocity S-wave (km/s) = -7.23163 4.30151 -4.11057
# Velocity P-wave (km/s) = 7.24495 7.72007 1.88549
#
# Compressibility (1/GPa) = 0.03611721
#
# Stress axis : x y z
#
# Youngs Moduli (GPa) = 21.67981 21.26402 45.93223
#
# Poissons Ratio (x) = 0.25423 1.09361
# Poissons Ratio (y) = 0.25920 0.16713
# Poissons Ratio (z) = 0.51618 0.07737
#
# Static dielectric constant tensor:
#      x y z
#    x 1.531180 0.000000 -0.020170 
#    y 0.000000 1.541560 0.000000 
#    z -0.020170 0.000000 1.542400 
# 
# From -- ./inp_files/52742.got.cif
#   From: 2010.05.17/outbox.cif.g08.bks.cpg/sg10_27_cif.got.tgz:52742.got - 2010.06.03 11:33:40.
