data_PCOD9142193
_publ_section_title
;
Structure prediction by ZEFSAII (Michael W. Deem and Ramdas Pophale) SiO2 
 PCOD9142193
Probable space group: P 2/M
;
_chemical_formula_sum "Si O2"
_cell_formula_units_Z 28
_cell_length_a 28.874695
_cell_length_b 7.333947
_cell_length_c 22.189559
_cell_angle_alpha 90.000000
_cell_angle_beta 162.846451
_cell_angle_gamma 90.000000
_cell_volume 1385.887345
_symmetry_space_group_name_H-M "P 2/M"
_symmetry_group_IT_number 10
_symmetry_cell_setting 'monoclinic'
loop_
_space_group_symop_operation_xyz
x,y,z
-x,y,-z
-x,-y,-z
x,-y,z
loop_
_atom_site_type_symbol
_atom_site_label
_atom_site_fract_x
_atom_site_fract_y
_atom_site_fract_z
Si Si1 0.746158 0.221632 0.303269
Si Si2 0.325739 0.287871 0.253299
Si Si3 0.939913 0.777752 0.359383
Si Si4 0.514803 0.221930 0.116709
Si Si5 0.405964 0.219600 0.106649
Si Si6 0.837293 0.276888 0.830068
Si Si7 0.495927 0.714344 0.635677
O O1 0.658898 0.282825 0.254813
O O2 0.923908 0.278947 0.516853
O O3 0.743907 0.000000 0.300487
O O4 0.641276 0.274677 0.114873
O O5 0.500000 0.278955 0.500000
O O6 0.281378 0.500000 0.190846
O O7 0.202533 0.216872 0.150274
O O8 0.367228 0.210360 0.238647
O O9 0.000000 0.720980 0.500000
O O10 0.933818 0.000000 0.353679
O O11 0.769490 0.716074 0.127248
O O12 0.510542 0.282106 0.180141
O O13 0.515715 0.000000 0.117881
O O14 0.462616 0.269112 0.243121
O O15 0.403631 0.000000 0.102207
O O16 0.841427 0.500000 0.835850
O O17 0.679984 0.218267 0.598135
O O18 0.000000 0.219236 0.000000
O O19 0.489221 0.500000 0.612520
#
# Coordination Sequence:
#
# PCOD9142193 Si02
#       7
#     4   4   4   4   4   4   4
#     4   8  12  20  35  55  77  99 133 179 218 242
#     4   7  11  22  41  62  82 105 134 167 200 236
#     4   9  14  22  37  58  80 103 138 182 213 234
#     4   8  13  21  35  56  79 103 132 172 215 248
#     4  10  18  27  41  62  87 112 139 173 212 250
#     4   8  13  24  46  71  85 100 139 184 205 225
#     4   9  17  29  44  63  88 114 136 164 209 256
#
# _framework density 20.203662000000001
#
# number of rings (size 3 to 8) (size 9 to 14) (size 15 to 20)
#    0.000    3.571    1.429    2.571    0.000    0.000 
#    0.000    1.429    0.000    4.714    0.000    2.000 
#    0.000    0.000    0.000    0.000    0.000    0.000 
#
# Total GULP energy -155914.576507 kJ/mol
# GULP energy per Si atom -5568.377732 kJ/mol
# Density = 2.015768 g / cm^3
# Si number density = 20.203662 Si / 1000 Ang^3
#
#
#
# Elastic Constant Matrix: (Units=GPa)
#
#
# Indices 1 2 3 4 5 6 
#
# 1 217.3779 2.9889 85.5742 0.0000 11.2812 0.0000
# 2 2.9889 73.9479 1.9405 0.0000 3.4740 0.0000
# 3 85.5742 1.9405 84.3917 0.0000 12.9330 0.0000
# 4 0.0000 0.0000 0.0000 -7.6488 0.0000 -13.4433
# 5 11.2812 3.4740 12.9330 0.0000 35.3902 0.0000
# 6 0.0000 0.0000 0.0000 -13.4433 0.0000 5.4422
#
#
#
# Elastic Compliance Matrix: (Units=1/GPa)
#
#
# Indices 1 2 3 4 5 6 
#
# 1 0.007664 -0.000124 -0.007834 0.000000 0.000432 0.000000
# 2 -0.000124 0.013589 0.000013 0.000000 -0.001299 0.000000
# 3 -0.007834 0.000013 0.020563 0.000000 -0.005018 0.000000
# 4 0.000000 0.000000 0.000000 -0.024476 0.000000 -0.060460
# 5 0.000432 -0.001299 -0.005018 0.000000 0.030080 0.000000
# 6 0.000000 0.000000 0.000000 -0.060460 0.000000 0.034400
#
#
# Mechanical properties :
#
#
# Convention : Reuss Voigt Hill
#
# Bulk Modulus (GPa) = 38.57623 61.85829 50.21726
# Shear Modulus (GPa) = 47.01373 25.65101 36.33237
#
# Velocity S-wave (km/s) = 4.82912 3.56704 4.24524
# Velocity P-wave (km/s) = 7.08724 6.90282 6.99564
#
# Compressibility (1/GPa) = 0.02592270
#
# Stress axis : x y z
#
# Youngs Moduli (GPa) = 130.48481 73.59030 48.63218
#
# Poissons Ratio (x) = 0.00916 0.38101
# Poissons Ratio (y) = 0.01624 -0.00062
# Poissons Ratio (z) = 1.02228 -0.00094
#
# Static dielectric constant tensor:
#      x y z
#    x 1.757440 0.000000 0.028000 
#    y 0.000000 1.812530 0.000000 
#    z 0.028000 0.000000 1.677330 
# 
# From -- ./inp_files/86691.got.cif
#   From: 2010.05.17/outbox.cif.g08.bks.cpg/sg10_44_cif.got.tgz:86691.got - 2010.06.03 11:33:40.
