data_PCOD9142822
_publ_section_title
;
Structure prediction by ZEFSAII (Michael W. Deem and Ramdas Pophale) SiO2 
 PCOD9142822
Probable space group: P 2/M
;
_chemical_formula_sum "Si O2"
_cell_formula_units_Z 24
_cell_length_a 26.611776
_cell_length_b 12.054720
_cell_length_c 9.629542
_cell_angle_alpha 90.000000
_cell_angle_beta 151.127152
_cell_angle_gamma 90.000000
_cell_volume 1491.641824
_symmetry_space_group_name_H-M "P 2/M"
_symmetry_group_IT_number 10
_symmetry_cell_setting 'monoclinic'
loop_
_space_group_symop_operation_xyz
x,y,z
-x,y,-z
-x,-y,-z
x,-y,z
loop_
_atom_site_type_symbol
_atom_site_label
_atom_site_fract_x
_atom_site_fract_y
_atom_site_fract_z
Si Si1 0.154833 0.131021 0.662873
Si Si2 0.000365 0.500000 0.730497
Si Si3 0.235461 0.740231 0.124221
Si Si4 0.055148 0.258093 0.921887
Si Si5 0.204516 0.870783 0.476731
Si Si6 0.619468 0.869290 0.324277
Si Si7 0.177681 0.500000 0.919141
O O1 0.218219 0.147866 0.673146
O O2 0.042910 0.185673 0.362516
O O3 0.143670 0.000000 0.660255
O O4 0.206578 0.188942 0.919465
O O5 0.018863 0.384874 0.854401
O O6 0.088010 0.500000 0.820953
O O7 0.888320 0.500000 0.383383
O O8 0.333042 0.792461 0.440666
O O9 0.139098 0.746311 0.999628
O O10 0.242639 0.611989 0.096772
O O11 0.114026 0.206020 0.195561
O O12 0.307523 0.853247 0.634385
O O13 0.172978 0.000000 0.381984
O O14 0.628218 0.000000 0.384517
O O15 0.500000 0.845800 0.000000
#
# Coordination Sequence:
#
# PCOD9142822 Si02
#       7
#     4   2   4   4   4   4   2
#     4  11  20  29  44  70 102 131 158 190 233 284
#     4   9  16  28  46  67  95 132 166 194 228 263
#     4  10  19  31  50  72  94 126 165 198 231 278
#     4  10  18  30  47  68  98 133 165 190 225 277
#     4   9  19  33  47  68 100 131 155 192 242 282
#     4   9  18  35  56  74  92 117 155 202 246 287
#     4   9  16  30  46  68  99 126 157 202 236 264
#
# _framework density 16.089652000000001
#
# number of rings (size 3 to 8) (size 9 to 14) (size 15 to 20)
#    0.000    2.333    1.667    2.000    0.000    4.000 
#    0.000    3.750    0.000    4.000    0.000    1.167 
#    0.000    0.000    0.000    0.000    0.000    0.000 
#
# Total GULP energy -133834.831900 kJ/mol
# GULP energy per Si atom -5576.451329 kJ/mol
# Density = 1.605303 g / cm^3
# Si number density = 16.089652 Si / 1000 Ang^3
#
#
#
# Elastic Constant Matrix: (Units=GPa)
#
#
# Indices 1 2 3 4 5 6 
#
# 1 46.7424 47.4340 39.1302 0.0000 -14.4975 0.0000
# 2 47.4340 130.8429 75.1315 0.0000 -10.7578 0.0000
# 3 39.1302 75.1315 111.0553 0.0000 -2.5959 0.0000
# 4 0.0000 0.0000 0.0000 13.6691 0.0000 1.2682
# 5 -14.4975 -10.7578 -2.5959 0.0000 19.6673 0.0000
# 6 0.0000 0.0000 0.0000 1.2682 0.0000 11.2702
#
#
#
# Elastic Compliance Matrix: (Units=1/GPa)
#
#
# Indices 1 2 3 4 5 6 
#
# 1 0.048338 -0.009380 -0.010004 0.000000 0.029180 0.000000
# 2 -0.009380 0.014999 -0.006833 0.000000 0.000388 0.000000
# 3 -0.010004 -0.006833 0.016944 0.000000 -0.008875 0.000000
# 4 0.000000 0.000000 0.000000 0.073930 0.000000 -0.008319
# 5 0.029180 0.000388 -0.008875 0.000000 0.071396 0.000000
# 6 0.000000 0.000000 0.000000 -0.008319 0.000000 0.089665
#
#
# Mechanical properties :
#
#
# Convention : Reuss Voigt Hill
#
# Bulk Modulus (GPa) = 35.90995 68.00357 51.95676
# Shear Modulus (GPa) = 13.26300 17.38431 15.32366
#
# Velocity S-wave (km/s) = 2.87421 3.29061 3.08943
# Velocity P-wave (km/s) = 5.77771 7.53622 6.71478
#
# Compressibility (1/GPa) = 0.02784744
#
# Stress axis : x y z
#
# Youngs Moduli (GPa) = 20.68765 66.67247 59.01670
#
# Poissons Ratio (x) = 0.62541 0.59039
# Poissons Ratio (y) = 0.19406 0.40325
# Poissons Ratio (z) = 0.20695 0.45555
#
# Static dielectric constant tensor:
#      x y z
#    x 1.549430 0.000000 -0.006040 
#    y 0.000000 1.546000 0.000000 
#    z -0.006040 0.000000 1.497540 
# 
# From -- ./inp_files/27797.got.cif
#   From: 2010.05.17/outbox.cif.g08.bks.cpg/sg10_14_cif.got.tgz:27797.got - 2010.06.03 11:33:40.
