data_PCOD9142788
_publ_section_title
;
Structure prediction by ZEFSAII (Michael W. Deem and Ramdas Pophale) SiO2 
 PCOD9142788
Probable space group: P 2/M
;
_chemical_formula_sum "Si O2"
_cell_formula_units_Z 32
_cell_length_a 12.086714
_cell_length_b 9.086451
_cell_length_c 22.172610
_cell_angle_alpha 90.000000
_cell_angle_beta 51.322623
_cell_angle_gamma 90.000000
_cell_volume 1901.038272
_symmetry_space_group_name_H-M "P 2/M"
_symmetry_group_IT_number 10
_symmetry_cell_setting 'monoclinic'
loop_
_space_group_symop_operation_xyz
x,y,z
-x,y,-z
-x,-y,-z
x,-y,z
loop_
_atom_site_type_symbol
_atom_site_label
_atom_site_fract_x
_atom_site_fract_y
_atom_site_fract_z
Si Si1 0.168513 0.325428 0.453052
Si Si2 0.944255 0.820339 0.083750
Si Si3 0.663977 0.823860 0.711670
Si Si4 0.824303 0.323740 0.412270
Si Si5 0.637065 0.179368 0.234254
Si Si6 0.859108 0.675340 0.741293
Si Si7 0.047685 0.829907 0.174760
Si Si8 0.279167 0.830528 0.666846
O O1 0.200151 0.500000 0.435017
O O2 0.250221 0.232499 0.375694
O O3 0.205024 0.279620 0.508988
O O4 0.000000 0.309505 0.500000
O O5 0.783687 0.772828 0.153317
O O6 0.041460 0.777915 0.107735
O O7 0.943530 0.000000 0.084046
O O8 0.000000 0.770860 0.000000
O O9 0.501292 0.779329 0.755744
O O10 0.736618 0.751421 0.744780
O O11 0.671768 0.000000 0.713444
O O12 0.814992 0.500000 0.412223
O O13 0.725742 0.255428 0.394167
O O14 0.988131 0.284817 0.340772
O O15 0.633011 0.229148 0.305781
O O16 0.641654 0.000000 0.235820
O O17 0.845735 0.500000 0.743206
O O18 0.867462 0.732448 0.806814
O O19 0.883091 0.828951 0.252754
O O20 0.095120 0.000000 0.161246
O O21 0.318541 0.000000 0.642144
#
# Coordination Sequence:
#
# PCOD9142788 Si02
#       8
#     4   4   4   4   4   4   4   4
#     4  10  19  34  48  62  90 124 157 199 243 277
#     4   8  13  25  50  79 102 124 150 186 234 279
#     4  11  21  31  46  68  94 124 158 195 234 279
#     4   9  17  29  46  65  86 113 151 200 241 270
#     4   8  16  30  45  67  99 126 150 187 233 279
#     4  10  18  30  46  65  91 125 160 193 236 278
#     4   8  14  25  44  73  98 115 149 196 230 267
#     4   8  14  27  46  64  88 120 149 185 232 276
#
# _framework density 16.832906999999999
#
# number of rings (size 3 to 8) (size 9 to 14) (size 15 to 20)
#    0.000    3.000    1.250    2.250    0.000    1.250 
#    0.000    1.875    0.000    6.375    0.000    5.250 
#    0.000    0.000    0.000    0.000    0.000    0.000 
#
# Total GULP energy -178240.195235 kJ/mol
# GULP energy per Si atom -5570.006101 kJ/mol
# Density = 1.679459 g / cm^3
# Si number density = 16.832907 Si / 1000 Ang^3
#
#
#
# Elastic Constant Matrix: (Units=GPa)
#
#
# Indices 1 2 3 4 5 6 
#
# 1 125.0239 40.4771 53.9450 0.0000 27.2407 0.0000
# 2 40.4771 26.2336 22.3837 0.0000 9.9779 0.0000
# 3 53.9450 22.3837 74.5824 0.0000 29.9911 0.0000
# 4 0.0000 0.0000 0.0000 6.8705 0.0000 -2.8917
# 5 27.2407 9.9779 29.9911 0.0000 27.3742 0.0000
# 6 0.0000 0.0000 0.0000 -2.8917 0.0000 2.0787
#
#
#
# Elastic Compliance Matrix: (Units=1/GPa)
#
#
# Indices 1 2 3 4 5 6 
#
# 1 0.018331 -0.022553 -0.004398 0.000000 -0.005203 0.000000
# 2 -0.022553 0.079151 -0.008698 0.000000 0.003122 0.000000
# 3 -0.004398 -0.008698 0.028895 0.000000 -0.024110 0.000000
# 4 0.000000 0.000000 0.000000 0.351148 0.000000 0.488494
# 5 -0.005203 0.003122 -0.024110 0.000000 0.066985 0.000000
# 6 0.000000 0.000000 0.000000 0.488494 0.000000 1.160643
#
#
# Mechanical properties :
#
#
# Convention : Reuss Voigt Hill
#
# Bulk Modulus (GPa) = 18.15567 51.05015 34.60291
# Shear Modulus (GPa) = 2.78581 14.53361 8.65971
#
# Velocity S-wave (km/s) = 1.28786 2.94156 2.27061
# Velocity P-wave (km/s) = 3.60842 6.47538 5.24171
#
# Compressibility (1/GPa) = 0.05507921
#
# Stress axis : x y z
#
# Youngs Moduli (GPa) = 54.55136 12.63412 34.60835
#
# Poissons Ratio (x) = 0.28493 0.15222
# Poissons Ratio (y) = 1.23028 0.30102
# Poissons Ratio (z) = 0.23993 0.10989
#
# Static dielectric constant tensor:
#      x y z
#    x 1.583550 0.000000 0.012990 
#    y 0.000000 1.560170 0.000000 
#    z 0.012990 0.000000 1.565600 
# 
# From -- ./inp_files/54914.got.cif
#   From: 2010.05.17/outbox.cif.g08.bks.cpg/sg10_28_cif.got.tgz:54914.got - 2010.06.03 11:33:40.
