data_PCOD9142969
_publ_section_title
;
Structure prediction by ZEFSAII (Michael W. Deem and Ramdas Pophale) SiO2 
 PCOD9142969
Probable space group: P 2/M
;
_chemical_formula_sum "Si O2"
_cell_formula_units_Z 28
_cell_length_a 24.510303
_cell_length_b 7.898396
_cell_length_c 21.092206
_cell_angle_alpha 90.000000
_cell_angle_beta 158.924022
_cell_angle_gamma 90.000000
_cell_volume 1468.371894
_symmetry_space_group_name_H-M "P 2/M"
_symmetry_group_IT_number 10
_symmetry_cell_setting 'monoclinic'
loop_
_space_group_symop_operation_xyz
x,y,z
-x,y,-z
-x,-y,-z
x,-y,z
loop_
_atom_site_type_symbol
_atom_site_label
_atom_site_fract_x
_atom_site_fract_y
_atom_site_fract_z
Si Si1 0.040254 0.800180 0.474558
Si Si2 0.380889 0.294883 0.816868
Si Si3 0.238391 0.313999 0.077618
Si Si4 0.496239 0.704629 0.186960
Si Si5 0.841053 0.198144 0.143351
Si Si6 0.355116 0.000000 0.430333
Si Si7 0.401335 0.306639 0.567115
Si Si8 0.718080 0.000000 0.791641
O O1 0.217120 0.777915 0.654438
O O2 0.000000 0.727191 0.500000
O O3 0.947648 0.729370 0.314216
O O4 0.000516 0.000000 0.433388
O O5 0.371011 0.500000 0.807017
O O6 0.436273 0.243731 0.807124
O O7 0.500000 0.243458 0.000000
O O8 0.205109 0.500000 0.067204
O O9 0.418095 0.308451 0.254145
O O10 0.213865 0.165090 0.100820
O O11 0.152305 0.285443 0.917925
O O12 0.476704 0.500000 0.166168
O O13 0.600809 0.744024 0.361139
O O14 0.331605 0.783995 0.019647
O O15 0.875043 0.000000 0.170165
O O16 0.326894 0.167499 0.441403
O O17 0.536642 0.000000 0.611076
O O18 0.270613 0.000000 0.271687
O O19 0.346491 0.500000 0.499791
#
# Coordination Sequence:
#
# PCOD9142969 Si02
#       8
#     4   4   4   4   4   2   4   2
#     4  10  22  37  51  73 104 134 168 212 258 306
#     4  10  21  36  53  74 101 132 170 215 257 304
#     4   9  16  27  43  64  94 130 167 209 255 299
#     4   9  18  31  48  72  98 128 171 216 257 306
#     4  10  18  30  50  72  97 132 174 216 256 306
#     4   9  16  24  40  62  94 131 168 201 244 303
#     4   8  15  26  40  62  93 127 165 208 250 298
#     4   9  16  26  38  64  96 129 168 205 242 303
#
# _framework density 19.068739999999998
#
# number of rings (size 3 to 8) (size 9 to 14) (size 15 to 20)
#    0.000    2.714    0.714    2.143    3.000    2.857 
#    0.000    2.857    0.000    0.000    0.000    0.000 
#    0.000    2.286    0.000    6.429    0.000    5.286 
#
# Total GULP energy -156171.040788 kJ/mol
# GULP energy per Si atom -5577.537171 kJ/mol
# Density = 1.902534 g / cm^3
# Si number density = 19.068740 Si / 1000 Ang^3
#
#
#
# Elastic Constant Matrix: (Units=GPa)
#
#
# Indices 1 2 3 4 5 6 
#
# 1 118.9986 54.1794 47.2574 0.0000 -49.1516 0.0000
# 2 54.1794 85.4304 28.4934 0.0000 -32.4519 0.0000
# 3 47.2574 28.4934 57.4770 0.0000 -32.3587 0.0000
# 4 0.0000 0.0000 0.0000 10.3448 0.0000 0.0557
# 5 -49.1516 -32.4519 -32.3587 0.0000 33.2181 0.0000
# 6 0.0000 0.0000 0.0000 0.0557 0.0000 23.5659
#
#
#
# Elastic Compliance Matrix: (Units=1/GPa)
#
#
# Indices 1 2 3 4 5 6 
#
# 1 0.021948 -0.002504 0.000226 0.000000 0.030250 0.000000
# 2 -0.002504 0.019029 0.002227 0.000000 0.017054 0.000000
# 3 0.000226 0.002227 0.038801 0.000000 0.040306 0.000000
# 4 0.000000 0.000000 0.000000 0.096668 0.000000 -0.000228
# 5 0.030250 0.017054 0.040306 0.000000 0.130787 0.000000
# 6 0.000000 0.000000 0.000000 -0.000228 0.000000 0.042435
#
#
# Mechanical properties :
#
#
# Convention : Reuss Voigt Hill
#
# Bulk Modulus (GPa) = 12.55108 57.97406 35.26257
# Shear Modulus (GPa) = 13.28623 22.22416 17.75519
#
# Velocity S-wave (km/s) = 2.64247 3.41761 3.05473
# Velocity P-wave (km/s) = 3.98830 6.78543 5.56546
#
# Compressibility (1/GPa) = 0.07967443
#
# Stress axis : x y z
#
# Youngs Moduli (GPa) = 45.56144 52.55123 25.77280
#
# Poissons Ratio (x) = 0.13159 -0.00581
# Poissons Ratio (y) = 0.11409 -0.05739
# Poissons Ratio (z) = -0.01028 -0.11701
#
# Static dielectric constant tensor:
#      x y z
#    x 1.655920 0.000000 -0.019960 
#    y 0.000000 1.678800 0.000000 
#    z -0.019960 0.000000 1.639530 
# 
# From -- ./inp_files/86579.got.cif
#   From: 2010.05.17/outbox.cif.g08.bks.cpg/sg10_44_cif.got.tgz:86579.got - 2010.06.03 11:33:40.
