data_PCOD9142770
_publ_section_title
;
Structure prediction by ZEFSAII (Michael W. Deem and Ramdas Pophale) SiO2 
 PCOD9142770
Probable space group: P 2/M
;
_chemical_formula_sum "Si O2"
_cell_formula_units_Z 28
_cell_length_a 9.595966
_cell_length_b 20.633760
_cell_length_c 15.910319
_cell_angle_alpha 90.000000
_cell_angle_beta 22.397835
_cell_angle_gamma 90.000000
_cell_volume 1200.359502
_symmetry_space_group_name_H-M "P 2/M"
_symmetry_group_IT_number 10
_symmetry_cell_setting 'monoclinic'
loop_
_space_group_symop_operation_xyz
x,y,z
-x,y,-z
-x,-y,-z
x,-y,z
loop_
_atom_site_type_symbol
_atom_site_label
_atom_site_fract_x
_atom_site_fract_y
_atom_site_fract_z
Si Si1 0.314051 0.572656 0.468689
Si Si2 0.417345 0.799777 0.341322
Si Si3 0.007889 0.380910 0.794183
Si Si4 0.389487 0.336371 0.829550
Si Si5 0.845850 0.136791 0.258325
Si Si6 0.919049 0.251911 0.757666
Si Si7 0.360390 0.070922 0.859106
O O1 0.334517 0.500000 0.423433
O O2 0.323821 0.624860 0.388394
O O3 0.678248 0.587563 0.321978
O O4 0.990447 0.578461 0.717867
O O5 0.550669 0.740930 0.208447
O O6 0.692068 0.821266 0.264364
O O7 0.397829 0.867621 0.302829
O O8 0.071689 0.768242 0.581677
O O9 0.119063 0.311350 0.691853
O O10 0.671476 0.366268 0.044337
O O11 0.000000 0.345299 0.000000
O O12 0.500000 0.106577 0.500000
O O13 0.015688 0.188437 0.225084
O O14 0.160108 0.087402 0.057505
O O15 0.500000 0.269681 0.000000
O O16 0.533782 0.000000 0.759515
O O17 0.000000 0.069121 0.000000
#
# Coordination Sequence:
#
# PCOD9142770 Si02
#       7
#     4   4   4   4   4   4   4
#     4  10  20  33  54  87 118 144 181 230 282 340
#     4  10  18  34  56  80 111 142 184 237 283 336
#     4  10  19  32  51  77 112 144 182 225 277 328
#     4  10  18  29  54  83 111 141 181 229 278 325
#     4   9  18  31  53  79 108 146 182 234 284 331
#     4  11  22  35  54  79 110 146 191 242 286 329
#     4   9  17  31  54  86 116 143 183 235 294 346
#
# _framework density 23.326345
#
# number of rings (size 3 to 8) (size 9 to 14) (size 15 to 20)
#    0.000    2.143    1.429    4.714    4.000    3.429 
#    0.000    5.000    0.000    4.286    0.000    1.000 
#    0.000    0.000    0.000    0.000    0.000    0.000 
#
# Total GULP energy -156202.765326 kJ/mol
# GULP energy per Si atom -5578.670190 kJ/mol
# Density = 2.327325 g / cm^3
# Si number density = 23.326345 Si / 1000 Ang^3
#
#
#
# Elastic Constant Matrix: (Units=GPa)
#
#
# Indices 1 2 3 4 5 6 
#
# 1 40.1493 15.3456 40.5989 0.0000 6.1284 0.0000
# 2 15.3456 157.9613 50.3908 0.0000 27.8611 0.0000
# 3 40.5989 50.3908 99.9394 0.0000 24.0415 0.0000
# 4 0.0000 0.0000 0.0000 11.4799 0.0000 14.7257
# 5 6.1284 27.8611 24.0415 0.0000 36.5213 0.0000
# 6 0.0000 0.0000 0.0000 14.7257 0.0000 3.6469
#
#
#
# Elastic Compliance Matrix: (Units=1/GPa)
#
#
# Indices 1 2 3 4 5 6 
#
# 1 0.043214 0.001132 -0.019217 0.000000 0.004535 0.000000
# 2 0.001132 0.008062 -0.003564 0.000000 -0.003994 0.000000
# 3 -0.019217 -0.003564 0.021601 0.000000 -0.008276 0.000000
# 4 0.000000 0.000000 0.000000 -0.020842 0.000000 0.084157
# 5 0.004535 -0.003994 -0.008276 0.000000 0.035115 0.000000
# 6 0.000000 0.000000 0.000000 0.084157 0.000000 -0.065607
#
#
# Mechanical properties :
#
#
# Convention : Reuss Voigt Hill
#
# Bulk Modulus (GPa) = 33.80748 56.74673 45.27711
# Shear Modulus (GPa) = 66.93377 23.11060 45.02218
#
# Velocity S-wave (km/s) = 5.36254 3.15103 4.39806
# Velocity P-wave (km/s) = 7.27098 6.13342 6.72629
#
# Compressibility (1/GPa) = 0.02957925
#
# Stress axis : x y z
#
# Youngs Moduli (GPa) = 23.14048 124.03645 46.29497
#
# Poissons Ratio (x) = -0.14045 0.88965
# Poissons Ratio (y) = -0.02620 0.16500
# Poissons Ratio (z) = 0.44469 0.44209
#
# Static dielectric constant tensor:
#      x y z
#    x 1.895240 0.000000 0.016620 
#    y 0.000000 1.860570 0.000000 
#    z 0.016620 0.000000 2.023670 
# 
# From -- ./inp_files/77208.got.cif
#   From: 2010.05.17/outbox.cif.g08.bks.cpg/sg10_39_cif.got.tgz:77208.got - 2010.06.03 11:33:40.
