data_PCOD9142921
_publ_section_title
;
Structure prediction by ZEFSAII (Michael W. Deem and Ramdas Pophale) SiO2 
 PCOD9142921
Probable space group: P 2/M
;
_chemical_formula_sum "Si O2"
_cell_formula_units_Z 24
_cell_length_a 12.306898
_cell_length_b 8.712552
_cell_length_c 24.559981
_cell_angle_alpha 90.000000
_cell_angle_beta 32.857534
_cell_angle_gamma 90.000000
_cell_volume 1428.773473
_symmetry_space_group_name_H-M "P 2/M"
_symmetry_group_IT_number 10
_symmetry_cell_setting 'monoclinic'
loop_
_space_group_symop_operation_xyz
x,y,z
-x,y,-z
-x,-y,-z
x,-y,z
loop_
_atom_site_type_symbol
_atom_site_label
_atom_site_fract_x
_atom_site_fract_y
_atom_site_fract_z
Si Si1 0.776834 0.321776 0.733203
Si Si2 0.880038 0.313991 0.263691
Si Si3 0.756881 0.678761 0.432291
Si Si4 0.221844 0.183657 0.385707
Si Si5 0.493440 0.686083 0.642762
Si Si6 0.304792 0.183863 0.116477
O O1 0.718480 0.500000 0.754491
O O2 0.738842 0.239639 0.692132
O O3 0.685741 0.247117 0.825860
O O4 0.016244 0.314855 0.641911
O O5 0.895175 0.500000 0.260706
O O6 0.767163 0.259726 0.366673
O O7 0.738085 0.275757 0.272506
O O8 0.102201 0.247153 0.173770
O O9 0.698021 0.500000 0.452038
O O10 0.616722 0.744363 0.537974
O O11 0.394483 0.246789 0.352507
O O12 0.000000 0.236811 0.500000
O O13 0.221056 0.000000 0.387729
O O14 0.508806 0.500000 0.638742
O O15 0.293234 0.000000 0.123316
O O16 0.500000 0.229269 0.000000
#
# Coordination Sequence:
#
# PCOD9142921 Si02
#       6
#     4   4   4   4   4   4
#     4  10  19  33  55  78 101 135 179 221 256 295
#     4   9  18  31  50  77 103 133 173 217 259 301
#     4   8  14  26  46  71 100 132 167 207 249 295
#     4  11  22  33  47  72 110 148 180 212 250 301
#     4  10  18  30  49  72 104 142 179 212 248 300
#     4  10  21  37  57  79 105 135 165 209 270 323
#
# _framework density 16.797623000000002
#
# number of rings (size 3 to 8) (size 9 to 14) (size 15 to 20)
#    0.000    2.333    1.667    3.000    0.000    4.667 
#    0.000    0.000    0.000    4.000    0.000    7.000 
#    0.000    0.000    0.000    0.000    0.000    0.000 
#
# Total GULP energy -133761.298502 kJ/mol
# GULP energy per Si atom -5573.387438 kJ/mol
# Density = 1.675939 g / cm^3
# Si number density = 16.797623 Si / 1000 Ang^3
#
#
#
# Elastic Constant Matrix: (Units=GPa)
#
#
# Indices 1 2 3 4 5 6 
#
# 1 165.3148 46.4524 70.4218 0.0000 -4.7548 0.0000
# 2 46.4524 43.4706 35.9411 0.0000 -1.1394 0.0000
# 3 70.4218 35.9411 102.8565 0.0000 10.1239 0.0000
# 4 0.0000 0.0000 0.0000 18.8409 0.0000 3.9609
# 5 -4.7548 -1.1394 10.1239 0.0000 7.4637 0.0000
# 6 0.0000 0.0000 0.0000 3.9609 0.0000 17.0138
#
#
#
# Elastic Compliance Matrix: (Units=1/GPa)
#
#
# Indices 1 2 3 4 5 6 
#
# 1 0.011177 -0.005438 -0.007353 0.000000 0.016265 0.000000
# 2 -0.005438 0.038971 -0.011701 0.000000 0.018356 0.000000
# 3 -0.007353 -0.011701 0.022484 0.000000 -0.036969 0.000000
# 4 0.000000 0.000000 0.000000 0.055807 0.000000 -0.012992
# 5 0.016265 0.018356 -0.036969 0.000000 0.197291 0.000000
# 6 0.000000 0.000000 0.000000 -0.012992 0.000000 0.061800
#
#
# Mechanical properties :
#
#
# Convention : Reuss Voigt Hill
#
# Bulk Modulus (GPa) = 42.28809 68.58584 55.43696
# Shear Modulus (GPa) = 11.25118 19.25212 15.25165
#
# Velocity S-wave (km/s) = 2.59087 3.38911 3.01651
# Velocity P-wave (km/s) = 5.84635 7.49894 6.72361
#
# Compressibility (1/GPa) = 0.02364732
#
# Stress axis : x y z
#
# Youngs Moduli (GPa) = 89.46656 25.66039 44.47546
#
# Poissons Ratio (x) = 0.13954 0.32704
# Poissons Ratio (y) = 0.48652 0.52041
# Poissons Ratio (z) = 0.65788 0.30025
#
# Static dielectric constant tensor:
#      x y z
#    x 1.577710 0.000000 -0.006910 
#    y 0.000000 1.574810 0.000000 
#    z -0.006910 0.000000 1.562190 
# 
# From -- ./inp_files/48874.got.cif
#   From: 2010.05.17/outbox.cif.g08.bks.cpg/sg10_25_cif.got.tgz:48874.got - 2010.06.03 11:33:40.
