data_PCOD9142881
_publ_section_title
;
Structure prediction by ZEFSAII (Michael W. Deem and Ramdas Pophale) SiO2 
 PCOD9142881
Probable space group: P 2/M
;
_chemical_formula_sum "Si O2"
_cell_formula_units_Z 32
_cell_length_a 25.909125
_cell_length_b 7.692022
_cell_length_c 21.084492
_cell_angle_alpha 90.000000
_cell_angle_beta 22.653083
_cell_angle_gamma 90.000000
_cell_volume 1618.403680
_symmetry_space_group_name_H-M "P 2/M"
_symmetry_group_IT_number 10
_symmetry_cell_setting 'monoclinic'
loop_
_space_group_symop_operation_xyz
x,y,z
-x,y,-z
-x,-y,-z
x,-y,z
loop_
_atom_site_type_symbol
_atom_site_label
_atom_site_fract_x
_atom_site_fract_y
_atom_site_fract_z
Si Si1 0.324063 0.202579 0.861594
Si Si2 0.371268 0.210995 0.337131
Si Si3 0.052962 0.786670 0.371522
Si Si4 0.047949 0.700565 0.134705
Si Si5 0.376582 0.704869 0.479744
Si Si6 0.668651 0.212135 0.000892
Si Si7 0.088223 0.713326 0.840425
Si Si8 0.110373 0.202209 0.563752
O O1 0.478648 0.220319 0.666485
O O2 0.290406 0.000000 0.901286
O O3 0.208639 0.288822 0.951051
O O4 0.315418 0.270176 0.943983
O O5 0.354627 0.264545 0.429352
O O6 0.249814 0.277433 0.431830
O O7 0.367302 0.000000 0.341494
O O8 0.520369 0.265931 0.147361
O O9 0.958339 0.724701 0.421272
O O10 0.000000 0.732021 0.500000
O O11 0.204840 0.731797 0.183631
O O12 0.053098 0.000000 0.370362
O O13 0.007396 0.500000 0.186615
O O14 0.979813 0.770368 0.148340
O O15 0.993427 0.789492 0.260084
O O16 0.385804 0.500000 0.480119
O O17 0.242920 0.771004 0.665762
O O18 0.668695 0.000000 0.002119
O O19 0.088382 0.500000 0.840016
O O20 0.000000 0.769511 0.000000
O O21 0.137056 0.000000 0.519317
#
# Coordination Sequence:
#
# PCOD9142881 Si02
#       8
#     4   4   4   4   4   4   4   4
#     4  10  19  33  52  75 105 136 166 209 260 304
#     4   9  17  28  46  70 100 131 163 205 256 306
#     4   9  16  27  45  69  98 133 172 210 250 300
#     4  11  20  32  53  80 102 128 172 217 253 300
#     4  10  18  31  52  78 103 130 170 213 253 298
#     4   8  14  26  43  66  94 126 160 197 246 296
#     4   9  19  35  53  75 106 138 168 208 258 307
#     4  10  18  30  48  72 100 132 169 210 259 300
#
# _framework density 19.772569000000001
#
# number of rings (size 3 to 8) (size 9 to 14) (size 15 to 20)
#    0.000    2.500    2.500    1.875    0.000    0.000 
#    0.000    1.250    0.000   13.875    0.000    0.000 
#    0.000    3.250    0.000    0.000    0.000    0.000 
#
# Total GULP energy -178499.259395 kJ/mol
# GULP energy per Si atom -5578.101856 kJ/mol
# Density = 1.972757 g / cm^3
# Si number density = 19.772569 Si / 1000 Ang^3
#
#
#
# Elastic Constant Matrix: (Units=GPa)
#
#
# Indices 1 2 3 4 5 6 
#
# 1 39.4918 -1.2218 15.6823 0.0000 -13.8483 0.0000
# 2 -1.2218 34.4899 -1.8384 0.0000 0.0736 0.0000
# 3 15.6823 -1.8384 118.1348 0.0000 -18.2803 0.0000
# 4 0.0000 0.0000 0.0000 17.5285 0.0000 -0.5043
# 5 -13.8483 0.0736 -18.2803 0.0000 32.9587 0.0000
# 6 0.0000 0.0000 0.0000 -0.5043 0.0000 7.3709
#
#
#
# Elastic Compliance Matrix: (Units=1/GPa)
#
#
# Indices 1 2 3 4 5 6 
#
# 1 0.030259 0.000929 -0.002226 0.000000 0.011477 0.000000
# 2 0.000929 0.029048 0.000415 0.000000 0.000555 0.000000
# 3 -0.002226 0.000415 0.009431 0.000000 0.004295 0.000000
# 4 0.000000 0.000000 0.000000 0.057162 0.000000 0.003911
# 5 0.011477 0.000555 0.004295 0.000000 0.037544 0.000000
# 6 0.000000 0.000000 0.000000 0.003911 0.000000 0.135935
#
#
# Mechanical properties :
#
#
# Convention : Reuss Voigt Hill
#
# Bulk Modulus (GPa) = 14.93151 24.15119 19.54135
# Shear Modulus (GPa) = 15.45736 23.53793 19.49764
#
# Velocity S-wave (km/s) = 2.79903 3.45401 3.14362
# Velocity P-wave (km/s) = 4.24430 5.30546 4.80427
#
# Compressibility (1/GPa) = 0.06697245
#
# Stress axis : x y z
#
# Youngs Moduli (GPa) = 33.04781 34.42602 106.02786
#
# Poissons Ratio (x) = -0.03197 0.23607
# Poissons Ratio (y) = -0.03069 -0.04397
# Poissons Ratio (z) = 0.07358 -0.01428
#
# Static dielectric constant tensor:
#      x y z
#    x 1.673360 0.000000 -0.032770 
#    y 0.000000 1.739910 0.000000 
#    z -0.032770 0.000000 1.704550 
# 
# From -- ./inp_files/86887.got.cif
#   From: 2010.05.17/outbox.cif.g08.bks.cpg/sg10_44_cif.got.tgz:86887.got - 2010.06.03 11:33:40.
