data_PCOD9142278
_publ_section_title
;
Structure prediction by ZEFSAII (Michael W. Deem and Ramdas Pophale) SiO2 
 PCOD9142278
Probable space group: P 2/M
;
_chemical_formula_sum "Si O2"
_cell_formula_units_Z 32
_cell_length_a 36.010444
_cell_length_b 8.995230
_cell_length_c 24.434280
_cell_angle_alpha 90.000000
_cell_angle_beta 15.772958
_cell_angle_gamma 90.000000
_cell_volume 2151.450765
_symmetry_space_group_name_H-M "P 2/M"
_symmetry_group_IT_number 10
_symmetry_cell_setting 'monoclinic'
loop_
_space_group_symop_operation_xyz
x,y,z
-x,y,-z
-x,-y,-z
x,-y,z
loop_
_atom_site_type_symbol
_atom_site_label
_atom_site_fract_x
_atom_site_fract_y
_atom_site_fract_z
Si Si1 0.869271 0.178709 0.149524
Si Si2 0.102731 0.328696 0.406556
Si Si3 0.118231 0.823493 0.213400
Si Si4 0.676783 0.321342 0.989373
Si Si5 0.493669 0.674555 0.601551
Si Si6 0.224073 0.822747 0.942913
Si Si7 0.192848 0.673639 0.876999
Si Si8 0.566054 0.177528 0.613200
O O1 0.866639 0.254908 0.093911
O O2 0.726861 0.215210 0.382425
O O3 0.870602 0.000000 0.139967
O O4 0.000000 0.221330 0.000000
O O5 0.111947 0.500000 0.411907
O O6 0.000000 0.326734 0.500000
O O7 0.029403 0.230017 0.555995
O O8 0.245972 0.280612 0.176662
O O9 0.133469 0.000000 0.199708
O O10 0.229773 0.742139 0.093638
O O11 0.145779 0.789663 0.110774
O O12 0.675482 0.500000 0.994988
O O13 0.526409 0.254737 0.209833
O O14 0.464940 0.500000 0.651782
O O15 0.372280 0.747482 0.739823
O O16 0.642329 0.685700 0.363342
O O17 0.506558 0.761875 0.640269
O O18 0.155726 0.757319 0.985440
O O19 0.238716 0.000000 0.917244
O O20 0.158373 0.500000 0.929030
O O21 0.551199 0.000000 0.637033
#
# Coordination Sequence:
#
# PCOD9142278 Si02
#       8
#     4   4   4   4   4   4   4   4
#     4   9  19  36  54  69  89 116 144 181 230 275
#     4   8  16  28  40  56  80 115 153 184 220 261
#     4  10  19  28  40  60  85 117 155 189 221 256
#     4  10  18  28  42  60  86 118 151 186 222 261
#     4  10  19  30  43  60  86 118 150 185 222 258
#     4  11  21  30  42  62  89 120 153 186 219 259
#     4  10  21  33  46  66  87 113 150 186 222 263
#     4  10  18  28  45  68  89 114 150 185 221 266
#
# _framework density 14.873684000000001
#
# number of rings (size 3 to 8) (size 9 to 14) (size 15 to 20)
#    0.000    2.250    1.250    3.375    0.000    8.000 
#    0.000    0.000    0.000    0.000    0.000    0.000 
#    0.000    1.000    0.000   11.250    0.000    5.625 
#
# Total GULP energy -178394.295380 kJ/mol
# GULP energy per Si atom -5574.821731 kJ/mol
# Density = 1.483983 g / cm^3
# Si number density = 14.873684 Si / 1000 Ang^3
#
#
#
# Elastic Constant Matrix: (Units=GPa)
#
#
# Indices 1 2 3 4 5 6 
#
# 1 78.1748 44.0151 53.6313 0.0000 1.5247 0.0000
# 2 44.0151 62.4464 41.4787 0.0000 7.5767 0.0000
# 3 53.6313 41.4787 75.9266 0.0000 3.0260 0.0000
# 4 0.0000 0.0000 0.0000 22.5796 0.0000 5.2399
# 5 1.5247 7.5767 3.0260 0.0000 15.6286 0.0000
# 6 0.0000 0.0000 0.0000 5.2399 0.0000 28.0000
#
#
#
# Elastic Compliance Matrix: (Units=1/GPa)
#
#
# Indices 1 2 3 4 5 6 
#
# 1 0.029145 -0.011612 -0.014466 0.000000 0.005587 0.000000
# 2 -0.011612 0.031276 -0.008389 0.000000 -0.012405 0.000000
# 3 -0.014466 -0.008389 0.027969 0.000000 0.000063 0.000000
# 4 0.000000 0.000000 0.000000 0.046298 0.000000 -0.008664
# 5 0.005587 -0.012405 0.000063 0.000000 0.069442 0.000000
# 6 0.000000 0.000000 0.000000 -0.008664 0.000000 0.037336
#
#
# Mechanical properties :
#
#
# Convention : Reuss Voigt Hill
#
# Bulk Modulus (GPa) = 51.39858 54.97754 53.18806
# Shear Modulus (GPa) = 15.77851 18.40315 17.09083
#
# Velocity S-wave (km/s) = 3.26058 3.52134 3.39346
# Velocity P-wave (km/s) = 6.98619 7.31958 7.15483
#
# Compressibility (1/GPa) = 0.01945579
#
# Stress axis : x y z
#
# Youngs Moduli (GPa) = 34.31111 31.97324 35.75344
#
# Poissons Ratio (x) = 0.37128 0.51720
# Poissons Ratio (y) = 0.39842 0.29995
# Poissons Ratio (z) = 0.49634 0.26824
#
# Static dielectric constant tensor:
#      x y z
#    x 1.470560 0.000000 0.028600 
#    y 0.000000 1.495420 0.000000 
#    z 0.028600 0.000000 1.521700 
# 
# From -- ./inp_files/83337.got.cif
#   From: 2010.05.17/outbox.cif.g08.bks.cpg/sg10_42_cif.got.tgz:83337.got - 2010.06.03 11:33:40.
