data_PCOD9142541
_publ_section_title
;
Structure prediction by ZEFSAII (Michael W. Deem and Ramdas Pophale) SiO2 
 PCOD9142541
Probable space group: P 2/M
;
_chemical_formula_sum "Si O2"
_cell_formula_units_Z 32
_cell_length_a 20.689409
_cell_length_b 8.624909
_cell_length_c 32.259058
_cell_angle_alpha 90.000000
_cell_angle_beta 160.596886
_cell_angle_gamma 90.000000
_cell_volume 1912.362066
_symmetry_space_group_name_H-M "P 2/M"
_symmetry_group_IT_number 10
_symmetry_cell_setting 'monoclinic'
loop_
_space_group_symop_operation_xyz
x,y,z
-x,y,-z
-x,-y,-z
x,-y,z
loop_
_atom_site_type_symbol
_atom_site_label
_atom_site_fract_x
_atom_site_fract_y
_atom_site_fract_z
Si Si1 0.793497 0.317548 0.917178
Si Si2 0.315534 0.314193 0.415480
Si Si3 0.020438 0.179578 0.841387
Si Si4 0.612988 0.187569 0.891989
Si Si5 0.211591 0.812140 0.615274
Si Si6 0.588826 0.815201 0.349371
Si Si7 0.833219 0.819780 0.820303
Si Si8 0.591547 0.683520 0.437047
O O1 0.811937 0.500000 0.921447
O O2 0.697541 0.279496 0.903925
O O3 0.632030 0.246679 0.789107
O O4 0.005416 0.241374 0.049966
O O5 0.500000 0.254569 0.500000
O O6 0.335645 0.500000 0.429446
O O7 0.325821 0.257264 0.469074
O O8 0.116160 0.273403 0.271938
O O9 0.927749 0.189459 0.831491
O O10 0.013954 0.000000 0.824785
O O11 0.246330 0.225604 0.984542
O O12 0.383547 0.220987 0.752353
O O13 0.636520 0.000000 0.898613
O O14 0.287901 0.760203 0.616106
O O15 0.000000 0.752379 0.500000
O O16 0.198960 0.000000 0.605341
O O17 0.669145 0.761177 0.442082
O O18 0.580920 0.000000 0.342835
O O19 0.638318 0.720569 0.700921
O O20 0.787835 0.000000 0.801312
O O21 0.621638 0.500000 0.452357
#
# Coordination Sequence:
#
# PCOD9142541 Si02
#       8
#     4   4   4   4   4   4   4   4
#     4  10  18  29  46  66  91 125 162 194 230 276
#     4  10  20  33  47  65  90 122 163 208 245 275
#     4   9  17  28  45  67  93 124 158 199 240 277
#     4   8  15  28  45  71 101 125 154 192 234 280
#     4   8  14  28  53  79 100 123 150 183 229 286
#     4  10  20  34  49  68  96 124 154 192 234 282
#     4  10  19  31  46  66  91 123 162 201 240 275
#     4  11  22  34  47  65  91 123 162 201 240 282
#
# _framework density 16.733235000000001
#
# number of rings (size 3 to 8) (size 9 to 14) (size 15 to 20)
#    0.000    2.500    1.250    3.750    0.000    3.750 
#    0.000    2.500    0.000    9.375    0.000    0.875 
#    0.000    7.000    0.000    0.000    0.000    0.000 
#
# Total GULP energy -178348.691332 kJ/mol
# GULP energy per Si atom -5573.396604 kJ/mol
# Density = 1.669515 g / cm^3
# Si number density = 16.733235 Si / 1000 Ang^3
#
#
#
# Elastic Constant Matrix: (Units=GPa)
#
#
# Indices 1 2 3 4 5 6 
#
# 1 62.9789 9.6641 57.3126 0.0000 -6.9882 0.0000
# 2 9.6641 23.2709 8.2739 0.0000 -8.5849 0.0000
# 3 57.3126 8.2739 116.1118 0.0000 -10.2957 0.0000
# 4 0.0000 0.0000 0.0000 43.3856 0.0000 -2.1959
# 5 -6.9882 -8.5849 -10.2957 0.0000 33.0251 0.0000
# 6 0.0000 0.0000 0.0000 -2.1959 0.0000 15.8588
#
#
#
# Elastic Compliance Matrix: (Units=1/GPa)
#
#
# Indices 1 2 3 4 5 6 
#
# 1 0.030015 -0.007393 -0.014291 0.000000 -0.000026 0.000000
# 2 -0.007393 0.049987 0.001132 0.000000 0.011783 0.000000
# 3 -0.014291 0.001132 0.015780 0.000000 0.002190 0.000000
# 4 0.000000 0.000000 0.000000 0.023212 0.000000 0.003214
# 5 -0.000026 0.011783 0.002190 0.000000 0.034020 0.000000
# 6 0.000000 0.000000 0.000000 0.003214 0.000000 0.063502
#
#
# Mechanical properties :
#
#
# Convention : Reuss Voigt Hill
#
# Bulk Modulus (GPa) = 18.28906 39.20698 28.74802
# Shear Modulus (GPa) = 18.12614 26.92797 22.52705
#
# Velocity S-wave (km/s) = 3.29483 4.01590 3.67310
# Velocity P-wave (km/s) = 5.04263 6.70707 5.93350
#
# Compressibility (1/GPa) = 0.05467748
#
# Stress axis : x y z
#
# Youngs Moduli (GPa) = 33.31666 20.00533 63.37212
#
# Poissons Ratio (x) = 0.14791 0.90564
# Poissons Ratio (y) = 0.24632 -0.07175
# Poissons Ratio (z) = 0.47612 -0.02265
#
# Static dielectric constant tensor:
#      x y z
#    x 1.593800 0.000000 -0.009260 
#    y 0.000000 1.566210 0.000000 
#    z -0.009260 0.000000 1.581920 
# 
# From -- ./inp_files/95684.got.cif
#   From: 2010.05.17/outbox.cif.g08.bks.cpg/sg10_48_cif.got.tgz:95684.got - 2010.06.03 11:33:40.
