data_PCOD9142903
_publ_section_title
;
Structure prediction by ZEFSAII (Michael W. Deem and Ramdas Pophale) SiO2 
 PCOD9142903
Probable space group: P 2/M
;
_chemical_formula_sum "Si O2"
_cell_formula_units_Z 24
_cell_length_a 7.025310
_cell_length_b 10.692018
_cell_length_c 17.494630
_cell_angle_alpha 90.000000
_cell_angle_beta 59.283902
_cell_angle_gamma 90.000000
_cell_volume 1129.747282
_symmetry_space_group_name_H-M "P 2/M"
_symmetry_group_IT_number 10
_symmetry_cell_setting 'monoclinic'
loop_
_space_group_symop_operation_xyz
x,y,z
-x,y,-z
-x,-y,-z
x,-y,z
loop_
_atom_site_type_symbol
_atom_site_label
_atom_site_fract_x
_atom_site_fract_y
_atom_site_fract_z
Si Si1 0.862228 0.850734 0.928965
Si Si2 0.818616 0.142403 0.260470
Si Si3 0.631708 0.855008 0.573920
Si Si4 0.527733 0.148822 0.117347
Si Si5 0.183599 0.791597 0.304030
Si Si6 0.867811 0.365412 0.447662
O O1 0.661788 0.837991 0.908885
O O2 0.074966 0.801212 0.838663
O O3 0.897850 0.000000 0.931290
O O4 0.755677 0.806530 0.030846
O O5 0.603238 0.195572 0.345855
O O6 0.017041 0.137857 0.281397
O O7 0.752388 0.000000 0.255511
O O8 0.784327 0.851310 0.619007
O O9 0.721873 0.758373 0.492678
O O10 0.619470 0.000000 0.550983
O O11 0.419901 0.212301 0.213451
O O12 0.547967 0.000000 0.128700
O O13 0.053547 0.663315 0.346183
O O14 0.758971 0.500000 0.455667
O O15 0.000000 0.375499 0.500000
#
# Coordination Sequence:
#
# PCOD9142903 Si02
#       6
#     4   4   4   4   4   4
#     4   7  11  21  37  60  95 128 150 181 228 277
#     4   9  17  29  45  70 101 128 155 192 237 281
#     4  10  20  32  49  73  97 123 159 200 238 277
#     4   8  12  20  39  66  91 121 156 186 225 275
#     4  10  18  30  49  68  92 126 162 196 233 279
#     4   9  20  37  53  70  96 128 159 195 242 289
#
# _framework density 21.243690000000001
#
# number of rings (size 3 to 8) (size 9 to 14) (size 15 to 20)
#    0.000    3.167    0.000    3.500    0.000    5.000 
#    0.000    4.167    0.000    4.000    0.000   10.500 
#    0.000    5.333    0.000    0.000    0.000    0.000 
#
# Total GULP energy -133665.764396 kJ/mol
# GULP energy per Si atom -5569.406850 kJ/mol
# Density = 2.119534 g / cm^3
# Si number density = 21.243690 Si / 1000 Ang^3
#
#
#
# Elastic Constant Matrix: (Units=GPa)
#
#
# Indices 1 2 3 4 5 6 
#
# 1 70.5589 5.7495 25.2752 0.0000 -0.1145 0.0000
# 2 5.7495 77.5773 65.9901 0.0000 -6.5781 0.0000
# 3 25.2752 65.9901 192.3422 0.0000 -16.7471 0.0000
# 4 0.0000 0.0000 0.0000 79.0801 0.0000 52.0219
# 5 -0.1145 -6.5781 -16.7471 0.0000 45.3705 0.0000
# 6 0.0000 0.0000 0.0000 52.0219 0.0000 -2.9074
#
#
#
# Elastic Compliance Matrix: (Units=1/GPa)
#
#
# Indices 1 2 3 4 5 6 
#
# 1 0.014928 0.000784 -0.002291 0.000000 -0.000694 0.000000
# 2 0.000784 0.018249 -0.006337 0.000000 0.000309 0.000000
# 3 -0.002291 -0.006337 0.007846 0.000000 0.001972 0.000000
# 4 0.000000 0.000000 0.000000 0.000990 0.000000 0.017717
# 5 -0.000694 0.000309 0.001972 0.000000 0.022811 0.000000
# 6 0.000000 0.000000 0.000000 0.017717 0.000000 -0.026933
#
#
# Mechanical properties :
#
#
# Convention : Reuss Voigt Hill
#
# Bulk Modulus (GPa) = 39.47241 59.38978 49.43109
# Shear Modulus (GPa) = 80.61155 40.53954 60.57554
#
# Velocity S-wave (km/s) = 6.16672 4.37316 5.34570
# Velocity P-wave (km/s) = 8.32621 7.31550 7.83716
#
# Compressibility (1/GPa) = 0.02533415
#
# Stress axis : x y z
#
# Youngs Moduli (GPa) = 66.98719 54.79737 127.45429
#
# Poissons Ratio (x) = -0.04293 0.29199
# Poissons Ratio (y) = -0.05248 0.80769
# Poissons Ratio (z) = 0.15346 0.34726
#
# Static dielectric constant tensor:
#      x y z
#    x 1.873680 0.000000 -0.012640 
#    y 0.000000 1.723900 0.000000 
#    z -0.012640 0.000000 1.875580 
# 
# From -- ./inp_files/81926.got.cif
#   From: 2010.05.17/outbox.cif.g08.bks.cpg/sg10_41_cif.got.tgz:81926.got - 2010.06.03 11:33:40.
