data_PCOD9142662
_publ_section_title
;
Structure prediction by ZEFSAII (Michael W. Deem and Ramdas Pophale) SiO2 
 PCOD9142662
Probable space group: P 2/M
;
_chemical_formula_sum "Si O2"
_cell_formula_units_Z 32
_cell_length_a 13.013459
_cell_length_b 9.240566
_cell_length_c 13.456024
_cell_angle_alpha 90.000000
_cell_angle_beta 90.394875
_cell_angle_gamma 90.000000
_cell_volume 1618.071693
_symmetry_space_group_name_H-M "P 2/M"
_symmetry_group_IT_number 10
_symmetry_cell_setting 'monoclinic'
loop_
_space_group_symop_operation_xyz
x,y,z
-x,y,-z
-x,-y,-z
x,-y,z
loop_
_atom_site_type_symbol
_atom_site_label
_atom_site_fract_x
_atom_site_fract_y
_atom_site_fract_z
Si Si1 0.486607 0.347808 0.117039
Si Si2 0.075253 0.329583 0.768950
Si Si3 0.867574 0.826694 0.802816
Si Si4 0.173473 0.331442 0.990908
Si Si5 0.671039 0.333414 0.727381
Si Si6 0.516545 0.830777 0.382234
Si Si7 0.745406 0.837729 0.318296
Si Si8 0.341277 0.845554 0.897826
O O1 0.531968 0.500000 0.158290
O O2 0.374701 0.339791 0.161111
O O3 0.549639 0.205670 0.142118
O O4 0.500000 0.353965 0.000000
O O5 0.055830 0.500000 0.753918
O O6 0.111233 0.315817 0.886083
O O7 0.159940 0.272999 0.689684
O O8 0.973819 0.233216 0.759485
O O9 0.773199 0.761119 0.737987
O O10 0.863442 0.000000 0.805009
O O11 0.861984 0.763592 0.915809
O O12 0.170847 0.500000 0.018689
O O13 0.286575 0.275884 0.961879
O O14 0.690261 0.500000 0.695974
O O15 0.575352 0.262883 0.667059
O O16 0.500000 0.825392 0.500000
O O17 0.635423 0.785731 0.361052
O O18 0.508585 0.000000 0.350122
O O19 0.724754 0.858095 0.201162
O O20 0.768013 0.000000 0.359806
O O21 0.347160 0.000000 0.950471
#
# Coordination Sequence:
#
# PCOD9142662 Si02
#       8
#     4   4   4   4   4   4   4   4
#     4  10  20  32  47  70 105 151 192 229 279 339
#     4  10  21  36  57  82 113 156 200 244 293 344
#     4  12  24  37  55  80 114 155 201 247 294 347
#     4  10  20  34  52  77 112 154 201 247 290 342
#     4  11  23  38  58  84 120 158 196 244 296 356
#     4  10  21  40  66  93 122 155 191 239 300 361
#     4   9  18  34  56  84 114 144 185 234 284 342
#     4  10  18  29  48  73 104 142 186 235 279 329
#
# _framework density 19.776627000000001
#
# number of rings (size 3 to 8) (size 9 to 14) (size 15 to 20)
#    0.000    1.750    1.250    3.750    0.000    6.000 
#    0.000    0.000    0.000    0.750    0.000    5.250 
#    0.000    0.000    0.000    0.000    0.000    0.000 
#
# Total GULP energy -178239.718009 kJ/mol
# GULP energy per Si atom -5569.991188 kJ/mol
# Density = 1.973161 g / cm^3
# Si number density = 19.776627 Si / 1000 Ang^3
#
#
#
# Elastic Constant Matrix: (Units=GPa)
#
#
# Indices 1 2 3 4 5 6 
#
# 1 129.7719 86.1475 26.2050 0.0000 -13.2658 0.0000
# 2 86.1475 148.3892 24.0063 0.0000 -1.8952 0.0000
# 3 26.2050 24.0063 43.9290 0.0000 -9.1433 0.0000
# 4 0.0000 0.0000 0.0000 18.1664 0.0000 4.9432
# 5 -13.2658 -1.8952 -9.1433 0.0000 18.6442 0.0000
# 6 0.0000 0.0000 0.0000 4.9432 0.0000 37.5007
#
#
#
# Elastic Compliance Matrix: (Units=1/GPa)
#
#
# Indices 1 2 3 4 5 6 
#
# 1 0.014157 -0.007702 -0.002565 0.000000 0.008033 0.000000
# 2 -0.007702 0.011614 -0.002948 0.000000 -0.005745 0.000000
# 3 -0.002565 -0.002948 0.028357 0.000000 0.011782 0.000000
# 4 0.000000 0.000000 0.000000 0.057095 0.000000 -0.007526
# 5 0.008033 -0.005745 0.011782 0.000000 0.064546 0.000000
# 6 0.000000 0.000000 0.000000 -0.007526 0.000000 0.027658
#
#
# Mechanical properties :
#
#
# Convention : Reuss Voigt Hill
#
# Bulk Modulus (GPa) = 36.10161 66.08975 51.09568
# Shear Modulus (GPa) = 20.91267 27.24433 24.07850
#
# Velocity S-wave (km/s) = 3.25536 3.71563 3.49309
# Velocity P-wave (km/s) = 5.69422 7.20407 6.49318
#
# Compressibility (1/GPa) = 0.02769960
#
# Stress axis : x y z
#
# Youngs Moduli (GPa) = 70.63396 86.10428 35.26419
#
# Poissons Ratio (x) = 0.66314 0.09044
# Poissons Ratio (y) = 0.54400 0.10397
# Poissons Ratio (z) = 0.18115 0.25386
#
# Static dielectric constant tensor:
#      x y z
#    x 1.735660 0.000000 0.018570 
#    y 0.000000 1.791910 0.000000 
#    z 0.018570 0.000000 1.702970 
# 
# From -- ./inp_files/63753.got.cif
#   From: 2010.05.17/outbox.cif.g08.bks.cpg/sg10_32_cif.got.tgz:63753.got - 2010.06.03 11:33:40.
