data_PCOD9142433
_publ_section_title
;
Structure prediction by ZEFSAII (Michael W. Deem and Ramdas Pophale) SiO2 
 PCOD9142433
Probable space group: P 2/M
;
_chemical_formula_sum "Si O2"
_cell_formula_units_Z 28
_cell_length_a 11.981375
_cell_length_b 7.418331
_cell_length_c 15.082181
_cell_angle_alpha 90.000000
_cell_angle_beta 109.781549
_cell_angle_gamma 90.000000
_cell_volume 1261.426454
_symmetry_space_group_name_H-M "P 2/M"
_symmetry_group_IT_number 10
_symmetry_cell_setting 'monoclinic'
loop_
_space_group_symop_operation_xyz
x,y,z
-x,y,-z
-x,-y,-z
x,-y,z
loop_
_atom_site_type_symbol
_atom_site_label
_atom_site_fract_x
_atom_site_fract_y
_atom_site_fract_z
Si Si1 0.842436 0.781956 0.546514
Si Si2 0.675571 0.279285 0.798589
Si Si3 0.615021 0.720398 0.977284
Si Si4 0.832335 0.714410 0.155169
Si Si5 0.946689 0.280419 0.890390
Si Si6 0.110959 0.785176 0.637756
Si Si7 0.395803 0.710768 0.410581
O O1 0.835314 0.722606 0.441373
O O2 0.731824 0.721261 0.575371
O O3 0.974365 0.720253 0.611584
O O4 0.840451 0.000000 0.549087
O O5 0.675472 0.500000 0.797052
O O6 0.617383 0.223599 0.875649
O O7 0.812958 0.221111 0.838905
O O8 0.616243 0.214531 0.691965
O O9 0.616693 0.500000 0.977509
O O10 0.500000 0.777799 0.000000
O O11 0.730786 0.782349 0.062333
O O12 0.834332 0.500000 0.142797
O O13 0.815557 0.745651 0.254528
O O14 0.960729 0.782410 0.158727
O O15 0.942958 0.500000 0.889143
O O16 0.000000 0.227992 0.000000
O O17 0.102337 0.000000 0.627222
O O18 0.500000 0.789107 0.500000
O O19 0.424703 0.500000 0.406708
#
# Coordination Sequence:
#
# PCOD9142433 Si02
#       7
#     4   4   4   4   4   4   4
#     4   9  19  37  56  73  98 136 177 210 252 314
#     4   9  16  28  44  65  98 134 161 198 249 294
#     4   9  17  28  43  67 100 134 166 198 239 298
#     4  10  18  28  48  77  99 126 169 209 248 302
#     4   9  14  23  42  68  95 121 159 205 240 281
#     4   9  19  35  54  75 102 134 166 212 268 310
#     4  10  21  34  51  78 109 137 168 214 266 301
#
# _framework density 22.197092999999999
#
# number of rings (size 3 to 8) (size 9 to 14) (size 15 to 20)
#    0.000    2.714    1.429    1.714    0.000    3.714 
#    0.000    4.286    0.000    1.714    0.000    0.000 
#    0.000    0.000    0.000    0.000    0.000    0.000 
#
# Total GULP energy -156356.313115 kJ/mol
# GULP energy per Si atom -5584.154040 kJ/mol
# Density = 2.214657 g / cm^3
# Si number density = 22.197093 Si / 1000 Ang^3
#
#
#
# Elastic Constant Matrix: (Units=GPa)
#
#
# Indices 1 2 3 4 5 6 
#
# 1 110.8521 -0.6100 81.6366 0.0000 -15.4818 0.0000
# 2 -0.6100 69.7718 3.1196 0.0000 4.9692 0.0000
# 3 81.6366 3.1196 219.1011 0.0000 -13.0305 0.0000
# 4 0.0000 0.0000 0.0000 11.6009 0.0000 -5.7597
# 5 -15.4818 4.9692 -13.0305 0.0000 25.9851 0.0000
# 6 0.0000 0.0000 0.0000 -5.7597 0.0000 6.0990
#
#
#
# Elastic Compliance Matrix: (Units=1/GPa)
#
#
# Indices 1 2 3 4 5 6 
#
# 1 0.013166 -0.000077 -0.004574 0.000000 0.005566 0.000000
# 2 -0.000077 0.014562 -0.000358 0.000000 -0.003010 0.000000
# 3 -0.004574 -0.000358 0.006303 0.000000 0.000504 0.000000
# 4 0.000000 0.000000 0.000000 0.162295 0.000000 0.153267
# 5 0.005566 -0.003010 0.000504 0.000000 0.042628 0.000000
# 6 0.000000 0.000000 0.000000 0.153267 0.000000 0.308703
#
#
# Mechanical properties :
#
#
# Convention : Reuss Voigt Hill
#
# Bulk Modulus (GPa) = 41.64005 63.11306 52.37656
# Shear Modulus (GPa) = 8.83893 29.77558 19.30726
#
# Velocity S-wave (km/s) = 1.99767 3.66651 2.95245
# Velocity P-wave (km/s) = 4.91130 6.81316 5.93886
#
# Compressibility (1/GPa) = 0.02401534
#
# Stress axis : x y z
#
# Youngs Moduli (GPa) = 75.95273 68.67126 158.64721
#
# Poissons Ratio (x) = 0.00527 0.72558
# Poissons Ratio (y) = 0.00583 0.05675
# Poissons Ratio (z) = 0.34738 0.02457
#
# Static dielectric constant tensor:
#      x y z
#    x 1.773590 0.000000 -0.006200 
#    y 0.000000 1.835550 0.000000 
#    z -0.006200 0.000000 1.820630 
# 
# From -- ./inp_files/49357.got.cif
#   From: 2010.05.17/outbox.cif.g08.bks.cpg/sg10_25_cif.got.tgz:49357.got - 2010.06.03 11:33:40.
