data_PCOD9142155
_publ_section_title
;
Structure prediction by ZEFSAII (Michael W. Deem and Ramdas Pophale) SiO2 
 PCOD9142155
Probable space group: P 2/M
;
_chemical_formula_sum "Si O2"
_cell_formula_units_Z 32
_cell_length_a 25.031606
_cell_length_b 7.482744
_cell_length_c 14.245451
_cell_angle_alpha 90.000000
_cell_angle_beta 44.418097
_cell_angle_gamma 90.000000
_cell_volume 1867.475687
_symmetry_space_group_name_H-M "P 2/M"
_symmetry_group_IT_number 10
_symmetry_cell_setting 'monoclinic'
loop_
_space_group_symop_operation_xyz
x,y,z
-x,y,-z
-x,-y,-z
x,-y,z
loop_
_atom_site_type_symbol
_atom_site_label
_atom_site_fract_x
_atom_site_fract_y
_atom_site_fract_z
Si Si1 0.834400 0.719079 0.094829
Si Si2 0.531333 0.209047 0.863758
Si Si3 0.557638 0.716666 0.209824
Si Si4 0.330545 0.210842 0.431964
Si Si5 0.001260 0.291843 0.884353
Si Si6 0.833188 0.715335 0.313760
Si Si7 0.583789 0.295516 0.492537
Si Si8 0.679213 0.281318 0.197283
O O1 0.835756 0.500000 0.093934
O O2 0.821696 0.774497 0.219551
O O3 0.764417 0.775923 0.117247
O O4 0.918864 0.781919 0.958570
O O5 0.468712 0.223169 0.859614
O O6 0.610472 0.281646 0.720297
O O7 0.546528 0.000000 0.863016
O O8 0.500000 0.287964 0.000000
O O9 0.554093 0.500000 0.212826
O O10 0.492263 0.781533 0.364935
O O11 0.639162 0.770007 0.150030
O O12 0.240695 0.237561 0.532953
O O13 0.354833 0.295131 0.500574
O O14 0.345065 0.000000 0.423548
O O15 0.001335 0.500000 0.855591
O O16 0.084347 0.216535 0.754590
O O17 0.000000 0.287874 0.000000
O O18 0.838113 0.500000 0.304251
O O19 0.565067 0.500000 0.491948
O O20 0.623365 0.218078 0.351246
O O21 0.680030 0.500000 0.199092
#
# Coordination Sequence:
#
# PCOD9142155 Si02
#       8
#     4   4   4   4   4   4   4   4
#     4   8  12  19  34  55  77 105 138 162 179 208
#     4   9  19  35  48  55  71 101 131 159 197 244
#     4   9  17  26  40  62  81  97 125 163 196 225
#     4  10  18  26  39  59  77  96 128 166 199 229
#     4   7  11  18  31  52  74  99 135 168 182 203
#     4   9  14  23  38  55  76 103 134 163 190 221
#     4   9  15  25  38  53  77 108 134 154 182 221
#     4   9  14  21  36  58  82 106 131 157 184 219
#
# _framework density 17.135429999999999
#
# number of rings (size 3 to 8) (size 9 to 14) (size 15 to 20)
#    0.000    3.250    1.250    2.250    0.000    2.250 
#    0.000    0.625    0.000    6.375    0.000    0.000 
#    0.000    1.000    0.000   12.500    0.000    1.000 
#
# Total GULP energy -178145.209440 kJ/mol
# GULP energy per Si atom -5567.037795 kJ/mol
# Density = 1.709643 g / cm^3
# Si number density = 17.135430 Si / 1000 Ang^3
#
#
#
# Elastic Constant Matrix: (Units=GPa)
#
#
# Indices 1 2 3 4 5 6 
#
# 1 105.5209 -3.4938 72.1871 0.0000 -27.1112 0.0000
# 2 -3.4938 48.5756 2.2984 0.0000 -0.7178 0.0000
# 3 72.1871 2.2984 100.2446 0.0000 -11.5843 0.0000
# 4 0.0000 0.0000 0.0000 -4.1702 0.0000 20.9905
# 5 -27.1112 -0.7178 -11.5843 0.0000 19.5610 0.0000
# 6 0.0000 0.0000 0.0000 20.9905 0.0000 -34.4086
#
#
#
# Elastic Compliance Matrix: (Units=1/GPa)
#
#
# Indices 1 2 3 4 5 6 
#
# 1 0.029801 0.003449 -0.017982 0.000000 0.030781 0.000000
# 2 0.003449 0.021013 -0.002495 0.000000 0.004074 0.000000
# 3 -0.017982 -0.002495 0.021567 0.000000 -0.012242 0.000000
# 4 0.000000 0.000000 0.000000 0.115810 0.000000 0.070648
# 5 0.030781 0.004074 -0.012242 0.000000 0.086684 0.000000
# 6 0.000000 0.000000 0.000000 0.070648 0.000000 0.014036
#
#
# Mechanical properties :
#
#
# Convention : Reuss Voigt Hill
#
# Bulk Modulus (GPa) = 26.09217 44.03604 35.06410
# Shear Modulus (GPa) = 14.89244 8.41974 11.65609
#
# Velocity S-wave (km/s) = 2.95125 2.21908 2.61096
# Velocity P-wave (km/s) = 5.18394 5.68510 5.44030
#
# Compressibility (1/GPa) = 0.03832568
#
# Stress axis : x y z
#
# Youngs Moduli (GPa) = 33.55595 47.59005 46.36686
#
# Poissons Ratio (x) = -0.16414 0.83377
# Poissons Ratio (y) = -0.11574 0.11567
# Poissons Ratio (z) = 0.60340 0.11872
#
# Static dielectric constant tensor:
#      x y z
#    x 1.595090 0.000000 -0.050870 
#    y 0.000000 1.654460 0.000000 
#    z -0.050870 0.000000 1.600680 
# 
# From -- ./inp_files/72039.got.cif
#   From: 2010.05.17/outbox.cif.g08.bks.cpg/sg10_37_cif.got.tgz:72039.got - 2010.06.03 11:33:40.
