data_PCOD9142828
_publ_section_title
;
Structure prediction by ZEFSAII (Michael W. Deem and Ramdas Pophale) SiO2 
 PCOD9142828
Probable space group: P 2/M
;
_chemical_formula_sum "Si O2"
_cell_formula_units_Z 28
_cell_length_a 32.927849
_cell_length_b 8.592567
_cell_length_c 9.966477
_cell_angle_alpha 90.000000
_cell_angle_beta 33.900683
_cell_angle_gamma 90.000000
_cell_volume 1572.792510
_symmetry_space_group_name_H-M "P 2/M"
_symmetry_group_IT_number 10
_symmetry_cell_setting 'monoclinic'
loop_
_space_group_symop_operation_xyz
x,y,z
-x,y,-z
-x,-y,-z
x,-y,z
loop_
_atom_site_type_symbol
_atom_site_label
_atom_site_fract_x
_atom_site_fract_y
_atom_site_fract_z
Si Si1 0.293373 0.187770 0.749305
Si Si2 0.263653 0.812534 0.127791
Si Si3 0.417499 0.188096 0.201900
Si Si4 0.312050 0.685842 0.275447
Si Si5 0.954541 0.314021 0.931971
Si Si6 0.902619 0.814348 0.360046
Si Si7 0.186607 0.687714 0.828971
O O1 0.363039 0.238850 0.470759
O O2 0.221972 0.245370 0.866254
O O3 0.292387 0.000000 0.751836
O O4 0.294070 0.240840 0.900996
O O5 0.303242 0.745289 0.149143
O O6 0.178053 0.771699 0.371851
O O7 0.268730 0.000000 0.119560
O O8 0.381633 0.248981 0.163508
O O9 0.417011 0.000000 0.199804
O O10 0.500000 0.240107 0.000000
O O11 0.314021 0.500000 0.271120
O O12 0.241292 0.735704 0.557793
O O13 0.962787 0.500000 0.903266
O O14 0.033544 0.235673 0.713524
O O15 0.920520 0.268801 0.170001
O O16 0.895105 0.263747 0.984972
O O17 0.906098 0.000000 0.329784
O O18 0.187804 0.500000 0.831985
#
# Coordination Sequence:
#
# PCOD9142828 Si02
#       7
#     4   4   4   4   4   4   4
#     4   9  19  34  53  75 100 132 166 204 251 298
#     4  10  20  34  50  73 104 134 168 207 249 299
#     4   9  18  35  58  81 103 129 164 205 248 295
#     4  10  19  32  53  78 102 132 169 206 245 294
#     4  10  18  30  47  69  98 129 167 212 254 295
#     4  10  19  29  45  70  98 129 167 210 252 292
#     4   9  18  32  49  72  98 128 169 211 249 294
#
# _framework density 17.802728999999999
#
# number of rings (size 3 to 8) (size 9 to 14) (size 15 to 20)
#    0.000    2.429    1.429    2.143    0.000    3.143 
#    0.000    1.429    0.000    8.571    0.000    0.000 
#    0.000    0.000    0.000    0.000    0.000    0.000 
#
# Total GULP energy -156169.823630 kJ/mol
# GULP energy per Si atom -5577.493701 kJ/mol
# Density = 1.776221 g / cm^3
# Si number density = 17.802729 Si / 1000 Ang^3
#
#
#
# Elastic Constant Matrix: (Units=GPa)
#
#
# Indices 1 2 3 4 5 6 
#
# 1 165.8747 21.1967 75.8186 0.0000 -5.6527 0.0000
# 2 21.1967 6.5575 15.3799 0.0000 -1.2179 0.0000
# 3 75.8186 15.3799 67.9041 0.0000 -3.3328 0.0000
# 4 0.0000 0.0000 0.0000 -91.9184 0.0000 -321.2468
# 5 -5.6527 -1.2179 -3.3328 0.0000 34.0677 0.0000
# 6 0.0000 0.0000 0.0000 -321.2468 0.0000 -961.1286
#
#
#
# Elastic Compliance Matrix: (Units=1/GPa)
#
#
# Indices 1 2 3 4 5 6 
#
# 1 0.013175 -0.017171 -0.010797 0.000000 0.000516 0.000000
# 2 -0.017171 0.348356 -0.059543 0.000000 0.003779 0.000000
# 3 -0.010797 -0.059543 0.040269 0.000000 0.000019 0.000000
# 4 0.000000 0.000000 0.000000 0.064705 0.000000 -0.021627
# 5 0.000516 0.003779 0.000019 0.000000 0.029576 0.000000
# 6 0.000000 0.000000 0.000000 -0.021627 0.000000 0.006188
#
#
# Mechanical properties :
#
#
# Convention : Reuss Voigt Hill
#
# Bulk Modulus (GPa) = 4.40957 51.68073 28.04515
# Shear Modulus (GPa) = 6.64113 -195.26647 -94.31267
#
# Velocity S-wave (km/s) = 1.93352 -10.48435 -7.28639
# Velocity P-wave (km/s) = 2.73257 10.83833 7.41628
#
# Compressibility (1/GPa) = 0.22677955
#
# Stress axis : x y z
#
# Youngs Moduli (GPa) = 75.89902 2.87062 24.83304
#
# Poissons Ratio (x) = 0.04929 0.26811
# Poissons Ratio (y) = 1.30323 1.47864
# Poissons Ratio (z) = 0.81946 0.17093
#
# Static dielectric constant tensor:
#      x y z
#    x 1.601120 0.000000 -0.007550 
#    y 0.000000 1.600390 0.000000 
#    z -0.007550 0.000000 1.608110 
# 
# From -- ./inp_files/37974.got.cif
#   From: 2010.05.17/outbox.cif.g08.bks.cpg/sg10_19_cif.got.tgz:37974.got - 2010.06.03 11:33:40.
