data_PCOD9142635
_publ_section_title
;
Structure prediction by ZEFSAII (Michael W. Deem and Ramdas Pophale) SiO2 
 PCOD9142635
Probable space group: P 2/M
;
_chemical_formula_sum "Si O2"
_cell_formula_units_Z 32
_cell_length_a 23.223707
_cell_length_b 13.443637
_cell_length_c 16.811471
_cell_angle_alpha 90.000000
_cell_angle_beta 159.051719
_cell_angle_gamma 90.000000
_cell_volume 1876.551827
_symmetry_space_group_name_H-M "P 2/M"
_symmetry_group_IT_number 10
_symmetry_cell_setting 'monoclinic'
loop_
_space_group_symop_operation_xyz
x,y,z
-x,y,-z
-x,-y,-z
x,-y,z
loop_
_atom_site_type_symbol
_atom_site_label
_atom_site_fract_x
_atom_site_fract_y
_atom_site_fract_z
Si Si1 0.168796 0.387925 0.356154
Si Si2 0.663064 0.379081 0.169194
Si Si3 0.686494 0.708927 0.903498
Si Si4 0.982308 0.381075 0.380849
Si Si5 0.483750 0.615282 0.179201
Si Si6 0.180693 0.234328 0.227273
Si Si7 0.190232 0.613883 0.091906
Si Si8 0.502735 0.117219 0.407954
O O1 0.171013 0.500000 0.323107
O O2 0.333842 0.379930 0.617794
O O3 0.181528 0.305196 0.305305
O O4 0.997646 0.380400 0.178039
O O5 0.659105 0.500000 0.166380
O O6 0.841661 0.351936 0.426072
O O7 0.500000 0.342783 0.000000
O O8 0.637393 0.349360 0.044314
O O9 0.700826 0.646100 0.841041
O O10 0.844123 0.682927 0.159523
O O11 0.541093 0.672394 0.771486
O O12 0.641718 0.819861 0.818508
O O13 0.952477 0.500000 0.327960
O O14 0.000000 0.370614 0.500000
O O15 0.447947 0.500000 0.149021
O O16 0.327359 0.157863 0.407455
O O17 0.199407 0.309553 0.176497
O O18 0.000000 0.188311 0.000000
O O19 0.222488 0.500000 0.157567
O O20 0.500000 0.134593 0.500000
O O21 0.486716 0.000000 0.373482
#
# Coordination Sequence:
#
# PCOD9142635 Si02
#       8
#     4   4   4   4   4   4   4   4
#     4   9  18  30  47  73 112 147 171 208 253 315
#     4   9  18  30  45  70 107 150 184 208 243 296
#     4  12  21  34  54  78 105 144 187 223 270 319
#     4  10  19  32  49  76 115 147 174 210 253 314
#     4  10  18  29  47  75 109 145 180 211 251 309
#     4  10  19  36  56  78 104 136 174 216 268 334
#     4  10  20  31  47  77 113 147 177 207 253 319
#     4  11  24  43  59  76 103 136 183 242 293 328
#
# _framework density 17.052553
#
# number of rings (size 3 to 8) (size 9 to 14) (size 15 to 20)
#    0.000    1.875    3.750    1.500    1.750    1.750 
#    0.000    0.625    0.000    0.375    0.000    0.000 
#    0.000    1.000    0.000    0.000    0.000    0.000 
#
# Total GULP energy -178261.366568 kJ/mol
# GULP energy per Si atom -5570.667705 kJ/mol
# Density = 1.701374 g / cm^3
# Si number density = 17.052553 Si / 1000 Ang^3
#
#
#
# Elastic Constant Matrix: (Units=GPa)
#
#
# Indices 1 2 3 4 5 6 
#
# 1 54.2536 27.1993 11.5835 0.0000 7.5521 0.0000
# 2 27.1993 78.1670 42.3572 0.0000 -3.0333 0.0000
# 3 11.5835 42.3572 85.1721 0.0000 6.1747 0.0000
# 4 0.0000 0.0000 0.0000 17.4436 0.0000 3.5534
# 5 7.5521 -3.0333 6.1747 0.0000 26.9133 0.0000
# 6 0.0000 0.0000 0.0000 3.5534 0.0000 13.7669
#
#
#
# Elastic Compliance Matrix: (Units=1/GPa)
#
#
# Indices 1 2 3 4 5 6 
#
# 1 0.024103 -0.009948 0.002279 0.000000 -0.008408 0.000000
# 2 -0.009948 0.022061 -0.010170 0.000000 0.007611 0.000000
# 3 0.002279 -0.010170 0.016899 0.000000 -0.005663 0.000000
# 4 0.000000 0.000000 0.000000 0.060509 0.000000 -0.015618
# 5 -0.008408 0.007611 -0.005663 0.000000 0.041673 0.000000
# 6 0.000000 0.000000 0.000000 -0.015618 0.000000 0.076670
#
#
# Mechanical properties :
#
#
# Convention : Reuss Voigt Hill
#
# Bulk Modulus (GPa) = 36.51681 42.20807 39.36244
# Shear Modulus (GPa) = 17.43850 20.72159 19.08004
#
# Velocity S-wave (km/s) = 3.20133 3.48970 3.34862
# Velocity P-wave (km/s) = 5.92667 6.40647 6.17123
#
# Compressibility (1/GPa) = 0.02738465
#
# Stress axis : x y z
#
# Youngs Moduli (GPa) = 41.48843 45.32882 59.17412
#
# Poissons Ratio (x) = 0.45093 -0.13485
# Poissons Ratio (y) = 0.41273 0.60181
# Poissons Ratio (z) = -0.09454 0.46100
#
# Static dielectric constant tensor:
#      x y z
#    x 1.619820 0.000000 0.014900 
#    y 0.000000 1.527030 0.000000 
#    z 0.014900 0.000000 1.647800 
# 
# From -- ./inp_files/80298.got.cif
#   From: 2010.05.17/outbox.cif.g08.bks.cpg/sg10_41_cif.got.tgz:80298.got - 2010.06.03 11:33:40.
