data_PCOD9142747
_publ_section_title
;
Structure prediction by ZEFSAII (Michael W. Deem and Ramdas Pophale) SiO2 
 PCOD9142747
Probable space group: P 2/M
;
_chemical_formula_sum "Si O2"
_cell_formula_units_Z 32
_cell_length_a 10.252716
_cell_length_b 13.840471
_cell_length_c 12.222363
_cell_angle_alpha 90.000000
_cell_angle_beta 96.646554
_cell_angle_gamma 90.000000
_cell_volume 1722.726167
_symmetry_space_group_name_H-M "P 2/M"
_symmetry_group_IT_number 10
_symmetry_cell_setting 'monoclinic'
loop_
_space_group_symop_operation_xyz
x,y,z
-x,y,-z
-x,-y,-z
x,-y,z
loop_
_atom_site_type_symbol
_atom_site_label
_atom_site_fract_x
_atom_site_fract_y
_atom_site_fract_z
Si Si1 0.726509 0.614220 0.846905
Si Si2 0.305052 0.117257 0.404060
Si Si3 0.186235 0.698130 0.916414
Si Si4 0.021154 0.611480 0.263459
Si Si5 0.800205 0.888309 0.196280
Si Si6 0.449059 0.610521 0.869104
Si Si7 0.583200 0.883567 0.348905
Si Si8 0.019180 0.190983 0.374785
O O1 0.719024 0.500000 0.877245
O O2 0.826755 0.620397 0.757134
O O3 0.575828 0.645535 0.814081
O O4 0.786303 0.669388 0.956693
O O5 0.342625 0.147228 0.532391
O O6 0.431081 0.145696 0.343189
O O7 0.167847 0.163834 0.357992
O O8 0.292129 0.000000 0.400718
O O9 0.173183 0.812382 0.897336
O O10 0.313786 0.666820 0.858325
O O11 0.065207 0.640586 0.851395
O O12 0.994509 0.500000 0.291538
O O13 0.992200 0.695999 0.346956
O O14 0.667290 0.861381 0.249870
O O15 0.917573 0.870972 0.293800
O O16 0.793509 0.000000 0.162577
O O17 0.420340 0.500000 0.835660
O O18 0.500000 0.612041 0.000000
O O19 0.581458 0.000000 0.355147
O O20 0.000000 0.169387 0.500000
#
# Coordination Sequence:
#
# PCOD9142747 Si02
#       8
#     4   4   4   4   4   4   4   4
#     4   9  17  32  54  76  97 123 157 202 245 283
#     4   9  16  28  49  72  93 120 156 201 242 275
#     4  10  18  29  51  75  97 126 160 196 239 285
#     4  10  21  34  49  72  98 126 161 199 244 293
#     4  10  20  32  47  72 102 131 164 198 236 283
#     4   8  14  26  47  74  97 118 150 195 241 280
#     4   8  15  28  46  69  94 120 155 200 241 273
#     4  11  21  32  50  72  95 129 165 201 245 287
#
# _framework density 18.575209999999998
#
# number of rings (size 3 to 8) (size 9 to 14) (size 15 to 20)
#    0.000    2.625    1.250    3.375    0.000    2.750 
#    0.000    0.000    0.000   10.125    0.000    1.750 
#    0.000    0.000    0.000    0.000    0.000    0.000 
#
# Total GULP energy -178316.208688 kJ/mol
# GULP energy per Si atom -5572.381522 kJ/mol
# Density = 1.853293 g / cm^3
# Si number density = 18.575210 Si / 1000 Ang^3
#
#
#
# Elastic Constant Matrix: (Units=GPa)
#
#
# Indices 1 2 3 4 5 6 
#
# 1 83.4129 4.7438 -11.7726 0.0000 4.7194 0.0000
# 2 4.7438 75.3871 6.3911 0.0000 -0.5714 0.0000
# 3 -11.7726 6.3911 9.4950 0.0000 -2.8553 0.0000
# 4 0.0000 0.0000 0.0000 -5.6826 0.0000 -30.8479
# 5 4.7194 -0.5714 -2.8553 0.0000 6.4851 0.0000
# 6 0.0000 0.0000 0.0000 -30.8479 0.0000 -33.5469
#
#
#
# Elastic Compliance Matrix: (Units=1/GPa)
#
#
# Indices 1 2 3 4 5 6 
#
# 1 0.015060 -0.002636 0.019688 0.000000 -0.002523 0.000000
# 2 -0.002636 0.014593 -0.013978 0.000000 -0.002951 0.000000
# 3 0.019688 -0.013978 0.154978 0.000000 0.052677 0.000000
# 4 0.000000 0.000000 0.000000 0.044085 0.000000 -0.040538
# 5 -0.002523 -0.002951 0.052677 0.000000 0.178970 0.000000
# 6 0.000000 0.000000 0.000000 -0.040538 0.000000 0.007468
#
#
# Mechanical properties :
#
#
# Convention : Reuss Voigt Hill
#
# Bulk Modulus (GPa) = 5.24168 18.55773 11.89970
# Shear Modulus (GPa) = 10.57979 4.71331 7.64655
#
# Velocity S-wave (km/s) = 2.38914 1.59466 2.03113
# Velocity P-wave (km/s) = 3.23089 3.66099 3.45265
#
# Compressibility (1/GPa) = 0.19077853
#
# Stress axis : x y z
#
# Youngs Moduli (GPa) = 66.40156 68.52420 6.45253
#
# Poissons Ratio (x) = 0.18062 -0.12704
# Poissons Ratio (y) = 0.17502 0.09019
# Poissons Ratio (z) = -1.30729 0.95784
#
# Static dielectric constant tensor:
#      x y z
#    x 1.688090 0.000000 -0.025220 
#    y 0.000000 1.637980 0.000000 
#    z -0.025220 0.000000 1.629270 
# 
# From -- ./inp_files/61565.got.cif
#   From: 2010.05.17/outbox.cif.g08.bks.cpg/sg10_31_cif.got.tgz:61565.got - 2010.06.03 11:33:40.
