data_PCOD9142965
_publ_section_title
;
Structure prediction by ZEFSAII (Michael W. Deem and Ramdas Pophale) SiO2 
 PCOD9142965
Probable space group: P 2/M
;
_chemical_formula_sum "Si O2"
_cell_formula_units_Z 32
_cell_length_a 21.197243
_cell_length_b 8.834459
_cell_length_c 23.770771
_cell_angle_alpha 90.000000
_cell_angle_beta 156.097466
_cell_angle_gamma 90.000000
_cell_volume 1803.652102
_symmetry_space_group_name_H-M "P 2/M"
_symmetry_group_IT_number 10
_symmetry_cell_setting 'monoclinic'
loop_
_space_group_symop_operation_xyz
x,y,z
-x,y,-z
-x,-y,-z
x,-y,z
loop_
_atom_site_type_symbol
_atom_site_label
_atom_site_fract_x
_atom_site_fract_y
_atom_site_fract_z
Si Si1 0.333747 0.817182 0.952299
Si Si2 0.335878 0.816998 0.732394
Si Si3 0.137014 0.320396 0.479166
Si Si4 0.838038 0.324005 0.903110
Si Si5 0.664701 0.817384 0.661180
Si Si6 0.977496 0.182258 0.849293
Si Si7 0.988093 0.183065 0.251884
Si Si8 0.160372 0.182146 0.701494
O O1 0.495946 0.762923 0.109245
O O2 0.340427 0.000000 0.960218
O O3 0.183089 0.770441 0.865432
O O4 0.297665 0.781271 0.857915
O O5 0.284991 0.744840 0.632535
O O6 0.213500 0.778911 0.682276
O O7 0.335996 0.000000 0.727618
O O8 0.140035 0.500000 0.479265
O O9 0.109457 0.252028 0.394957
O O10 0.990548 0.263687 0.397273
O O11 0.802357 0.500000 0.881789
O O12 0.707293 0.247405 0.757409
O O13 0.000000 0.311367 0.000000
O O14 0.883481 0.247401 0.999087
O O15 0.500000 0.768732 0.500000
O O16 0.810623 0.773738 0.740165
O O17 0.662609 0.000000 0.663269
O O18 0.987636 0.228922 0.792667
O O19 0.986626 0.000000 0.859198
O O20 0.996931 0.000000 0.262535
O O21 0.133029 0.000000 0.681445
#
# Coordination Sequence:
#
# PCOD9142965 Si02
#       8
#     4   4   4   4   4   4   4   4
#     4   8  15  29  50  73  92 113 150 200 242 277
#     4  10  18  30  50  72  93 119 152 194 243 288
#     4  11  22  33  46  67  97 129 158 191 233 283
#     4   9  17  29  47  72 100 129 159 190 228 277
#     4   9  17  30  49  75 105 131 157 195 239 276
#     4   9  17  31  53  75  94 123 162 200 235 275
#     4   9  18  35  55  71  89 120 164 203 235 277
#     4   9  17  31  51  72  92 118 155 195 237 287
#
# _framework density 17.741779999999999
#
# number of rings (size 3 to 8) (size 9 to 14) (size 15 to 20)
#    0.000    2.750    0.000    3.000    0.000    5.750 
#    0.000    3.750    0.000   11.250    0.000    0.000 
#    0.000    0.000    0.000    0.000    0.000    0.000 
#
# Total GULP energy -178376.935736 kJ/mol
# GULP energy per Si atom -5574.279242 kJ/mol
# Density = 1.770140 g / cm^3
# Si number density = 17.741780 Si / 1000 Ang^3
#
#
#
# Elastic Constant Matrix: (Units=GPa)
#
#
# Indices 1 2 3 4 5 6 
#
# 1 76.3999 24.0783 43.2431 0.0000 -36.9853 0.0000
# 2 24.0783 24.8010 31.5355 0.0000 -13.2603 0.0000
# 3 43.2431 31.5355 139.0405 0.0000 -35.4256 0.0000
# 4 0.0000 0.0000 0.0000 -16.0760 0.0000 -8.6032
# 5 -36.9853 -13.2603 -35.4256 0.0000 29.1168 0.0000
# 6 0.0000 0.0000 0.0000 -8.6032 0.0000 2.4091
#
#
#
# Elastic Compliance Matrix: (Units=1/GPa)
#
#
# Indices 1 2 3 4 5 6 
#
# 1 0.038581 -0.017803 0.003564 0.000000 0.045236 0.000000
# 2 -0.017803 0.069605 -0.011500 0.000000 -0.004907 0.000000
# 3 0.003564 -0.011500 0.012335 0.000000 0.014297 0.000000
# 4 0.000000 0.000000 0.000000 -0.021368 0.000000 -0.076308
# 5 0.045236 -0.004907 0.014297 0.000000 0.106965 0.000000
# 6 0.000000 0.000000 0.000000 -0.076308 0.000000 0.142589
#
#
# Mechanical properties :
#
#
# Convention : Reuss Voigt Hill
#
# Bulk Modulus (GPa) = 14.48373 48.66169 31.57271
# Shear Modulus (GPa) = 11.81479 12.51562 12.16521
#
# Velocity S-wave (km/s) = 2.58336 2.65888 2.62139
# Velocity P-wave (km/s) = 4.13276 6.07565 5.19582
#
# Compressibility (1/GPa) = 0.06904300
#
# Stress axis : x y z
#
# Youngs Moduli (GPa) = 25.91937 14.36688 81.07189
#
# Poissons Ratio (x) = 0.25577 -0.28895
# Poissons Ratio (y) = 0.46144 0.93234
# Poissons Ratio (z) = -0.09238 0.16522
#
# Static dielectric constant tensor:
#      x y z
#    x 1.596940 0.000000 0.000500 
#    y 0.000000 1.595280 0.000000 
#    z 0.000500 0.000000 1.625230 
# 
# From -- ./inp_files/90653.got.cif
#   From: 2010.05.17/outbox.cif.g08.bks.cpg/sg10_46_cif.got.tgz:90653.got - 2010.06.03 11:33:40.
