data_PCOD9142382
_publ_section_title
;
Structure prediction by ZEFSAII (Michael W. Deem and Ramdas Pophale) SiO2 
 PCOD9142382
Probable space group: P 2/M
;
_chemical_formula_sum "Si O2"
_cell_formula_units_Z 24
_cell_length_a 19.155312
_cell_length_b 17.956013
_cell_length_c 12.266931
_cell_angle_alpha 90.000000
_cell_angle_beta 162.365010
_cell_angle_gamma 90.000000
_cell_volume 1278.229394
_symmetry_space_group_name_H-M "P 2/M"
_symmetry_group_IT_number 10
_symmetry_cell_setting 'monoclinic'
loop_
_space_group_symop_operation_xyz
x,y,z
-x,y,-z
-x,-y,-z
x,-y,z
loop_
_atom_site_type_symbol
_atom_site_label
_atom_site_fract_x
_atom_site_fract_y
_atom_site_fract_z
Si Si1 0.676865 0.706898 0.665825
Si Si2 0.934653 0.186182 0.743565
Si Si3 0.565349 0.686182 0.256437
Si Si4 0.451190 0.084013 0.796410
Si Si5 0.823134 0.206898 0.334175
Si Si6 0.048810 0.415987 0.203590
O O1 0.500000 0.717492 0.500000
O O2 0.557318 0.682421 0.375747
O O3 0.821191 0.782184 0.855619
O O4 0.865259 0.643341 0.976740
O O5 0.750001 0.250000 0.500003
O O6 0.811091 0.112850 0.605365
O O7 0.942681 0.182421 0.624252
O O8 0.688909 0.612850 0.394635
O O9 0.321193 0.717816 0.855621
O O10 0.483670 0.000000 0.805522
O O11 0.500000 0.085698 0.000000
O O12 0.634741 0.143341 0.023259
O O13 0.000000 0.217493 0.500000
O O14 0.016329 0.500000 0.194478
O O15 0.000000 0.414302 0.000000
#
# Coordination Sequence:
#
# PCOD9142382 Si02
#       6
#     4   4   4   4   4   4
#     4  10  18  28  46  70  92 113 142 186 227 256
#     4   9  17  30  47  65  88 119 151 179 212 262
#     4   9  17  30  47  65  88 119 151 179 212 262
#     4   8  15  28  45  64  86 116 151 180 211 257
#     4  10  18  28  46  70  92 113 142 186 227 256
#     4   8  15  28  45  64  86 116 151 180 211 257
#
# _framework density 18.775973
#
# number of rings (size 3 to 8) (size 9 to 14) (size 15 to 20)
#    0.000    3.000    0.000    4.000    0.000    0.667 
#    0.000    0.000    0.000   17.000    0.000    0.000 
#    0.000    0.000    0.000    0.000    0.000    0.000 
#
# Total GULP energy -133655.135902 kJ/mol
# GULP energy per Si atom -5568.963996 kJ/mol
# Density = 1.873324 g / cm^3
# Si number density = 18.775973 Si / 1000 Ang^3
#
#
#
# Elastic Constant Matrix: (Units=GPa)
#
#
# Indices 1 2 3 4 5 6 
#
# 1 62.6244 -6.3512 17.8146 0.0000 13.6388 0.0000
# 2 -6.3512 75.5005 25.1884 0.0000 8.3528 0.0000
# 3 17.8146 25.1884 57.4013 0.0000 11.5528 0.0000
# 4 0.0000 0.0000 0.0000 21.1139 0.0000 2.5075
# 5 13.6388 8.3528 11.5528 0.0000 26.7935 0.0000
# 6 0.0000 0.0000 0.0000 2.5075 0.0000 13.2101
#
#
#
# Elastic Compliance Matrix: (Units=1/GPa)
#
#
# Indices 1 2 3 4 5 6 
#
# 1 0.020324 0.004927 -0.006656 0.000000 -0.009012 0.000000
# 2 0.004927 0.016818 -0.008047 0.000000 -0.004281 0.000000
# 3 -0.006656 -0.008047 0.023906 0.000000 -0.004411 0.000000
# 4 0.000000 0.000000 0.000000 0.048455 0.000000 -0.009198
# 5 -0.009012 -0.004281 -0.004411 0.000000 0.045146 0.000000
# 6 0.000000 0.000000 0.000000 -0.009198 0.000000 0.077446
#
#
# Mechanical properties :
#
#
# Convention : Reuss Voigt Hill
#
# Bulk Modulus (GPa) = 24.09899 29.86997 26.98448
# Shear Modulus (GPa) = 18.83391 22.81512 20.82452
#
# Velocity S-wave (km/s) = 3.17059 3.48964 3.33394
# Velocity P-wave (km/s) = 5.12508 5.67274 5.40585
#
# Compressibility (1/GPa) = 0.04149551
#
# Stress axis : x y z
#
# Youngs Moduli (GPa) = 49.20296 59.46066 41.83060
#
# Poissons Ratio (x) = -0.29298 0.27842
# Poissons Ratio (y) = -0.24243 0.33663
# Poissons Ratio (z) = 0.32749 0.47850
#
# Static dielectric constant tensor:
#      x y z
#    x 1.640890 0.000000 -0.044730 
#    y 0.000000 1.671980 0.000000 
#    z -0.044730 0.000000 1.707760 
# 
# From -- ./inp_files/19300.got.cif
#   From: 2010.05.17/outbox.cif.g08.bks.cpg/sg10_10_cif.got.tgz:19300.got - 2010.06.03 11:33:40.
