data_PCOD9142544
_publ_section_title
;
Structure prediction by ZEFSAII (Michael W. Deem and Ramdas Pophale) SiO2 
 PCOD9142544
Probable space group: P 2/M
;
_chemical_formula_sum "Si O2"
_cell_formula_units_Z 32
_cell_length_a 14.658520
_cell_length_b 19.662969
_cell_length_c 19.423269
_cell_angle_alpha 90.000000
_cell_angle_beta 19.582841
_cell_angle_gamma 90.000000
_cell_volume 1876.402226
_symmetry_space_group_name_H-M "P 2/M"
_symmetry_group_IT_number 10
_symmetry_cell_setting 'monoclinic'
loop_
_space_group_symop_operation_xyz
x,y,z
-x,y,-z
-x,-y,-z
x,-y,z
loop_
_atom_site_type_symbol
_atom_site_label
_atom_site_fract_x
_atom_site_fract_y
_atom_site_fract_z
Si Si1 0.909417 0.830373 0.420095
Si Si2 0.049270 0.315683 0.331898
Si Si3 0.931529 0.923212 0.162848
Si Si4 0.558345 0.311253 0.074376
Si Si5 0.442897 0.923908 0.695227
Si Si6 0.676939 0.922179 0.802514
Si Si7 0.249032 0.833636 0.039307
Si Si8 0.256183 0.577340 0.370703
O O1 0.648202 0.869218 0.578466
O O2 0.867914 0.751958 0.467615
O O3 0.063764 0.874835 0.367490
O O4 0.119781 0.826687 0.206769
O O5 0.289032 0.303402 0.217864
O O6 0.872380 0.381473 0.474664
O O7 0.198164 0.323832 0.152901
O O8 0.018875 0.865820 0.154419
O O9 0.667362 0.910252 0.303422
O O10 0.909732 0.000000 0.208435
O O11 0.182276 0.925155 0.930567
O O12 0.487883 0.375167 0.172448
O O13 0.629727 0.240791 0.062411
O O14 0.565648 0.000000 0.608901
O O15 0.746490 0.000000 0.737667
O O16 0.500000 0.923113 0.000000
O O17 0.489833 0.888454 0.877035
O O18 0.340825 0.500000 0.324349
O O19 0.000000 0.574540 0.500000
#
# Coordination Sequence:
#
# PCOD9142544 Si02
#       8
#     4   4   4   4   4   4   4   4
#     4  10  18  29  46  67  90 121 159 195 238 288
#     4   9  17  30  46  67  98 130 157 192 239 284
#     4   9  19  34  47  61  87 123 161 204 251 288
#     4   9  17  30  46  67  98 130 157 192 239 284
#     4   9  19  34  47  61  87 123 161 204 251 288
#     4   9  16  26  41  63  91 120 152 193 236 280
#     4  10  18  29  46  67  90 121 159 195 238 288
#     4   9  18  30  46  70  95 126 165 193 222 278
#
# _framework density 17.053913000000001
#
# number of rings (size 3 to 8) (size 9 to 14) (size 15 to 20)
#    0.000    2.750    1.250    1.500    1.750    2.500 
#    0.000    4.375    0.000    2.250    0.000    0.000 
#    0.000    2.000    0.000    5.500    0.000    0.250 
#
# Total GULP energy -178420.515439 kJ/mol
# GULP energy per Si atom -5575.641107 kJ/mol
# Density = 1.701510 g / cm^3
# Si number density = 17.053913 Si / 1000 Ang^3
#
#
#
# Elastic Constant Matrix: (Units=GPa)
#
#
# Indices 1 2 3 4 5 6 
#
# 1 33.5889 31.3889 6.8367 0.0000 -2.4548 0.0000
# 2 31.3889 142.0206 34.5430 0.0000 -3.1675 0.0000
# 3 6.8367 34.5430 48.5714 0.0000 -0.7189 0.0000
# 4 0.0000 0.0000 0.0000 16.5139 0.0000 0.4181
# 5 -2.4548 -3.1675 -0.7189 0.0000 19.9602 0.0000
# 6 0.0000 0.0000 0.0000 0.4181 0.0000 15.0785
#
#
#
# Elastic Compliance Matrix: (Units=1/GPa)
#
#
# Indices 1 2 3 4 5 6 
#
# 1 0.037763 -0.008453 0.000746 0.000000 0.003330 0.000000
# 2 -0.008453 0.010432 -0.006223 0.000000 0.000392 0.000000
# 3 0.000746 -0.006223 0.024909 0.000000 0.000001 0.000000
# 4 0.000000 0.000000 0.000000 0.060597 0.000000 -0.001680
# 5 0.003330 0.000392 0.000001 0.000000 0.050571 0.000000
# 6 0.000000 0.000000 0.000000 -0.001680 0.000000 0.066366
#
#
# Mechanical properties :
#
#
# Convention : Reuss Voigt Hill
#
# Bulk Modulus (GPa) = 22.10317 41.07978 31.59148
# Shear Modulus (GPa) = 17.03103 20.40469 18.71786
#
# Velocity S-wave (km/s) = 3.16358 3.46277 3.31655
# Velocity P-wave (km/s) = 5.13159 6.33468 5.76461
#
# Compressibility (1/GPa) = 0.04524238
#
# Stress axis : x y z
#
# Youngs Moduli (GPa) = 26.48091 95.85906 40.14580
#
# Poissons Ratio (x) = 0.81034 -0.02994
# Poissons Ratio (y) = 0.22385 0.24984
# Poissons Ratio (z) = -0.01975 0.59656
#
# Static dielectric constant tensor:
#      x y z
#    x 1.593760 0.000000 0.042050 
#    y 0.000000 1.578290 0.000000 
#    z 0.042050 0.000000 1.612600 
# 
# From -- ./inp_files/70857.got.cif
#   From: 2010.05.17/outbox.cif.g08.bks.cpg/sg10_36_cif.got.tgz:70857.got - 2010.06.03 11:33:40.
