data_PCOD9142446
_publ_section_title
;
Structure prediction by ZEFSAII (Michael W. Deem and Ramdas Pophale) SiO2 
 PCOD9142446
Probable space group: P 2/M
;
_chemical_formula_sum "Si O2"
_cell_formula_units_Z 21
_cell_length_a 7.676276
_cell_length_b 9.437799
_cell_length_c 12.580024
_cell_angle_alpha 90.000000
_cell_angle_beta 110.226952
_cell_angle_gamma 90.000000
_cell_volume 855.182103
_symmetry_space_group_name_H-M "P 2/M"
_symmetry_group_IT_number 10
_symmetry_cell_setting 'monoclinic'
loop_
_space_group_symop_operation_xyz
x,y,z
-x,y,-z
-x,-y,-z
x,-y,z
loop_
_atom_site_type_symbol
_atom_site_label
_atom_site_fract_x
_atom_site_fract_y
_atom_site_fract_z
Si Si1 0.672105 0.660935 0.242491
Si Si2 0.842072 0.170378 0.845288
Si Si3 0.880825 0.349075 0.661768
Si Si4 0.339916 0.785505 0.545737
Si Si5 0.235105 0.328546 0.973680
Si Si6 0.000000 0.000000 0.500000
O O1 0.607403 0.500000 0.244397
O O2 0.594986 0.757591 0.320187
O O3 0.652402 0.691599 0.112348
O O4 0.897973 0.664109 0.309139
O O5 0.812034 0.218530 0.718506
O O6 0.043669 0.244838 0.906151
O O7 0.843990 0.000000 0.858809
O O8 0.715504 0.250753 0.905498
O O9 0.856694 0.500000 0.715122
O O10 0.752157 0.349847 0.531409
O O11 0.500000 0.835336 0.500000
O O12 0.160712 0.881999 0.515983
O O13 0.214121 0.500000 0.982882
#
# Coordination Sequence:
#
# PCOD9142446 Si02
#       6
#     4   4   4   4   4   1
#     4   9  18  35  59  87 122 164 211 270 326 372
#     4  10  18  28  49  82 120 165 220 271 324 386
#     4  10  20  36  60  88 126 171 216 270 326 379
#     4  12  25  41  66  95 127 170 214 260 317 379
#     4   9  16  29  50  80 119 164 219 273 325 383
#     4  12  26  48  62  90 134 176 208 260 316 388
#
# _framework density 24.556172
#
# number of rings (size 3 to 8) (size 9 to 14) (size 15 to 20)
#    0.000    1.905    1.905    5.429    1.333    3.048 
#    1.714    0.000    0.000    1.143    0.000    5.333 
#    0.000    0.000    0.000    0.000    0.000    0.000 
#
# Total GULP energy -116904.721020 kJ/mol
# GULP energy per Si atom -5566.891477 kJ/mol
# Density = 2.450028 g / cm^3
# Si number density = 24.556172 Si / 1000 Ang^3
#
#
#
# Elastic Constant Matrix: (Units=GPa)
#
#
# Indices 1 2 3 4 5 6 
#
# 1 139.2658 60.6474 33.9871 0.0000 -29.4988 0.0000
# 2 60.6474 187.3266 51.7818 0.0000 -36.1747 0.0000
# 3 33.9871 51.7818 151.7486 0.0000 -25.8546 0.0000
# 4 0.0000 0.0000 0.0000 285.4217 0.0000 -369.0652
# 5 -29.4988 -36.1747 -25.8546 0.0000 45.6262 0.0000
# 6 0.0000 0.0000 0.0000 -369.0652 0.0000 524.0037
#
#
#
# Elastic Compliance Matrix: (Units=1/GPa)
#
#
# Indices 1 2 3 4 5 6 
#
# 1 0.009034 -0.001987 -0.000685 0.000000 0.003878 0.000000
# 2 -0.001987 0.007037 -0.001355 0.000000 0.003527 0.000000
# 3 -0.000685 -0.001355 0.007690 0.000000 0.002840 0.000000
# 4 0.000000 0.000000 0.000000 0.039243 0.000000 0.027639
# 5 0.003878 0.003527 0.002840 0.000000 0.028830 0.000000
# 6 0.000000 0.000000 0.000000 0.027639 0.000000 0.021375
#
#
# Mechanical properties :
#
#
# Convention : Reuss Voigt Hill
#
# Bulk Modulus (GPa) = 63.66557 85.68597 74.67577
# Shear Modulus (GPa) = 39.52622 193.13864 116.33243
#
# Velocity S-wave (km/s) = 4.01637 8.87820 6.89034
# Velocity P-wave (km/s) = 6.89137 11.83496 9.68394
#
# Compressibility (1/GPa) = 0.01570708
#
# Stress axis : x y z
#
# Youngs Moduli (GPa) = 110.69097 142.10109 130.04546
#
# Poissons Ratio (x) = 0.28232 0.08905
# Poissons Ratio (y) = 0.21991 0.17627
# Poissons Ratio (z) = 0.07580 0.19261
#
# Static dielectric constant tensor:
#      x y z
#    x 1.991000 0.000000 0.025090 
#    y 0.000000 1.852650 0.000000 
#    z 0.025090 0.000000 2.092220 
# 
# From -- ./inp_files/60347.got.cif
#   From: 2010.05.17/outbox.cif.g08.bks.cpg/sg10_31_cif.got.tgz:60347.got - 2010.06.03 11:33:40.
