data_PCOD9142860
_publ_section_title
;
Structure prediction by ZEFSAII (Michael W. Deem and Ramdas Pophale) SiO2 
 PCOD9142860
Probable space group: P 2/M
;
_chemical_formula_sum "Si O2"
_cell_formula_units_Z 28
_cell_length_a 18.556805
_cell_length_b 9.037742
_cell_length_c 22.528924
_cell_angle_alpha 90.000000
_cell_angle_beta 26.443920
_cell_angle_gamma 90.000000
_cell_volume 1682.586530
_symmetry_space_group_name_H-M "P 2/M"
_symmetry_group_IT_number 10
_symmetry_cell_setting 'monoclinic'
loop_
_space_group_symop_operation_xyz
x,y,z
-x,y,-z
-x,-y,-z
x,-y,z
loop_
_atom_site_type_symbol
_atom_site_label
_atom_site_fract_x
_atom_site_fract_y
_atom_site_fract_z
Si Si1 0.461400 0.324443 0.890126
Si Si2 0.832200 0.177453 0.821227
Si Si3 0.959491 0.176934 0.225329
Si Si4 0.690968 0.325816 0.350017
Si Si5 0.805321 0.174370 0.144663
Si Si6 0.343950 0.826654 0.159272
Si Si7 0.743424 0.322207 0.067046
O O1 0.465684 0.500000 0.893015
O O2 0.615809 0.257670 0.809940
O O3 0.308050 0.260178 0.039202
O O4 0.415014 0.288887 0.856377
O O5 0.807302 0.219258 0.770720
O O6 0.992999 0.205050 0.740875
O O7 0.801159 0.000000 0.847162
O O8 0.793877 0.249178 0.326130
O O9 0.102344 0.247941 0.079702
O O10 0.957956 0.000000 0.216674
O O11 0.500000 0.309650 0.500000
O O12 0.730915 0.500000 0.318281
O O13 0.742096 0.248415 0.251183
O O14 0.767309 0.000000 0.171379
O O15 0.735950 0.255618 0.137971
O O16 0.000000 0.189603 0.000000
O O17 0.331119 0.000000 0.182269
O O18 0.500000 0.808626 0.000000
O O19 0.765157 0.500000 0.052402
#
# Coordination Sequence:
#
# PCOD9142860 Si02
#       7
#     4   4   4   4   4   4   4
#     4   9  16  23  34  57  86 117 153 191 232 276
#     4   8  15  25  37  55  82 117 155 191 231 280
#     4  10  18  30  48  69  93 123 162 205 243 284
#     4  11  24  39  54  73  99 131 163 199 248 300
#     4  11  22  35  54  78  98 124 165 208 246 289
#     4   8  13  22  34  50  78 118 154 185 228 278
#     4  10  19  30  46  68  96 128 160 199 244 289
#
# _framework density 16.641047
#
# number of rings (size 3 to 8) (size 9 to 14) (size 15 to 20)
#    0.000    2.429    1.429    3.000    0.000    6.571 
#    0.000    0.000    0.000    0.000    0.000    0.000 
#    0.000    1.143    0.000   12.857    0.000    7.286 
#
# Total GULP energy -155927.864429 kJ/mol
# GULP energy per Si atom -5568.852301 kJ/mol
# Density = 1.660317 g / cm^3
# Si number density = 16.641047 Si / 1000 Ang^3
#
#
#
# Elastic Constant Matrix: (Units=GPa)
#
#
# Indices 1 2 3 4 5 6 
#
# 1 192.9859 79.3190 23.4696 0.0000 -13.1942 0.0000
# 2 79.3190 84.1605 26.1838 0.0000 -3.6076 0.0000
# 3 23.4696 26.1838 23.4158 0.0000 -3.9896 0.0000
# 4 0.0000 0.0000 0.0000 108.7207 0.0000 -68.7404
# 5 -13.1942 -3.6076 -3.9896 0.0000 8.9365 0.0000
# 6 0.0000 0.0000 0.0000 -68.7404 0.0000 75.3610
#
#
#
# Elastic Compliance Matrix: (Units=1/GPa)
#
#
# Indices 1 2 3 4 5 6 
#
# 1 0.009438 -0.009306 0.002901 0.000000 0.011473 0.000000
# 2 -0.009306 0.027426 -0.023590 0.000000 -0.013199 0.000000
# 3 0.002901 -0.023590 0.070659 0.000000 0.026305 0.000000
# 4 0.000000 0.000000 0.000000 0.021730 0.000000 0.019821
# 5 0.011473 -0.013199 0.026305 0.000000 0.135256 0.000000
# 6 0.000000 0.000000 0.000000 0.019821 0.000000 0.031349
#
#
# Mechanical properties :
#
#
# Convention : Reuss Voigt Hill
#
# Bulk Modulus (GPa) = 21.03781 62.05633 41.54707
# Shear Modulus (GPa) = 13.45201 50.04296 31.74748
#
# Velocity S-wave (km/s) = 2.84626 5.48974 4.37255
# Velocity P-wave (km/s) = 4.84470 8.80654 7.10726
#
# Compressibility (1/GPa) = 0.04753348
#
# Stress axis : x y z
#
# Youngs Moduli (GPa) = 105.95245 36.46162 14.15257
#
# Poissons Ratio (x) = 0.33931 -0.04106
# Poissons Ratio (y) = 0.98599 0.33385
# Poissons Ratio (z) = -0.30737 0.86012
#
# Static dielectric constant tensor:
#      x y z
#    x 1.633450 0.000000 -0.019050 
#    y 0.000000 1.554120 0.000000 
#    z -0.019050 0.000000 1.516440 
# 
# From -- ./inp_files/85601.got.cif
#   From: 2010.05.17/outbox.cif.g08.bks.cpg/sg10_43_cif.got.tgz:85601.got - 2010.06.03 11:33:40.
