data_PCOD9142908
_publ_section_title
;
Structure prediction by ZEFSAII (Michael W. Deem and Ramdas Pophale) SiO2 
 PCOD9142908
Probable space group: P 2/M
;
_chemical_formula_sum "Si O2"
_cell_formula_units_Z 32
_cell_length_a 28.632927
_cell_length_b 7.632005
_cell_length_c 20.134003
_cell_angle_alpha 90.000000
_cell_angle_beta 23.492112
_cell_angle_gamma 90.000000
_cell_volume 1753.867053
_symmetry_space_group_name_H-M "P 2/M"
_symmetry_group_IT_number 10
_symmetry_cell_setting 'monoclinic'
loop_
_space_group_symop_operation_xyz
x,y,z
-x,y,-z
-x,-y,-z
x,-y,z
loop_
_atom_site_type_symbol
_atom_site_label
_atom_site_fract_x
_atom_site_fract_y
_atom_site_fract_z
Si Si1 0.680622 0.295204 0.394434
Si Si2 0.096259 0.713831 0.819286
Si Si3 0.418982 0.795716 0.754683
Si Si4 0.010032 0.714814 0.181187
Si Si5 0.793361 0.793768 0.879986
Si Si6 0.872103 0.711881 0.639759
Si Si7 0.720709 0.287428 0.193148
Si Si8 0.048817 0.296595 0.599271
O O1 0.710628 0.500000 0.348085
O O2 0.777891 0.224391 0.318174
O O3 0.547883 0.282180 0.591453
O O4 0.692147 0.222827 0.304589
O O5 0.095970 0.500000 0.816401
O O6 0.056596 0.772961 0.798217
O O7 0.000000 0.762820 0.000000
O O8 0.369295 0.775067 0.745099
O O9 0.431441 0.000000 0.753796
O O10 0.318712 0.722880 0.934364
O O11 0.009378 0.500000 0.183290
O O12 0.954192 0.779259 0.322948
O O13 0.146807 0.765033 0.998365
O O14 0.785290 0.770325 0.811044
O O15 0.914195 0.709510 0.748470
O O16 0.804354 0.000000 0.880319
O O17 0.869688 0.500000 0.641630
O O18 0.871279 0.776768 0.564819
O O19 0.000000 0.767045 0.500000
O O20 0.715176 0.500000 0.199530
O O21 0.082194 0.500000 0.562397
#
# Coordination Sequence:
#
# PCOD9142908 Si02
#       8
#     4   4   4   4   4   4   4   4
#     4  10  20  32  49  71  91 118 159 197 226 266
#     4   9  15  27  47  72  95 114 147 194 234 265
#     4  11  23  34  44  63  94 128 158 190 229 271
#     4   9  15  25  46  71  95 121 146 183 230 270
#     4  10  19  29  42  62  88 121 155 185 222 266
#     4   8  15  26  41  63  90 118 146 177 220 275
#     4  10  18  30  49  70  91 120 157 190 224 270
#     4   9  16  27  44  67  93 120 147 177 223 277
#
# _framework density 18.245397000000001
#
# number of rings (size 3 to 8) (size 9 to 14) (size 15 to 20)
#    0.000    2.500    2.500    1.875    0.000    5.750 
#    0.000    0.000    0.000    1.875    0.000    0.875 
#    0.000    7.000    0.000    0.000    0.000    0.000 
#
# Total GULP energy -178390.991556 kJ/mol
# GULP energy per Si atom -5574.718486 kJ/mol
# Density = 1.820387 g / cm^3
# Si number density = 18.245397 Si / 1000 Ang^3
#
#
#
# Elastic Constant Matrix: (Units=GPa)
#
#
# Indices 1 2 3 4 5 6 
#
# 1 129.3633 -6.4788 59.6839 0.0000 12.9594 0.0000
# 2 -6.4788 31.1135 -9.6980 0.0000 1.2876 0.0000
# 3 59.6839 -9.6980 56.9629 0.0000 0.8266 0.0000
# 4 0.0000 0.0000 0.0000 14.2176 0.0000 40.3174
# 5 12.9594 1.2876 0.8266 0.0000 33.6849 0.0000
# 6 0.0000 0.0000 0.0000 40.3174 0.0000 -30.2020
#
#
#
# Elastic Compliance Matrix: (Units=1/GPa)
#
#
# Indices 1 2 3 4 5 6 
#
# 1 0.016092 -0.001735 -0.017073 0.000000 -0.005706 0.000000
# 2 -0.001735 0.034198 0.007652 0.000000 -0.000828 0.000000
# 3 -0.017073 0.007652 0.036668 0.000000 0.005376 0.000000
# 4 0.000000 0.000000 0.000000 0.014698 0.000000 0.019620
# 5 -0.005706 -0.000828 0.005376 0.000000 0.031782 0.000000
# 6 0.000000 0.000000 0.000000 0.019620 0.000000 -0.006919
#
#
# Mechanical properties :
#
#
# Convention : Reuss Voigt Hill
#
# Bulk Modulus (GPa) = 15.46858 33.82821 24.64839
# Shear Modulus (GPa) = 29.34620 15.13559 22.24089
#
# Velocity S-wave (km/s) = 4.01486 2.88333 3.49519
# Velocity P-wave (km/s) = 5.47618 5.44662 5.46142
#
# Compressibility (1/GPa) = 0.06464717
#
# Stress axis : x y z
#
# Youngs Moduli (GPa) = 62.14353 29.24108 27.27137
#
# Poissons Ratio (x) = 0.05072 0.46560
# Poissons Ratio (y) = 0.10780 -0.20868
# Poissons Ratio (z) = 1.06097 -0.22375
#
# Static dielectric constant tensor:
#      x y z
#    x 1.641530 0.000000 0.044340 
#    y 0.000000 1.677040 0.000000 
#    z 0.044340 0.000000 1.626470 
# 
# From -- ./inp_files/55241.got.cif
#   From: 2010.05.17/outbox.cif.g08.bks.cpg/sg10_28_cif.got.tgz:55241.got - 2010.06.03 11:33:40.
