data_PCOD9142099
_publ_section_title
;
Structure prediction by ZEFSAII (Michael W. Deem and Ramdas Pophale) SiO2 
 PCOD9142099
Probable space group: P 2/M
;
_chemical_formula_sum "Si O2"
_cell_formula_units_Z 32
_cell_length_a 14.123324
_cell_length_b 14.883352
_cell_length_c 8.479204
_cell_angle_alpha 90.000000
_cell_angle_beta 86.381867
_cell_angle_gamma 90.000000
_cell_volume 1778.796486
_symmetry_space_group_name_H-M "P 2/M"
_symmetry_group_IT_number 10
_symmetry_cell_setting 'monoclinic'
loop_
_space_group_symop_operation_xyz
x,y,z
-x,y,-z
-x,-y,-z
x,-y,z
loop_
_atom_site_type_symbol
_atom_site_label
_atom_site_fract_x
_atom_site_fract_y
_atom_site_fract_z
Si Si1 0.754890 0.736498 0.994915
Si Si2 0.601325 0.141113 0.432609
Si Si3 0.449173 0.738365 0.860356
Si Si4 0.090331 0.394309 0.874921
Si Si5 0.206567 0.102514 0.772410
Si Si6 0.275667 0.269540 0.369535
Si Si7 0.909125 0.751806 0.399371
Si Si8 0.560360 0.604514 0.650937
O O1 0.751044 0.747840 0.808154
O O2 0.652466 0.707513 0.069163
O O3 0.827386 0.659642 0.041564
O O4 0.775194 0.831528 0.080528
O O5 0.500000 0.098934 0.500000
O O6 0.567086 0.204389 0.293843
O O7 0.695661 0.097613 0.342082
O O8 0.648975 0.196622 0.571104
O O9 0.515560 0.657400 0.801011
O O10 0.500000 0.788766 0.000000
O O11 0.111554 0.500000 0.837109
O O12 0.073374 0.330808 0.723671
O O13 0.000000 0.393314 0.000000
O O14 0.124769 0.157412 0.687273
O O15 0.180625 0.000000 0.814646
O O16 0.182762 0.270723 0.485758
O O17 0.332738 0.362090 0.379674
O O18 0.000000 0.765639 0.500000
O O19 0.500000 0.626288 0.500000
O O20 0.554859 0.500000 0.677232
#
# Coordination Sequence:
#
# PCOD9142099 Si02
#       8
#     4   4   4   4   4   4   4   4
#     4  10  21  35  60  80 112 159 189 237 287 340
#     4  10  17  32  57  80 111 151 191 230 286 338
#     4  11  18  33  53  77 110 154 194 233 280 334
#     4  10  22  40  60  85 116 148 191 239 283 339
#     4   9  21  38  58  88 117 146 187 237 290 347
#     4  11  19  37  56  80 111 151 196 234 282 345
#     4  10  22  39  65  87 111 151 188 234 292 344
#     4  11  22  33  50  79 115 152 193 242 284 334
#
# _framework density 17.98969
#
# number of rings (size 3 to 8) (size 9 to 14) (size 15 to 20)
#    0.000    1.750    3.750    1.500    0.000    2.500 
#    0.000    2.500    0.000   25.500    0.000    0.000 
#    0.000    0.000    0.000    0.000    0.000    0.000 
#
# Total GULP energy -178236.887089 kJ/mol
# GULP energy per Si atom -5569.902722 kJ/mol
# Density = 1.794874 g / cm^3
# Si number density = 17.989690 Si / 1000 Ang^3
#
#
#
# Elastic Constant Matrix: (Units=GPa)
#
#
# Indices 1 2 3 4 5 6 
#
# 1 109.7651 42.4911 36.3377 0.0000 11.3647 0.0000
# 2 42.4911 113.5507 41.8854 0.0000 11.2623 0.0000
# 3 36.3377 41.8854 86.8933 0.0000 20.1795 0.0000
# 4 0.0000 0.0000 0.0000 14.3060 0.0000 -8.3731
# 5 11.3647 11.2623 20.1795 0.0000 38.2576 0.0000
# 6 0.0000 0.0000 0.0000 -8.3731 0.0000 10.7333
#
#
#
# Elastic Compliance Matrix: (Units=1/GPa)
#
#
# Indices 1 2 3 4 5 6 
#
# 1 0.011403 -0.003036 -0.003106 0.000000 -0.000855 0.000000
# 2 -0.003036 0.011528 -0.004226 0.000000 -0.000263 0.000000
# 3 -0.003106 -0.004226 0.016343 0.000000 -0.006454 0.000000
# 4 0.000000 0.000000 0.000000 0.128633 0.000000 0.100348
# 5 -0.000855 -0.000263 -0.006454 0.000000 0.029874 0.000000
# 6 0.000000 0.000000 0.000000 0.100348 0.000000 0.171451
#
#
# Mechanical properties :
#
#
# Convention : Reuss Voigt Hill
#
# Bulk Modulus (GPa) = 53.94820 61.29307 57.62063
# Shear Modulus (GPa) = 12.62158 25.29237 18.95697
#
# Velocity S-wave (km/s) = 2.65165 3.75365 3.24970
# Velocity P-wave (km/s) = 6.27921 7.27542 6.79559
#
# Compressibility (1/GPa) = 0.01853630
#
# Stress axis : x y z
#
# Youngs Moduli (GPa) = 87.69938 86.74744 61.18750
#
# Poissons Ratio (x) = 0.26339 0.19007
# Poissons Ratio (y) = 0.26628 0.25858
# Poissons Ratio (z) = 0.27242 0.36660
#
# Static dielectric constant tensor:
#      x y z
#    x 1.628250 0.000000 0.006950 
#    y 0.000000 1.604420 0.000000 
#    z 0.006950 0.000000 1.634500 
# 
# From -- ./inp_files/25351.got.cif
#   From: 2010.05.17/outbox.cif.g08.bks.cpg/sg10_13_cif.got.tgz:25351.got - 2010.06.03 11:33:40.
