data_PCOD9142794
_publ_section_title
;
Structure prediction by ZEFSAII (Michael W. Deem and Ramdas Pophale) SiO2 
 PCOD9142794
Probable space group: P 2/M
;
_chemical_formula_sum "Si O2"
_cell_formula_units_Z 32
_cell_length_a 18.118420
_cell_length_b 8.988247
_cell_length_c 24.508439
_cell_angle_alpha 90.000000
_cell_angle_beta 149.359178
_cell_angle_gamma 90.000000
_cell_volume 2034.168266
_symmetry_space_group_name_H-M "P 2/M"
_symmetry_group_IT_number 10
_symmetry_cell_setting 'monoclinic'
loop_
_space_group_symop_operation_xyz
x,y,z
-x,y,-z
-x,-y,-z
x,-y,z
loop_
_atom_site_type_symbol
_atom_site_label
_atom_site_fract_x
_atom_site_fract_y
_atom_site_fract_z
Si Si1 0.122817 0.671610 0.625588
Si Si2 0.934172 0.679344 0.017765
Si Si3 0.182187 0.680766 0.259888
Si Si4 0.626182 0.821519 0.809581
Si Si5 0.449431 0.679210 0.354872
Si Si6 0.782562 0.679222 0.594399
Si Si7 0.671045 0.178190 0.324480
Si Si8 0.908441 0.177571 0.568014
O O1 0.147540 0.500000 0.655272
O O2 0.262493 0.744299 0.686356
O O3 0.000000 0.677584 0.500000
O O4 0.052464 0.758867 0.631185
O O5 0.918032 0.500000 0.009603
O O6 0.048593 0.726366 0.136745
O O7 0.778910 0.754871 0.925007
O O8 0.000000 0.715321 0.000000
O O9 0.182048 0.500000 0.260754
O O10 0.332149 0.723853 0.325869
O O11 0.175114 0.729965 0.317938
O O12 0.589718 0.756863 0.726725
O O13 0.492200 0.780477 0.763716
O O14 0.633072 0.000000 0.811181
O O15 0.438254 0.500000 0.340535
O O16 0.612976 0.713628 0.476504
O O17 0.797788 0.500000 0.600974
O O18 0.874412 0.752727 0.604787
O O19 0.774707 0.216539 0.442056
O O20 0.680030 0.000000 0.323367
O O21 0.915624 0.000000 0.575835
#
# Coordination Sequence:
#
# PCOD9142794 Si02
#       8
#     4   4   4   4   4   4   4   4
#     4   9  17  28  45  70  96 123 160 199 232 278
#     4  10  19  34  53  70  92 126 168 209 250 293
#     4   9  18  33  50  70  95 126 166 210 251 287
#     4  11  21  32  48  72 100 129 164 202 244 289
#     4  10  18  31  50  70  95 128 166 202 245 292
#     4  10  19  30  49  73  97 127 166 207 241 286
#     4   9  18  31  45  65  97 132 159 190 239 292
#     4  10  18  30  46  66  99 135 160 187 237 296
#
# _framework density 15.731246000000001
#
# number of rings (size 3 to 8) (size 9 to 14) (size 15 to 20)
#    0.000    2.250    2.500    1.500    0.000    4.750 
#    0.000    1.250    0.000    1.500    0.000    0.875 
#    0.000    7.000    0.000    0.000    0.000    0.000 
#
# Total GULP energy -178467.288291 kJ/mol
# GULP energy per Si atom -5577.102759 kJ/mol
# Density = 1.569544 g / cm^3
# Si number density = 15.731246 Si / 1000 Ang^3
#
#
#
# Elastic Constant Matrix: (Units=GPa)
#
#
# Indices 1 2 3 4 5 6 
#
# 1 170.8972 52.2437 76.9216 0.0000 9.7639 0.0000
# 2 52.2437 28.1078 29.3580 0.0000 2.3505 0.0000
# 3 76.9216 29.3580 74.1381 0.0000 -4.6869 0.0000
# 4 0.0000 0.0000 0.0000 11.5107 0.0000 12.5074
# 5 9.7639 2.3505 -4.6869 0.0000 21.6510 0.0000
# 6 0.0000 0.0000 0.0000 12.5074 0.0000 13.7340
#
#
#
# Elastic Compliance Matrix: (Units=1/GPa)
#
#
# Indices 1 2 3 4 5 6 
#
# 1 0.017169 -0.020732 -0.010089 0.000000 -0.007676 0.000000
# 2 -0.020732 0.088918 -0.013909 0.000000 -0.003315 0.000000
# 3 -0.010089 -0.013909 0.030262 0.000000 0.012611 0.000000
# 4 0.000000 0.000000 0.000000 8.315861 0.000000 -7.573196
# 5 -0.007676 -0.003315 0.012611 0.000000 0.052739 0.000000
# 6 0.000000 0.000000 0.000000 -7.573196 0.000000 6.969668
#
#
# Mechanical properties :
#
#
# Convention : Reuss Voigt Hill
#
# Bulk Modulus (GPa) = 21.32810 65.57663 43.45237
# Shear Modulus (GPa) = 0.32093 17.02046 8.67069
#
# Velocity S-wave (km/s) = 0.45216 3.29287 2.35026
# Velocity P-wave (km/s) = 3.72288 7.49890 5.92002
#
# Compressibility (1/GPa) = 0.04688650
#
# Stress axis : x y z
#
# Youngs Moduli (GPa) = 58.24399 11.24635 33.04514
#
# Poissons Ratio (x) = 0.23316 0.33340
# Poissons Ratio (y) = 1.20753 0.45964
# Poissons Ratio (z) = 0.58764 0.15643
#
# Static dielectric constant tensor:
#      x y z
#    x 1.514900 0.000000 0.005800 
#    y 0.000000 1.524850 0.000000 
#    z 0.005800 0.000000 1.506990 
# 
# From -- ./inp_files/52765.got.cif
#   From: 2010.05.17/outbox.cif.g08.bks.cpg/sg10_27_cif.got.tgz:52765.got - 2010.06.03 11:33:40.
