data_PCOD9142844
_publ_section_title
;
Structure prediction by ZEFSAII (Michael W. Deem and Ramdas Pophale) SiO2 
 PCOD9142844
Probable space group: P 2/M
;
_chemical_formula_sum "Si O2"
_cell_formula_units_Z 28
_cell_length_a 25.724591
_cell_length_b 7.362000
_cell_length_c 19.457244
_cell_angle_alpha 90.000000
_cell_angle_beta 19.412379
_cell_angle_gamma 90.000000
_cell_volume 1224.731209
_symmetry_space_group_name_H-M "P 2/M"
_symmetry_group_IT_number 10
_symmetry_cell_setting 'monoclinic'
loop_
_space_group_symop_operation_xyz
x,y,z
-x,y,-z
-x,-y,-z
x,-y,z
loop_
_atom_site_type_symbol
_atom_site_label
_atom_site_fract_x
_atom_site_fract_y
_atom_site_fract_z
Si Si1 0.646832 0.708009 0.774104
Si Si2 0.845793 0.790399 0.398525
Si Si3 0.156996 0.221578 0.081091
Si Si4 0.521483 0.778866 0.395576
Si Si5 0.645054 0.221913 0.529486
Si Si6 0.842087 0.780544 0.657956
Si Si7 0.327492 0.779564 0.000386
O O1 0.607665 0.500000 0.808300
O O2 0.705025 0.789326 0.629765
O O3 0.793735 0.716262 0.643319
O O4 0.500000 0.788880 0.000000
O O5 0.788316 0.713488 0.397468
O O6 0.998578 0.710284 0.244233
O O7 0.885014 0.000000 0.335867
O O8 0.192337 0.277105 0.115371
O O9 0.150492 0.000000 0.091275
O O10 0.310179 0.271516 0.845947
O O11 0.500000 0.715822 0.500000
O O12 0.387959 0.721909 0.507574
O O13 0.519173 0.000000 0.399410
O O14 0.649091 0.000000 0.524343
O O15 0.490082 0.276833 0.764800
O O16 0.706462 0.722705 0.880184
O O17 0.000000 0.723323 0.500000
O O18 0.849337 0.000000 0.644065
O O19 0.327051 0.000000 0.001859
#
# Coordination Sequence:
#
# PCOD9142844 Si02
#       7
#     4   4   4   4   4   4   4
#     4  11  24  37  47  65  97 133 165 202 251 300
#     4  10  18  30  48  67  88 117 159 206 240 272
#     4   8  14  24  40  63  89 118 151 187 226 270
#     4   8  13  23  39  62  97 131 147 167 223 295
#     4   8  14  23  38  60  84 115 152 184 218 266
#     4  10  19  31  50  73  92 118 162 209 249 289
#     4   8  13  23  38  57  81 108 145 189 226 267
#
# _framework density 22.862161
#
# number of rings (size 3 to 8) (size 9 to 14) (size 15 to 20)
#    0.000    3.000    0.000    3.857    0.000    4.857 
#    0.000    0.714    0.000    4.286    0.000    0.000 
#    0.000    3.429    0.000    0.000    0.000    0.000 
#
# Total GULP energy -156295.886795 kJ/mol
# GULP energy per Si atom -5581.995957 kJ/mol
# Density = 2.281013 g / cm^3
# Si number density = 22.862161 Si / 1000 Ang^3
#
#
#
# Elastic Constant Matrix: (Units=GPa)
#
#
# Indices 1 2 3 4 5 6 
#
# 1 188.7151 -0.8370 34.6709 0.0000 -9.7770 0.0000
# 2 -0.8370 82.4947 -2.7662 0.0000 -3.7996 0.0000
# 3 34.6709 -2.7662 35.0328 0.0000 -12.4117 0.0000
# 4 0.0000 0.0000 0.0000 -8.8509 0.0000 -15.2471
# 5 -9.7770 -3.7996 -12.4117 0.0000 40.7301 0.0000
# 6 0.0000 0.0000 0.0000 -15.2471 0.0000 12.2006
#
#
#
# Elastic Compliance Matrix: (Units=1/GPa)
#
#
# Indices 1 2 3 4 5 6 
#
# 1 0.006486 -0.000177 -0.006600 0.000000 -0.000471 0.000000
# 2 -0.000177 0.012253 0.001718 0.000000 0.001624 0.000000
# 3 -0.006600 0.001718 0.038909 0.000000 0.010433 0.000000
# 4 0.000000 0.000000 0.000000 -0.035836 0.000000 -0.044784
# 5 -0.000471 0.001624 0.010433 0.000000 0.027769 0.000000
# 6 0.000000 0.000000 0.000000 -0.044784 0.000000 0.025997
#
#
# Mechanical properties :
#
#
# Convention : Reuss Voigt Hill
#
# Bulk Modulus (GPa) = 21.03970 40.93090 30.98530
# Shear Modulus (GPa) = 49.24191 27.16096 38.20143
#
# Velocity S-wave (km/s) = 4.64601 3.45052 4.09216
# Velocity P-wave (km/s) = 6.16468 5.81524 5.99251
#
# Compressibility (1/GPa) = 0.04752919
#
# Stress axis : x y z
#
# Youngs Moduli (GPa) = 154.16845 81.61530 25.70132
#
# Poissons Ratio (x) = 0.01446 0.16963
# Poissons Ratio (y) = 0.02732 -0.04416
# Poissons Ratio (z) = 1.01754 -0.14023
#
# Static dielectric constant tensor:
#      x y z
#    x 1.848690 0.000000 -0.041340 
#    y 0.000000 1.904090 0.000000 
#    z -0.041340 0.000000 1.853050 
# 
# From -- ./inp_files/86663.got.cif
#   From: 2010.05.17/outbox.cif.g08.bks.cpg/sg10_44_cif.got.tgz:86663.got - 2010.06.03 11:33:40.
