data_PCOD9142034
_publ_section_title
;
Structure prediction by ZEFSAII (Michael W. Deem and Ramdas Pophale) SiO2 
 PCOD9142034
Probable space group: P 2/M
;
_chemical_formula_sum "Si O2"
_cell_formula_units_Z 32
_cell_length_a 27.894056
_cell_length_b 7.611992
_cell_length_c 21.722879
_cell_angle_alpha 90.000000
_cell_angle_beta 19.646698
_cell_angle_gamma 90.000000
_cell_volume 1550.779216
_symmetry_space_group_name_H-M "P 2/M"
_symmetry_group_IT_number 10
_symmetry_cell_setting 'monoclinic'
loop_
_space_group_symop_operation_xyz
x,y,z
-x,y,-z
-x,-y,-z
x,-y,z
loop_
_atom_site_type_symbol
_atom_site_label
_atom_site_fract_x
_atom_site_fract_y
_atom_site_fract_z
Si Si1 0.333321 0.714470 0.872327
Si Si2 0.991618 0.284519 0.741104
Si Si3 0.845928 0.285217 0.210876
Si Si4 0.529267 0.288721 0.165669
Si Si5 0.062589 0.698677 0.520762
Si Si6 0.212053 0.285142 0.578325
Si Si7 0.555846 0.285230 0.498778
Si Si8 0.793058 0.196424 0.776094
O O1 0.333540 0.500000 0.872359
O O2 0.388634 0.771515 0.872104
O O3 0.444674 0.769673 0.685730
O O4 0.172238 0.771347 0.054865
O O5 0.991245 0.500000 0.740037
O O6 0.051679 0.225504 0.602253
O O7 0.089054 0.229690 0.680137
O O8 0.846697 0.500000 0.210005
O O9 0.815370 0.230203 0.318157
O O10 0.714560 0.230011 0.326404
O O11 0.000000 0.227905 0.000000
O O12 0.524787 0.500000 0.172482
O O13 0.366742 0.227145 0.366700
O O14 0.629511 0.237747 0.987733
O O15 0.115749 0.500000 0.461999
O O16 0.160139 0.786820 0.351165
O O17 0.903237 0.692817 0.684135
O O18 0.212858 0.500000 0.578070
O O19 0.500000 0.226897 0.500000
O O20 0.557044 0.500000 0.496660
O O21 0.823111 0.000000 0.760331
#
# Coordination Sequence:
#
# PCOD9142034 Si02
#       8
#     4   4   4   4   4   4   4   4
#     4   9  15  25  41  62  90 124 166 207 240 282
#     4   9  17  27  44  69  92 120 162 209 246 283
#     4   9  16  24  34  54  90 133 166 194 242 299
#     4  10  17  31  51  70  94 132 171 204 243 292
#     4  10  18  32  52  75 102 131 165 201 246 299
#     4   9  17  28  43  65  95 129 167 207 245 289
#     4   9  16  23  33  55  89 130 166 197 240 295
#     4  11  21  32  50  76 103 128 161 205 253 295
#
# _framework density 20.634789000000001
#
# number of rings (size 3 to 8) (size 9 to 14) (size 15 to 20)
#    0.000    2.500    2.500    2.250    1.750    0.000 
#    0.000    0.625    0.000    5.250    0.000    0.000 
#    0.000    1.000    0.250    0.000    0.500    0.250 
#
# Total GULP energy -178625.465811 kJ/mol
# GULP energy per Si atom -5582.045807 kJ/mol
# Density = 2.058782 g / cm^3
# Si number density = 20.634789 Si / 1000 Ang^3
#
#
#
# Elastic Constant Matrix: (Units=GPa)
#
#
# Indices 1 2 3 4 5 6 
#
# 1 123.6239 2.4573 80.0226 0.0000 -13.8541 0.0000
# 2 2.4573 45.0738 4.4613 0.0000 -0.4338 0.0000
# 3 80.0226 4.4613 181.2555 0.0000 -7.2589 0.0000
# 4 0.0000 0.0000 0.0000 -31.2134 0.0000 -7.9488
# 5 -13.8541 -0.4338 -7.2589 0.0000 33.8172 0.0000
# 6 0.0000 0.0000 0.0000 -7.9488 0.0000 -52.4123
#
#
#
# Elastic Compliance Matrix: (Units=1/GPa)
#
#
# Indices 1 2 3 4 5 6 
#
# 1 0.011777 -0.000107 -0.005047 0.000000 0.003740 0.000000
# 2 -0.000107 0.022242 -0.000495 0.000000 0.000135 0.000000
# 3 -0.005047 -0.000495 0.007741 0.000000 -0.000412 0.000000
# 4 0.000000 0.000000 0.000000 -0.033325 0.000000 0.005054
# 5 0.003740 0.000135 -0.000412 0.000000 0.031016 0.000000
# 6 0.000000 0.000000 0.000000 0.005054 0.000000 -0.019846
#
#
# Mechanical properties :
#
#
# Convention : Reuss Voigt Hill
#
# Bulk Modulus (GPa) = 32.82676 58.20396 45.51536
# Shear Modulus (GPa) = 121.77923 7.57243 64.67583
#
# Velocity S-wave (km/s) = 7.69055 1.91773 5.60456
# Velocity P-wave (km/s) = 9.73665 5.75948 7.99919
#
# Compressibility (1/GPa) = 0.03046295
#
# Stress axis : x y z
#
# Youngs Moduli (GPa) = 84.90824 44.96008 129.18167
#
# Poissons Ratio (x) = 0.00479 0.65201
# Poissons Ratio (y) = 0.00904 0.06394
# Poissons Ratio (z) = 0.42855 0.02225
#
# Static dielectric constant tensor:
#      x y z
#    x 1.699000 0.000000 0.008460 
#    y 0.000000 1.748610 0.000000 
#    z 0.008460 0.000000 1.719750 
# 
# From -- ./inp_files/86794.got.cif
#   From: 2010.05.17/outbox.cif.g08.bks.cpg/sg10_44_cif.got.tgz:86794.got - 2010.06.03 11:33:40.
