data_PCOD9142586
_publ_section_title
;
Structure prediction by ZEFSAII (Michael W. Deem and Ramdas Pophale) SiO2 
 PCOD9142586
Probable space group: P 2/M
;
_chemical_formula_sum "Si O2"
_cell_formula_units_Z 28
_cell_length_a 21.999365
_cell_length_b 12.223314
_cell_length_c 17.729260
_cell_angle_alpha 90.000000
_cell_angle_beta 18.032103
_cell_angle_gamma 90.000000
_cell_volume 1475.775467
_symmetry_space_group_name_H-M "P 2/M"
_symmetry_group_IT_number 10
_symmetry_cell_setting 'monoclinic'
loop_
_space_group_symop_operation_xyz
x,y,z
-x,y,-z
-x,-y,-z
x,-y,z
loop_
_atom_site_type_symbol
_atom_site_label
_atom_site_fract_x
_atom_site_fract_y
_atom_site_fract_z
Si Si1 0.129650 0.765597 0.527877
Si Si2 0.105355 0.375408 0.075727
Si Si3 0.184924 0.000000 0.412703
Si Si4 0.467506 0.624595 0.351420
Si Si5 0.282221 0.625212 0.217777
Si Si6 0.704378 0.632876 0.295617
Si Si7 0.555286 0.234401 0.102246
Si Si8 0.619827 0.000000 0.977805
O O1 0.140072 0.688909 0.442202
O O2 0.350857 0.770482 0.298283
O O3 0.005392 0.708099 0.739662
O O4 0.079420 0.888946 0.563116
O O5 0.023404 0.500000 0.176251
O O6 0.327146 0.382597 0.845712
O O7 0.126369 0.338692 0.963713
O O8 0.231113 0.000000 0.268886
O O9 0.401812 0.000000 0.196379
O O10 0.422708 0.500000 0.377643
O O11 0.306522 0.661304 0.603405
O O12 0.504478 0.708096 0.240582
O O13 0.224386 0.500000 0.275612
O O14 0.500000 0.625144 0.000000
O O15 0.304636 0.688899 0.113080
O O16 0.500000 0.672904 0.500000
O O17 0.700195 0.500000 0.299800
O O18 0.635512 0.111057 0.007025
#
# Coordination Sequence:
#
# PCOD9142586 Si02
#       8
#     4   4   2   4   4   4   4   2
#     4  10  18  29  47  68  91 119 155 194 226 263
#     4   9  17  30  48  70  95 121 149 183 228 279
#     4   9  16  30  49  66  85 120 166 197 219 258
#     4   9  17  30  48  70  95 121 149 183 228 279
#     4   9  16  25  40  64  91 117 144 177 220 270
#     4   7  12  26  47  66  87 120 154 179 214 275
#     4  10  18  29  47  68  91 119 155 194 226 263
#     4   9  16  30  49  66  85 120 166 197 219 258
#
# _framework density 18.973075999999999
#
# number of rings (size 3 to 8) (size 9 to 14) (size 15 to 20)
#    0.000    3.000    1.429    2.571    0.000    1.714 
#    0.000    2.143    0.000    6.857    0.000    6.000 
#    0.000    0.000    0.000    0.000    0.000    0.000 
#
# Total GULP energy -156077.121597 kJ/mol
# GULP energy per Si atom -5574.182914 kJ/mol
# Density = 1.892989 g / cm^3
# Si number density = 18.973076 Si / 1000 Ang^3
#
#
#
# Elastic Constant Matrix: (Units=GPa)
#
#
# Indices 1 2 3 4 5 6 
#
# 1 71.6033 53.8189 43.7805 0.0000 32.2772 0.0000
# 2 53.8189 171.0629 73.0879 0.0000 53.9299 0.0000
# 3 43.7805 73.0879 100.0648 0.0000 47.3884 0.0000
# 4 0.0000 0.0000 0.0000 5.6260 0.0000 -1.0674
# 5 32.2772 53.9299 47.3884 0.0000 61.9736 0.0000
# 6 0.0000 0.0000 0.0000 -1.0674 0.0000 6.0007
#
#
#
# Elastic Compliance Matrix: (Units=1/GPa)
#
#
# Indices 1 2 3 4 5 6 
#
# 1 0.021435 -0.003208 -0.004813 0.000000 -0.004692 0.000000
# 2 -0.003208 0.009719 -0.003890 0.000000 -0.003812 0.000000
# 3 -0.004813 -0.003890 0.019048 0.000000 -0.008674 0.000000
# 4 0.000000 0.000000 0.000000 0.183953 0.000000 0.032722
# 5 -0.004692 -0.003812 -0.008674 0.000000 0.028529 0.000000
# 6 0.000000 0.000000 0.000000 0.032722 0.000000 0.172466
#
#
# Mechanical properties :
#
#
# Convention : Reuss Voigt Hill
#
# Bulk Modulus (GPa) = 37.90767 76.01174 56.95971
# Shear Modulus (GPa) = 10.68910 26.18966 18.43938
#
# Velocity S-wave (km/s) = 2.37614 3.71935 3.12087
# Velocity P-wave (km/s) = 5.24892 7.65472 6.56300
#
# Compressibility (1/GPa) = 0.02637989
#
# Stress axis : x y z
#
# Youngs Moduli (GPa) = 46.65270 102.89188 52.49892
#
# Poissons Ratio (x) = 0.33010 0.25268
# Poissons Ratio (y) = 0.14967 0.20420
# Poissons Ratio (z) = 0.22455 0.40022
#
# Static dielectric constant tensor:
#      x y z
#    x 1.712900 0.000000 -0.029240 
#    y 0.000000 1.634870 0.000000 
#    z -0.029240 0.000000 1.702450 
# 
# From -- ./inp_files/80225.got.cif
#   From: 2010.05.17/outbox.cif.g08.bks.cpg/sg10_41_cif.got.tgz:80225.got - 2010.06.03 11:33:40.
