data_PCOD9142457
_publ_section_title
;
Structure prediction by ZEFSAII (Michael W. Deem and Ramdas Pophale) SiO2 
 PCOD9142457
Probable space group: P 2/M
;
_chemical_formula_sum "Si O2"
_cell_formula_units_Z 30
_cell_length_a 14.047834
_cell_length_b 29.043122
_cell_length_c 12.237049
_cell_angle_alpha 90.000000
_cell_angle_beta 20.764551
_cell_angle_gamma 90.000000
_cell_volume 1770.029636
_symmetry_space_group_name_H-M "P 2/M"
_symmetry_group_IT_number 10
_symmetry_cell_setting 'monoclinic'
loop_
_space_group_symop_operation_xyz
x,y,z
-x,y,-z
-x,-y,-z
x,-y,z
loop_
_atom_site_type_symbol
_atom_site_label
_atom_site_fract_x
_atom_site_fract_y
_atom_site_fract_z
Si Si1 0.417072 0.733108 0.717107
Si Si2 0.534670 0.593581 0.660368
Si Si3 0.066491 0.108900 0.798420
Si Si4 0.716736 0.500000 0.362577
Si Si5 0.074532 0.786993 0.790415
Si Si6 0.925587 0.355024 0.952577
Si Si7 0.275957 0.446889 0.147097
Si Si8 0.564942 0.947651 0.299777
O O1 0.500000 0.729748 0.500000
O O2 0.693619 0.748865 0.476924
O O3 0.235158 0.687677 0.929213
O O4 0.205458 0.773757 0.963748
O O5 0.674367 0.545656 0.478842
O O6 0.783603 0.629254 0.404770
O O7 0.306863 0.606528 0.814807
O O8 0.371548 0.585214 0.946461
O O9 0.149777 0.160887 0.680970
O O10 0.299840 0.072254 0.529524
O O11 0.000000 0.109960 0.000000
O O12 0.800978 0.088806 0.028630
O O13 0.500000 0.500000 0.500000
O O14 0.000000 0.500000 0.000000
O O15 0.000000 0.785804 0.000000
O O16 0.000000 0.345788 0.000000
O O17 0.240545 0.500000 0.144887
O O18 0.000000 0.432410 0.500000
O O19 0.500000 0.447432 0.000000
O O20 0.500000 0.948416 0.500000
O O21 0.631403 0.000000 0.197550
#
# Coordination Sequence:
#
# PCOD9142457 Si02
#       8
#     4   4   4   2   4   4   4   4
#     4  10  18  29  42  57  78 108 141 171 208 249
#     4  12  23  38  54  76  98 126 155 184 220 263
#     4   9  15  22  31  44  59  80 114 157 203 248
#     4  12  24  36  50  72 102 130 154 178 207 250
#     4   9  16  25  38  52  68  92 130 175 209 245
#     4  12  23  35  51  70 100 129 154 178 214 271
#     4  10  21  39  61  79  97 119 152 193 229 259
#     4   9  15  21  28  39  58  82 108 144 199 265
#
# _framework density 16.948869999999999
#
# number of rings (size 3 to 8) (size 9 to 14) (size 15 to 20)
#    0.000    1.733    0.667    7.200    0.000    4.800 
#    0.000    0.000    0.000    0.000    0.000    0.000 
#    0.000    0.000    0.000    0.000    0.000    0.000 
#
# Total GULP energy -167138.360913 kJ/mol
# GULP energy per Si atom -5571.278697 kJ/mol
# Density = 1.691029 g / cm^3
# Si number density = 16.948870 Si / 1000 Ang^3
#
#
#
# Elastic Constant Matrix: (Units=GPa)
#
#
# Indices 1 2 3 4 5 6 
#
# 1 21.7351 9.1225 27.1349 0.0000 -13.1560 0.0000
# 2 9.1225 82.6968 34.1581 0.0000 -5.1702 0.0000
# 3 27.1349 34.1581 109.7579 0.0000 -22.3761 0.0000
# 4 0.0000 0.0000 0.0000 25.6165 0.0000 -14.9401
# 5 -13.1560 -5.1702 -22.3761 0.0000 27.4662 0.0000
# 6 0.0000 0.0000 0.0000 -14.9401 0.0000 8.9848
#
#
#
# Elastic Compliance Matrix: (Units=1/GPa)
#
#
# Indices 1 2 3 4 5 6 
#
# 1 0.080216 -0.001422 -0.013923 0.000000 0.026813 0.000000
# 2 -0.001422 0.013928 -0.004302 0.000000 -0.001564 0.000000
# 3 -0.013923 -0.004302 0.014830 0.000000 0.004603 0.000000
# 4 0.000000 0.000000 0.000000 1.292624 0.000000 2.149406
# 5 0.026813 -0.001564 0.004603 0.000000 0.052707 0.000000
# 6 0.000000 0.000000 0.000000 2.149406 0.000000 3.685382
#
#
# Mechanical properties :
#
#
# Convention : Reuss Voigt Hill
#
# Bulk Modulus (GPa) = 14.35089 39.44674 26.89882
# Shear Modulus (GPa) = 0.96113 21.99845 11.47979
#
# Velocity S-wave (km/s) = 0.75386 3.60659 2.60536
# Velocity P-wave (km/s) = 3.04028 6.37713 4.99555
#
# Compressibility (1/GPa) = 0.06968207
#
# Stress axis : x y z
#
# Youngs Moduli (GPa) = 12.46627 71.79578 67.42933
#
# Poissons Ratio (x) = 0.10207 0.93881
# Poissons Ratio (y) = 0.01772 0.29009
# Poissons Ratio (z) = 0.17357 0.30887
#
# Static dielectric constant tensor:
#      x y z
#    x 1.558440 0.000000 -0.019890 
#    y 0.000000 1.636540 0.000000 
#    z -0.019890 0.000000 1.573260 
# 
# From -- ./inp_files/52136.got.cif
#   From: 2010.05.17/outbox.cif.g08.bks.cpg/sg10_27_cif.got.tgz:52136.got - 2010.06.03 11:33:40.
