data_PCOD9142905
_publ_section_title
;
Structure prediction by ZEFSAII (Michael W. Deem and Ramdas Pophale) SiO2 
 PCOD9142905
Probable space group: P 2/M
;
_chemical_formula_sum "Si O2"
_cell_formula_units_Z 32
_cell_length_a 12.081745
_cell_length_b 8.802707
_cell_length_c 22.221903
_cell_angle_alpha 90.000000
_cell_angle_beta 57.289599
_cell_angle_gamma 90.000000
_cell_volume 1988.548651
_symmetry_space_group_name_H-M "P 2/M"
_symmetry_group_IT_number 10
_symmetry_cell_setting 'monoclinic'
loop_
_space_group_symop_operation_xyz
x,y,z
-x,y,-z
-x,-y,-z
x,-y,z
loop_
_atom_site_type_symbol
_atom_site_label
_atom_site_fract_x
_atom_site_fract_y
_atom_site_fract_z
Si Si1 0.400728 0.316181 0.360620
Si Si2 0.125151 0.684945 0.500985
Si Si3 0.446078 0.322118 0.920634
Si Si4 0.398095 0.818781 0.229016
Si Si5 0.122162 0.683840 0.641071
Si Si6 0.287573 0.677875 0.077686
Si Si7 0.416866 0.685134 0.583438
Si Si8 0.141384 0.181224 0.227389
O O1 0.402470 0.500000 0.356726
O O2 0.260708 0.268790 0.429979
O O3 0.413640 0.251174 0.290233
O O4 0.511359 0.268265 0.376232
O O5 0.124400 0.500000 0.501070
O O6 0.116962 0.731507 0.572658
O O7 0.000000 0.738002 0.500000
O O8 0.424226 0.500000 0.913355
O O9 0.484125 0.232838 0.849684
O O10 0.577711 0.313987 0.923000
O O11 0.328282 0.268005 0.998911
O O12 0.259982 0.768615 0.237890
O O13 0.395298 0.000000 0.233459
O O14 0.116401 0.500000 0.644913
O O15 0.264936 0.731802 0.623847
O O16 0.996517 0.748819 0.712129
O O17 0.251451 0.500000 0.084557
O O18 0.182847 0.767075 0.148238
O O19 0.500000 0.733968 0.500000
O O20 0.418754 0.500000 0.581447
O O21 0.135294 0.000000 0.231752
#
# Coordination Sequence:
#
# PCOD9142905 Si02
#       8
#     4   4   4   4   4   4   4   4
#     4  10  18  30  49  69  91 119 155 198 240 281
#     4   9  16  25  42  68  91 115 150 187 226 276
#     4   8  14  26  45  68  93 122 156 191 227 271
#     4  10  20  31  43  65  99 132 159 189 228 277
#     4  10  18  30  49  69  91 119 155 198 240 281
#     4   8  14  26  45  68  93 122 156 191 227 271
#     4   9  16  30  51  73  90 111 152 207 251 278
#     4  10  20  31  43  65  99 132 159 189 228 277
#
# _framework density 16.092137999999998
#
# number of rings (size 3 to 8) (size 9 to 14) (size 15 to 20)
#    0.000    2.750    1.250    2.250    0.000    3.000 
#    0.000    3.750    0.000    3.000    0.000    0.875 
#    0.000    7.000    0.000    0.000    0.000    0.000 
#
# Total GULP energy -178256.440209 kJ/mol
# GULP energy per Si atom -5570.513757 kJ/mol
# Density = 1.605551 g / cm^3
# Si number density = 16.092138 Si / 1000 Ang^3
#
#
#
# Elastic Constant Matrix: (Units=GPa)
#
#
# Indices 1 2 3 4 5 6 
#
# 1 111.6588 25.0567 79.5190 0.0000 -2.5407 0.0000
# 2 25.0567 18.8305 39.6583 0.0000 -1.7590 0.0000
# 3 79.5190 39.6583 172.0102 0.0000 -8.4276 0.0000
# 4 0.0000 0.0000 0.0000 -14.5904 0.0000 1.4237
# 5 -2.5407 -1.7590 -8.4276 0.0000 1.5763 0.0000
# 6 0.0000 0.0000 0.0000 1.4237 0.0000 11.0523
#
#
#
# Elastic Compliance Matrix: (Units=1/GPa)
#
#
# Indices 1 2 3 4 5 6 
#
# 1 0.014507 -0.009776 -0.005205 0.000000 -0.015354 0.000000
# 2 -0.009776 0.110131 -0.021168 0.000000 -0.006035 0.000000
# 3 -0.005205 -0.021168 0.015625 0.000000 0.051528 0.000000
# 4 0.000000 0.000000 0.000000 -0.067687 0.000000 0.008719
# 5 -0.015354 -0.006035 0.051528 0.000000 0.878421 0.000000
# 6 0.000000 0.000000 0.000000 0.008719 0.000000 0.089356
#
#
# Mechanical properties :
#
#
# Convention : Reuss Voigt Hill
#
# Bulk Modulus (GPa) = 14.71341 65.66304 40.18823
# Shear Modulus (GPa) = 4.40410 10.15867 7.28138
#
# Velocity S-wave (km/s) = 1.65612 2.51526 2.12947
# Velocity P-wave (km/s) = 3.58051 7.02342 5.57443
#
# Compressibility (1/GPa) = 0.06796519
#
# Stress axis : x y z
#
# Youngs Moduli (GPa) = 68.93268 9.08008 64.00124
#
# Poissons Ratio (x) = 0.08877 0.33311
# Poissons Ratio (y) = 0.67391 1.35476
# Poissons Ratio (z) = 0.35877 0.19221
#
# Static dielectric constant tensor:
#      x y z
#    x 1.526980 0.000000 -0.001050 
#    y 0.000000 1.536370 0.000000 
#    z -0.001050 0.000000 1.540290 
# 
# From -- ./inp_files/52704.got.cif
#   From: 2010.05.17/outbox.cif.g08.bks.cpg/sg10_27_cif.got.tgz:52704.got - 2010.06.03 11:33:40.
