data_PCOD9142007
_publ_section_title
;
Structure prediction by ZEFSAII (Michael W. Deem and Ramdas Pophale) SiO2 
 PCOD9142007
Probable space group: P 2/M
;
_chemical_formula_sum "Si O2"
_cell_formula_units_Z 32
_cell_length_a 9.126109
_cell_length_b 13.964245
_cell_length_c 24.225493
_cell_angle_alpha 90.000000
_cell_angle_beta 31.661078
_cell_angle_gamma 90.000000
_cell_volume 1620.492328
_symmetry_space_group_name_H-M "P 2/M"
_symmetry_group_IT_number 10
_symmetry_cell_setting 'monoclinic'
loop_
_space_group_symop_operation_xyz
x,y,z
-x,y,-z
-x,-y,-z
x,-y,z
loop_
_atom_site_type_symbol
_atom_site_label
_atom_site_fract_x
_atom_site_fract_y
_atom_site_fract_z
Si Si1 0.201792 0.388576 0.124191
Si Si2 0.765035 0.393582 0.529338
Si Si3 0.349803 0.392542 0.759409
Si Si4 0.834069 0.210400 0.440904
Si Si5 0.369812 0.887537 0.655568
Si Si6 0.147812 0.212352 0.223331
Si Si7 0.577476 0.807201 0.704005
Si Si8 0.675909 0.112676 0.106196
O O1 0.172209 0.500000 0.151723
O O2 0.165013 0.312246 0.185015
O O3 0.971806 0.372622 0.149940
O O4 0.500000 0.376468 0.000000
O O5 0.829390 0.500000 0.488274
O O6 0.485486 0.394787 0.654799
O O7 0.752373 0.316384 0.486286
O O8 0.000000 0.369470 0.500000
O O9 0.390032 0.500000 0.770086
O O10 0.498495 0.304151 0.741812
O O11 0.570067 0.144995 0.540692
O O12 0.973412 0.216810 0.336386
O O13 0.092923 0.177984 0.396218
O O14 0.476557 0.831871 0.675358
O O15 0.048895 0.858590 0.748728
O O16 0.396930 0.000000 0.655000
O O17 0.453817 0.170844 0.139936
O O18 0.427653 0.871063 0.797970
O O19 0.661672 0.000000 0.096630
O O20 0.000000 0.143511 0.000000
#
# Coordination Sequence:
#
# PCOD9142007 Si02
#       8
#     4   4   4   4   4   4   4   4
#     4  10  22  41  65  92 123 160 202 253 312 367
#     4  10  17  30  54  83 116 155 195 233 282 348
#     4  10  19  34  60  89 120 155 199 251 298 353
#     4  11  22  36  55  88 128 159 193 247 307 364
#     4  12  24  39  61  88 120 163 215 257 298 364
#     4  11  24  40  63  90 122 161 203 249 307 374
#     4  11  21  38  62  89 120 159 212 251 300 368
#     4  10  24  44  63  86 120 160 201 260 325 360
#
# _framework density 19.747085999999999
#
# number of rings (size 3 to 8) (size 9 to 14) (size 15 to 20)
#    0.000    1.375    3.750    1.500    1.750    4.500 
#    0.000    1.875    0.000    7.500    0.000    0.000 
#    0.000    0.000    0.000    0.000    0.000    0.000 
#
# Total GULP energy -178604.501791 kJ/mol
# GULP energy per Si atom -5581.390681 kJ/mol
# Density = 1.970214 g / cm^3
# Si number density = 19.747086 Si / 1000 Ang^3
#
#
#
# Elastic Constant Matrix: (Units=GPa)
#
#
# Indices 1 2 3 4 5 6 
#
# 1 53.4185 13.0801 12.7126 0.0000 -14.1851 0.0000
# 2 13.0801 94.1109 8.3164 0.0000 -4.8287 0.0000
# 3 12.7126 8.3164 76.5465 0.0000 -32.1321 0.0000
# 4 0.0000 0.0000 0.0000 27.2508 0.0000 -2.0199
# 5 -14.1851 -4.8287 -32.1321 0.0000 32.5773 0.0000
# 6 0.0000 0.0000 0.0000 -2.0199 0.0000 20.5822
#
#
#
# Elastic Compliance Matrix: (Units=1/GPa)
#
#
# Indices 1 2 3 4 5 6 
#
# 1 0.021793 -0.002593 0.000827 0.000000 0.009920 0.000000
# 2 -0.002593 0.011048 -0.000949 0.000000 -0.000428 0.000000
# 3 0.000827 -0.000949 0.022394 0.000000 0.022307 0.000000
# 4 0.000000 0.000000 0.000000 0.036965 0.000000 0.003628
# 5 0.009920 -0.000428 0.022307 0.000000 0.056954 0.000000
# 6 0.000000 0.000000 0.000000 0.003628 0.000000 0.048942
#
#
# Mechanical properties :
#
#
# Convention : Reuss Voigt Hill
#
# Bulk Modulus (GPa) = 20.07905 32.47713 26.27809
# Shear Modulus (GPa) = 22.71413 28.74651 25.73032
#
# Velocity S-wave (km/s) = 3.39522 3.81955 3.61362
# Velocity P-wave (km/s) = 5.05571 5.99451 5.54501
#
# Compressibility (1/GPa) = 0.04980316
#
# Stress axis : x y z
#
# Youngs Moduli (GPa) = 45.88729 90.51343 44.65567
#
# Poissons Ratio (x) = 0.23469 -0.03691
# Poissons Ratio (y) = 0.11898 0.04239
# Poissons Ratio (z) = -0.03793 0.08592
#
# Static dielectric constant tensor:
#      x y z
#    x 1.709970 0.000000 -0.033940 
#    y 0.000000 1.709360 0.000000 
#    z -0.033940 0.000000 1.719170 
# 
# From -- ./inp_files/88256.got.cif
#   From: 2010.05.17/outbox.cif.g08.bks.cpg/sg10_45_cif.got.tgz:88256.got - 2010.06.03 11:33:40.
