data_PCOD9142539
_publ_section_title
;
Structure prediction by ZEFSAII (Michael W. Deem and Ramdas Pophale) SiO2 
 PCOD9142539
Probable space group: P 2/M
;
_chemical_formula_sum "Si O2"
_cell_formula_units_Z 28
_cell_length_a 14.317105
_cell_length_b 8.954777
_cell_length_c 18.624674
_cell_angle_alpha 90.000000
_cell_angle_beta 49.389085
_cell_angle_gamma 90.000000
_cell_volume 1812.694962
_symmetry_space_group_name_H-M "P 2/M"
_symmetry_group_IT_number 10
_symmetry_cell_setting 'monoclinic'
loop_
_space_group_symop_operation_xyz
x,y,z
-x,y,-z
-x,-y,-z
x,-y,z
loop_
_atom_site_type_symbol
_atom_site_label
_atom_site_fract_x
_atom_site_fract_y
_atom_site_fract_z
Si Si1 0.245118 0.818964 0.973119
Si Si2 0.497963 0.181867 0.083623
Si Si3 0.129657 0.328175 0.478432
Si Si4 0.007503 0.322462 0.168020
Si Si5 0.751213 0.820488 0.713078
Si Si6 0.003505 0.821765 0.671427
Si Si7 0.126014 0.171464 0.890056
O O1 0.376947 0.775399 0.938557
O O2 0.226546 0.779828 0.898437
O O3 0.231830 0.000000 0.984701
O O4 0.135194 0.746093 0.073674
O O5 0.374534 0.229489 0.186262
O O6 0.495387 0.000000 0.083704
O O7 0.500000 0.232498 0.000000
O O8 0.160280 0.500000 0.478330
O O9 0.224997 0.253993 0.375782
O O10 0.000000 0.325538 0.500000
O O11 0.102490 0.238024 0.564513
O O12 0.016037 0.500000 0.166002
O O13 0.984265 0.255825 0.258078
O O14 0.902396 0.271197 0.164402
O O15 0.868410 0.786947 0.705496
O O16 0.748533 0.000000 0.705563
O O17 0.012210 0.000000 0.674315
O O18 0.149078 0.000000 0.856451
O O19 0.000000 0.171407 0.000000
#
# Coordination Sequence:
#
# PCOD9142539 Si02
#       7
#     4   4   4   4   4   4   4
#     4   9  17  30  46  63  87 120 153 183 215 254
#     4   9  16  27  45  68  91 117 152 187 212 242
#     4   9  17  29  44  63  89 117 145 180 221 262
#     4  11  20  28  42  65  91 116 144 182 227 268
#     4   9  17  29  46  66  88 118 153 183 213 254
#     4  10  18  29  46  66  89 116 147 182 219 261
#     4   8  15  28  44  61  83 113 148 182 218 261
#
# _framework density 15.446615
#
# number of rings (size 3 to 8) (size 9 to 14) (size 15 to 20)
#    0.000    2.714    0.000    3.857    0.000    7.143 
#    0.000    0.714    0.000    1.714    0.000    1.000 
#    0.000    8.000    0.000    0.000    0.000    0.000 
#
# Total GULP energy -156019.981477 kJ/mol
# GULP energy per Si atom -5572.142196 kJ/mol
# Density = 1.541146 g / cm^3
# Si number density = 15.446615 Si / 1000 Ang^3
#
#
#
# Elastic Constant Matrix: (Units=GPa)
#
#
# Indices 1 2 3 4 5 6 
#
# 1 102.8138 38.4844 67.7706 0.0000 14.7246 0.0000
# 2 38.4844 56.1258 51.8469 0.0000 16.5108 0.0000
# 3 67.7706 51.8469 134.9921 0.0000 14.3365 0.0000
# 4 0.0000 0.0000 0.0000 5.8572 0.0000 1.1416
# 5 14.7246 16.5108 14.3365 0.0000 23.0473 0.0000
# 6 0.0000 0.0000 0.0000 1.1416 0.0000 9.3649
#
#
#
# Elastic Compliance Matrix: (Units=1/GPa)
#
#
# Indices 1 2 3 4 5 6 
#
# 1 0.015690 -0.004415 -0.005838 0.000000 -0.003229 0.000000
# 2 -0.004415 0.033936 -0.009139 0.000000 -0.015806 0.000000
# 3 -0.005838 -0.009139 0.013660 0.000000 0.001780 0.000000
# 4 0.000000 0.000000 0.000000 0.174885 0.000000 -0.021319
# 5 -0.003229 -0.015806 0.001780 0.000000 0.055668 0.000000
# 6 0.000000 0.000000 0.000000 -0.021319 0.000000 0.109380
#
#
# Mechanical properties :
#
#
# Convention : Reuss Voigt Hill
#
# Bulk Modulus (GPa) = 40.81352 67.79284 54.30318
# Shear Modulus (GPa) = 11.10689 16.70920 13.90805
#
# Velocity S-wave (km/s) = 2.68442 3.29255 3.00391
# Velocity P-wave (km/s) = 6.00731 7.64449 6.87481
#
# Compressibility (1/GPa) = 0.02450168
#
# Stress axis : x y z
#
# Youngs Moduli (GPa) = 63.73637 29.46690 73.20799
#
# Poissons Ratio (x) = 0.13010 0.42739
# Poissons Ratio (y) = 0.28140 0.66904
# Poissons Ratio (z) = 0.37209 0.26929
#
# Static dielectric constant tensor:
#      x y z
#    x 1.520120 0.000000 0.008440 
#    y 0.000000 1.512330 0.000000 
#    z 0.008440 0.000000 1.496340 
# 
# From -- ./inp_files/54956.got.cif
#   From: 2010.05.17/outbox.cif.g08.bks.cpg/sg10_28_cif.got.tgz:54956.got - 2010.06.03 11:33:40.
