data_PCOD9142043
_publ_section_title
;
Structure prediction by ZEFSAII (Michael W. Deem and Ramdas Pophale) SiO2 
 PCOD9142043
Probable space group: P 2/M
;
_chemical_formula_sum "Si O2"
_cell_formula_units_Z 18
_cell_length_a 7.763689
_cell_length_b 14.352236
_cell_length_c 7.352383
_cell_angle_alpha 90.000000
_cell_angle_beta 96.612538
_cell_angle_gamma 90.000000
_cell_volume 813.798831
_symmetry_space_group_name_H-M "P 2/M"
_symmetry_group_IT_number 10
_symmetry_cell_setting 'monoclinic'
loop_
_space_group_symop_operation_xyz
x,y,z
-x,y,-z
-x,-y,-z
x,-y,z
loop_
_atom_site_type_symbol
_atom_site_label
_atom_site_fract_x
_atom_site_fract_y
_atom_site_fract_z
Si Si1 0.206333 0.000000 0.557799
Si Si2 0.801015 0.199738 0.999897
Si Si3 0.201534 0.198475 0.569021
Si Si4 0.337287 0.400226 0.611241
Si Si5 0.292314 0.000000 0.992836
Si Si6 0.500000 0.331449 0.000000
O O1 0.279532 0.899258 0.503013
O O2 0.000000 0.000000 0.500000
O O3 0.224472 0.000000 0.778249
O O4 0.769225 0.194343 0.211586
O O5 0.775825 0.094814 0.924408
O O6 0.647418 0.267777 0.919166
O O7 0.000000 0.230700 0.000000
O O8 0.253679 0.303906 0.531208
O O9 0.000000 0.192807 0.500000
O O10 0.500000 0.408692 0.500000
O O11 0.239612 0.500000 0.589262
O O12 0.402612 0.386578 0.827730
O O13 0.500000 0.000000 0.000000
#
# Coordination Sequence:
#
# PCOD9142043 Si02
#       6
#     2   4   4   4   2   2
#     4   8  16  33  53  79 117 156 189 239 308 354
#     4  10  20  33  56  84 114 159 198 242 304 356
#     4   9  19  35  57  82 115 150 194 246 293 362
#     4  10  22  39  61  85 114 158 199 245 308 356
#     4  10  17  31  52  82 120 157 204 248 296 364
#     4  10  21  39  60  84 120 151 196 256 297 356
#
# _framework density 22.118486999999998
#
# number of rings (size 3 to 8) (size 9 to 14) (size 15 to 20)
#    0.000    2.444    1.111    0.667    3.111    0.444 
#    0.000    0.556    0.000    3.333    0.000    0.000 
#    0.000    0.000    0.000    0.000    0.000    0.000 
#
# Total GULP energy -100222.065319 kJ/mol
# GULP energy per Si atom -5567.892518 kJ/mol
# Density = 2.206814 g / cm^3
# Si number density = 22.118487 Si / 1000 Ang^3
#
#
#
# Elastic Constant Matrix: (Units=GPa)
#
#
# Indices 1 2 3 4 5 6 
#
# 1 79.2043 41.8613 -13.5862 0.0000 9.3800 0.0000
# 2 41.8613 233.6662 -2.4498 0.0000 -0.3227 0.0000
# 3 -13.5862 -2.4498 65.7895 0.0000 7.0988 0.0000
# 4 0.0000 0.0000 0.0000 -336.1495 0.0000 -21.8627
# 5 9.3800 -0.3227 7.0988 0.0000 23.0890 0.0000
# 6 0.0000 0.0000 0.0000 -21.8627 0.0000 25.6811
#
#
#
# Elastic Compliance Matrix: (Units=1/GPa)
#
#
# Indices 1 2 3 4 5 6 
#
# 1 0.015675 -0.002777 0.003956 0.000000 -0.007623 0.000000
# 2 -0.002777 0.004773 -0.000543 0.000000 0.001362 0.000000
# 3 0.003956 -0.000543 0.016726 0.000000 -0.006757 0.000000
# 4 0.000000 0.000000 0.000000 -0.002819 0.000000 -0.002400
# 5 -0.007623 0.001362 -0.006757 0.000000 0.048504 0.000000
# 6 0.000000 0.000000 0.000000 -0.002400 0.000000 0.036896
#
#
# Mechanical properties :
#
#
# Convention : Reuss Voigt Hill
#
# Bulk Modulus (GPa) = 26.01019 47.81229 36.91124
# Shear Modulus (GPa) = 38.08116 -33.95354 2.06381
#
# Velocity S-wave (km/s) = 4.15383 -3.92225 0.96700
# Velocity P-wave (km/s) = 5.89836 1.07297 4.23922
#
# Compressibility (1/GPa) = 0.03844647
#
# Stress axis : x y z
#
# Youngs Moduli (GPa) = 63.79676 209.49723 59.78757
#
# Poissons Ratio (x) = 0.58181 -0.23653
# Poissons Ratio (y) = 0.17718 0.03245
# Poissons Ratio (z) = -0.25239 0.11370
#
# Static dielectric constant tensor:
#      x y z
#    x 1.773300 0.000000 0.009500 
#    y 0.000000 2.011060 0.000000 
#    z 0.009500 0.000000 1.855510 
# 
# From -- ./inp_files/17962.got.cif
#   From: 2010.05.17/outbox.cif.g08.bks.cpg/sg10_9_cif.got.tgz:17962.got - 2010.06.03 11:33:40.
