data_PCOD9142221
_publ_section_title
;
Structure prediction by ZEFSAII (Michael W. Deem and Ramdas Pophale) SiO2 
 PCOD9142221
Probable space group: P 2/M
;
_chemical_formula_sum "Si O2"
_cell_formula_units_Z 24
_cell_length_a 10.386651
_cell_length_b 7.567501
_cell_length_c 21.054393
_cell_angle_alpha 90.000000
_cell_angle_beta 48.700662
_cell_angle_gamma 90.000000
_cell_volume 1243.276758
_symmetry_space_group_name_H-M "P 2/M"
_symmetry_group_IT_number 10
_symmetry_cell_setting 'monoclinic'
loop_
_space_group_symop_operation_xyz
x,y,z
-x,y,-z
-x,-y,-z
x,-y,z
loop_
_atom_site_type_symbol
_atom_site_label
_atom_site_fract_x
_atom_site_fract_y
_atom_site_fract_z
Si Si1 0.729286 0.787461 0.601534
Si Si2 0.302165 0.785568 0.059676
Si Si3 0.939157 0.784435 0.420712
Si Si4 0.532422 0.293102 0.783096
Si Si5 0.859755 0.204205 0.759655
Si Si6 0.814329 0.291144 0.043646
O O1 0.774196 0.726835 0.515403
O O2 0.571476 0.724944 0.695508
O O3 0.895959 0.738695 0.589557
O O4 0.720824 0.000000 0.602960
O O5 0.193013 0.718592 0.155380
O O6 0.304569 0.000000 0.061759
O O7 0.500000 0.726469 0.000000
O O8 0.225396 0.731313 0.017540
O O9 0.989839 0.719374 0.334116
O O10 0.933851 0.000000 0.419822
O O11 0.540360 0.500000 0.797001
O O12 0.686749 0.207027 0.773052
O O13 0.349421 0.219810 0.864417
O O14 0.905988 0.000000 0.755987
O O15 0.820308 0.500000 0.056883
O O16 0.000000 0.215344 0.000000
#
# Coordination Sequence:
#
# PCOD9142221 Si02
#       6
#     4   4   4   4   4   4
#     4   8  13  23  39  58  84 117 150 179 219 271
#     4  10  19  31  50  75  96 118 152 195 239 276
#     4   7  11  21  38  59  84 118 148 172 213 274
#     4  10  18  27  42  64  88 117 154 191 229 266
#     4   9  16  28  45  65  93 121 147 180 225 278
#     4  10  22  37  49  64  92 129 163 193 229 277
#
# _framework density 19.303827999999999
#
# number of rings (size 3 to 8) (size 9 to 14) (size 15 to 20)
#    0.000    3.000    1.667    2.500    0.000    2.000 
#    0.000    6.667    0.000    0.000    0.000    1.167 
#    0.000    9.333    0.000    0.000    0.000    0.000 
#
# Total GULP energy -133603.056553 kJ/mol
# GULP energy per Si atom -5566.794023 kJ/mol
# Density = 1.925989 g / cm^3
# Si number density = 19.303828 Si / 1000 Ang^3
#
#
#
# Elastic Constant Matrix: (Units=GPa)
#
#
# Indices 1 2 3 4 5 6 
#
# 1 54.5537 -11.2646 44.5612 0.0000 -2.8613 0.0000
# 2 -11.2646 40.3398 -7.5635 0.0000 -0.7948 0.0000
# 3 44.5612 -7.5635 212.7622 0.0000 20.7344 0.0000
# 4 0.0000 0.0000 0.0000 20.2979 0.0000 11.8502
# 5 -2.8613 -0.7948 20.7344 0.0000 8.9935 0.0000
# 6 0.0000 0.0000 0.0000 11.8502 0.0000 22.5466
#
#
#
# Elastic Compliance Matrix: (Units=1/GPa)
#
#
# Indices 1 2 3 4 5 6 
#
# 1 0.028240 0.006864 -0.008519 0.000000 0.029233 0.000000
# 2 0.006864 0.026625 -0.001204 0.000000 0.007312 0.000000
# 3 -0.008519 -0.001204 0.008662 0.000000 -0.022788 0.000000
# 4 0.000000 0.000000 0.000000 0.071076 0.000000 -0.037356
# 5 0.029233 0.007312 -0.022788 0.000000 0.173674 0.000000
# 6 0.000000 0.000000 0.000000 -0.037356 0.000000 0.063987
#
#
# Mechanical properties :
#
#
# Convention : Reuss Voigt Hill
#
# Bulk Modulus (GPa) = 17.29820 39.90243 28.60031
# Shear Modulus (GPa) = 12.58651 29.16245 20.87448
#
# Velocity S-wave (km/s) = 2.55624 3.89100 3.29198
# Velocity P-wave (km/s) = 4.20630 6.39548 5.41272
#
# Compressibility (1/GPa) = 0.05780948
#
# Stress axis : x y z
#
# Youngs Moduli (GPa) = 35.41058 37.55921 115.44201
#
# Poissons Ratio (x) = -0.25782 0.98350
# Poissons Ratio (y) = -0.24307 0.13897
# Poissons Ratio (z) = 0.30168 0.04521
#
# Static dielectric constant tensor:
#      x y z
#    x 1.616740 0.000000 0.010200 
#    y 0.000000 1.711650 0.000000 
#    z 0.010200 0.000000 1.775100 
# 
# From -- ./inp_files/33972.got.cif
#   From: 2010.05.17/outbox.cif.g08.bks.cpg/sg10_17_cif.got.tgz:33972.got - 2010.06.03 11:33:40.
