data_PCOD9142754
_publ_section_title
;
Structure prediction by ZEFSAII (Michael W. Deem and Ramdas Pophale) SiO2 
 PCOD9142754
Probable space group: P 2/M
;
_chemical_formula_sum "Si O2"
_cell_formula_units_Z 32
_cell_length_a 11.929672
_cell_length_b 8.985376
_cell_length_c 20.102156
_cell_angle_alpha 90.000000
_cell_angle_beta 59.339936
_cell_angle_gamma 90.000000
_cell_volume 1853.577860
_symmetry_space_group_name_H-M "P 2/M"
_symmetry_group_IT_number 10
_symmetry_cell_setting 'monoclinic'
loop_
_space_group_symop_operation_xyz
x,y,z
-x,y,-z
-x,-y,-z
x,-y,z
loop_
_atom_site_type_symbol
_atom_site_label
_atom_site_fract_x
_atom_site_fract_y
_atom_site_fract_z
Si Si1 0.202232 0.821496 0.403541
Si Si2 0.303126 0.321173 0.874441
Si Si3 0.950689 0.322940 0.130589
Si Si4 0.922434 0.178456 0.421710
Si Si5 0.983839 0.324213 0.272249
Si Si6 0.733929 0.821856 0.829734
Si Si7 0.232297 0.822432 0.030103
Si Si8 0.413382 0.677716 0.246986
O O1 0.174062 0.781191 0.488753
O O2 0.323281 0.743702 0.332129
O O3 0.068711 0.786278 0.403916
O O4 0.217802 0.000000 0.395341
O O5 0.298150 0.500000 0.882961
O O6 0.171384 0.274255 0.876621
O O7 0.433982 0.284231 0.794602
O O8 0.306558 0.249106 0.946026
O O9 0.972238 0.500000 0.113143
O O10 0.923350 0.302075 0.217400
O O11 0.084247 0.238937 0.073635
O O12 0.902524 0.261798 0.358584
O O13 0.916507 0.000000 0.414300
O O14 0.008663 0.500000 0.273141
O O15 0.120687 0.236442 0.229915
O O16 0.710210 0.784964 0.914468
O O17 0.638906 0.744569 0.806530
O O18 0.729335 0.000000 0.822964
O O19 0.230990 0.000000 0.024607
O O20 0.399563 0.500000 0.249996
#
# Coordination Sequence:
#
# PCOD9142754 Si02
#       8
#     4   4   4   4   4   4   4   4
#     4   9  18  32  50  73 104 139 165 195 246 303
#     4  10  22  38  53  71 100 138 171 205 254 302
#     4   9  19  36  55  74 101 135 167 205 257 303
#     4   9  17  30  50  76 105 135 164 196 247 304
#     4  10  18  29  51  80 103 127 166 210 247 292
#     4  10  20  34  50  71 104 138 162 198 258 307
#     4  10  21  35  54  79 101 125 167 218 255 293
#     4  11  22  34  51  75 102 133 173 211 241 292
#
# _framework density 17.263909999999999
#
# number of rings (size 3 to 8) (size 9 to 14) (size 15 to 20)
#    0.000    2.250    1.250    2.625    0.000    6.000 
#    0.000    3.750    0.000    0.750    0.000    5.250 
#    0.000    0.000    0.000    0.000    0.000    0.000 
#
# Total GULP energy -178556.007176 kJ/mol
# GULP energy per Si atom -5579.875224 kJ/mol
# Density = 1.722462 g / cm^3
# Si number density = 17.263910 Si / 1000 Ang^3
#
#
#
# Elastic Constant Matrix: (Units=GPa)
#
#
# Indices 1 2 3 4 5 6 
#
# 1 5.5681 0.7317 7.1665 0.0000 -1.2801 0.0000
# 2 0.7317 22.2583 30.1501 0.0000 -0.5084 0.0000
# 3 7.1665 30.1501 113.1877 0.0000 1.4371 0.0000
# 4 0.0000 0.0000 0.0000 33.1017 0.0000 9.1446
# 5 -1.2801 -0.5084 1.4371 0.0000 18.0712 0.0000
# 6 0.0000 0.0000 0.0000 9.1446 0.0000 -75.8834
#
#
#
# Elastic Compliance Matrix: (Units=1/GPa)
#
#
# Indices 1 2 3 4 5 6 
#
# 1 0.204040 0.017910 -0.017898 0.000000 0.016380 0.000000
# 2 0.017910 0.072078 -0.020396 0.000000 0.004919 0.000000
# 3 -0.017898 -0.020396 0.015440 0.000000 -0.003069 0.000000
# 4 0.000000 0.000000 0.000000 0.029237 0.000000 0.003523
# 5 0.016380 0.004919 -0.003069 0.000000 0.056879 0.000000
# 6 0.000000 0.000000 0.000000 0.003523 0.000000 -0.012754
#
#
# Mechanical properties :
#
#
# Convention : Reuss Voigt Hill
#
# Bulk Modulus (GPa) = 3.98737 24.12341 14.05539
# Shear Modulus (GPa) = 10.21898 1.92228 6.07063
#
# Velocity S-wave (km/s) = 2.43559 1.05635 1.87723
# Velocity P-wave (km/s) = 3.19753 3.93592 3.58578
#
# Compressibility (1/GPa) = 0.25079190
#
# Stress axis : x y z
#
# Youngs Moduli (GPa) = 4.90099 13.87378 64.76665
#
# Poissons Ratio (x) = -0.24848 1.15917
# Poissons Ratio (y) = -0.08778 1.32099
# Poissons Ratio (z) = 0.08772 0.28297
#
# Static dielectric constant tensor:
#      x y z
#    x 1.571400 0.000000 0.014820 
#    y 0.000000 1.574160 0.000000 
#    z 0.014820 0.000000 1.596640 
# 
# From -- ./inp_files/55234.got.cif
#   From: 2010.05.17/outbox.cif.g08.bks.cpg/sg10_28_cif.got.tgz:55234.got - 2010.06.03 11:33:40.
