data_PCOD9142704
_publ_section_title
;
Structure prediction by ZEFSAII (Michael W. Deem and Ramdas Pophale) SiO2 
 PCOD9142704
Probable space group: P 2/M
;
_chemical_formula_sum "Si O2"
_cell_formula_units_Z 32
_cell_length_a 14.622745
_cell_length_b 7.389947
_cell_length_c 25.074010
_cell_angle_alpha 90.000000
_cell_angle_beta 149.445390
_cell_angle_gamma 90.000000
_cell_volume 1377.415163
_symmetry_space_group_name_H-M "P 2/M"
_symmetry_group_IT_number 10
_symmetry_cell_setting 'monoclinic'
loop_
_space_group_symop_operation_xyz
x,y,z
-x,y,-z
-x,-y,-z
x,-y,z
loop_
_atom_site_type_symbol
_atom_site_label
_atom_site_fract_x
_atom_site_fract_y
_atom_site_fract_z
Si Si1 0.795696 0.221537 0.904433
Si Si2 0.506973 0.215350 0.838630
Si Si3 0.861365 0.780061 0.386049
Si Si4 0.635392 0.282804 0.113902
Si Si5 0.520611 0.790289 0.676072
Si Si6 0.151299 0.781101 0.450328
Si Si7 0.024975 0.705840 0.275327
Si Si8 0.357954 0.280018 0.382954
O O1 0.695517 0.278899 0.908851
O O2 0.665779 0.282003 0.790645
O O3 0.802833 0.000000 0.906934
O O4 0.000000 0.283861 0.000000
O O5 0.341801 0.284784 0.719168
O O6 0.448758 0.244274 0.870391
O O7 0.509949 0.000000 0.833607
O O8 0.000000 0.715686 0.500000
O O9 0.961675 0.734424 0.381524
O O10 0.855706 0.000000 0.387856
O O11 0.647010 0.500000 0.117802
O O12 0.835425 0.212439 0.199359
O O13 0.500000 0.220524 0.000000
O O14 0.317647 0.716226 0.569721
O O15 0.589013 0.779382 0.649571
O O16 0.497357 0.000000 0.680057
O O17 0.150507 0.704889 0.390915
O O18 0.162217 0.000000 0.452433
O O19 0.986211 0.500000 0.239177
O O20 0.156963 0.785393 0.297225
O O21 0.500000 0.221045 0.500000
O O22 0.357599 0.500000 0.383334
#
# Coordination Sequence:
#
# PCOD9142704 Si02
#       8
#     4   4   4   4   4   4   4   4
#     4   9  19  36  56  80 112 145 177 218 268 316
#     4  10  19  34  58  83 106 139 181 220 261 314
#     4   9  16  27  47  76 106 134 167 211 262 311
#     4  10  22  39  57  78 108 144 179 220 269 318
#     4  10  20  33  53  81 109 141 180 221 267 317
#     4  10  18  29  49  77 106 132 169 219 264 308
#     4  10  20  35  53  72 101 141 177 211 264 321
#     4  10  20  34  52  75 106 145 182 218 266 322
#
# _framework density 23.231919999999999
#
# number of rings (size 3 to 8) (size 9 to 14) (size 15 to 20)
#    0.000    2.250    2.500    0.750    0.000    5.000 
#    0.000    0.625    0.000    3.750    0.000    0.000 
#    0.000    0.000    0.000    0.000    0.000    0.000 
#
# Total GULP energy -178640.327252 kJ/mol
# GULP energy per Si atom -5582.510227 kJ/mol
# Density = 2.317904 g / cm^3
# Si number density = 23.231920 Si / 1000 Ang^3
#
#
#
# Elastic Constant Matrix: (Units=GPa)
#
#
# Indices 1 2 3 4 5 6 
#
# 1 138.2856 -2.4131 65.1407 0.0000 35.7732 0.0000
# 2 -2.4131 80.5256 -0.0115 0.0000 8.0798 0.0000
# 3 65.1407 -0.0115 134.2236 0.0000 28.6126 0.0000
# 4 0.0000 0.0000 0.0000 4.1126 0.0000 -5.7905
# 5 35.7732 8.0798 28.6126 0.0000 44.8602 0.0000
# 6 0.0000 0.0000 0.0000 -5.7905 0.0000 18.0885
#
#
#
# Elastic Compliance Matrix: (Units=1/GPa)
#
#
# Indices 1 2 3 4 5 6 
#
# 1 0.010673 0.000944 -0.003853 0.000000 -0.006223 0.000000
# 2 0.000944 0.012767 0.000224 0.000000 -0.003195 0.000000
# 3 -0.003853 0.000224 0.010039 0.000000 -0.003371 0.000000
# 4 0.000000 0.000000 0.000000 0.442675 0.000000 0.141708
# 5 -0.006223 -0.003195 -0.003371 0.000000 0.029980 0.000000
# 6 0.000000 0.000000 0.000000 0.141708 0.000000 0.100647
#
#
# Mechanical properties :
#
#
# Convention : Reuss Voigt Hill
#
# Bulk Modulus (GPa) = 35.57609 53.16299 44.36954
# Shear Modulus (GPa) = 8.04479 32.76686 20.40582
#
# Velocity S-wave (km/s) = 1.86288 3.75964 2.96692
# Velocity P-wave (km/s) = 4.46921 6.46373 5.55669
#
# Compressibility (1/GPa) = 0.02810877
#
# Stress axis : x y z
#
# Youngs Moduli (GPa) = 93.69641 78.32506 99.61447
#
# Poissons Ratio (x) = -0.07392 0.38381
# Poissons Ratio (y) = -0.08842 -0.02233
# Poissons Ratio (z) = 0.36100 -0.01756
#
# Static dielectric constant tensor:
#      x y z
#    x 1.890420 0.000000 0.021640 
#    y 0.000000 1.898220 0.000000 
#    z 0.021640 0.000000 1.862750 
# 
# From -- ./inp_files/66570.got.cif
#   From: 2010.05.17/outbox.cif.g08.bks.cpg/sg10_34_cif.got.tgz:66570.got - 2010.06.03 11:33:40.
