data_PCOD9142665
_publ_section_title
;
Structure prediction by ZEFSAII (Michael W. Deem and Ramdas Pophale) SiO2 
 PCOD9142665
Probable space group: P 2/M
;
_chemical_formula_sum "Si O2"
_cell_formula_units_Z 28
_cell_length_a 12.113946
_cell_length_b 7.418918
_cell_length_c 14.950680
_cell_angle_alpha 90.000000
_cell_angle_beta 110.756574
_cell_angle_gamma 90.000000
_cell_volume 1256.442671
_symmetry_space_group_name_H-M "P 2/M"
_symmetry_group_IT_number 10
_symmetry_cell_setting 'monoclinic'
loop_
_space_group_symop_operation_xyz
x,y,z
-x,y,-z
-x,-y,-z
x,-y,z
loop_
_atom_site_type_symbol
_atom_site_label
_atom_site_fract_x
_atom_site_fract_y
_atom_site_fract_z
Si Si1 0.848458 0.779991 0.547642
Si Si2 0.674020 0.282741 0.796710
Si Si3 0.611360 0.720700 0.973842
Si Si4 0.834306 0.712584 0.150097
Si Si5 0.943566 0.280670 0.888224
Si Si6 0.116274 0.784135 0.642010
Si Si7 0.383240 0.787582 0.418979
O O1 0.833324 0.725618 0.439305
O O2 0.740983 0.715210 0.577996
O O3 0.980394 0.719143 0.611890
O O4 0.850788 0.000000 0.551805
O O5 0.676808 0.500000 0.799881
O O6 0.612710 0.222486 0.870945
O O7 0.810134 0.217576 0.836876
O O8 0.613907 0.231237 0.686746
O O9 0.611420 0.500000 0.974283
O O10 0.500000 0.778818 0.000000
O O11 0.730638 0.782883 0.057406
O O12 0.838490 0.500000 0.132977
O O13 0.813403 0.735652 0.248988
O O14 0.963105 0.783136 0.159098
O O15 0.937326 0.500000 0.884971
O O16 0.000000 0.231489 0.000000
O O17 0.111514 0.000000 0.636680
O O18 0.500000 0.712124 0.500000
O O19 0.380778 0.000000 0.439490
#
# Coordination Sequence:
#
# PCOD9142665 Si02
#       7
#     4   4   4   4   4   4   4
#     4   8  16  33  52  69  93 129 166 197 240 297
#     4  10  19  33  54  76  98 128 166 207 244 285
#     4   9  18  32  49  70  99 133 163 191 234 293
#     4  10  18  29  48  74 100 126 159 198 240 288
#     4   9  15  27  49  74  98 127 162 197 238 289
#     4   9  17  31  52  72  94 126 162 200 242 290
#     4  10  21  36  53  72  98 132 167 203 247 296
#
# _framework density 22.285139000000001
#
# number of rings (size 3 to 8) (size 9 to 14) (size 15 to 20)
#    0.000    2.714    1.429    1.714    0.000    1.429 
#    0.000    2.857    0.000    1.714    0.000    0.000 
#    0.000    0.000    0.000    0.000    0.000    0.000 
#
# Total GULP energy -156361.630904 kJ/mol
# GULP energy per Si atom -5584.343961 kJ/mol
# Density = 2.223442 g / cm^3
# Si number density = 22.285139 Si / 1000 Ang^3
#
#
#
# Elastic Constant Matrix: (Units=GPa)
#
#
# Indices 1 2 3 4 5 6 
#
# 1 112.4301 4.1940 57.1236 0.0000 -17.7877 0.0000
# 2 4.1940 68.7034 -14.9374 0.0000 3.1701 0.0000
# 3 57.1236 -14.9374 154.3063 0.0000 -10.4321 0.0000
# 4 0.0000 0.0000 0.0000 12.4035 0.0000 -6.7015
# 5 -17.7877 3.1701 -10.4321 0.0000 27.8132 0.0000
# 6 0.0000 0.0000 0.0000 -6.7015 0.0000 -6.7118
#
#
#
# Elastic Compliance Matrix: (Units=1/GPa)
#
#
# Indices 1 2 3 4 5 6 
#
# 1 0.012139 -0.001960 -0.004251 0.000000 0.006392 0.000000
# 2 -0.001960 0.015223 0.002049 0.000000 -0.002220 0.000000
# 3 -0.004251 0.002049 0.008263 0.000000 0.000147 0.000000
# 4 0.000000 0.000000 0.000000 0.052371 0.000000 -0.052290
# 5 0.006392 -0.002220 0.000147 0.000000 0.040350 0.000000
# 6 0.000000 0.000000 0.000000 -0.052290 0.000000 -0.096782
#
#
# Mechanical properties :
#
#
# Convention : Reuss Voigt Hill
#
# Bulk Modulus (GPa) = 36.63039 47.57778 42.10409
# Shear Modulus (GPa) = 102.06403 25.97162 64.01783
#
# Velocity S-wave (km/s) = 6.77485 3.41753 5.36554
# Velocity P-wave (km/s) = 8.81311 6.08018 7.57098
#
# Compressibility (1/GPa) = 0.02729974
#
# Stress axis : x y z
#
# Youngs Moduli (GPa) = 82.37980 65.69024 121.02507
#
# Poissons Ratio (x) = 0.12877 0.51452
# Poissons Ratio (y) = 0.16149 -0.24801
# Poissons Ratio (z) = 0.35023 -0.13461
#
# Static dielectric constant tensor:
#      x y z
#    x 1.809380 0.000000 -0.008610 
#    y 0.000000 1.855140 0.000000 
#    z -0.008610 0.000000 1.792390 
# 
# From -- ./inp_files/49410.got.cif
#   From: 2010.05.17/outbox.cif.g08.bks.cpg/sg10_25_cif.got.tgz:49410.got - 2010.06.03 11:33:40.
