data_PCOD9142618
_publ_section_title
;
Structure prediction by ZEFSAII (Michael W. Deem and Ramdas Pophale) SiO2 
 PCOD9142618
Probable space group: P 2/M
;
_chemical_formula_sum "Si O2"
_cell_formula_units_Z 26
_cell_length_a 25.318390
_cell_length_b 12.469426
_cell_length_c 8.636770
_cell_angle_alpha 90.000000
_cell_angle_beta 27.506080
_cell_angle_gamma 90.000000
_cell_volume 1259.296568
_symmetry_space_group_name_H-M "P 2/M"
_symmetry_group_IT_number 10
_symmetry_cell_setting 'monoclinic'
loop_
_space_group_symop_operation_xyz
x,y,z
-x,y,-z
-x,-y,-z
x,-y,z
loop_
_atom_site_type_symbol
_atom_site_label
_atom_site_fract_x
_atom_site_fract_y
_atom_site_fract_z
Si Si1 0.188250 0.000000 0.765568
Si Si2 0.708412 0.376358 0.714988
Si Si3 0.208742 0.623094 0.833445
Si Si4 0.444457 0.379419 0.405228
Si Si5 0.695477 0.000000 0.856233
Si Si6 0.064110 0.000000 0.579687
Si Si7 0.842650 0.167636 0.885714
Si Si8 0.658954 0.213535 0.104310
O O1 0.279924 0.000000 0.390699
O O2 0.193455 0.100321 0.869289
O O3 0.060955 0.000000 0.021712
O O4 0.728188 0.500000 0.712054
O O5 0.784795 0.353599 0.366288
O O6 0.574698 0.370278 0.010217
O O7 0.722000 0.293532 0.819709
O O8 0.172152 0.500000 0.951879
O O9 0.339947 0.630271 0.556612
O O10 0.136717 0.711533 0.112072
O O11 0.433254 0.500000 0.501722
O O12 0.427061 0.287963 0.576540
O O13 0.822831 0.000000 0.607104
O O14 0.630764 0.892954 0.080449
O O15 0.068961 0.102601 0.451542
O O16 0.738221 0.172991 0.037334
#
# Coordination Sequence:
#
# PCOD9142618 Si02
#       8
#     2   4   4   4   2   2   4   4
#     4  11  19  35  59  75  91 116 152 195 239 283
#     4  10  18  29  47  71  97 129 171 210 236 260
#     4   9  17  29  47  72 101 130 160 197 240 281
#     4   9  17  30  48  69  95 130 171 208 235 265
#     4  10  21  34  51  76 100 119 145 190 244 295
#     4   9  19  35  57  79  94 113 149 195 234 282
#     4   9  18  31  49  73  98 125 155 189 233 286
#     4  10  19  31  45  68 100 128 158 196 240 282
#
# _framework density 20.646447999999999
#
# number of rings (size 3 to 8) (size 9 to 14) (size 15 to 20)
#    0.000    2.462    0.000    3.923    0.000    3.692 
#    0.000    1.538    0.000    1.846    0.000   18.308 
#    0.000   28.308    0.000    0.000    0.000    0.000 
#
# Total GULP energy -144882.489356 kJ/mol
# GULP energy per Si atom -5572.403437 kJ/mol
# Density = 2.059946 g / cm^3
# Si number density = 20.646448 Si / 1000 Ang^3
#
#
#
# Elastic Constant Matrix: (Units=GPa)
#
#
# Indices 1 2 3 4 5 6 
#
# 1 60.3532 13.0260 4.4229 0.0000 10.9943 0.0000
# 2 13.0260 125.8058 41.9605 0.0000 31.4150 0.0000
# 3 4.4229 41.9605 60.9619 0.0000 21.9155 0.0000
# 4 0.0000 0.0000 0.0000 -8.2299 0.0000 11.8049
# 5 10.9943 31.4150 21.9155 0.0000 33.0423 0.0000
# 6 0.0000 0.0000 0.0000 11.8049 0.0000 44.5337
#
#
#
# Elastic Compliance Matrix: (Units=1/GPa)
#
#
# Indices 1 2 3 4 5 6 
#
# 1 0.017748 -0.000797 0.001460 0.000000 -0.006115 0.000000
# 2 -0.000797 0.011620 -0.005336 0.000000 -0.007243 0.000000
# 3 0.001460 -0.005336 0.024058 0.000000 -0.011369 0.000000
# 4 0.000000 0.000000 0.000000 -0.088035 0.000000 0.023336
# 5 -0.006115 -0.007243 -0.011369 0.000000 0.046725 0.000000
# 6 0.000000 0.000000 0.000000 0.023336 0.000000 0.016269
#
#
# Mechanical properties :
#
#
# Convention : Reuss Voigt Hill
#
# Bulk Modulus (GPa) = 22.68725 40.65998 31.67362
# Shear Modulus (GPa) = 95.37155 26.38333 60.87744
#
# Velocity S-wave (km/s) = 6.80390 3.57860 5.43596
# Velocity P-wave (km/s) = 8.52856 6.06724 7.40093
#
# Compressibility (1/GPa) = 0.04407762
#
# Stress axis : x y z
#
# Youngs Moduli (GPa) = 56.34347 86.06005 41.56655
#
# Poissons Ratio (x) = 0.06863 -0.06067
# Poissons Ratio (y) = 0.04493 0.22181
# Poissons Ratio (z) = -0.08224 0.45925
#
# Static dielectric constant tensor:
#      x y z
#    x 1.758780 0.000000 -0.034610 
#    y 0.000000 1.763720 0.000000 
#    z -0.034610 0.000000 1.720410 
# 
# From -- ./inp_files/27876.got.cif
#   From: 2010.05.17/outbox.cif.g08.bks.cpg/sg10_14_cif.got.tgz:27876.got - 2010.06.03 11:33:40.
