data_PCOD9142115
_publ_section_title
;
Structure prediction by ZEFSAII (Michael W. Deem and Ramdas Pophale) SiO2 
 PCOD9142115
Probable space group: P 2/M
;
_chemical_formula_sum "Si O2"
_cell_formula_units_Z 22
_cell_length_a 5.392572
_cell_length_b 12.924028
_cell_length_c 18.086787
_cell_angle_alpha 90.000000
_cell_angle_beta 65.970994
_cell_angle_gamma 90.000000
_cell_volume 1151.297267
_symmetry_space_group_name_H-M "P 2/M"
_symmetry_group_IT_number 10
_symmetry_cell_setting 'monoclinic'
loop_
_space_group_symop_operation_xyz
x,y,z
-x,y,-z
-x,-y,-z
x,-y,z
loop_
_atom_site_type_symbol
_atom_site_label
_atom_site_fract_x
_atom_site_fract_y
_atom_site_fract_z
Si Si1 0.991353 0.618055 0.858669
Si Si2 0.428910 0.882707 0.744688
Si Si3 0.500000 0.698883 0.000000
Si Si4 0.820256 0.622739 0.448858
Si Si5 0.759079 0.802335 0.088685
Si Si6 0.973060 0.752259 0.715475
O O1 0.077948 0.500000 0.839090
O O2 0.203942 0.694568 0.871501
O O3 0.921914 0.670190 0.788355
O O4 0.747854 0.626559 0.947739
O O5 0.281179 0.884155 0.842928
O O6 0.217144 0.825880 0.715736
O O7 0.704735 0.817718 0.726266
O O8 0.487388 0.000000 0.713914
O O9 0.507813 0.778565 0.067159
O O10 0.500000 0.643139 0.500000
O O11 0.848765 0.500000 0.429496
O O12 0.928214 0.689332 0.367699
O O13 0.000000 0.644672 0.500000
O O14 0.000000 0.819150 0.000000
#
# Coordination Sequence:
#
# PCOD9142115 Si02
#       6
#     4   4   2   4   4   4
#     4  10  20  32  52  80 116 159 192 232 290 355
#     4  11  23  41  62  85 114 158 207 254 305 347
#     4  10  17  34  49  76 116 150 195 242 285 352
#     4  10  21  39  66  99 130 160 190 230 292 360
#     4   9  20  35  52  77 115 151 205 255 298 349
#     4  11  22  41  62  90 122 153 199 249 294 355
#
# _framework density 19.108878000000001
#
# number of rings (size 3 to 8) (size 9 to 14) (size 15 to 20)
#    0.000    1.818    1.818    2.455    0.000    4.364 
#    0.000    2.273    0.000   10.909    0.000    0.000 
#    0.000    0.000    0.000    0.000    0.000    0.000 
#
# Total GULP energy -122564.933280 kJ/mol
# GULP energy per Si atom -5571.133331 kJ/mol
# Density = 1.906539 g / cm^3
# Si number density = 19.108878 Si / 1000 Ang^3
#
#
#
# Elastic Constant Matrix: (Units=GPa)
#
#
# Indices 1 2 3 4 5 6 
#
# 1 111.8957 43.2205 47.4156 0.0000 11.9854 0.0000
# 2 43.2205 101.7730 51.7328 0.0000 4.6320 0.0000
# 3 47.4156 51.7328 123.1562 0.0000 10.5699 0.0000
# 4 0.0000 0.0000 0.0000 16.3536 0.0000 -6.5260
# 5 11.9854 4.6320 10.5699 0.0000 22.5418 0.0000
# 6 0.0000 0.0000 0.0000 -6.5260 0.0000 11.6579
#
#
#
# Elastic Compliance Matrix: (Units=1/GPa)
#
#
# Indices 1 2 3 4 5 6 
#
# 1 0.011905 -0.003456 -0.002761 0.000000 -0.004325 0.000000
# 2 -0.003456 0.013497 -0.004437 0.000000 0.001145 0.000000
# 3 -0.002761 -0.004437 0.011297 0.000000 -0.002918 0.000000
# 4 0.000000 0.000000 0.000000 0.078738 0.000000 0.044077
# 5 -0.004325 0.001145 -0.002918 0.000000 0.047795 0.000000
# 6 0.000000 0.000000 0.000000 0.044077 0.000000 0.110453
#
#
# Mechanical properties :
#
#
# Convention : Reuss Voigt Hill
#
# Bulk Modulus (GPa) = 64.97074 69.06252 67.01663
# Shear Modulus (GPa) = 16.65991 23.07439 19.86715
#
# Velocity S-wave (km/s) = 2.95590 3.47871 3.22791
# Velocity P-wave (km/s) = 6.76194 7.23570 7.00283
#
# Compressibility (1/GPa) = 0.01539154
#
# Stress axis : x y z
#
# Youngs Moduli (GPa) = 84.00042 74.09224 88.51965
#
# Poissons Ratio (x) = 0.25603 0.24437
# Poissons Ratio (y) = 0.29026 0.39278
# Poissons Ratio (z) = 0.23189 0.32877
#
# Static dielectric constant tensor:
#      x y z
#    x 1.736670 0.000000 -0.004290 
#    y 0.000000 1.659240 0.000000 
#    z -0.004290 0.000000 1.667000 
# 
# From -- ./inp_files/73164.got.cif
#   From: 2010.05.17/outbox.cif.g08.bks.cpg/sg10_37_cif.got.tgz:73164.got - 2010.06.03 11:33:40.
