data_PCOD9142829
_publ_section_title
;
Structure prediction by ZEFSAII (Michael W. Deem and Ramdas Pophale) SiO2 
 PCOD9142829
Probable space group: P 2/M
;
_chemical_formula_sum "Si O2"
_cell_formula_units_Z 32
_cell_length_a 21.142319
_cell_length_b 17.564230
_cell_length_c 8.053900
_cell_angle_alpha 90.000000
_cell_angle_beta 37.461528
_cell_angle_gamma 90.000000
_cell_volume 1819.092554
_symmetry_space_group_name_H-M "P 2/M"
_symmetry_group_IT_number 10
_symmetry_cell_setting 'monoclinic'
loop_
_space_group_symop_operation_xyz
x,y,z
-x,y,-z
-x,-y,-z
x,-y,z
loop_
_atom_site_type_symbol
_atom_site_label
_atom_site_fract_x
_atom_site_fract_y
_atom_site_fract_z
Si Si1 0.754362 0.742106 0.333445
Si Si2 0.558863 0.203152 0.542625
Si Si3 0.656047 0.787312 0.882590
Si Si4 0.116380 0.817249 0.197502
Si Si5 0.697191 0.089021 0.073450
Si Si6 0.785537 0.324920 0.813094
Si Si7 0.961760 0.588799 0.262948
Si Si8 0.813065 0.411887 0.082598
O O1 0.659914 0.753650 0.398345
O O2 0.714986 0.777849 0.586451
O O3 0.774918 0.651731 0.292484
O O4 0.855030 0.785417 0.046311
O O5 0.500000 0.233148 0.500000
O O6 0.606697 0.122532 0.382205
O O7 0.468313 0.204471 0.867174
O O8 0.688537 0.712498 0.921412
O O9 0.689551 0.860748 0.921425
O O10 0.155682 0.746673 0.227091
O O11 0.000000 0.833363 0.500000
O O12 0.193129 0.887609 0.072666
O O13 0.687011 0.000000 0.067515
O O14 0.865320 0.362188 0.519763
O O15 0.769629 0.385321 0.994609
O O16 0.932108 0.500000 0.320928
O O17 0.061221 0.595786 0.177306
O O18 0.000000 0.609968 0.000000
O O19 0.789361 0.500000 0.169859
#
# Coordination Sequence:
#
# PCOD9142829 Si02
#       8
#     4   4   4   4   4   4   4   4
#     4  10  19  34  54  77 106 134 173 219 257 306
#     4   9  18  34  57  78  98 131 170 205 254 309
#     4  10  20  33  53  78 103 135 169 212 264 306
#     4   9  18  32  52  75 100 139 181 209 245 301
#     4   9  19  35  55  80 107 134 167 206 252 310
#     4  10  18  30  47  69  99 134 176 213 250 308
#     4  10  19  29  44  70 102 133 168 217 272 309
#     4  10  19  31  49  71  98 136 177 218 262 304
#
# _framework density 17.591187000000001
#
# number of rings (size 3 to 8) (size 9 to 14) (size 15 to 20)
#    0.000    2.375    0.000    5.625    0.000    3.500 
#    0.000    5.000    0.000   12.375    0.000    0.000 
#    0.000    0.000    0.000    0.000    0.000    0.000 
#
# Total GULP energy -178203.707666 kJ/mol
# GULP energy per Si atom -5568.865865 kJ/mol
# Density = 1.755115 g / cm^3
# Si number density = 17.591187 Si / 1000 Ang^3
#
#
#
# Elastic Constant Matrix: (Units=GPa)
#
#
# Indices 1 2 3 4 5 6 
#
# 1 44.4723 21.1219 28.0495 0.0000 2.6169 0.0000
# 2 21.1219 112.1581 57.5763 0.0000 6.9686 0.0000
# 3 28.0495 57.5763 144.8322 0.0000 5.6868 0.0000
# 4 0.0000 0.0000 0.0000 21.8427 0.0000 0.1565
# 5 2.6169 6.9686 5.6868 0.0000 25.5393 0.0000
# 6 0.0000 0.0000 0.0000 0.1565 0.0000 12.0002
#
#
#
# Elastic Compliance Matrix: (Units=1/GPa)
#
#
# Indices 1 2 3 4 5 6 
#
# 1 0.026394 -0.002893 -0.003921 0.000000 -0.001042 0.000000
# 2 -0.002893 0.011630 -0.003985 0.000000 -0.001990 0.000000
# 3 -0.003921 -0.003985 0.009271 0.000000 -0.000575 0.000000
# 4 0.000000 0.000000 0.000000 0.045786 0.000000 -0.000597
# 5 -0.001042 -0.001990 -0.000575 0.000000 0.039933 0.000000
# 6 0.000000 0.000000 0.000000 -0.000597 0.000000 0.083340
#
#
# Mechanical properties :
#
#
# Convention : Reuss Voigt Hill
#
# Bulk Modulus (GPa) = 38.91468 57.21754 48.06611
# Shear Modulus (GPa) = 20.28255 24.85743 22.56999
#
# Velocity S-wave (km/s) = 3.39926 3.76315 3.58582
# Velocity P-wave (km/s) = 6.12996 7.17486 6.67289
#
# Compressibility (1/GPa) = 0.02569724
#
# Stress axis : x y z
#
# Youngs Moduli (GPa) = 37.88721 85.98354 107.86768
#
# Poissons Ratio (x) = 0.24877 0.42291
# Poissons Ratio (y) = 0.10961 0.42985
# Poissons Ratio (z) = 0.14854 0.34264
#
# Static dielectric constant tensor:
#      x y z
#    x 1.653950 0.000000 0.020170 
#    y 0.000000 1.576590 0.000000 
#    z 0.020170 0.000000 1.635670 
# 
# From -- ./inp_files/36449.got.cif
#   From: 2010.05.17/outbox.cif.g08.bks.cpg/sg10_19_cif.got.tgz:36449.got - 2010.06.03 11:33:40.
