data_PCOD9142550
_publ_section_title
;
Structure prediction by ZEFSAII (Michael W. Deem and Ramdas Pophale) SiO2 
 PCOD9142550
Probable space group: P 2/M
;
_chemical_formula_sum "Si O2"
_cell_formula_units_Z 32
_cell_length_a 23.786294
_cell_length_b 13.748123
_cell_length_c 19.687179
_cell_angle_alpha 90.000000
_cell_angle_beta 17.683992
_cell_angle_gamma 90.000000
_cell_volume 1955.663391
_symmetry_space_group_name_H-M "P 2/M"
_symmetry_group_IT_number 10
_symmetry_cell_setting 'monoclinic'
loop_
_space_group_symop_operation_xyz
x,y,z
-x,y,-z
-x,-y,-z
x,-y,z
loop_
_atom_site_type_symbol
_atom_site_label
_atom_site_fract_x
_atom_site_fract_y
_atom_site_fract_z
Si Si1 0.773727 0.697298 0.991552
Si Si2 0.748963 0.884457 0.671735
Si Si3 0.133256 0.383947 0.632142
Si Si4 0.565626 0.612937 0.101263
Si Si5 0.824388 0.888491 0.858940
Si Si6 0.468299 0.386364 0.613777
Si Si7 0.121910 0.614463 0.798396
Si Si8 0.622340 0.193585 0.960220
O O1 0.757577 0.809658 0.990149
O O2 0.987646 0.667250 0.750909
O O3 0.673454 0.636767 0.047093
O O4 0.678089 0.670891 0.172721
O O5 0.724083 0.831636 0.772805
O O6 0.956540 0.873549 0.405839
O O7 0.714870 0.000000 0.720372
O O8 0.589124 0.841357 0.807518
O O9 0.097295 0.500000 0.672011
O O10 0.347332 0.371236 0.366499
O O11 0.101450 0.346796 0.745885
O O12 0.594266 0.500000 0.049658
O O13 0.626795 0.692973 0.975758
O O14 0.718719 0.864352 0.910483
O O15 0.792850 0.000000 0.914555
O O16 0.500000 0.353510 0.500000
O O17 0.409627 0.500000 0.678289
O O18 0.664650 0.381288 0.425721
O O19 0.070137 0.500000 0.853250
O O20 0.000000 0.657153 0.000000
#
# Coordination Sequence:
#
# PCOD9142550 Si02
#       8
#     4   4   4   4   4   4   4   4
#     4  11  20  32  51  72  99 132 170 206 248 295
#     4  10  19  34  55  78 101 123 160 211 262 301
#     4  10  18  29  46  67  97 132 166 198 238 288
#     4  10  20  33  47  69 102 138 171 201 237 291
#     4  10  21  35  53  76 100 126 162 209 257 301
#     4  10  18  29  47  73 103 132 166 204 243 286
#     4   9  16  26  41  66  97 126 158 199 239 278
#     4  10  19  32  54  77 100 130 165 203 250 301
#
# _framework density 16.362734
#
# number of rings (size 3 to 8) (size 9 to 14) (size 15 to 20)
#    0.000    2.000    1.250    4.500    0.000    3.000 
#    0.000    1.250    0.000    7.875    0.000    0.000 
#    0.000    2.000    0.000    0.000    0.000    0.000 
#
# Total GULP energy -178502.143778 kJ/mol
# GULP energy per Si atom -5578.191993 kJ/mol
# Density = 1.632549 g / cm^3
# Si number density = 16.362734 Si / 1000 Ang^3
#
#
#
# Elastic Constant Matrix: (Units=GPa)
#
#
# Indices 1 2 3 4 5 6 
#
# 1 58.1576 32.6541 24.4982 0.0000 -8.9987 0.0000
# 2 32.6541 94.6645 31.8537 0.0000 8.4748 0.0000
# 3 24.4982 31.8537 42.5098 0.0000 -6.0412 0.0000
# 4 0.0000 0.0000 0.0000 6.5638 0.0000 4.2929
# 5 -8.9987 8.4748 -6.0412 0.0000 23.8490 0.0000
# 6 0.0000 0.0000 0.0000 4.2929 0.0000 13.5507
#
#
#
# Elastic Compliance Matrix: (Units=1/GPa)
#
#
# Indices 1 2 3 4 5 6 
#
# 1 0.026362 -0.007237 -0.008289 0.000000 0.010419 0.000000
# 2 -0.007237 0.017749 -0.010802 0.000000 -0.011774 0.000000
# 3 -0.008289 -0.010802 0.037859 0.000000 0.010301 0.000000
# 4 0.000000 0.000000 0.000000 0.192165 0.000000 -0.060878
# 5 0.010419 -0.011774 0.010301 0.000000 0.052655 0.000000
# 6 0.000000 0.000000 0.000000 -0.060878 0.000000 0.093083
#
#
# Mechanical properties :
#
#
# Convention : Reuss Voigt Hill
#
# Bulk Modulus (GPa) = 34.11359 41.48268 37.79814
# Shear Modulus (GPa) = 10.36698 15.88109 13.12404
#
# Velocity S-wave (km/s) = 2.51982 3.11877 2.83515
# Velocity P-wave (km/s) = 5.41845 6.19483 5.81960
#
# Compressibility (1/GPa) = 0.02931383
#
# Stress axis : x y z
#
# Youngs Moduli (GPa) = 37.93386 56.34124 26.41373
#
# Poissons Ratio (x) = 0.40775 0.21893
# Poissons Ratio (y) = 0.27453 0.28533
# Poissons Ratio (z) = 0.31442 0.60862
#
# Static dielectric constant tensor:
#      x y z
#    x 1.554080 0.000000 -0.006130 
#    y 0.000000 1.534070 0.000000 
#    z -0.006130 0.000000 1.565780 
# 
# From -- ./inp_files/79707.got.cif
#   From: 2010.05.17/outbox.cif.g08.bks.cpg/sg10_40_cif.got.tgz:79707.got - 2010.06.03 11:33:40.
