data_PCOD9142000
_publ_section_title
;
Structure prediction by ZEFSAII (Michael W. Deem and Ramdas Pophale) SiO2 
 PCOD9142000
Probable space group: P 2/M
;
_chemical_formula_sum "Si O2"
_cell_formula_units_Z 28
_cell_length_a 12.055946
_cell_length_b 7.401974
_cell_length_c 14.591731
_cell_angle_alpha 90.000000
_cell_angle_beta 70.473159
_cell_angle_gamma 90.000000
_cell_volume 1227.241736
_symmetry_space_group_name_H-M "P 2/M"
_symmetry_group_IT_number 10
_symmetry_cell_setting 'monoclinic'
loop_
_space_group_symop_operation_xyz
x,y,z
-x,y,-z
-x,-y,-z
x,-y,z
loop_
_atom_site_type_symbol
_atom_site_label
_atom_site_fract_x
_atom_site_fract_y
_atom_site_fract_z
Si Si1 0.054106 0.707953 0.389092
Si Si2 0.371050 0.780116 0.504572
Si Si3 0.556742 0.782561 0.705781
Si Si4 0.844814 0.219626 0.310522
Si Si5 0.296502 0.780510 0.818679
Si Si6 0.623064 0.207805 0.006361
Si Si7 0.741965 0.705892 0.793771
O O1 0.084493 0.500000 0.403512
O O2 0.168327 0.788776 0.305757
O O3 0.000000 0.784695 0.500000
O O4 0.957239 0.714046 0.335165
O O5 0.500000 0.722976 0.500000
O O6 0.364914 0.722565 0.401265
O O7 0.265573 0.721758 0.596882
O O8 0.370123 0.000000 0.507766
O O9 0.420039 0.734623 0.734600
O O10 0.615008 0.710214 0.780658
O O11 0.560014 0.000000 0.708858
O O12 0.811625 0.278366 0.216143
O O13 0.851549 0.000000 0.308820
O O14 0.287553 0.000000 0.823280
O O15 0.318928 0.716618 0.916513
O O16 0.719221 0.209349 0.898828
O O17 0.592670 0.000000 0.038525
O O18 0.500000 0.286525 0.000000
O O19 0.779689 0.500000 0.799130
#
# Coordination Sequence:
#
# PCOD9142000 Si02
#       7
#     4   4   4   4   4   4   4
#     4  10  23  43  60  75 108 155 193 229 277 331
#     4   9  15  25  48  81 112 138 168 215 274 328
#     4  10  17  30  53  80 112 146 177 215 273 340
#     4  10  19  33  56  85 113 142 183 233 276 326
#     4   9  17  31  53  83 115 142 173 218 276 334
#     4  10  19  35  59  84 112 150 185 220 276 342
#     4  11  23  37  55  80 109 144 190 239 279 317
#
# _framework density 22.815391999999999
#
# number of rings (size 3 to 8) (size 9 to 14) (size 15 to 20)
#    0.000    2.143    2.857    1.286    0.000    1.714 
#    0.000    2.143    0.000    5.143    0.000    0.000 
#    0.000    0.000    0.000    0.000    0.000    0.000 
#
# Total GULP energy -156180.488279 kJ/mol
# GULP energy per Si atom -5577.874581 kJ/mol
# Density = 2.276346 g / cm^3
# Si number density = 22.815392 Si / 1000 Ang^3
#
#
#
# Elastic Constant Matrix: (Units=GPa)
#
#
# Indices 1 2 3 4 5 6 
#
# 1 101.9205 -5.9863 36.3342 0.0000 21.3888 0.0000
# 2 -5.9863 73.4545 1.9998 0.0000 -0.1429 0.0000
# 3 36.3342 1.9998 141.9755 0.0000 22.9043 0.0000
# 4 0.0000 0.0000 0.0000 1.2108 0.0000 2.1012
# 5 21.3888 -0.1429 22.9043 0.0000 40.7645 0.0000
# 6 0.0000 0.0000 0.0000 2.1012 0.0000 20.1797
#
#
#
# Elastic Compliance Matrix: (Units=1/GPa)
#
#
# Indices 1 2 3 4 5 6 
#
# 1 0.011685 0.001003 -0.002217 0.000000 -0.004882 0.000000
# 2 0.001003 0.013706 -0.000410 0.000000 -0.000248 0.000000
# 3 -0.002217 -0.000410 0.008170 0.000000 -0.003428 0.000000
# 4 0.000000 0.000000 0.000000 1.008024 0.000000 -0.104959
# 5 -0.004882 -0.000248 -0.003428 0.000000 0.029018 0.000000
# 6 0.000000 0.000000 0.000000 -0.104959 0.000000 0.060483
#
#
# Mechanical properties :
#
#
# Convention : Reuss Voigt Hill
#
# Bulk Modulus (GPa) = 32.98789 42.44954 37.71872
# Shear Modulus (GPa) = 4.36895 31.43120 17.90008
#
# Velocity S-wave (km/s) = 1.38531 3.71567 2.80404
# Velocity P-wave (km/s) = 4.12901 6.08723 5.20111
#
# Compressibility (1/GPa) = 0.03031416
#
# Stress axis : x y z
#
# Youngs Moduli (GPa) = 85.57695 72.95917 122.40310
#
# Poissons Ratio (x) = -0.07319 0.27137
# Poissons Ratio (y) = -0.08585 0.05016
# Poissons Ratio (z) = 0.18973 0.02990
#
# Static dielectric constant tensor:
#      x y z
#    x 1.844660 0.000000 0.023160 
#    y 0.000000 1.880600 0.000000 
#    z 0.023160 0.000000 1.881620 
# 
# From -- ./inp_files/63374.got.cif
#   From: 2010.05.17/outbox.cif.g08.bks.cpg/sg10_32_cif.got.tgz:63374.got - 2010.06.03 11:33:40.
