data_PCOD9142224
_publ_section_title
;
Structure prediction by ZEFSAII (Michael W. Deem and Ramdas Pophale) SiO2 
 PCOD9142224
Probable space group: P 2/M
;
_chemical_formula_sum "Si O2"
_cell_formula_units_Z 32
_cell_length_a 24.681653
_cell_length_b 7.559337
_cell_length_c 18.511764
_cell_angle_alpha 90.000000
_cell_angle_beta 30.323809
_cell_angle_gamma 90.000000
_cell_volume 1743.810918
_symmetry_space_group_name_H-M "P 2/M"
_symmetry_group_IT_number 10
_symmetry_cell_setting 'monoclinic'
loop_
_space_group_symop_operation_xyz
x,y,z
-x,y,-z
-x,-y,-z
x,-y,z
loop_
_atom_site_type_symbol
_atom_site_label
_atom_site_fract_x
_atom_site_fract_y
_atom_site_fract_z
Si Si1 0.659689 0.208164 0.677042
Si Si2 0.264079 0.712423 0.809229
Si Si3 0.377858 0.713712 0.123768
Si Si4 0.413741 0.294403 0.928579
Si Si5 0.646058 0.285198 0.447455
Si Si6 0.184655 0.206032 0.623520
Si Si7 0.590353 0.717044 0.227542
Si Si8 0.018271 0.788150 0.060596
O O1 0.685937 0.231200 0.731522
O O2 0.542600 0.288466 0.794291
O O3 0.750731 0.282123 0.519088
O O4 0.647268 0.000000 0.676524
O O5 0.274121 0.500000 0.797742
O O6 0.324064 0.774757 0.667519
O O7 0.321936 0.775903 0.815209
O O8 0.139001 0.755327 0.946639
O O9 0.376610 0.500000 0.123529
O O10 0.500000 0.771059 0.000000
O O11 0.357590 0.779458 0.065666
O O12 0.382534 0.500000 0.961101
O O13 0.392184 0.218289 0.874323
O O14 0.649681 0.500000 0.444680
O O15 0.734405 0.218345 0.401999
O O16 0.527847 0.231107 0.608837
O O17 0.072197 0.283025 0.780692
O O18 0.165164 0.000000 0.628225
O O19 0.590472 0.500000 0.225523
O O20 0.002177 0.000000 0.075500
O O21 0.000000 0.719395 0.000000
#
# Coordination Sequence:
#
# PCOD9142224 Si02
#       8
#     4   4   4   4   4   4   4   4
#     4  10  18  27  42  65  92 117 147 189 228 261
#     4  10  20  32  48  71  93 116 155 198 227 262
#     4   8  15  26  41  62  89 120 151 177 211 271
#     4   9  16  28  45  64  90 125 153 173 213 275
#     4  10  18  29  48  69  92 122 153 184 224 272
#     4  10  20  32  46  66  91 121 156 190 227 269
#     4   9  17  30  47  68  96 125 150 182 227 271
#     4  10  20  35  51  63  86 124 157 189 234 276
#
# _framework density 18.350614
#
# number of rings (size 3 to 8) (size 9 to 14) (size 15 to 20)
#    0.000    2.500    2.500    1.500    0.000    5.000 
#    0.000    1.250    0.000    1.500    0.000    0.875 
#    0.000    7.000    0.000    0.000    0.000    0.000 
#
# Total GULP energy -178401.010058 kJ/mol
# GULP energy per Si atom -5575.031564 kJ/mol
# Density = 1.830885 g / cm^3
# Si number density = 18.350614 Si / 1000 Ang^3
#
#
#
# Elastic Constant Matrix: (Units=GPa)
#
#
# Indices 1 2 3 4 5 6 
#
# 1 122.2642 -7.1822 77.4560 0.0000 29.6814 0.0000
# 2 -7.1822 39.5716 -4.0087 0.0000 4.3380 0.0000
# 3 77.4560 -4.0087 71.4933 0.0000 33.2490 0.0000
# 4 0.0000 0.0000 0.0000 9.5268 0.0000 -2.5230
# 5 29.6814 4.3380 33.2490 0.0000 38.2210 0.0000
# 6 0.0000 0.0000 0.0000 -2.5230 0.0000 10.3153
#
#
#
# Elastic Compliance Matrix: (Units=1/GPa)
#
#
# Indices 1 2 3 4 5 6 
#
# 1 0.027361 0.000807 -0.033040 0.000000 0.007403 0.000000
# 2 0.000807 0.026580 0.003880 0.000000 -0.007019 0.000000
# 3 -0.033040 0.003880 0.064277 0.000000 -0.030698 0.000000
# 4 0.000000 0.000000 0.000000 0.112237 0.000000 0.027452
# 5 0.007403 -0.007019 -0.030698 0.000000 0.047916 0.000000
# 6 0.000000 0.000000 0.000000 0.027452 0.000000 0.103658
#
#
# Mechanical properties :
#
#
# Convention : Reuss Voigt Hill
#
# Bulk Modulus (GPa) = 16.25706 40.65102 28.45404
# Shear Modulus (GPa) = 10.88759 22.75023 16.81891
#
# Velocity S-wave (km/s) = 2.43844 3.52483 3.03071
# Velocity P-wave (km/s) = 4.09955 6.22627 5.27128
#
# Compressibility (1/GPa) = 0.06151173
#
# Stress axis : x y z
#
# Youngs Moduli (GPa) = 36.54876 37.62270 15.55760
#
# Poissons Ratio (x) = -0.03037 0.51403
# Poissons Ratio (y) = -0.02951 -0.06036
# Poissons Ratio (z) = 1.20758 -0.14598
#
# Static dielectric constant tensor:
#      x y z
#    x 1.629760 0.000000 0.052620 
#    y 0.000000 1.693390 0.000000 
#    z 0.052620 0.000000 1.643880 
# 
# From -- ./inp_files/52740.got.cif
#   From: 2010.05.17/outbox.cif.g08.bks.cpg/sg10_27_cif.got.tgz:52740.got - 2010.06.03 11:33:40.
