data_PCOD9142142
_publ_section_title
;
Structure prediction by ZEFSAII (Michael W. Deem and Ramdas Pophale) SiO2 
 PCOD9142142
Probable space group: P 2/M
;
_chemical_formula_sum "Si O2"
_cell_formula_units_Z 32
_cell_length_a 20.333720
_cell_length_b 9.048079
_cell_length_c 29.953603
_cell_angle_alpha 90.000000
_cell_angle_beta 156.590067
_cell_angle_gamma 90.000000
_cell_volume 2189.517889
_symmetry_space_group_name_H-M "P 2/M"
_symmetry_group_IT_number 10
_symmetry_cell_setting 'monoclinic'
loop_
_space_group_symop_operation_xyz
x,y,z
-x,y,-z
-x,-y,-z
x,-y,z
loop_
_atom_site_type_symbol
_atom_site_label
_atom_site_fract_x
_atom_site_fract_y
_atom_site_fract_z
Si Si1 0.377379 0.830098 0.380577
Si Si2 0.245463 0.827935 0.833313
Si Si3 0.688297 0.179506 0.522161
Si Si4 0.886678 0.676815 0.727868
Si Si5 0.749250 0.677592 0.067100
Si Si6 0.387657 0.322193 0.836355
Si Si7 0.046361 0.321882 0.578533
Si Si8 0.110871 0.172104 0.436634
O O1 0.500000 0.828596 0.500000
O O2 0.499225 0.781105 0.416768
O O3 0.221737 0.733574 0.298110
O O4 0.326627 0.000000 0.341812
O O5 0.249505 0.748260 0.883099
O O6 0.358381 0.749921 0.866526
O O7 0.059393 0.818688 0.697796
O O8 0.288902 0.000000 0.864938
O O9 0.806650 0.251322 0.633403
O O10 0.748030 0.222405 0.510046
O O11 0.702874 0.000000 0.535196
O O12 0.873715 0.500000 0.716380
O O13 0.079819 0.720138 0.850411
O O14 0.752618 0.500000 0.073853
O O15 0.572201 0.716960 0.935141
O O16 0.378741 0.500000 0.835427
O O17 0.232807 0.276162 0.709126
O O18 0.040911 0.500000 0.575907
O O19 0.922573 0.261417 0.539192
O O20 0.000000 0.271653 0.500000
O O21 0.138633 0.000000 0.464891
#
# Coordination Sequence:
#
# PCOD9142142 Si02
#       8
#     4   4   4   4   4   4   4   4
#     4   8  15  26  39  52  73 107 140 166 197 235
#     4  10  18  27  40  58  80 105 136 171 199 225
#     4   9  16  28  41  55  78 108 139 166 196 237
#     4  10  18  25  36  55  79 107 141 171 196 226
#     4  10  19  28  38  54  79 112 140 162 194 237
#     4   9  18  31  43  55  77 106 134 163 200 245
#     4   9  18  32  48  63  79 101 131 168 208 247
#     4   9  17  28  43  62  82 106 135 165 200 240
#
# _framework density 14.615088999999999
#
# number of rings (size 3 to 8) (size 9 to 14) (size 15 to 20)
#    0.000    2.750    1.250    1.875    0.000    6.000 
#    0.000    0.000    0.000    0.000    0.000    0.000 
#    0.000    1.000    0.000   12.500    0.000    1.000 
#
# Total GULP energy -178174.768751 kJ/mol
# GULP energy per Si atom -5567.961523 kJ/mol
# Density = 1.458182 g / cm^3
# Si number density = 14.615089 Si / 1000 Ang^3
#
#
#
# Elastic Constant Matrix: (Units=GPa)
#
#
# Indices 1 2 3 4 5 6 
#
# 1 113.0610 27.3613 61.1242 0.0000 23.6993 0.0000
# 2 27.3613 14.6825 23.1956 0.0000 8.9601 0.0000
# 3 61.1242 23.1956 63.6267 0.0000 21.5781 0.0000
# 4 0.0000 0.0000 0.0000 10.3171 0.0000 4.5255
# 5 23.6993 8.9601 21.5781 0.0000 25.7188 0.0000
# 6 0.0000 0.0000 0.0000 4.5255 0.0000 21.3941
#
#
#
# Elastic Compliance Matrix: (Units=1/GPa)
#
#
# Indices 1 2 3 4 5 6 
#
# 1 0.020015 -0.015923 -0.012649 0.000000 -0.002284 0.000000
# 2 -0.015923 0.174970 -0.045835 0.000000 -0.007829 0.000000
# 3 -0.012649 -0.045835 0.049211 0.000000 -0.013665 0.000000
# 4 0.000000 0.000000 0.000000 0.106840 0.000000 -0.022600
# 5 -0.002284 -0.007829 -0.013665 0.000000 0.055179 0.000000
# 6 0.000000 0.000000 0.000000 -0.022600 0.000000 0.051522
#
#
# Mechanical properties :
#
#
# Convention : Reuss Voigt Hill
#
# Bulk Modulus (GPa) = 10.48396 46.08139 28.28267
# Shear Modulus (GPa) = 7.83276 16.79859 12.31568
#
# Velocity S-wave (km/s) = 2.31754 3.39396 2.90602
# Velocity P-wave (km/s) = 3.78818 6.85252 5.53658
#
# Compressibility (1/GPa) = 0.09538384
#
# Stress axis : x y z
#
# Youngs Moduli (GPa) = 49.96223 5.71527 20.32046
#
# Poissons Ratio (x) = 0.09100 0.25702
# Poissons Ratio (y) = 0.79553 0.93139
# Poissons Ratio (z) = 0.63195 0.26196
#
# Static dielectric constant tensor:
#      x y z
#    x 1.485460 0.000000 0.038760 
#    y 0.000000 1.490430 0.000000 
#    z 0.038760 0.000000 1.494510 
# 
# From -- ./inp_files/68206.got.cif
#   From: 2010.05.17/outbox.cif.g08.bks.cpg/sg10_35_cif.got.tgz:68206.got - 2010.06.03 11:33:40.
