data_PCOD9142990
_publ_section_title
;
Structure prediction by ZEFSAII (Michael W. Deem and Ramdas Pophale) SiO2 
 PCOD9142990
Probable space group: P 2/M
;
_chemical_formula_sum "Si O2"
_cell_formula_units_Z 24
_cell_length_a 16.630712
_cell_length_b 7.434903
_cell_length_c 8.336774
_cell_angle_alpha 90.000000
_cell_angle_beta 104.475777
_cell_angle_gamma 90.000000
_cell_volume 998.098061
_symmetry_space_group_name_H-M "P 2/M"
_symmetry_group_IT_number 10
_symmetry_cell_setting 'monoclinic'
loop_
_space_group_symop_operation_xyz
x,y,z
-x,y,-z
-x,-y,-z
x,-y,z
loop_
_atom_site_type_symbol
_atom_site_label
_atom_site_fract_x
_atom_site_fract_y
_atom_site_fract_z
Si Si1 0.370956 0.000000 0.007030
Si Si2 0.639777 0.702869 0.476635
Si Si3 0.203899 0.719700 0.270662
Si Si4 0.105836 0.706190 0.915880
Si Si5 0.749778 0.206335 0.231882
Si Si6 0.042328 0.280476 0.358134
Si Si7 0.471636 0.000000 0.718581
O O1 0.312526 0.825729 0.951510
O O2 0.432422 0.000000 0.186206
O O3 0.424450 0.000000 0.867613
O O4 0.614363 0.500000 0.502598
O O5 0.703360 0.778561 0.641638
O O6 0.563445 0.828853 0.393454
O O7 0.699229 0.700270 0.347524
O O8 0.209082 0.500000 0.268638
O O9 0.159327 0.785858 0.087030
O O10 0.137217 0.769181 0.374891
O O11 0.090411 0.500000 0.955603
O O12 0.166336 0.708525 0.791229
O O13 0.017756 0.781277 0.816354
O O14 0.766572 0.000000 0.290689
O O15 0.039716 0.500000 0.357385
O O16 0.000000 0.217863 0.500000
#
# Coordination Sequence:
#
# PCOD9142990 Si02
#       7
#     2   4   4   4   4   4   2
#     4   7  16  32  53  70 109 136 159 223 262 311
#     4  10  18  32  55  79 106 140 176 216 263 315
#     4   9  18  30  47  75 106 137 176 220 264 312
#     4  10  18  30  50  74 102 138 179 219 262 311
#     4   9  18  33  51  72 104 136 173 214 264 308
#     4   9  16  27  47  74 103 136 177 222 264 310
#     4   9  16  34  53  80 109 134 171 217 266 315
#
# _framework density 24.045733999999999
#
# number of rings (size 3 to 8) (size 9 to 14) (size 15 to 20)
#    0.500    2.333    0.833    2.000    0.000    4.667 
#    1.500    7.500    1.833    4.500    0.000    3.500 
#    0.000    0.000    0.000    0.000    0.000    0.000 
#
# Total GULP energy -133997.568641 kJ/mol
# GULP energy per Si atom -5583.232027 kJ/mol
# Density = 2.399100 g / cm^3
# Si number density = 24.045734 Si / 1000 Ang^3
#
#
#
# Elastic Constant Matrix: (Units=GPa)
#
#
# Indices 1 2 3 4 5 6 
#
# 1 79.6711 8.2204 25.8268 0.0000 10.6501 0.0000
# 2 8.2204 95.7468 22.4109 0.0000 16.3235 0.0000
# 3 25.8268 22.4109 135.9584 0.0000 38.1576 0.0000
# 4 0.0000 0.0000 0.0000 38.7237 0.0000 2.6234
# 5 10.6501 16.3235 38.1576 0.0000 54.7127 0.0000
# 6 0.0000 0.0000 0.0000 2.6234 0.0000 -3.6888
#
#
#
# Elastic Compliance Matrix: (Units=1/GPa)
#
#
# Indices 1 2 3 4 5 6 
#
# 1 0.013443 -0.000477 -0.002214 0.000000 -0.000930 0.000000
# 2 -0.000477 0.011157 -0.001045 0.000000 -0.002507 0.000000
# 3 -0.002214 -0.001045 0.009623 0.000000 -0.005969 0.000000
# 4 0.000000 0.000000 0.000000 0.024637 0.000000 0.017521
# 5 -0.000930 -0.002507 -0.005969 0.000000 0.023369 0.000000
# 6 0.000000 0.000000 0.000000 0.017521 0.000000 -0.258633
#
#
# Mechanical properties :
#
#
# Convention : Reuss Voigt Hill
#
# Bulk Modulus (GPa) = 37.38147 47.14363 42.26255
# Shear Modulus (GPa) = -31.24720 34.94406 1.84843
#
# Velocity S-wave (km/s) = -3.60876 3.81627 0.87772
# Velocity P-wave (km/s) = 1.33582 6.25035 4.31755
#
# Compressibility (1/GPa) = 0.02675122
#
# Stress axis : x y z
#
# Youngs Moduli (GPa) = 74.38889 89.62837 103.91662
#
# Poissons Ratio (x) = 0.04278 0.23005
# Poissons Ratio (y) = 0.03551 0.10857
# Poissons Ratio (z) = 0.16468 0.09364
#
# Static dielectric constant tensor:
#      x y z
#    x 1.888400 0.000000 -0.008940 
#    y 0.000000 1.891300 0.000000 
#    z -0.008940 0.000000 1.984610 
# 
# From -- ./inp_files/35730.got.cif
#   From: 2010.05.17/outbox.cif.g08.bks.cpg/sg10_18_cif.got.tgz:35730.got - 2010.06.03 11:33:40.
