data_PCOD9142188
_publ_section_title
;
Structure prediction by ZEFSAII (Michael W. Deem and Ramdas Pophale) SiO2 
 PCOD9142188
Probable space group: P 2/M
;
_chemical_formula_sum "Si O2"
_cell_formula_units_Z 28
_cell_length_a 14.012123
_cell_length_b 7.693086
_cell_length_c 15.103876
_cell_angle_alpha 90.000000
_cell_angle_beta 101.909282
_cell_angle_gamma 90.000000
_cell_volume 1593.099588
_symmetry_space_group_name_H-M "P 2/M"
_symmetry_group_IT_number 10
_symmetry_cell_setting 'monoclinic'
loop_
_space_group_symop_operation_xyz
x,y,z
-x,y,-z
-x,-y,-z
x,-y,z
loop_
_atom_site_type_symbol
_atom_site_label
_atom_site_fract_x
_atom_site_fract_y
_atom_site_fract_z
Si Si1 0.630111 0.212946 0.218358
Si Si2 0.275227 0.790618 0.936294
Si Si3 0.755030 0.701527 0.781836
Si Si4 0.376886 0.297156 0.391415
Si Si5 0.107286 0.292328 0.041324
Si Si6 0.402025 0.798704 0.593435
Si Si7 0.414953 0.789114 0.116557
O O1 0.709648 0.269565 0.161370
O O2 0.636616 0.273729 0.320890
O O3 0.524279 0.263765 0.159744
O O4 0.630897 0.000000 0.221562
O O5 0.273143 0.000000 0.934423
O O6 0.181069 0.733792 0.973494
O O7 0.370035 0.740418 0.012986
O O8 0.781048 0.500000 0.770980
O O9 0.714680 0.775123 0.681547
O O10 0.840514 0.779286 0.859617
O O11 0.660002 0.713595 0.826444
O O12 0.387498 0.500000 0.370275
O O13 0.479668 0.211459 0.384115
O O14 0.367770 0.284814 0.495288
O O15 0.098825 0.500000 0.052283
O O16 0.000000 0.222310 0.000000
O O17 0.374528 0.000000 0.582645
O O18 0.411254 0.000000 0.121798
#
# Coordination Sequence:
#
# PCOD9142188 Si02
#       7
#     4   4   4   4   4   4   4
#     4   9  16  26  40  61  87 116 145 172 205 244
#     4   9  17  28  44  64  86 111 141 175 209 251
#     4   9  17  28  43  62  85 113 142 175 215 253
#     4  10  18  28  40  58  85 114 146 180 213 242
#     4   9  18  33  49  65  86 110 138 175 219 263
#     4  10  18  27  41  59  84 117 151 177 202 241
#     4   9  15  25  41  60  84 115 146 171 199 243
#
# _framework density 17.575800000000001
#
# number of rings (size 3 to 8) (size 9 to 14) (size 15 to 20)
#    0.000    2.714    1.429    2.143    0.000    2.571 
#    0.000    2.143    0.000    3.429    0.000    1.000 
#    0.000    8.000    0.000    0.000    0.000    0.000 
#
# Total GULP energy -155974.769605 kJ/mol
# GULP energy per Si atom -5570.527486 kJ/mol
# Density = 1.753580 g / cm^3
# Si number density = 17.575800 Si / 1000 Ang^3
#
#
#
# Elastic Constant Matrix: (Units=GPa)
#
#
# Indices 1 2 3 4 5 6 
#
# 1 68.8091 -3.5801 57.9472 0.0000 15.9320 0.0000
# 2 -3.5801 28.5657 3.0893 0.0000 2.0693 0.0000
# 3 57.9472 3.0893 153.0686 0.0000 5.9730 0.0000
# 4 0.0000 0.0000 0.0000 14.3036 0.0000 -6.5161
# 5 15.9320 2.0693 5.9730 0.0000 20.8402 0.0000
# 6 0.0000 0.0000 0.0000 -6.5161 0.0000 10.5648
#
#
#
# Elastic Compliance Matrix: (Units=1/GPa)
#
#
# Indices 1 2 3 4 5 6 
#
# 1 0.027387 0.005844 -0.009755 0.000000 -0.018721 0.000000
# 2 0.005844 0.036559 -0.002664 0.000000 -0.007334 0.000000
# 3 -0.009755 -0.002664 0.010091 0.000000 0.004830 0.000000
# 4 0.000000 0.000000 0.000000 0.097232 0.000000 0.059971
# 5 -0.018721 -0.007334 0.004830 0.000000 0.061640 0.000000
# 6 0.000000 0.000000 0.000000 0.059971 0.000000 0.131643
#
#
# Mechanical properties :
#
#
# Convention : Reuss Voigt Hill
#
# Bulk Modulus (GPa) = 16.42413 40.59512 28.50962
# Shear Modulus (GPa) = 12.56284 22.00752 17.28518
#
# Velocity S-wave (km/s) = 2.67644 3.54241 3.13943
# Velocity P-wave (km/s) = 4.34927 6.31497 5.42195
#
# Compressibility (1/GPa) = 0.06088603
#
# Stress axis : x y z
#
# Youngs Moduli (GPa) = 36.51352 27.35320 99.09433
#
# Poissons Ratio (x) = -0.15984 0.96670
# Poissons Ratio (y) = -0.21337 0.26398
# Poissons Ratio (z) = 0.35620 0.07287
#
# Static dielectric constant tensor:
#      x y z
#    x 1.572350 0.000000 0.015460 
#    y 0.000000 1.646290 0.000000 
#    z 0.015460 0.000000 1.662560 
# 
# From -- ./inp_files/65782.got.cif
#   From: 2010.05.17/outbox.cif.g08.bks.cpg/sg10_33_cif.got.tgz:65782.got - 2010.06.03 11:33:40.
