data_PCOD9142629
_publ_section_title
;
Structure prediction by ZEFSAII (Michael W. Deem and Ramdas Pophale) SiO2 
 PCOD9142629
Probable space group: P 2/M
;
_chemical_formula_sum "Si O2"
_cell_formula_units_Z 30
_cell_length_a 10.026319
_cell_length_b 13.760376
_cell_length_c 12.136378
_cell_angle_alpha 90.000000
_cell_angle_beta 52.798513
_cell_angle_gamma 90.000000
_cell_volume 1333.688637
_symmetry_space_group_name_H-M "P 2/M"
_symmetry_group_IT_number 10
_symmetry_cell_setting 'monoclinic'
loop_
_space_group_symop_operation_xyz
x,y,z
-x,y,-z
-x,-y,-z
x,-y,z
loop_
_atom_site_type_symbol
_atom_site_label
_atom_site_fract_x
_atom_site_fract_y
_atom_site_fract_z
Si Si1 0.349223 0.605862 0.843988
Si Si2 0.652495 0.895531 0.010780
Si Si3 0.114625 0.242458 0.839372
Si Si4 0.500000 0.725367 0.500000
Si Si5 0.404550 0.112404 0.702375
Si Si6 0.155594 0.616490 0.636965
Si Si7 0.704713 0.303698 0.907385
Si Si8 0.751502 0.612421 0.652907
O O1 0.303291 0.500000 0.823678
O O2 0.252168 0.688390 0.829434
O O3 0.549404 0.616848 0.733981
O O4 0.288284 0.616000 0.000552
O O5 0.589864 0.881247 0.167323
O O6 0.741413 0.000000 0.963470
O O7 0.500000 0.901266 0.000000
O O8 0.757843 0.802254 0.924134
O O9 0.219690 0.147138 0.753687
O O10 0.052552 0.312200 0.770609
O O11 0.000000 0.217103 0.000000
O O12 0.482459 0.804109 0.409233
O O13 0.343126 0.653370 0.572761
O O14 0.439450 0.000000 0.656409
O O15 0.132039 0.500000 0.664449
O O16 0.150557 0.636662 0.508043
O O17 0.775582 0.328950 0.752950
O O18 0.500000 0.295773 0.000000
O O19 0.789135 0.500000 0.659503
#
# Coordination Sequence:
#
# PCOD9142629 Si02
#       8
#     4   4   4   2   4   4   4   4
#     4  10  18  29  47  74 101 130 164 205 253 301
#     4   9  17  28  47  74 105 131 156 194 249 311
#     4  11  23  37  51  70  96 136 187 223 252 284
#     4  10  20  30  52  78 108 136 162 198 256 316
#     4  10  20  36  54  78 106 133 166 208 259 310
#     4  10  20  32  49  73 104 138 170 206 252 304
#     4   9  16  26  46  70 104 128 159 196 248 313
#     4   9  17  29  48  75 104 131 159 197 253 316
#
# _framework density 22.494005000000001
#
# number of rings (size 3 to 8) (size 9 to 14) (size 15 to 20)
#    0.000    2.267    1.333    2.800    3.733    4.000 
#    0.000    0.000    0.000    0.800    0.000    2.800 
#    0.000    2.133    0.000    0.000    0.000    0.000 
#
# Total GULP energy -167350.703458 kJ/mol
# GULP energy per Si atom -5578.356782 kJ/mol
# Density = 2.244281 g / cm^3
# Si number density = 22.494005 Si / 1000 Ang^3
#
#
#
# Elastic Constant Matrix: (Units=GPa)
#
#
# Indices 1 2 3 4 5 6 
#
# 1 37.3952 3.5117 5.0300 0.0000 9.2798 0.0000
# 2 3.5117 79.0033 7.1519 0.0000 4.3811 0.0000
# 3 5.0300 7.1519 106.9383 0.0000 13.4052 0.0000
# 4 0.0000 0.0000 0.0000 34.9830 0.0000 5.0020
# 5 9.2798 4.3811 13.4052 0.0000 41.0675 0.0000
# 6 0.0000 0.0000 0.0000 5.0020 0.0000 18.2953
#
#
#
# Elastic Compliance Matrix: (Units=1/GPa)
#
#
# Indices 1 2 3 4 5 6 
#
# 1 0.028421 -0.000876 -0.000506 0.000000 -0.006164 0.000000
# 2 -0.000876 0.012812 -0.000698 0.000000 -0.000941 0.000000
# 3 -0.000506 -0.000698 0.009799 0.000000 -0.003010 0.000000
# 4 0.000000 0.000000 0.000000 0.029748 0.000000 -0.008133
# 5 -0.006164 -0.000941 -0.003010 0.000000 0.026826 0.000000
# 6 0.000000 0.000000 0.000000 -0.008133 0.000000 0.056882
#
#
# Mechanical properties :
#
#
# Convention : Reuss Voigt Hill
#
# Bulk Modulus (GPa) = 21.33379 28.30268 24.81824
# Shear Modulus (GPa) = 27.13391 32.71205 29.92298
#
# Velocity S-wave (km/s) = 3.47691 3.81761 3.65124
# Velocity P-wave (km/s) = 5.06195 5.66055 5.36960
#
# Compressibility (1/GPa) = 0.04687400
#
# Stress axis : x y z
#
# Youngs Moduli (GPa) = 35.18501 78.05198 102.05192
#
# Poissons Ratio (x) = 0.06835 0.05160
# Poissons Ratio (y) = 0.03081 0.07120
# Poissons Ratio (z) = 0.01779 0.05446
#
# Static dielectric constant tensor:
#      x y z
#    x 1.940760 0.000000 -0.026650 
#    y 0.000000 1.832170 0.000000 
#    z -0.026650 0.000000 1.938110 
# 
# From -- ./inp_files/47350.got.cif
#   From: 2010.05.17/outbox.cif.g08.bks.cpg/sg10_24_cif.got.tgz:47350.got - 2010.06.03 11:33:40.
