data_PCOD9142515
_publ_section_title
;
Structure prediction by ZEFSAII (Michael W. Deem and Ramdas Pophale) SiO2 
 PCOD9142515
Probable space group: P 2/M
;
_chemical_formula_sum "Si O2"
_cell_formula_units_Z 32
_cell_length_a 22.335907
_cell_length_b 7.666459
_cell_length_c 12.535909
_cell_angle_alpha 90.000000
_cell_angle_beta 47.643118
_cell_angle_gamma 90.000000
_cell_volume 1586.268452
_symmetry_space_group_name_H-M "P 2/M"
_symmetry_group_IT_number 10
_symmetry_cell_setting 'monoclinic'
loop_
_space_group_symop_operation_xyz
x,y,z
-x,y,-z
-x,-y,-z
x,-y,z
loop_
_atom_site_type_symbol
_atom_site_label
_atom_site_fract_x
_atom_site_fract_y
_atom_site_fract_z
Si Si1 0.276326 0.796142 0.441513
Si Si2 0.064123 0.200558 0.828546
Si Si3 0.276493 0.288949 0.118884
Si Si4 0.410524 0.794985 0.122162
Si Si5 0.139468 0.705969 0.444628
Si Si6 0.800155 0.713727 0.003901
Si Si7 0.767059 0.301343 0.279722
Si Si8 0.976632 0.699346 0.722967
O O1 0.352797 0.720306 0.284898
O O2 0.193817 0.723525 0.486949
O O3 0.282172 0.775634 0.561454
O O4 0.272281 0.000000 0.421903
O O5 0.142213 0.291520 0.783046
O O6 0.022332 0.298309 0.781620
O O7 0.084856 0.000000 0.771728
O O8 0.000000 0.191069 0.000000
O O9 0.277427 0.500000 0.125191
O O10 0.356631 0.222329 0.080499
O O11 0.198242 0.226416 0.281069
O O12 0.263363 0.241976 0.012056
O O13 0.421334 0.000000 0.134138
O O14 0.500000 0.718762 0.000000
O O15 0.128757 0.500000 0.439422
O O16 0.048337 0.779324 0.563870
O O17 0.806502 0.500000 0.003784
O O18 0.774261 0.777253 0.152326
O O19 0.888405 0.776038 0.855656
O O20 0.739960 0.500000 0.300223
O O21 0.961849 0.500000 0.704078
#
# Coordination Sequence:
#
# PCOD9142515 Si02
#       8
#     4   4   4   4   4   4   4   4
#     4  10  19  31  50  76 103 127 157 205 255 293
#     4  11  21  30  42  65  95 130 175 227 263 282
#     4   9  18  34  52  75 104 130 165 207 247 293
#     4   9  19  37  60  83 104 126 153 191 248 312
#     4   9  17  28  47  71  96 130 169 211 251 293
#     4   9  19  32  47  68  99 140 177 209 243 288
#     4  11  20  31  48  69  98 137 175 207 247 296
#     4  10  18  29  45  66  94 135 178 211 251 293
#
# _framework density 20.17313
#
# number of rings (size 3 to 8) (size 9 to 14) (size 15 to 20)
#    0.000    2.250    2.500    1.125    0.000    1.750 
#    0.000    4.375    0.000    0.750    0.000    9.625 
#    0.000    0.000    0.000    0.000    0.000    0.000 
#
# Total GULP energy -178396.172954 kJ/mol
# GULP energy per Si atom -5574.880405 kJ/mol
# Density = 2.012721 g / cm^3
# Si number density = 20.173130 Si / 1000 Ang^3
#
#
#
# Elastic Constant Matrix: (Units=GPa)
#
#
# Indices 1 2 3 4 5 6 
#
# 1 85.9459 -9.9280 72.8964 0.0000 8.2630 0.0000
# 2 -9.9280 41.7518 -0.6126 0.0000 -2.5028 0.0000
# 3 72.8964 -0.6126 112.0187 0.0000 -6.3059 0.0000
# 4 0.0000 0.0000 0.0000 12.1576 0.0000 -3.1486
# 5 8.2630 -2.5028 -6.3059 0.0000 27.4988 0.0000
# 6 0.0000 0.0000 0.0000 -3.1486 0.0000 -29.8950
#
#
#
# Elastic Compliance Matrix: (Units=1/GPa)
#
#
# Indices 1 2 3 4 5 6 
#
# 1 0.032067 0.006468 -0.021620 0.000000 -0.014005 0.000000
# 2 0.006468 0.025395 -0.004103 0.000000 -0.000573 0.000000
# 3 -0.021620 -0.004103 0.023624 0.000000 0.011541 0.000000
# 4 0.000000 0.000000 0.000000 0.080069 0.000000 -0.008433
# 5 -0.014005 -0.000573 0.011541 0.000000 0.043168 0.000000
# 6 0.000000 0.000000 0.000000 -0.008433 0.000000 -0.032562
#
#
# Mechanical properties :
#
#
# Convention : Reuss Voigt Hill
#
# Bulk Modulus (GPa) = 23.48772 40.49198 31.98985
# Shear Modulus (GPa) = 22.27563 13.77632 18.02598
#
# Velocity S-wave (km/s) = 3.32659 2.61608 2.99250
# Velocity P-wave (km/s) = 5.14036 5.40749 5.27562
#
# Compressibility (1/GPa) = 0.04257544
#
# Stress axis : x y z
#
# Youngs Moduli (GPa) = 31.18518 39.37852 42.33020
#
# Poissons Ratio (x) = -0.25471 0.91519
# Poissons Ratio (y) = -0.20171 0.17367
# Poissons Ratio (z) = 0.67423 0.16156
#
# Static dielectric constant tensor:
#      x y z
#    x 1.682870 0.000000 0.013340 
#    y 0.000000 1.784390 0.000000 
#    z 0.013340 0.000000 1.790200 
# 
# From -- ./inp_files/55267.got.cif
#   From: 2010.05.17/outbox.cif.g08.bks.cpg/sg10_28_cif.got.tgz:55267.got - 2010.06.03 11:33:40.
