data_PCOD9142798
_publ_section_title
;
Structure prediction by ZEFSAII (Michael W. Deem and Ramdas Pophale) SiO2 
 PCOD9142798
Probable space group: P 2/M
;
_chemical_formula_sum "Si O2"
_cell_formula_units_Z 24
_cell_length_a 21.684382
_cell_length_b 14.081208
_cell_length_c 19.539750
_cell_angle_alpha 90.000000
_cell_angle_beta 13.009368
_cell_angle_gamma 90.000000
_cell_volume 1343.078678
_symmetry_space_group_name_H-M "P 2/M"
_symmetry_group_IT_number 10
_symmetry_cell_setting 'monoclinic'
loop_
_space_group_symop_operation_xyz
x,y,z
-x,y,-z
-x,-y,-z
x,-y,z
loop_
_atom_site_type_symbol
_atom_site_label
_atom_site_fract_x
_atom_site_fract_y
_atom_site_fract_z
Si Si1 0.646177 0.178469 0.061043
Si Si2 0.677790 0.840049 0.869713
Si Si3 0.405120 0.365860 0.175213
Si Si4 0.048920 0.111490 0.741195
Si Si5 0.787134 0.396014 0.886493
Si Si6 0.800599 0.884513 0.154466
O O1 0.328715 0.165495 0.422441
O O2 0.689786 0.133419 0.937556
O O3 0.721899 0.291006 0.986839
O O4 0.837022 0.125065 0.908726
O O5 0.000000 0.828389 0.500000
O O6 0.500000 0.889388 0.000000
O O7 0.500212 0.743677 0.070114
O O8 0.086695 0.382118 0.529973
O O9 0.500000 0.403609 0.000000
O O10 0.568186 0.404319 0.062902
O O11 0.116401 0.000000 0.675981
O O12 0.910009 0.145301 0.962089
O O13 0.786314 0.500000 0.924429
O O14 0.500000 0.850917 0.500000
O O15 0.792461 0.000000 0.161141
O O16 0.000000 0.856546 0.000000
#
# Coordination Sequence:
#
# PCOD9142798 Si02
#       6
#     4   4   4   4   4   4
#     4  11  21  36  54  75 105 138 178 222 261 307
#     4  10  18  32  52  70  94 134 180 226 275 309
#     4  10  18  30  46  68  96 125 162 210 269 334
#     4  11  22  36  57  82 108 139 171 206 252 307
#     4  11  22  33  47  70 101 134 168 211 260 311
#     4   9  17  31  52  80 112 137 155 186 243 315
#
# _framework density 17.869392999999999
#
# number of rings (size 3 to 8) (size 9 to 14) (size 15 to 20)
#    0.000    1.667    0.000    9.500    0.000    4.667 
#    0.000    0.000    0.000   10.000    0.000    0.000 
#    0.000   13.333    0.000    0.000    0.000    0.000 
#
# Total GULP energy -133610.631620 kJ/mol
# GULP energy per Si atom -5567.109651 kJ/mol
# Density = 1.782872 g / cm^3
# Si number density = 17.869393 Si / 1000 Ang^3
#
#
#
# Elastic Constant Matrix: (Units=GPa)
#
#
# Indices 1 2 3 4 5 6 
#
# 1 152.6755 12.4039 161.6264 0.0000 -49.3792 0.0000
# 2 12.4039 42.8638 2.1335 0.0000 11.5662 0.0000
# 3 161.6264 2.1335 296.4694 0.0000 -93.9247 0.0000
# 4 0.0000 0.0000 0.0000 -6.2173 0.0000 -3.9235
# 5 -49.3792 11.5662 -93.9247 0.0000 91.0868 0.0000
# 6 0.0000 0.0000 0.0000 -3.9235 0.0000 6.8744
#
#
#
# Elastic Compliance Matrix: (Units=1/GPa)
#
#
# Indices 1 2 3 4 5 6 
#
# 1 0.016239 -0.004371 -0.008698 0.000000 0.000389 0.000000
# 2 -0.004371 0.025926 0.000598 0.000000 -0.005045 0.000000
# 3 -0.008698 0.000598 0.009792 0.000000 0.005305 0.000000
# 4 0.000000 0.000000 0.000000 -0.118251 0.000000 -0.067490
# 5 0.000389 -0.005045 0.005305 0.000000 0.017301 0.000000
# 6 0.000000 0.000000 0.000000 -0.067490 0.000000 0.106948
#
#
# Mechanical properties :
#
#
# Convention : Reuss Voigt Hill
#
# Bulk Modulus (GPa) = 37.01781 93.81515 65.41648
# Shear Modulus (GPa) = 54.40583 39.40511 46.90547
#
# Velocity S-wave (km/s) = 5.52381 4.70102 5.12894
# Velocity P-wave (km/s) = 7.83862 9.05983 8.47126
#
# Compressibility (1/GPa) = 0.02701402
#
# Stress axis : x y z
#
# Youngs Moduli (GPa) = 61.57951 38.57101 102.12879
#
# Poissons Ratio (x) = 0.16861 0.88836
# Poissons Ratio (y) = 0.26918 -0.06110
# Poissons Ratio (z) = 0.53564 -0.02307
#
# Static dielectric constant tensor:
#      x y z
#    x 1.630350 0.000000 0.002660 
#    y 0.000000 1.673310 0.000000 
#    z 0.002660 0.000000 1.582440 
# 
# From -- ./inp_files/86609.got.cif
#   From: 2010.05.17/outbox.cif.g08.bks.cpg/sg10_44_cif.got.tgz:86609.got - 2010.06.03 11:33:40.
