data_PCOD9142871
_publ_section_title
;
Structure prediction by ZEFSAII (Michael W. Deem and Ramdas Pophale) SiO2 
 PCOD9142871
Probable space group: P 2/M
;
_chemical_formula_sum "Si O2"
_cell_formula_units_Z 32
_cell_length_a 22.086029
_cell_length_b 8.816648
_cell_length_c 13.087410
_cell_angle_alpha 90.000000
_cell_angle_beta 52.721571
_cell_angle_gamma 90.000000
_cell_volume 2027.799741
_symmetry_space_group_name_H-M "P 2/M"
_symmetry_group_IT_number 10
_symmetry_cell_setting 'monoclinic'
loop_
_space_group_symop_operation_xyz
x,y,z
-x,y,-z
-x,-y,-z
x,-y,z
loop_
_atom_site_type_symbol
_atom_site_label
_atom_site_fract_x
_atom_site_fract_y
_atom_site_fract_z
Si Si1 0.817564 0.817198 0.390531
Si Si2 0.182700 0.818003 0.008798
Si Si3 0.912632 0.815347 0.094483
Si Si4 0.340210 0.816224 0.545368
Si Si5 0.335464 0.320102 0.777726
Si Si6 0.507281 0.175152 0.368726
Si Si7 0.915471 0.316871 0.709498
Si Si8 0.909145 0.682339 0.480564
O O1 0.870161 0.766781 0.241229
O O2 0.730904 0.774268 0.452371
O O3 0.850676 0.751906 0.460748
O O4 0.820743 0.000000 0.391222
O O5 0.138566 0.759565 0.152976
O O6 0.186725 0.000000 0.004747
O O7 0.134907 0.769721 0.956807
O O8 0.266759 0.750213 0.912286
O O9 0.913343 0.000000 0.094565
O O10 0.000000 0.763622 0.000000
O O11 0.328925 0.746564 0.669321
O O12 0.423744 0.772422 0.418603
O O13 0.340888 0.000000 0.556723
O O14 0.329409 0.500000 0.780457
O O15 0.418594 0.271082 0.733263
O O16 0.500000 0.177796 0.500000
O O17 0.519384 0.000000 0.326310
O O18 0.910543 0.500000 0.722696
O O19 0.896228 0.274874 0.612066
O O20 0.003958 0.273526 0.636200
O O21 0.905733 0.500000 0.479064
#
# Coordination Sequence:
#
# PCOD9142871 Si02
#       8
#     4   4   4   4   4   4   4   4
#     4  10  18  30  48  70  98 127 161 200 237 282
#     4  11  20  32  50  70  96 127 162 200 241 285
#     4   9  17  28  43  65  94 125 154 190 236 279
#     4   9  17  31  47  66  95 131 162 196 238 282
#     4  11  20  29  44  68  99 129 159 195 236 285
#     4   8  15  28  46  64  89 126 164 194 232 281
#     4   9  19  36  52  68  94 127 163 203 246 285
#     4   9  19  35  52  69  95 128 160 201 248 288
#
# _framework density 15.780652
#
# number of rings (size 3 to 8) (size 9 to 14) (size 15 to 20)
#    0.000    2.500    1.250    3.750    0.000    4.750 
#    0.000    1.250    0.000    2.625    0.000    0.875 
#    0.000    7.000    0.000    0.000    0.000    0.000 
#
# Total GULP energy -178406.554006 kJ/mol
# GULP energy per Si atom -5575.204813 kJ/mol
# Density = 1.574473 g / cm^3
# Si number density = 15.780652 Si / 1000 Ang^3
#
#
#
# Elastic Constant Matrix: (Units=GPa)
#
#
# Indices 1 2 3 4 5 6 
#
# 1 136.3869 33.7554 63.6108 0.0000 -16.6890 0.0000
# 2 33.7554 32.2190 31.5955 0.0000 -6.5383 0.0000
# 3 63.6108 31.5955 75.6697 0.0000 -11.0835 0.0000
# 4 0.0000 0.0000 0.0000 24.3001 0.0000 1.3816
# 5 -16.6890 -6.5383 -11.0835 0.0000 21.5863 0.0000
# 6 0.0000 0.0000 0.0000 1.3816 0.0000 17.2831
#
#
#
# Elastic Compliance Matrix: (Units=1/GPa)
#
#
# Indices 1 2 3 4 5 6 
#
# 1 0.012828 -0.004418 -0.008307 0.000000 0.004314 0.000000
# 2 -0.004418 0.054590 -0.018554 0.000000 0.003593 0.000000
# 3 -0.008307 -0.018554 0.028311 0.000000 0.002494 0.000000
# 4 0.000000 0.000000 0.000000 0.041340 0.000000 -0.003305
# 5 0.004314 0.003593 0.002494 0.000000 0.052030 0.000000
# 6 0.000000 0.000000 0.000000 -0.003305 0.000000 0.058124
#
#
# Mechanical properties :
#
#
# Convention : Reuss Voigt Hill
#
# Bulk Modulus (GPa) = 30.14632 55.79989 42.97310
# Shear Modulus (GPa) = 15.58428 20.32150 17.95289
#
# Velocity S-wave (km/s) = 3.14595 3.59241 3.37657
# Velocity P-wave (km/s) = 5.68690 7.25560 6.51861
#
# Compressibility (1/GPa) = 0.03317154
#
# Stress axis : x y z
#
# Youngs Moduli (GPa) = 77.95614 18.31844 35.32229
#
# Poissons Ratio (x) = 0.08093 0.29342
# Poissons Ratio (y) = 0.34439 0.65536
# Poissons Ratio (z) = 0.64758 0.33987
#
# Static dielectric constant tensor:
#      x y z
#    x 1.536600 0.000000 -0.021750 
#    y 0.000000 1.527380 0.000000 
#    z -0.021750 0.000000 1.507740 
# 
# From -- ./inp_files/55279.got.cif
#   From: 2010.05.17/outbox.cif.g08.bks.cpg/sg10_28_cif.got.tgz:55279.got - 2010.06.03 11:33:40.
