data_PCOD9142894
_publ_section_title
;
Structure prediction by ZEFSAII (Michael W. Deem and Ramdas Pophale) SiO2 
 PCOD9142894
Probable space group: P 2/M
;
_chemical_formula_sum "Si O2"
_cell_formula_units_Z 30
_cell_length_a 23.829313
_cell_length_b 9.387056
_cell_length_c 14.138240
_cell_angle_alpha 90.000000
_cell_angle_beta 148.524686
_cell_angle_gamma 90.000000
_cell_volume 1651.261623
_symmetry_space_group_name_H-M "P 2/M"
_symmetry_group_IT_number 10
_symmetry_cell_setting 'monoclinic'
loop_
_space_group_symop_operation_xyz
x,y,z
-x,y,-z
-x,-y,-z
x,-y,z
loop_
_atom_site_type_symbol
_atom_site_label
_atom_site_fract_x
_atom_site_fract_y
_atom_site_fract_z
Si Si1 0.094491 0.826755 0.848712
Si Si2 0.736564 0.655166 0.374145
Si Si3 0.122651 0.170850 0.559503
Si Si4 0.706773 0.666049 0.552413
Si Si5 0.492352 0.835295 0.204245
Si Si6 0.099047 0.827880 0.072835
Si Si7 0.742726 0.826491 0.066818
Si Si8 0.500000 0.748423 0.000000
O O1 0.205900 0.782529 0.959223
O O2 0.995291 0.779086 0.640451
O O3 0.093135 0.000000 0.846158
O O4 0.078272 0.784952 0.934085
O O5 0.779339 0.500000 0.406823
O O6 0.796904 0.779335 0.406610
O O7 0.746604 0.671444 0.500739
O O8 0.610351 0.662310 0.168588
O O9 0.174697 0.220509 0.732386
O O10 0.118305 0.000000 0.558172
O O11 0.699463 0.500000 0.569016
O O12 0.590395 0.740561 0.382588
O O13 0.792819 0.751876 0.737204
O O14 0.490760 0.829747 0.086975
O O15 0.508072 0.000000 0.254693
O O16 0.377711 0.782467 0.079312
O O17 0.111630 0.000000 0.094638
O O18 0.000000 0.790915 0.000000
O O19 0.740591 0.000000 0.065867
#
# Coordination Sequence:
#
# PCOD9142894 Si02
#       8
#     4   4   4   4   4   4   4   2
#     4   9  18  32  54  80 109 138 172 219 268 318
#     4  10  20  32  48  73 106 141 176 211 258 315
#     4  10  18  31  53  81 108 139 175 216 259 311
#     4  10  22  37  53  76 107 145 181 218 268 320
#     4  10  19  32  53  80 109 138 176 222 261 306
#     4  10  20  36  58  84 107 134 175 226 274 310
#     4   9  17  31  51  81 111 141 175 209 260 320
#     4  10  18  30  48  76 104 140 176 214 254 312
#
# _framework density 18.167926999999999
#
# number of rings (size 3 to 8) (size 9 to 14) (size 15 to 20)
#    0.000    2.267    1.333    2.000    0.000    6.133 
#    0.000    1.333    0.000    8.000    0.000    0.000 
#    0.000    0.000    0.000    0.000    0.000    0.000 
#
# Total GULP energy -167204.633686 kJ/mol
# GULP energy per Si atom -5573.487790 kJ/mol
# Density = 1.812658 g / cm^3
# Si number density = 18.167927 Si / 1000 Ang^3
#
#
#
# Elastic Constant Matrix: (Units=GPa)
#
#
# Indices 1 2 3 4 5 6 
#
# 1 113.8339 17.8051 55.0453 0.0000 19.7350 0.0000
# 2 17.8051 26.1733 26.2059 0.0000 -0.5016 0.0000
# 3 55.0453 26.2059 105.9363 0.0000 10.3151 0.0000
# 4 0.0000 0.0000 0.0000 -2.6066 0.0000 -2.9801
# 5 19.7350 -0.5016 10.3151 0.0000 20.9413 0.0000
# 6 0.0000 0.0000 0.0000 -2.9801 0.0000 0.8910
#
#
#
# Elastic Compliance Matrix: (Units=1/GPa)
#
#
# Indices 1 2 3 4 5 6 
#
# 1 0.013747 -0.004570 -0.004979 0.000000 -0.010612 0.000000
# 2 -0.004570 0.053540 -0.011989 0.000000 0.011494 0.000000
# 3 -0.004979 -0.011989 0.015298 0.000000 -0.003130 0.000000
# 4 0.000000 0.000000 0.000000 -0.079528 0.000000 -0.266001
# 5 -0.010612 0.011494 -0.003130 0.000000 0.059570 0.000000
# 6 0.000000 0.000000 0.000000 -0.266001 0.000000 0.232661
#
#
# Mechanical properties :
#
#
# Convention : Reuss Voigt Hill
#
# Bulk Modulus (GPa) = 25.31123 49.33956 37.32540
# Shear Modulus (GPa) = 14.22341 13.63762 13.93052
#
# Velocity S-wave (km/s) = 2.80105 2.74276 2.77205
# Velocity P-wave (km/s) = 4.94198 6.10301 5.55293
#
# Compressibility (1/GPa) = 0.03950815
#
# Stress axis : x y z
#
# Youngs Moduli (GPa) = 72.74292 18.67767 65.37008
#
# Poissons Ratio (x) = 0.08535 0.32550
# Poissons Ratio (y) = 0.33240 0.78373
# Poissons Ratio (z) = 0.36221 0.22393
#
# Static dielectric constant tensor:
#      x y z
#    x 1.632810 0.000000 0.003460 
#    y 0.000000 1.615750 0.000000 
#    z 0.003460 0.000000 1.617080 
# 
# From -- ./inp_files/71332.got.cif
#   From: 2010.05.17/outbox.cif.g08.bks.cpg/sg10_36_cif.got.tgz:71332.got - 2010.06.03 11:33:40.
