data_PCOD9142323
_publ_section_title
;
Structure prediction by ZEFSAII (Michael W. Deem and Ramdas Pophale) SiO2 
 PCOD9142323
Probable space group: P 2/M
;
_chemical_formula_sum "Si O2"
_cell_formula_units_Z 28
_cell_length_a 22.428027
_cell_length_b 9.316408
_cell_length_c 18.204985
_cell_angle_alpha 90.000000
_cell_angle_beta 27.398249
_cell_angle_gamma 90.000000
_cell_volume 1750.453993
_symmetry_space_group_name_H-M "P 2/M"
_symmetry_group_IT_number 10
_symmetry_cell_setting 'monoclinic'
loop_
_space_group_symop_operation_xyz
x,y,z
-x,y,-z
-x,-y,-z
x,-y,z
loop_
_atom_site_type_symbol
_atom_site_label
_atom_site_fract_x
_atom_site_fract_y
_atom_site_fract_z
Si Si1 0.806962 0.335538 0.339115
Si Si2 0.843718 0.835046 0.157300
Si Si3 0.793412 0.672052 0.515882
Si Si4 0.353562 0.671878 0.175870
Si Si5 0.881445 0.665790 0.972427
Si Si6 0.932100 0.171305 0.772807
Si Si7 0.139809 0.171028 0.313679
O O1 0.772043 0.500000 0.359860
O O2 0.781790 0.234487 0.297607
O O3 0.748611 0.293383 0.481901
O O4 0.962652 0.333095 0.183428
O O5 0.805894 0.000000 0.188715
O O6 0.819973 0.742495 0.110292
O O7 0.000000 0.832551 0.000000
O O8 0.822860 0.500000 0.483997
O O9 0.691317 0.701585 0.691562
O O10 0.924289 0.759878 0.388638
O O11 0.346302 0.500000 0.173305
O O12 0.252545 0.746966 0.232269
O O13 0.500000 0.718371 0.000000
O O14 0.842265 0.500000 0.008487
O O15 0.863488 0.753507 0.917016
O O16 0.863965 0.197851 0.769368
O O17 0.942166 0.000000 0.773274
O O18 0.000000 0.213553 0.500000
O O19 0.153490 0.000000 0.310545
#
# Coordination Sequence:
#
# PCOD9142323 Si02
#       7
#     4   4   4   4   4   4   4
#     4   8  14  23  35  52  77 112 149 183 222 272
#     4   9  15  22  33  52  79 112 148 183 223 268
#     4   9  17  29  44  63  89 120 154 192 237 282
#     4  10  21  35  51  72  97 126 162 203 244 286
#     4   9  16  25  37  55  83 116 149 183 227 277
#     4  10  18  28  44  65  90 117 154 197 233 275
#     4  10  20  34  50  71  96 125 161 200 242 289
#
# _framework density 15.995850000000001
#
# number of rings (size 3 to 8) (size 9 to 14) (size 15 to 20)
#    0.000    2.714    1.429    2.143    0.000    6.857 
#    0.000    0.000    0.000    0.000    0.000    0.000 
#    0.000    1.143    0.000   13.143    0.000    6.000 
#
# Total GULP energy -155978.833740 kJ/mol
# GULP energy per Si atom -5570.672634 kJ/mol
# Density = 1.595944 g / cm^3
# Si number density = 15.995850 Si / 1000 Ang^3
#
#
#
# Elastic Constant Matrix: (Units=GPa)
#
#
# Indices 1 2 3 4 5 6 
#
# 1 110.3839 69.0243 69.2774 0.0000 36.3322 0.0000
# 2 69.0243 81.9611 49.0335 0.0000 25.8782 0.0000
# 3 69.2774 49.0335 73.0378 0.0000 19.4557 0.0000
# 4 0.0000 0.0000 0.0000-1271.8730 0.0000-4492.1832
# 5 36.3322 25.8782 19.4557 0.0000 28.6082 0.0000
# 6 0.0000 0.0000 0.0000-4492.1832 0.0000**********
#
#
#
# Elastic Compliance Matrix: (Units=1/GPa)
#
#
# Indices 1 2 3 4 5 6 
#
# 1 0.036804 -0.011150 -0.021566 0.000000 -0.021988 0.000000
# 2 -0.011150 0.027170 -0.005971 0.000000 -0.006356 0.000000
# 3 -0.021566 -0.005971 0.035931 0.000000 0.008355 0.000000
# 4 0.000000 0.000000 0.000000 0.080830 0.000000 -0.023108
# 5 -0.021988 -0.006356 0.008355 0.000000 0.062947 0.000000
# 6 0.000000 0.000000 0.000000 -0.023108 0.000000 0.006543
#
#
# Mechanical properties :
#
#
# Convention : Reuss Voigt Hill
#
# Bulk Modulus (GPa) = 44.38703 71.11700 57.75202
# Shear Modulus (GPa) = 14.92047 -3386.10803 -1685.59378
#
# Velocity S-wave (km/s) = 3.05744 -46.05933 -32.49703
# Velocity P-wave (km/s) = 6.34612 52.76419 37.03908
#
# Compressibility (1/GPa) = 0.02252910
#
# Stress axis : x y z
#
# Youngs Moduli (GPa) = 27.17102 36.80467 27.83136
#
# Poissons Ratio (x) = 0.41038 0.60022
# Poissons Ratio (y) = 0.30297 0.16619
# Poissons Ratio (z) = 0.58598 0.21978
#
# Static dielectric constant tensor:
#      x y z
#    x 1.527500 0.000000 0.037420 
#    y 0.000000 1.535990 0.000000 
#    z 0.037420 0.000000 1.522640 
# 
# From -- ./inp_files/56312.got.cif
#   From: 2010.05.17/outbox.cif.g08.bks.cpg/sg10_29_cif.got.tgz:56312.got - 2010.06.03 11:33:40.
