data_PCOD9142716
_publ_section_title
;
Structure prediction by ZEFSAII (Michael W. Deem and Ramdas Pophale) SiO2 
 PCOD9142716
Probable space group: P 2/M
;
_chemical_formula_sum "Si O2"
_cell_formula_units_Z 26
_cell_length_a 10.837678
_cell_length_b 12.287685
_cell_length_c 12.714470
_cell_angle_alpha 90.000000
_cell_angle_beta 127.714429
_cell_angle_gamma 90.000000
_cell_volume 1339.427519
_symmetry_space_group_name_H-M "P 2/M"
_symmetry_group_IT_number 10
_symmetry_cell_setting 'monoclinic'
loop_
_space_group_symop_operation_xyz
x,y,z
-x,y,-z
-x,-y,-z
x,-y,z
loop_
_atom_site_type_symbol
_atom_site_label
_atom_site_fract_x
_atom_site_fract_y
_atom_site_fract_z
Si Si1 0.500000 0.202333 0.500000
Si Si2 0.517532 0.619836 0.686495
Si Si3 0.143798 0.878501 0.735921
Si Si4 0.568590 0.740640 0.151136
Si Si5 0.716434 0.118943 0.955906
Si Si6 0.153629 0.124039 0.307089
Si Si7 0.149027 0.299682 0.129214
O O1 0.526264 0.282722 0.414699
O O2 0.340698 0.134324 0.411685
O O3 0.459120 0.500000 0.626807
O O4 0.466499 0.652299 0.777678
O O5 0.705420 0.622912 0.777363
O O6 0.253400 0.782428 0.750454
O O7 0.957344 0.861846 0.648320
O O8 0.172491 0.000000 0.705587
O O9 0.203436 0.882581 0.888563
O O10 0.462359 0.846238 0.121869
O O11 0.500000 0.706642 0.000000
O O12 0.792452 0.209428 0.923467
O O13 0.729674 0.000000 0.914471
O O14 0.110491 0.225501 0.209810
O O15 0.118167 0.000000 0.251247
O O16 0.000000 0.354554 0.000000
#
# Coordination Sequence:
#
# PCOD9142716 Si02
#       7
#     2   4   4   4   4   4   4
#     4  10  22  40  58  76 104 140 188 232 260 306
#     4  10  22  39  59  76  97 140 187 232 278 312
#     4   9  16  27  47  76 110 144 171 199 249 318
#     4   9  18  32  52  79 111 139 170 217 266 322
#     4   9  15  24  43  74 112 146 170 196 247 323
#     4  10  19  31  52  80 113 147 175 211 258 317
#     4  10  18  29  49  80 112 138 171 219 272 325
#
# _framework density 19.411279
#
# number of rings (size 3 to 8) (size 9 to 14) (size 15 to 20)
#    0.000    2.462    1.538    1.385    0.000    3.077 
#    0.000    3.077    0.000    4.615    0.000    0.000 
#    0.000    0.000    0.000    0.000    0.000    0.000 
#
# Total GULP energy -144761.985369 kJ/mol
# GULP energy per Si atom -5567.768668 kJ/mol
# Density = 1.936710 g / cm^3
# Si number density = 19.411279 Si / 1000 Ang^3
#
#
#
# Elastic Constant Matrix: (Units=GPa)
#
#
# Indices 1 2 3 4 5 6 
#
# 1 73.0770 13.8283 5.9800 0.0000 12.2589 0.0000
# 2 13.8283 65.9064 -0.8472 0.0000 -2.6390 0.0000
# 3 5.9800 -0.8472 25.5266 0.0000 9.3534 0.0000
# 4 0.0000 0.0000 0.0000 -8.9861 0.0000 -19.2406
# 5 12.2589 -2.6390 9.3534 0.0000 31.0451 0.0000
# 6 0.0000 0.0000 0.0000 -19.2406 0.0000 -35.4740
#
#
#
# Elastic Compliance Matrix: (Units=1/GPa)
#
#
# Indices 1 2 3 4 5 6 
#
# 1 0.015471 -0.003504 -0.001566 0.000000 -0.005935 0.000000
# 2 -0.003504 0.016018 0.000390 0.000000 0.002628 0.000000
# 3 -0.001566 0.000390 0.044195 0.000000 -0.012664 0.000000
# 4 0.000000 0.000000 0.000000 0.689794 0.000000 -0.374135
# 5 -0.005935 0.002628 -0.012664 0.000000 0.038594 0.000000
# 6 0.000000 0.000000 0.000000 -0.374135 0.000000 0.174736
#
#
# Mechanical properties :
#
#
# Convention : Reuss Voigt Hill
#
# Bulk Modulus (GPa) = 15.07751 22.49247 18.78499
# Shear Modulus (GPa) = 4.94914 7.02027 5.98471
#
# Velocity S-wave (km/s) = 1.59849 1.90380 1.75778
# Velocity P-wave (km/s) = 3.34532 4.05525 3.71727
#
# Compressibility (1/GPa) = 0.06632397
#
# Stress axis : x y z
#
# Youngs Moduli (GPa) = 64.63705 62.42812 22.62708
#
# Poissons Ratio (x) = 0.21874 0.03543
# Poissons Ratio (y) = 0.22648 -0.00881
# Poissons Ratio (z) = 0.10121 -0.02432
#
# Static dielectric constant tensor:
#      x y z
#    x 1.729490 0.000000 0.013540 
#    y 0.000000 1.643820 0.000000 
#    z 0.013540 0.000000 1.737850 
# 
# From -- ./inp_files/64464.got.cif
#   From: 2010.05.17/outbox.cif.g08.bks.cpg/sg10_33_cif.got.tgz:64464.got - 2010.06.03 11:33:40.
