data_PCOD9142958
_publ_section_title
;
Structure prediction by ZEFSAII (Michael W. Deem and Ramdas Pophale) SiO2 
 PCOD9142958
Probable space group: P 2/M
;
_chemical_formula_sum "Si O2"
_cell_formula_units_Z 18
_cell_length_a 6.964433
_cell_length_b 10.971503
_cell_length_c 13.188483
_cell_angle_alpha 90.000000
_cell_angle_beta 121.126129
_cell_angle_gamma 90.000000
_cell_volume 862.653620
_symmetry_space_group_name_H-M "P 2/M"
_symmetry_group_IT_number 10
_symmetry_cell_setting 'monoclinic'
loop_
_space_group_symop_operation_xyz
x,y,z
-x,y,-z
-x,-y,-z
x,-y,z
loop_
_atom_site_type_symbol
_atom_site_label
_atom_site_fract_x
_atom_site_fract_y
_atom_site_fract_z
Si Si1 0.500000 0.296326 0.500000
Si Si2 0.750802 0.147858 0.964950
Si Si3 0.994287 0.632047 0.619462
Si Si4 0.587898 0.138960 0.711628
Si Si5 0.890815 0.140501 0.219931
O O1 0.268230 0.365974 0.421153
O O2 0.467081 0.215487 0.592090
O O3 0.589542 0.185611 0.828367
O O4 0.748671 0.000000 0.959505
O O5 0.000000 0.189612 0.000000
O O6 0.738779 0.174470 0.081026
O O7 0.091999 0.500000 0.677666
O O8 0.104365 0.752497 0.696824
O O9 0.000000 0.637764 0.500000
O O10 0.851124 0.136315 0.750629
O O11 0.506914 0.000000 0.686018
O O12 0.839894 0.000000 0.236864
#
# Coordination Sequence:
#
# PCOD9142958 Si02
#       5
#     2   4   4   4   4
#     4  10  18  30  50  70  93 126 161 192 225 276
#     4   7  10  19  38  65  95 123 151 187 232 275
#     4  10  21  35  50  69  95 126 156 191 238 283
#     4   8  13  22  41  71 101 125 152 191 236 276
#     4   8  14  26  46  70  94 122 158 196 231 273
#
# _framework density 20.865849000000001
#
# number of rings (size 3 to 8) (size 9 to 14) (size 15 to 20)
#    0.000    3.556    0.000    3.333    0.000    1.333 
#    0.000    0.000    0.000   19.333    0.000    7.778 
#    0.000    0.000    0.000    0.000    0.000    0.000 
#
# Total GULP energy -100298.729804 kJ/mol
# GULP energy per Si atom -5572.151656 kJ/mol
# Density = 2.081836 g / cm^3
# Si number density = 20.865849 Si / 1000 Ang^3
#
#
#
# Elastic Constant Matrix: (Units=GPa)
#
#
# Indices 1 2 3 4 5 6 
#
# 1 62.4877 18.2458 8.5448 0.0000 -0.3328 0.0000
# 2 18.2458 126.8689 85.8634 0.0000 -12.8114 0.0000
# 3 8.5448 85.8634 138.5374 0.0000 -17.3286 0.0000
# 4 0.0000 0.0000 0.0000 1.9144 0.0000 -17.4677
# 5 -0.3328 -12.8114 -17.3286 0.0000 37.6632 0.0000
# 6 0.0000 0.0000 0.0000 -17.4677 0.0000 4.7281
#
#
#
# Elastic Compliance Matrix: (Units=1/GPa)
#
#
# Indices 1 2 3 4 5 6 
#
# 1 0.016765 -0.002962 0.000737 0.000000 -0.000520 0.000000
# 2 -0.002962 0.014123 -0.008460 0.000000 0.000886 0.000000
# 3 0.000737 -0.008460 0.012793 0.000000 0.003015 0.000000
# 4 0.000000 0.000000 0.000000 -0.015969 0.000000 -0.058999
# 5 -0.000520 0.000886 0.003015 0.000000 0.028235 0.000000
# 6 0.000000 0.000000 0.000000 -0.058999 0.000000 -0.006466
#
#
# Mechanical properties :
#
#
# Convention : Reuss Voigt Hill
#
# Bulk Modulus (GPa) = 44.82210 61.46690 53.14450
# Shear Modulus (GPa) = 63.86705 23.21045 43.53875
#
# Velocity S-wave (km/s) = 5.53849 3.33883 4.57289
# Velocity P-wave (km/s) = 7.90111 6.66227 7.30799
#
# Compressibility (1/GPa) = 0.02231042
#
# Stress axis : x y z
#
# Youngs Moduli (GPa) = 59.64960 70.80593 78.16650
#
# Poissons Ratio (x) = 0.20975 -0.05760
# Poissons Ratio (y) = 0.17670 0.66127
# Poissons Ratio (z) = -0.04395 0.59901
#
# Static dielectric constant tensor:
#      x y z
#    x 1.863350 0.000000 -0.007430 
#    y 0.000000 1.704260 0.000000 
#    z -0.007430 0.000000 1.762000 
# 
# From -- ./inp_files/21557.got.cif
#   From: 2010.05.17/outbox.cif.g08.bks.cpg/sg10_11_cif.got.tgz:21557.got - 2010.06.03 11:33:40.
