data_PCOD9142906
_publ_section_title
;
Structure prediction by ZEFSAII (Michael W. Deem and Ramdas Pophale) SiO2 
 PCOD9142906
Probable space group: P 2/M
;
_chemical_formula_sum "Si O2"
_cell_formula_units_Z 32
_cell_length_a 25.227634
_cell_length_b 7.500354
_cell_length_c 18.838357
_cell_angle_alpha 90.000000
_cell_angle_beta 26.511852
_cell_angle_gamma 90.000000
_cell_volume 1591.141786
_symmetry_space_group_name_H-M "P 2/M"
_symmetry_group_IT_number 10
_symmetry_cell_setting 'monoclinic'
loop_
_space_group_symop_operation_xyz
x,y,z
-x,y,-z
-x,-y,-z
x,-y,z
loop_
_atom_site_type_symbol
_atom_site_label
_atom_site_fract_x
_atom_site_fract_y
_atom_site_fract_z
Si Si1 0.232147 0.213295 0.556088
Si Si2 0.307893 0.712564 0.047927
Si Si3 0.479618 0.786704 0.308617
Si Si4 0.401255 0.217251 0.558688
Si Si5 0.372118 0.281579 0.127882
Si Si6 0.163714 0.712564 0.480466
Si Si7 0.956451 0.718292 0.630647
Si Si8 0.861198 0.782749 0.178859
O O1 0.368295 0.278682 0.395115
O O2 0.172913 0.254865 0.552615
O O3 0.170291 0.274334 0.702823
O O4 0.234454 0.000000 0.558672
O O5 0.299552 0.500000 0.065212
O O6 0.350099 0.779593 0.074080
O O7 0.175590 0.780474 0.195069
O O8 0.398441 0.745135 0.876031
O O9 0.456596 0.725667 0.416517
O O10 0.472419 0.000000 0.320707
O O11 0.500000 0.272821 0.500000
O O12 0.258392 0.269816 0.724823
O O13 0.398204 0.000000 0.565823
O O14 0.369800 0.500000 0.130200
O O15 0.274278 0.220406 0.301543
O O16 0.500000 0.224326 0.000000
O O17 0.164315 0.500000 0.470921
O O18 0.046248 0.780475 0.583093
O O19 0.956680 0.500000 0.629961
O O20 0.000000 0.771238 0.500000
O O21 0.862231 0.000000 0.173742
O O22 0.000000 0.727179 0.000000
#
# Coordination Sequence:
#
# PCOD9142906 Si02
#       8
#     4   4   4   4   4   4   4   4
#     4   9  18  32  48  69  99 126 148 186 239 282
#     4  10  18  30  49  69  91 121 159 195 229 274
#     4   9  18  32  48  69  99 126 148 186 239 282
#     4   8  14  27  47  68  91 121 155 189 227 275
#     4   9  16  25  42  68  89 109 150 199 224 252
#     4  10  18  30  49  69  91 121 159 195 229 274
#     4   9  16  30  49  67  89 123 161 197 235 271
#     4   8  14  27  47  68  91 121 155 189 227 275
#
# _framework density 20.111343000000002
#
# number of rings (size 3 to 8) (size 9 to 14) (size 15 to 20)
#    0.000    3.000    1.250    2.250    0.000    1.500 
#    2.250    1.250    0.000    3.750    0.000    0.000 
#    0.000    0.000    0.000    0.000    0.000    0.000 
#
# Total GULP energy -178256.920461 kJ/mol
# GULP energy per Si atom -5570.528764 kJ/mol
# Density = 2.006557 g / cm^3
# Si number density = 20.111343 Si / 1000 Ang^3
#
#
#
# Elastic Constant Matrix: (Units=GPa)
#
#
# Indices 1 2 3 4 5 6 
#
# 1 191.5904 4.8391 99.9579 0.0000 -29.2841 0.0000
# 2 4.8391 49.3610 4.5068 0.0000 -3.4487 0.0000
# 3 99.9579 4.5068 185.8119 0.0000 -30.6960 0.0000
# 4 0.0000 0.0000 0.0000 15.2685 0.0000 2.1586
# 5 -29.2841 -3.4487 -30.6960 0.0000 29.7497 0.0000
# 6 0.0000 0.0000 0.0000 2.1586 0.0000 15.0605
#
#
#
# Elastic Compliance Matrix: (Units=1/GPa)
#
#
# Indices 1 2 3 4 5 6 
#
# 1 0.007623 -0.000158 -0.003448 0.000000 0.003927 0.000000
# 2 -0.000158 0.020430 -0.000054 0.000000 0.002157 0.000000
# 3 -0.003448 -0.000054 0.008048 0.000000 0.004904 0.000000
# 4 0.000000 0.000000 0.000000 0.066849 0.000000 -0.009582
# 5 0.003927 0.002157 0.004904 0.000000 0.042789 0.000000
# 6 0.000000 0.000000 0.000000 -0.009582 0.000000 0.067772
#
#
# Mechanical properties :
#
#
# Convention : Reuss Voigt Hill
#
# Bulk Modulus (GPa) = 34.74604 71.70788 53.22696
# Shear Modulus (GPa) = 21.69899 33.17969 27.43934
#
# Velocity S-wave (km/s) = 3.28829 4.06618 3.69775
# Velocity P-wave (km/s) = 5.63307 7.60118 6.68990
#
# Compressibility (1/GPa) = 0.02878026
#
# Stress axis : x y z
#
# Youngs Moduli (GPa) = 131.18776 48.94750 124.25366
#
# Poissons Ratio (x) = 0.00774 0.42843
# Poissons Ratio (y) = 0.02074 0.00673
# Poissons Ratio (z) = 0.45233 0.00265
#
# Static dielectric constant tensor:
#      x y z
#    x 1.711240 0.000000 -0.034560 
#    y 0.000000 1.782140 0.000000 
#    z -0.034560 0.000000 1.707910 
# 
# From -- ./inp_files/79925.got.cif
#   From: 2010.05.17/outbox.cif.g08.bks.cpg/sg10_40_cif.got.tgz:79925.got - 2010.06.03 11:33:40.
