data_PCOD9142846
_publ_section_title
;
Structure prediction by ZEFSAII (Michael W. Deem and Ramdas Pophale) SiO2 
 PCOD9142846
Probable space group: P 2/M
;
_chemical_formula_sum "Si O2"
_cell_formula_units_Z 24
_cell_length_a 25.335730
_cell_length_b 13.071218
_cell_length_c 8.717926
_cell_angle_alpha 90.000000
_cell_angle_beta 30.655923
_cell_angle_gamma 90.000000
_cell_volume 1472.081097
_symmetry_space_group_name_H-M "P 2/M"
_symmetry_group_IT_number 10
_symmetry_cell_setting 'monoclinic'
loop_
_space_group_symop_operation_xyz
x,y,z
-x,y,-z
-x,-y,-z
x,-y,z
loop_
_atom_site_type_symbol
_atom_site_label
_atom_site_fract_x
_atom_site_fract_y
_atom_site_fract_z
Si Si1 0.117061 0.000000 0.773525
Si Si2 0.281710 0.617564 0.861167
Si Si3 0.281714 0.382435 0.230264
Si Si4 0.499996 0.624126 0.176713
Si Si5 0.884013 0.212747 0.724782
Si Si6 0.117056 0.000000 0.141182
Si Si7 0.115988 0.212752 0.644844
O O1 0.160812 0.893628 0.599806
O O2 0.115576 0.000000 0.961058
O O3 0.000000 0.000000 0.000000
O O4 0.265346 0.500000 0.849203
O O5 0.392944 0.655424 0.523417
O O6 0.285386 0.615882 0.036531
O O7 0.189457 0.693131 0.046581
O O8 0.265355 0.500000 0.324036
O O9 0.189464 0.306868 0.506115
O O10 0.392951 0.344582 0.011840
O O11 0.499997 0.500000 0.184436
O O12 0.500000 0.655153 0.000000
O O13 0.889475 0.205665 0.526313
O O14 0.000000 0.226504 0.500000
O O15 0.839182 0.106370 0.903880
O O16 0.000000 0.000000 0.500000
O O17 0.000000 0.226508 0.000000
#
# Coordination Sequence:
#
# PCOD9142846 Si02
#       7
#     2   4   4   4   4   2   4
#     4  10  18  30  48  67  90 121 158 196 232 272
#     4   9  18  32  49  69  95 127 158 188 228 279
#     4   9  18  32  49  69  95 127 158 188 228 279
#     4   9  17  29  47  70  93 120 157 197 231 267
#     4  10  19  31  48  70  96 125 157 192 231 275
#     4  10  18  30  48  67  90 121 158 196 232 272
#     4  10  19  31  48  70  96 125 157 192 231 275
#
# _framework density 16.303450000000002
#
# number of rings (size 3 to 8) (size 9 to 14) (size 15 to 20)
#    0.000    2.500    0.000    5.000    0.000    5.333 
#    0.000    0.000    0.000    1.000    0.000    7.000 
#    0.000    0.000    0.000    0.000    0.000    0.000 
#
# Total GULP energy -133709.688244 kJ/mol
# GULP energy per Si atom -5571.237010 kJ/mol
# Density = 1.626634 g / cm^3
# Si number density = 16.303450 Si / 1000 Ang^3
#
#
#
# Elastic Constant Matrix: (Units=GPa)
#
#
# Indices 1 2 3 4 5 6 
#
# 1 69.6807 47.5809 32.5535 0.0000 -10.8990 0.0000
# 2 47.5809 111.9032 63.1684 0.0000 -15.8151 0.0000
# 3 32.5535 63.1684 90.7179 0.0000 -10.4551 0.0000
# 4 0.0000 0.0000 0.0000 4.9219 0.0000 9.6504
# 5 -10.8990 -15.8151 -10.4551 0.0000 23.4822 0.0000
# 6 0.0000 0.0000 0.0000 9.6504 0.0000 14.4276
#
#
#
# Elastic Compliance Matrix: (Units=1/GPa)
#
#
# Indices 1 2 3 4 5 6 
#
# 1 0.020790 -0.007131 -0.002041 0.000000 0.003938 0.000000
# 2 -0.007131 0.017915 -0.009388 0.000000 0.004576 0.000000
# 3 -0.002041 -0.009388 0.018399 0.000000 0.000922 0.000000
# 4 0.000000 0.000000 0.000000 -0.652266 0.000000 0.436289
# 5 0.003938 0.004576 0.000922 0.000000 0.047905 0.000000
# 6 0.000000 0.000000 0.000000 0.436289 0.000000 -0.222515
#
#
# Mechanical properties :
#
#
# Convention : Reuss Voigt Hill
#
# Bulk Modulus (GPa) = 50.04187 62.10083 56.07135
# Shear Modulus (GPa) = -6.88714 17.16629 5.13957
#
# Velocity S-wave (km/s) = -2.05755 3.24840 1.77744
# Velocity P-wave (km/s) = 5.01159 7.22792 6.21927
#
# Compressibility (1/GPa) = 0.01998326
#
# Stress axis : x y z
#
# Youngs Moduli (GPa) = 48.09975 55.82065 54.35170
#
# Poissons Ratio (x) = 0.39807 0.11093
# Poissons Ratio (y) = 0.34301 0.51025
# Poissons Ratio (z) = 0.09817 0.52404
#
# Static dielectric constant tensor:
#      x y z
#    x 1.545490 0.000000 0.009270 
#    y 0.000000 1.578710 0.000000 
#    z 0.009270 0.000000 1.536320 
# 
# From -- ./inp_files/37488.got.cif
#   From: 2010.05.17/outbox.cif.g08.bks.cpg/sg10_19_cif.got.tgz:37488.got - 2010.06.03 11:33:40.
