data_PCOD9142806
_publ_section_title
;
Structure prediction by ZEFSAII (Michael W. Deem and Ramdas Pophale) SiO2 
 PCOD9142806
Probable space group: P 2/M
;
_chemical_formula_sum "Si O2"
_cell_formula_units_Z 32
_cell_length_a 20.237326
_cell_length_b 7.378359
_cell_length_c 27.388969
_cell_angle_alpha 90.000000
_cell_angle_beta 159.059193
_cell_angle_gamma 90.000000
_cell_volume 1461.662516
_symmetry_space_group_name_H-M "P 2/M"
_symmetry_group_IT_number 10
_symmetry_cell_setting 'monoclinic'
loop_
_space_group_symop_operation_xyz
x,y,z
-x,y,-z
-x,-y,-z
x,-y,z
loop_
_atom_site_type_symbol
_atom_site_label
_atom_site_fract_x
_atom_site_fract_y
_atom_site_fract_z
Si Si1 0.685491 0.794532 0.445441
Si Si2 0.328878 0.778698 0.952643
Si Si3 0.701923 0.221323 0.790010
Si Si4 0.920502 0.222026 0.306522
Si Si5 0.992489 0.221358 0.073627
Si Si6 0.270174 0.781431 0.731516
Si Si7 0.428891 0.709765 0.740940
Si Si8 0.829982 0.207469 0.059112
O O1 0.507617 0.713473 0.349593
O O2 0.632203 0.799456 0.351319
O O3 0.888776 0.711654 0.585236
O O4 0.704907 0.000000 0.477551
O O5 0.248904 0.725951 0.845340
O O6 0.331264 0.000000 0.955151
O O7 0.535412 0.723502 0.109473
O O8 0.194846 0.714911 0.904000
O O9 0.819002 0.275165 0.823314
O O10 0.697270 0.000000 0.787728
O O11 0.824400 0.274988 0.921630
O O12 0.886238 0.279485 0.338602
O O13 0.927528 0.000000 0.311963
O O14 0.989247 0.000000 0.072561
O O15 0.955371 0.287221 0.102713
O O16 0.281794 0.723371 0.683483
O O17 0.265859 0.000000 0.727267
O O18 0.463191 0.500000 0.754181
O O19 0.620851 0.791566 0.893203
O O20 0.890594 0.000000 0.107574
#
# Coordination Sequence:
#
# PCOD9142806 Si02
#       8
#     4   4   4   4   4   4   4   4
#     4  10  18  30  47  64  89 121 152 181 213 262
#     4   8  14  25  45  71  91 108 140 190 229 252
#     4   8  13  21  38  64  91 115 144 179 210 253
#     4   9  17  28  46  70  88 111 151 191 220 251
#     4   8  12  20  39  67  90 112 145 178 211 255
#     4   9  17  31  50  67  86 113 147 186 224 265
#     4  11  21  31  44  65  93 118 144 182 227 269
#     4   9  15  27  49  70  90 116 148 182 218 262
#
# _framework density 21.892876999999999
#
# number of rings (size 3 to 8) (size 9 to 14) (size 15 to 20)
#    0.000    3.000    1.250    3.000    0.000    2.000 
#    0.000    3.125    0.000   11.250    0.000    5.250 
#    0.000    0.000    0.000    5.625    0.000    6.250 
#
# Total GULP energy -178510.904889 kJ/mol
# GULP energy per Si atom -5578.465778 kJ/mol
# Density = 2.184305 g / cm^3
# Si number density = 21.892877 Si / 1000 Ang^3
#
#
#
# Elastic Constant Matrix: (Units=GPa)
#
#
# Indices 1 2 3 4 5 6 
#
# 1 104.5856 0.1606 10.9112 0.0000 27.5886 0.0000
# 2 0.1606 83.9812 -2.6316 0.0000 6.8409 0.0000
# 3 10.9112 -2.6316 49.5823 0.0000 21.4039 0.0000
# 4 0.0000 0.0000 0.0000 -46.0032 0.0000 41.0228
# 5 27.5886 6.8409 21.4039 0.0000 36.1624 0.0000
# 6 0.0000 0.0000 0.0000 41.0228 0.0000 -90.4654
#
#
#
# Elastic Compliance Matrix: (Units=1/GPa)
#
#
# Indices 1 2 3 4 5 6 
#
# 1 0.012151 0.000901 0.001947 0.000000 -0.010593 0.000000
# 2 0.000901 0.012340 0.002365 0.000000 -0.004422 0.000000
# 3 0.001947 0.002365 0.027804 0.000000 -0.018389 0.000000
# 4 0.000000 0.000000 0.000000 -0.036495 0.000000 -0.016549
# 5 -0.010593 -0.004422 -0.018389 0.000000 0.047455 0.000000
# 6 0.000000 0.000000 0.000000 -0.016549 0.000000 -0.018558
#
#
# Mechanical properties :
#
#
# Convention : Reuss Voigt Hill
#
# Bulk Modulus (GPa) = 15.94370 28.33661 22.14015
# Shear Modulus (GPa) = 90.61481 -4.74732 42.93374
#
# Velocity S-wave (km/s) = 6.44049 -1.47416 4.43322
# Velocity P-wave (km/s) = 7.91233 3.17394 6.02822
#
# Compressibility (1/GPa) = 0.06272071
#
# Stress axis : x y z
#
# Youngs Moduli (GPa) = 82.29524 81.03733 35.96599
#
# Poissons Ratio (x) = -0.07298 -0.07001
# Poissons Ratio (y) = -0.07412 -0.08508
# Poissons Ratio (z) = -0.16019 -0.19169
#
# Static dielectric constant tensor:
#      x y z
#    x 1.807980 0.000000 0.039700 
#    y 0.000000 1.873030 0.000000 
#    z 0.039700 0.000000 1.783170 
# 
# From -- ./inp_files/54949.got.cif
#   From: 2010.05.17/outbox.cif.g08.bks.cpg/sg10_28_cif.got.tgz:54949.got - 2010.06.03 11:33:40.
