data_PCOD9142286
_publ_section_title
;
Structure prediction by ZEFSAII (Michael W. Deem and Ramdas Pophale) SiO2 
 PCOD9142286
Probable space group: P 2/M
;
_chemical_formula_sum "Si O2"
_cell_formula_units_Z 26
_cell_length_a 13.721411
_cell_length_b 14.429783
_cell_length_c 7.067589
_cell_angle_alpha 90.000000
_cell_angle_beta 52.038606
_cell_angle_gamma 90.000000
_cell_volume 1103.292005
_symmetry_space_group_name_H-M "P 2/M"
_symmetry_group_IT_number 10
_symmetry_cell_setting 'monoclinic'
loop_
_space_group_symop_operation_xyz
x,y,z
-x,y,-z
-x,-y,-z
x,-y,z
loop_
_atom_site_type_symbol
_atom_site_label
_atom_site_fract_x
_atom_site_fract_y
_atom_site_fract_z
Si Si1 0.202393 0.395928 0.646378
Si Si2 0.327433 0.753120 0.033027
Si Si3 0.134726 0.106126 0.371256
Si Si4 0.139552 0.397456 0.292399
Si Si5 0.000000 0.757236 0.000000
Si Si6 0.796150 0.107871 0.264468
Si Si7 0.602188 0.745314 0.600756
O O1 0.179967 0.500000 0.748984
O O2 0.201806 0.407145 0.421635
O O3 0.330966 0.348164 0.550679
O O4 0.096611 0.317768 0.799577
O O5 0.248342 0.846605 0.128971
O O6 0.228986 0.674848 0.085649
O O7 0.364216 0.745927 0.213072
O O8 0.454921 0.748447 0.768612
O O9 0.160348 0.109829 0.565934
O O10 0.000000 0.150088 0.500000
O O11 0.128183 0.000000 0.319406
O O12 0.129192 0.500000 0.218349
O O13 0.000000 0.365121 0.500000
O O14 0.098508 0.831827 0.966643
O O15 0.669781 0.166632 0.424615
O O16 0.786860 0.000000 0.221068
#
# Coordination Sequence:
#
# PCOD9142286 Si02
#       7
#     4   4   4   4   2   4   4
#     4   9  17  29  44  62  87 112 136 174 211 243
#     4   9  15  25  40  59  88 117 136 165 201 244
#     4   9  17  28  43  65  89 112 138 167 206 253
#     4   9  17  28  43  65  89 112 138 167 206 253
#     4  10  18  28  42  64  84 108 146 174 206 252
#     4   9  17  29  44  62  87 112 136 174 211 243
#     4   8  16  26  38  61  86 112 144 163 197 256
#
# _framework density 23.565839
#
# number of rings (size 3 to 8) (size 9 to 14) (size 15 to 20)
#    0.000    3.077    0.000    1.846    0.000    1.231 
#    0.000    6.154    0.000    0.000    0.000   17.231 
#    0.000   39.385    0.000    0.000    0.000    0.000 
#
# Total GULP energy -145026.489355 kJ/mol
# GULP energy per Si atom -5577.941898 kJ/mol
# Density = 2.351220 g / cm^3
# Si number density = 23.565839 Si / 1000 Ang^3
#
#
#
# Elastic Constant Matrix: (Units=GPa)
#
#
# Indices 1 2 3 4 5 6 
#
# 1 82.2796 30.0399 39.2847 0.0000 -14.7029 0.0000
# 2 30.0399 208.9633 86.8324 0.0000 -38.3361 0.0000
# 3 39.2847 86.8324 167.0027 0.0000 -42.0304 0.0000
# 4 0.0000 0.0000 0.0000 11.3764 0.0000 -24.9983
# 5 -14.7029 -38.3361 -42.0304 0.0000 48.1237 0.0000
# 6 0.0000 0.0000 0.0000 -24.9983 0.0000 27.7335
#
#
#
# Elastic Compliance Matrix: (Units=1/GPa)
#
#
# Indices 1 2 3 4 5 6 
#
# 1 0.013877 -0.000665 -0.002544 0.000000 0.001488 0.000000
# 2 -0.000665 0.006418 -0.002493 0.000000 0.002732 0.000000
# 3 -0.002544 -0.002493 0.009212 0.000000 0.005282 0.000000
# 4 0.000000 0.000000 0.000000 -0.089634 0.000000 -0.080794
# 5 0.001488 0.002732 0.005282 0.000000 0.028025 0.000000
# 6 0.000000 0.000000 0.000000 -0.080794 0.000000 -0.036768
#
#
# Mechanical properties :
#
#
# Convention : Reuss Voigt Hill
#
# Bulk Modulus (GPa) = 55.23814 85.61773 70.42794
# Shear Modulus (GPa) = -97.21626 37.58597 -29.81515
#
# Velocity S-wave (km/s) = -6.42982 3.99800 -3.56080
# Velocity P-wave (km/s) = 5.62429 7.59751 3.61175
#
# Compressibility (1/GPa) = 0.01810343
#
# Stress axis : x y z
#
# Youngs Moduli (GPa) = 72.06155 155.80256 108.55219
#
# Poissons Ratio (x) = 0.10356 0.27618
# Poissons Ratio (y) = 0.04790 0.27064
# Poissons Ratio (z) = 0.18334 0.38844
#
# Static dielectric constant tensor:
#      x y z
#    x 1.976670 0.000000 0.085410 
#    y 0.000000 1.887370 0.000000 
#    z 0.085410 0.000000 1.904840 
# 
# From -- ./inp_files/55970.got.cif
#   From: 2010.05.17/outbox.cif.g08.bks.cpg/sg10_28_cif.got.tgz:55970.got - 2010.06.03 11:33:40.
