data_PCOD9142436
_publ_section_title
;
Structure prediction by ZEFSAII (Michael W. Deem and Ramdas Pophale) SiO2 
 PCOD9142436
Probable space group: P 2/M
;
_chemical_formula_sum "Si O2"
_cell_formula_units_Z 32
_cell_length_a 20.723363
_cell_length_b 9.082040
_cell_length_c 25.751915
_cell_angle_alpha 90.000000
_cell_angle_beta 22.902435
_cell_angle_gamma 90.000000
_cell_volume 1886.187351
_symmetry_space_group_name_H-M "P 2/M"
_symmetry_group_IT_number 10
_symmetry_cell_setting 'monoclinic'
loop_
_space_group_symop_operation_xyz
x,y,z
-x,y,-z
-x,-y,-z
x,-y,z
loop_
_atom_site_type_symbol
_atom_site_label
_atom_site_fract_x
_atom_site_fract_y
_atom_site_fract_z
Si Si1 0.944986 0.324543 0.920341
Si Si2 0.537874 0.676663 0.824897
Si Si3 0.842585 0.830014 0.156309
Si Si4 0.647503 0.822182 0.204904
Si Si5 0.039412 0.823313 0.312488
Si Si6 0.149270 0.676573 0.124937
Si Si7 0.326712 0.823012 0.379262
Si Si8 0.334893 0.323523 0.155771
O O1 0.932294 0.500000 0.935420
O O2 0.941677 0.289181 0.861809
O O3 0.102722 0.264823 0.835130
O O4 0.783300 0.251171 0.066613
O O5 0.545417 0.500000 0.812953
O O6 0.618958 0.752452 0.715262
O O7 0.628476 0.714556 0.811636
O O8 0.343544 0.715907 0.974131
O O9 0.691835 0.779583 0.231278
O O10 0.818423 0.000000 0.189650
O O11 0.000000 0.826094 0.000000
O O12 0.465998 0.783886 0.318819
O O13 0.668683 0.000000 0.186570
O O14 0.856779 0.778825 0.467306
O O15 0.075306 0.759096 0.228952
O O16 0.179556 0.759417 0.246654
O O17 0.048225 0.000000 0.304837
O O18 0.142277 0.500000 0.138890
O O19 0.329331 0.000000 0.371962
O O20 0.308500 0.500000 0.171649
O O21 0.500000 0.290233 0.000000
#
# Coordination Sequence:
#
# PCOD9142436 Si02
#       8
#     4   4   4   4   4   4   4   4
#     4  10  18  28  48  78 107 132 169 222 266 304
#     4  10  20  36  59  82 103 137 182 218 259 316
#     4   8  15  27  44  70 103 138 174 210 255 311
#     4   9  17  31  50  71 103 144 176 208 257 312
#     4  11  24  38  55  81 109 139 177 219 267 319
#     4  10  20  36  55  78 108 140 178 221 263 313
#     4  10  22  38  54  78 112 143 175 220 266 310
#     4  10  20  38  60  79 106 140 175 219 263 312
#
# _framework density 16.965440000000001
#
# number of rings (size 3 to 8) (size 9 to 14) (size 15 to 20)
#    0.000    2.250    2.500    1.500    0.000    6.000 
#    0.000    2.500    0.000    0.750    0.000    5.250 
#    0.000    0.000    0.000    0.000    0.000    0.000 
#
# Total GULP energy -178489.891958 kJ/mol
# GULP energy per Si atom -5577.809124 kJ/mol
# Density = 1.692683 g / cm^3
# Si number density = 16.965440 Si / 1000 Ang^3
#
#
#
# Elastic Constant Matrix: (Units=GPa)
#
#
# Indices 1 2 3 4 5 6 
#
# 1 177.1095 56.9284 88.2609 0.0000 -16.0381 0.0000
# 2 56.9284 30.4282 41.0785 0.0000 -3.7766 0.0000
# 3 88.2609 41.0785 118.0332 0.0000 -4.3270 0.0000
# 4 0.0000 0.0000 0.0000 20.0793 0.0000 1.3961
# 5 -16.0381 -3.7766 -4.3270 0.0000 21.3320 0.0000
# 6 0.0000 0.0000 0.0000 1.3961 0.0000 34.4113
#
#
#
# Elastic Compliance Matrix: (Units=1/GPa)
#
#
# Indices 1 2 3 4 5 6 
#
# 1 0.015494 -0.024222 -0.002908 0.000000 0.006771 0.000000
# 2 -0.024222 0.100806 -0.017111 0.000000 -0.003835 0.000000
# 3 -0.002908 -0.017111 0.016533 0.000000 -0.001862 0.000000
# 4 0.000000 0.000000 0.000000 0.049943 0.000000 -0.002026
# 5 0.006771 -0.003835 -0.001862 0.000000 0.050912 0.000000
# 6 0.000000 0.000000 0.000000 -0.002026 0.000000 0.029142
#
#
# Mechanical properties :
#
#
# Convention : Reuss Voigt Hill
#
# Bulk Modulus (GPa) = 22.54722 77.56737 50.05730
# Shear Modulus (GPa) = 13.65753 24.45141 19.05447
#
# Velocity S-wave (km/s) = 2.84037 3.80050 3.35496
# Velocity P-wave (km/s) = 4.90671 8.06712 6.67661
#
# Compressibility (1/GPa) = 0.04435137
#
# Stress axis : x y z
#
# Youngs Moduli (GPa) = 64.54003 9.92000 60.48347
#
# Poissons Ratio (x) = 0.24029 0.17588
# Poissons Ratio (y) = 1.56331 1.03495
# Poissons Ratio (z) = 0.18767 0.16974
#
# Static dielectric constant tensor:
#      x y z
#    x 1.585240 0.000000 -0.025500 
#    y 0.000000 1.567090 0.000000 
#    z -0.025500 0.000000 1.547820 
# 
# From -- ./inp_files/93672.got.cif
#   From: 2010.05.17/outbox.cif.g08.bks.cpg/sg10_47_cif.got.tgz:93672.got - 2010.06.03 11:33:40.
