data_PCOD9142855
_publ_section_title
;
Structure prediction by ZEFSAII (Michael W. Deem and Ramdas Pophale) SiO2 
 PCOD9142855
Probable space group: P 2/M
;
_chemical_formula_sum "Si O2"
_cell_formula_units_Z 18
_cell_length_a 16.630414
_cell_length_b 10.748428
_cell_length_c 13.090482
_cell_angle_alpha 90.000000
_cell_angle_beta 153.706144
_cell_angle_gamma 90.000000
_cell_volume 1036.532494
_symmetry_space_group_name_H-M "P 2/M"
_symmetry_group_IT_number 10
_symmetry_cell_setting 'monoclinic'
loop_
_space_group_symop_operation_xyz
x,y,z
-x,y,-z
-x,-y,-z
x,-y,z
loop_
_atom_site_type_symbol
_atom_site_label
_atom_site_fract_x
_atom_site_fract_y
_atom_site_fract_z
Si Si1 0.000000 0.711767 0.000000
Si Si2 0.322939 0.363736 0.228672
Si Si3 0.483100 0.149848 0.095711
Si Si4 0.209840 0.145337 0.952128
Si Si5 0.172964 0.146389 0.386009
O O1 0.147472 0.638873 0.102094
O O2 0.111958 0.791574 0.210864
O O3 0.500000 0.350680 0.500000
O O4 0.330887 0.500000 0.185875
O O5 0.303026 0.245612 0.132293
O O6 0.290650 0.169175 0.931986
O O7 0.643945 0.196040 0.353305
O O8 0.508776 0.000000 0.118984
O O9 0.500000 0.198807 0.000000
O O10 0.253493 0.000000 0.027636
O O11 0.995128 0.159746 0.726247
O O12 0.197127 0.000000 0.393417
#
# Coordination Sequence:
#
# PCOD9142855 Si02
#       5
#     2   4   4   4   4
#     4  10  18  30  48  68  93 126 159 190 229 282
#     4  10  20  32  47  69  97 127 158 193 233 279
#     4   9  17  29  46  69  96 124 156 196 238 278
#     4   9  18  31  47  69  94 122 157 194 234 278
#     4   9  17  28  44  69  98 125 155 193 235 277
#
# _framework density 17.365591999999999
#
# number of rings (size 3 to 8) (size 9 to 14) (size 15 to 20)
#    0.000    2.667    0.000    2.000    0.000    2.222 
#    0.000    4.444    0.000    0.667    0.000    6.222 
#    0.000    0.000    0.000    0.000    0.000    0.000 
#
# Total GULP energy -100208.332944 kJ/mol
# GULP energy per Si atom -5567.129608 kJ/mol
# Density = 1.732607 g / cm^3
# Si number density = 17.365592 Si / 1000 Ang^3
#
#
#
# Elastic Constant Matrix: (Units=GPa)
#
#
# Indices 1 2 3 4 5 6 
#
# 1 89.4674 23.5630 10.8884 0.0000 -5.8523 0.0000
# 2 23.5630 45.6880 0.2486 0.0000 5.7309 0.0000
# 3 10.8884 0.2486 39.1359 0.0000 -2.2474 0.0000
# 4 0.0000 0.0000 0.0000 10.3039 0.0000 3.5132
# 5 -5.8523 5.7309 -2.2474 0.0000 16.1007 0.0000
# 6 0.0000 0.0000 0.0000 3.5132 0.0000 7.0761
#
#
#
# Elastic Compliance Matrix: (Units=1/GPa)
#
#
# Indices 1 2 3 4 5 6 
#
# 1 0.014292 -0.008314 -0.003483 0.000000 0.007668 0.000000
# 2 -0.008314 0.027762 0.001407 0.000000 -0.012707 0.000000
# 3 -0.003483 0.001407 0.026624 0.000000 0.001949 0.000000
# 4 0.000000 0.000000 0.000000 0.116827 0.000000 -0.058002
# 5 0.007668 -0.012707 0.001949 0.000000 0.069691 0.000000
# 6 0.000000 0.000000 0.000000 -0.058002 0.000000 0.170117
#
#
# Mechanical properties :
#
#
# Convention : Reuss Voigt Hill
#
# Bulk Modulus (GPa) = 20.87780 27.07680 23.97730
# Shear Modulus (GPa) = 10.82111 16.00225 13.41168
#
# Velocity S-wave (km/s) = 2.49898 3.03890 2.78207
# Velocity P-wave (km/s) = 4.51388 5.28576 4.91500
#
# Compressibility (1/GPa) = 0.04789777
#
# Stress axis : x y z
#
# Youngs Moduli (GPa) = 69.96716 36.02086 37.55995
#
# Poissons Ratio (x) = 0.29948 0.13083
# Poissons Ratio (y) = 0.58171 -0.05285
# Poissons Ratio (z) = 0.24371 -0.05068
#
# Static dielectric constant tensor:
#      x y z
#    x 1.603650 0.000000 0.020690 
#    y 0.000000 1.584940 0.000000 
#    z 0.020690 0.000000 1.587000 
# 
# From -- ./inp_files/23168.got.cif
#   From: 2010.05.17/outbox.cif.g08.bks.cpg/sg10_12_cif.got.tgz:23168.got - 2010.06.03 11:33:40.
