data_PCOD9142600
_publ_section_title
;
Structure prediction by ZEFSAII (Michael W. Deem and Ramdas Pophale) SiO2 
 PCOD9142600
Probable space group: P 2/M
;
_chemical_formula_sum "Si O2"
_cell_formula_units_Z 22
_cell_length_a 7.591001
_cell_length_b 25.762069
_cell_length_c 9.010272
_cell_angle_alpha 90.000000
_cell_angle_beta 145.931837
_cell_angle_gamma 90.000000
_cell_volume 987.061809
_symmetry_space_group_name_H-M "P 2/M"
_symmetry_group_IT_number 10
_symmetry_cell_setting 'monoclinic'
loop_
_space_group_symop_operation_xyz
x,y,z
-x,y,-z
-x,-y,-z
x,-y,z
loop_
_atom_site_type_symbol
_atom_site_label
_atom_site_fract_x
_atom_site_fract_y
_atom_site_fract_z
Si Si1 0.674854 0.664819 0.364973
Si Si2 0.731417 0.058341 0.016281
Si Si3 0.765287 0.882929 0.479926
Si Si4 0.945480 0.392756 0.135532
Si Si5 0.627232 0.221675 0.256900
Si Si6 0.873013 0.500000 0.246525
O O1 0.528883 0.722777 0.253688
O O2 0.000000 0.662556 0.500000
O O3 0.801898 0.645699 0.612464
O O4 0.411515 0.628550 0.107604
O O5 0.001901 0.101161 0.226576
O O6 0.856277 0.000000 0.092755
O O7 0.500000 0.059753 0.000000
O O8 0.499343 0.073654 0.722825
O O9 0.593805 0.827538 0.342425
O O10 0.000000 0.884683 0.500000
O O11 0.978177 0.447981 0.237074
O O12 0.000000 0.398044 0.000000
O O13 0.000000 0.226883 0.500000
O O14 0.500000 0.212600 0.000000
O O15 0.000000 0.500000 0.500000
O O16 0.500000 0.500000 0.000000
#
# Coordination Sequence:
#
# PCOD9142600 Si02
#       6
#     4   4   4   4   4   2
#     4  11  22  39  62  86 113 151 197 238 280 337
#     4   9  15  21  30  46  74 116 164 211 259 317
#     4   9  15  23  34  52  80 114 161 218 267 309
#     4  12  25  42  62  90 123 153 187 233 288 337
#     4  10  18  29  47  70  95 128 175 232 277 317
#     4  12  25  42  67  92 119 156 197 234 273 326
#
# _framework density 22.288371000000001
#
# number of rings (size 3 to 8) (size 9 to 14) (size 15 to 20)
#    0.000    1.636    0.000    9.545    0.000    2.182 
#    0.000    2.727    0.000    0.000    0.000    0.000 
#    0.000    0.000    0.000    0.000    0.000   63.636 
#
# Total GULP energy -122829.116040 kJ/mol
# GULP energy per Si atom -5583.141638 kJ/mol
# Density = 2.223764 g / cm^3
# Si number density = 22.288371 Si / 1000 Ang^3
#
#
#
# Elastic Constant Matrix: (Units=GPa)
#
#
# Indices 1 2 3 4 5 6 
#
# 1 49.8923 22.2316 19.8929 0.0000 -12.7841 0.0000
# 2 22.2316 161.1561 61.2410 0.0000 -8.8054 0.0000
# 3 19.8929 61.2410 159.7866 0.0000 -2.6576 0.0000
# 4 0.0000 0.0000 0.0000 33.8517 0.0000 -2.0211
# 5 -12.7841 -8.8054 -2.6576 0.0000 23.4232 0.0000
# 6 0.0000 0.0000 0.0000 -2.0211 0.0000 -15.1323
#
#
#
# Elastic Compliance Matrix: (Units=1/GPa)
#
#
# Indices 1 2 3 4 5 6 
#
# 1 0.025017 -0.001937 -0.002161 0.000000 0.012681 0.000000
# 2 -0.001937 0.007552 -0.002629 0.000000 0.001484 0.000000
# 3 -0.002161 -0.002629 0.007513 0.000000 -0.001315 0.000000
# 4 0.000000 0.000000 0.000000 0.029307 0.000000 -0.003914
# 5 0.012681 0.001484 -0.001315 0.000000 0.050022 0.000000
# 6 0.000000 0.000000 0.000000 -0.003914 0.000000 -0.065561
#
#
# Mechanical properties :
#
#
# Convention : Reuss Voigt Hill
#
# Bulk Modulus (GPa) = 37.55354 64.17401 50.86378
# Shear Modulus (GPa) = 65.63325 26.25982 45.94654
#
# Velocity S-wave (km/s) = 5.43242 3.43619 4.54525
# Velocity P-wave (km/s) = 7.49892 6.67820 7.10043
#
# Compressibility (1/GPa) = 0.02662865
#
# Stress axis : x y z
#
# Youngs Moduli (GPa) = 39.97250 132.40827 133.10151
#
# Poissons Ratio (x) = 0.25647 0.28767
# Poissons Ratio (y) = 0.07743 0.34989
# Poissons Ratio (z) = 0.08639 0.34807
#
# Static dielectric constant tensor:
#      x y z
#    x 1.850290 0.000000 -0.012230 
#    y 0.000000 1.890220 0.000000 
#    z -0.012230 0.000000 1.764170 
# 
# From -- ./inp_files/20874.got.cif
#   From: 2010.05.17/outbox.cif.g08.bks.cpg/sg10_11_cif.got.tgz:20874.got - 2010.06.03 11:33:40.
