data_PCOD9142197
_publ_section_title
;
Structure prediction by ZEFSAII (Michael W. Deem and Ramdas Pophale) SiO2 
 PCOD9142197
Probable space group: P 2/M
;
_chemical_formula_sum "Si O2"
_cell_formula_units_Z 28
_cell_length_a 14.490415
_cell_length_b 8.955020
_cell_length_c 29.596657
_cell_angle_alpha 90.000000
_cell_angle_beta 28.570470
_cell_angle_gamma 90.000000
_cell_volume 1836.687593
_symmetry_space_group_name_H-M "P 2/M"
_symmetry_group_IT_number 10
_symmetry_cell_setting 'monoclinic'
loop_
_space_group_symop_operation_xyz
x,y,z
-x,y,-z
-x,-y,-z
x,-y,z
loop_
_atom_site_type_symbol
_atom_site_label
_atom_site_fract_x
_atom_site_fract_y
_atom_site_fract_z
Si Si1 0.804999 0.172470 0.553261
Si Si2 0.069747 0.179607 0.360673
Si Si3 0.600356 0.676720 0.718994
Si Si4 0.198572 0.678535 0.939031
Si Si5 0.652644 0.822986 0.034815
Si Si6 0.771448 0.320334 0.793673
Si Si7 0.730254 0.328497 0.911366
O O1 0.652353 0.270116 0.646189
O O2 0.000000 0.176105 0.500000
O O3 0.881115 0.220710 0.471390
O O4 0.741461 0.000000 0.578823
O O5 0.254582 0.238166 0.309495
O O6 0.085997 0.252518 0.304656
O O7 0.078265 0.000000 0.354689
O O8 0.635897 0.500000 0.708064
O O9 0.382555 0.707976 0.827816
O O10 0.195383 0.500000 0.949454
O O11 0.234452 0.763836 0.970239
O O12 0.000000 0.719634 0.000000
O O13 0.441342 0.745387 0.125264
O O14 0.627457 0.000000 0.047136
O O15 0.756230 0.773403 0.943805
O O16 0.761575 0.500000 0.794499
O O17 0.821139 0.282435 0.824364
O O18 0.783580 0.500000 0.898862
O O19 0.500000 0.328130 0.000000
#
# Coordination Sequence:
#
# PCOD9142197 Si02
#       7
#     4   4   4   4   4   4   4
#     4   8  16  28  40  57  84 114 141 171 214 261
#     4  10  18  27  41  62  88 117 143 174 216 258
#     4  10  18  28  44  61  80 111 148 183 217 255
#     4  10  21  35  48  62  84 116 152 188 224 259
#     4  11  20  29  44  63  85 113 145 183 222 258
#     4  10  18  28  43  63  87 117 148 177 211 256
#     4   8  16  29  43  59  83 114 145 175 211 257
#
# _framework density 15.244835
#
# number of rings (size 3 to 8) (size 9 to 14) (size 15 to 20)
#    0.000    2.429    1.429    4.286    0.000    7.143 
#    0.000    0.000    0.000    0.000    0.000    0.000 
#    0.000    1.143    0.000   12.857    0.000    6.429 
#
# Total GULP energy -156011.464251 kJ/mol
# GULP energy per Si atom -5571.838009 kJ/mol
# Density = 1.521014 g / cm^3
# Si number density = 15.244835 Si / 1000 Ang^3
#
#
#
# Elastic Constant Matrix: (Units=GPa)
#
#
# Indices 1 2 3 4 5 6 
#
# 1 68.6487 45.6534 52.9426 0.0000 24.8087 0.0000
# 2 45.6534 67.1014 47.1996 0.0000 16.5001 0.0000
# 3 52.9426 47.1996 87.3056 0.0000 34.9955 0.0000
# 4 0.0000 0.0000 0.0000 12.0173 0.0000 16.8851
# 5 24.8087 16.5001 34.9955 0.0000 31.8644 0.0000
# 6 0.0000 0.0000 0.0000 16.8851 0.0000 -1.3358
#
#
#
# Elastic Compliance Matrix: (Units=1/GPa)
#
#
# Indices 1 2 3 4 5 6 
#
# 1 0.035231 -0.014960 -0.009623 0.000000 -0.009115 0.000000
# 2 -0.014960 0.030591 -0.010336 0.000000 0.007158 0.000000
# 3 -0.009623 -0.010336 0.031671 0.000000 -0.021939 0.000000
# 4 0.000000 0.000000 0.000000 0.004436 0.000000 0.056067
# 5 -0.009115 0.007158 -0.021939 0.000000 0.058868 0.000000
# 6 0.000000 0.000000 0.000000 0.056067 0.000000 -0.039904
#
#
# Mechanical properties :
#
#
# Convention : Reuss Voigt Hill
#
# Bulk Modulus (GPa) = 36.15843 57.18299 46.67071
# Shear Modulus (GPa) = 25.00643 13.65986 19.33314
#
# Velocity S-wave (km/s) = 4.05448 2.99663 3.56501
# Velocity P-wave (km/s) = 6.75932 7.04019 6.90118
#
# Compressibility (1/GPa) = 0.02765607
#
# Stress axis : x y z
#
# Youngs Moduli (GPa) = 28.38425 32.68941 31.57422
#
# Poissons Ratio (x) = 0.48902 0.30384
# Poissons Ratio (y) = 0.42461 0.32635
# Poissons Ratio (z) = 0.27315 0.33787
#
# Static dielectric constant tensor:
#      x y z
#    x 1.496010 0.000000 0.045970 
#    y 0.000000 1.509990 0.000000 
#    z 0.045970 0.000000 1.526540 
# 
# From -- ./inp_files/95180.got.cif
#   From: 2010.05.17/outbox.cif.g08.bks.cpg/sg10_48_cif.got.tgz:95180.got - 2010.06.03 11:33:40.
