data_PCOD9142177
_publ_section_title
;
Structure prediction by ZEFSAII (Michael W. Deem and Ramdas Pophale) SiO2 
 PCOD9142177
Probable space group: P 2/M
;
_chemical_formula_sum "Si O2"
_cell_formula_units_Z 24
_cell_length_a 12.693084
_cell_length_b 16.433416
_cell_length_c 17.806415
_cell_angle_alpha 90.000000
_cell_angle_beta 18.292830
_cell_angle_gamma 90.000000
_cell_volume 1165.806148
_symmetry_space_group_name_H-M "P 2/M"
_symmetry_group_IT_number 10
_symmetry_cell_setting 'monoclinic'
loop_
_space_group_symop_operation_xyz
x,y,z
-x,y,-z
-x,-y,-z
x,-y,z
loop_
_atom_site_type_symbol
_atom_site_label
_atom_site_fract_x
_atom_site_fract_y
_atom_site_fract_z
Si Si1 0.209243 0.177886 0.261122
Si Si2 0.292580 0.259661 0.965999
Si Si3 0.220682 0.709117 0.549869
Si Si4 0.269372 0.830014 0.730753
Si Si5 0.113216 0.000000 0.287991
Si Si6 0.658717 0.592893 0.181840
Si Si7 0.500092 0.000000 0.408560
O O1 0.946683 0.241643 0.404880
O O2 0.067087 0.085939 0.362233
O O3 0.500000 0.172943 0.000000
O O4 0.389611 0.215933 0.211312
O O5 0.034629 0.283615 0.207924
O O6 0.098253 0.193623 0.046774
O O7 0.344973 0.340649 0.882009
O O8 0.562009 0.757280 0.337960
O O9 0.340463 0.619304 0.447997
O O10 0.500000 0.833865 0.500000
O O11 0.319010 0.916561 0.735775
O O12 0.500000 0.000000 0.000000
O O13 0.864759 0.000000 0.383907
O O14 0.633590 0.500000 0.172668
O O15 0.000000 0.599482 0.000000
O O16 0.500000 0.000000 0.500000
#
# Coordination Sequence:
#
# PCOD9142177 Si02
#       7
#     4   4   4   4   2   4   2
#     4   9  19  33  57  85 121 161 198 235 288 344
#     4  10  21  38  59  88 119 154 197 239 291 355
#     4  10  19  38  60  85 118 157 189 237 294 348
#     4   9  17  29  52  80 116 157 194 233 280 330
#     4  10  18  28  48  85 124 158 203 246 279 338
#     4  11  24  40  63  91 114 145 193 248 304 360
#     4  10  18  26  48  87 123 159 204 244 281 332
#
# _framework density 20.586613
#
# number of rings (size 3 to 8) (size 9 to 14) (size 15 to 20)
#    0.000    2.167    3.333    0.000    7.000    1.333 
#    0.000    3.333    0.000    9.000    0.000    0.000 
#    0.000    0.000    0.000    0.000    0.000    0.000 
#
# Total GULP energy -133967.982541 kJ/mol
# GULP energy per Si atom -5581.999273 kJ/mol
# Density = 2.053976 g / cm^3
# Si number density = 20.586613 Si / 1000 Ang^3
#
#
#
# Elastic Constant Matrix: (Units=GPa)
#
#
# Indices 1 2 3 4 5 6 
#
# 1 105.5803 50.0804 46.8240 0.0000 -28.2424 0.0000
# 2 50.0804 160.2325 31.0620 0.0000 -22.8144 0.0000
# 3 46.8240 31.0620 59.9640 0.0000 -13.8010 0.0000
# 4 0.0000 0.0000 0.0000 19.6867 0.0000 -7.7034
# 5 -28.2424 -22.8144 -13.8010 0.0000 48.9019 0.0000
# 6 0.0000 0.0000 0.0000 -7.7034 0.0000 14.9202
#
#
#
# Elastic Compliance Matrix: (Units=1/GPa)
#
#
# Indices 1 2 3 4 5 6 
#
# 1 0.016804 -0.002403 -0.010589 0.000000 0.005596 0.000000
# 2 -0.002403 0.007549 -0.001651 0.000000 0.001669 0.000000
# 3 -0.010589 -0.001651 0.025898 0.000000 0.000423 0.000000
# 4 0.000000 0.000000 0.000000 0.063656 0.000000 0.032866
# 5 0.005596 0.001669 0.000423 0.000000 0.024579 0.000000
# 6 0.000000 0.000000 0.000000 0.032866 0.000000 0.083992
#
#
# Mechanical properties :
#
#
# Convention : Reuss Voigt Hill
#
# Bulk Modulus (GPa) = 47.69514 64.63440 56.16477
# Shear Modulus (GPa) = 19.32348 29.88914 24.60631
#
# Velocity S-wave (km/s) = 3.06705 3.81448 3.46100
# Velocity P-wave (km/s) = 5.98003 7.13196 6.58124
#
# Compressibility (1/GPa) = 0.02096650
#
# Stress axis : x y z
#
# Youngs Moduli (GPa) = 59.50881 132.46064 38.61297
#
# Poissons Ratio (x) = 0.31825 0.40889
# Poissons Ratio (y) = 0.14298 0.06373
# Poissons Ratio (z) = 0.63017 0.21863
#
# Static dielectric constant tensor:
#      x y z
#    x 1.688220 0.000000 0.067390 
#    y 0.000000 1.717970 0.000000 
#    z 0.067390 0.000000 1.756320 
# 
# From -- ./inp_files/77168.got.cif
#   From: 2010.05.17/outbox.cif.g08.bks.cpg/sg10_39_cif.got.tgz:77168.got - 2010.06.03 11:33:40.
