data_PCOD9142416
_publ_section_title
;
Structure prediction by ZEFSAII (Michael W. Deem and Ramdas Pophale) SiO2 
 PCOD9142416
Probable space group: P 2/M
;
_chemical_formula_sum "Si O2"
_cell_formula_units_Z 32
_cell_length_a 21.059501
_cell_length_b 9.113257
_cell_length_c 32.711026
_cell_angle_alpha 90.000000
_cell_angle_beta 161.700265
_cell_angle_gamma 90.000000
_cell_volume 1971.192330
_symmetry_space_group_name_H-M "P 2/M"
_symmetry_group_IT_number 10
_symmetry_cell_setting 'monoclinic'
loop_
_space_group_symop_operation_xyz
x,y,z
-x,y,-z
-x,-y,-z
x,-y,z
loop_
_atom_site_type_symbol
_atom_site_label
_atom_site_fract_x
_atom_site_fract_y
_atom_site_fract_z
Si Si1 0.628327 0.826952 0.876420
Si Si2 0.789104 0.832197 0.796317
Si Si3 0.321759 0.174213 0.184509
Si Si4 0.747188 0.674487 0.460428
Si Si5 0.024120 0.326021 0.869559
Si Si6 0.302305 0.829631 0.487048
Si Si7 0.173698 0.175982 0.573364
Si Si8 0.715193 0.322884 0.610474
O O1 0.736199 0.803641 0.898013
O O2 0.394880 0.782472 0.726668
O O3 0.629792 0.000000 0.885760
O O4 0.757297 0.744800 0.989275
O O5 0.820904 0.801081 0.863806
O O6 0.889578 0.723874 0.825933
O O7 0.546360 0.825951 0.642028
O O8 0.855362 0.000000 0.828286
O O9 0.515664 0.276357 0.310215
O O10 0.380745 0.000000 0.223460
O O11 0.766527 0.500000 0.473868
O O12 0.793999 0.747333 0.532860
O O13 0.860675 0.742777 0.490650
O O14 0.042697 0.500000 0.880219
O O15 0.897461 0.280219 0.752219
O O16 0.261239 0.751694 0.418981
O O17 0.242027 0.000000 0.449738
O O18 0.000000 0.206623 0.500000
O O19 0.180624 0.000000 0.570124
O O20 0.500000 0.282035 0.500000
O O21 0.713805 0.500000 0.605189
#
# Coordination Sequence:
#
# PCOD9142416 Si02
#       8
#     4   4   4   4   4   4   4   4
#     4   9  18  33  50  68  95 126 158 197 239 286
#     4   9  17  29  45  64  87 121 166 208 244 281
#     4   8  16  31  47  64  89 126 167 203 238 280
#     4  10  18  28  47  75 105 131 156 194 244 294
#     4  11  22  32  44  64  94 129 165 205 249 293
#     4  10  19  31  49  70  94 127 170 214 250 288
#     4   9  18  35  58  80 102 129 160 194 235 288
#     4  10  20  34  48  65  93 129 171 217 258 291
#
# _framework density 16.233830000000001
#
# number of rings (size 3 to 8) (size 9 to 14) (size 15 to 20)
#    0.000    2.500    1.250    3.375    0.000    6.000 
#    0.000    2.500    0.000    0.000    0.000    0.875 
#    0.000    7.000    0.000    0.000    0.000    0.000 
#
# Total GULP energy -178368.730699 kJ/mol
# GULP energy per Si atom -5574.022834 kJ/mol
# Density = 1.619688 g / cm^3
# Si number density = 16.233830 Si / 1000 Ang^3
#
#
#
# Elastic Constant Matrix: (Units=GPa)
#
#
# Indices 1 2 3 4 5 6 
#
# 1 119.0405 56.2406 58.3676 0.0000 -17.4694 0.0000
# 2 56.2406 60.0198 38.0843 0.0000 -16.8135 0.0000
# 3 58.3676 38.0843 89.1527 0.0000 -24.6584 0.0000
# 4 0.0000 0.0000 0.0000 21.8722 0.0000 -4.0355
# 5 -17.4694 -16.8135 -24.6584 0.0000 28.3845 0.0000
# 6 0.0000 0.0000 0.0000 -4.0355 0.0000 15.2242
#
#
#
# Elastic Compliance Matrix: (Units=1/GPa)
#
#
# Indices 1 2 3 4 5 6 
#
# 1 0.017259 -0.012730 -0.006593 0.000000 -0.002646 0.000000
# 2 -0.012730 0.033243 -0.003405 0.000000 0.008898 0.000000
# 3 -0.006593 -0.003405 0.020149 0.000000 0.011429 0.000000
# 4 0.000000 0.000000 0.000000 0.048071 0.000000 0.012742
# 5 -0.002646 0.008898 0.011429 0.000000 0.048802 0.000000
# 6 0.000000 0.000000 0.000000 0.012742 0.000000 0.069062
#
#
# Mechanical properties :
#
#
# Convention : Reuss Voigt Hill
#
# Bulk Modulus (GPa) = 39.69204 63.73312 51.71258
# Shear Modulus (GPa) = 17.21509 20.79754 19.00632
#
# Velocity S-wave (km/s) = 3.25998 3.58316 3.42539
# Velocity P-wave (km/s) = 6.21878 7.51421 6.89698
#
# Compressibility (1/GPa) = 0.02519397
#
# Stress axis : x y z
#
# Youngs Moduli (GPa) = 57.93943 30.08123 49.62989
#
# Poissons Ratio (x) = 0.38294 0.32723
# Poissons Ratio (y) = 0.73758 0.16901
# Poissons Ratio (z) = 0.38202 0.10244
#
# Static dielectric constant tensor:
#      x y z
#    x 1.546590 0.000000 -0.003430 
#    y 0.000000 1.538730 0.000000 
#    z -0.003430 0.000000 1.567380 
# 
# From -- ./inp_files/95681.got.cif
#   From: 2010.05.17/outbox.cif.g08.bks.cpg/sg10_48_cif.got.tgz:95681.got - 2010.06.03 11:33:40.
