data_PCOD9142207
_publ_section_title
;
Structure prediction by ZEFSAII (Michael W. Deem and Ramdas Pophale) SiO2 
 PCOD9142207
Probable space group: P 2/M
;
_chemical_formula_sum "Si O2"
_cell_formula_units_Z 32
_cell_length_a 12.828651
_cell_length_b 7.375770
_cell_length_c 30.431203
_cell_angle_alpha 90.000000
_cell_angle_beta 147.628450
_cell_angle_gamma 90.000000
_cell_volume 1541.671743
_symmetry_space_group_name_H-M "P 2/M"
_symmetry_group_IT_number 10
_symmetry_cell_setting 'monoclinic'
loop_
_space_group_symop_operation_xyz
x,y,z
-x,y,-z
-x,-y,-z
x,-y,z
loop_
_atom_site_type_symbol
_atom_site_label
_atom_site_fract_x
_atom_site_fract_y
_atom_site_fract_z
Si Si1 0.435686 0.215025 0.043702
Si Si2 0.931915 0.280059 0.552777
Si Si3 0.784978 0.291990 0.687746
Si Si4 0.548252 0.277786 0.367011
Si Si5 0.620849 0.720984 0.297744
Si Si6 0.030742 0.721472 0.335171
Si Si7 0.813064 0.219915 0.124009
Si Si8 0.412225 0.283909 0.810957
O O1 0.638979 0.280787 0.094677
O O2 0.440012 0.247927 0.096971
O O3 0.439611 0.000000 0.038831
O O4 0.258657 0.278429 0.949988
O O5 0.933923 0.500000 0.552325
O O6 0.761293 0.222009 0.459822
O O7 0.892713 0.227756 0.589424
O O8 0.151347 0.224569 0.619353
O O9 0.726997 0.500000 0.658111
O O10 0.981695 0.290456 0.786499
O O11 0.613040 0.213022 0.655976
O O12 0.845524 0.212413 0.662152
O O13 0.543253 0.500000 0.365199
O O14 0.518658 0.219694 0.306145
O O15 0.616920 0.500000 0.296395
O O16 0.542872 0.781575 0.222360
O O17 0.028505 0.500000 0.332376
O O18 0.804587 0.781860 0.252726
O O19 0.825108 0.000000 0.129867
O O20 0.395267 0.500000 0.801699
#
# Coordination Sequence:
#
# PCOD9142207 Si02
#       8
#     4   4   4   4   4   4   4   4
#     4   9  17  29  46  67  87 107 139 178 211 253
#     4   8  13  22  37  57  86 119 146 177 215 251
#     4  10  18  27  41  63  93 118 141 176 212 254
#     4   9  16  24  37  60  87 119 152 178 208 247
#     4   8  14  24  39  60  87 116 147 181 213 246
#     4   8  14  23  35  58  89 115 138 170 215 254
#     4   9  18  31  45  63  88 115 139 169 212 260
#     4   9  15  25  43  65  90 114 136 173 220 257
#
# _framework density 20.756689999999999
#
# number of rings (size 3 to 8) (size 9 to 14) (size 15 to 20)
#    0.000    3.250    1.250    2.625    0.000    2.500 
#    0.000    3.750    0.000    1.500    0.000   10.500 
#    0.000    5.000    0.000    0.000    0.000    0.000 
#
# Total GULP energy -178416.459916 kJ/mol
# GULP energy per Si atom -5575.514372 kJ/mol
# Density = 2.070945 g / cm^3
# Si number density = 20.756690 Si / 1000 Ang^3
#
#
#
# Elastic Constant Matrix: (Units=GPa)
#
#
# Indices 1 2 3 4 5 6 
#
# 1 111.4149 3.4857 14.8021 0.0000 -32.6941 0.0000
# 2 3.4857 71.4958 -8.5808 0.0000 0.1974 0.0000
# 3 14.8021 -8.5808 36.2223 0.0000 -28.7189 0.0000
# 4 0.0000 0.0000 0.0000 21.7027 0.0000 -12.1553
# 5 -32.6941 0.1974 -28.7189 0.0000 32.1987 0.0000
# 6 0.0000 0.0000 0.0000 -12.1553 0.0000 -1.5584
#
#
#
# Elastic Compliance Matrix: (Units=1/GPa)
#
#
# Indices 1 2 3 4 5 6 
#
# 1 0.017281 0.002050 0.025017 0.000000 0.039848 0.000000
# 2 0.002050 0.015667 0.015189 0.000000 0.015533 0.000000
# 3 0.025017 0.015189 0.140177 0.000000 0.150337 0.000000
# 4 0.000000 0.000000 0.000000 0.008583 0.000000 -0.066945
# 5 0.039848 0.015533 0.150337 0.000000 0.205513 0.000000
# 6 0.000000 0.000000 0.000000 -0.066945 0.000000 -0.119526
#
#
# Mechanical properties :
#
#
# Convention : Reuss Voigt Hill
#
# Bulk Modulus (GPa) = 3.88143 26.50523 15.19333
# Shear Modulus (GPa) = 18.58314 24.43033 21.50674
#
# Velocity S-wave (km/s) = 2.99538 3.43444 3.22240
# Velocity P-wave (km/s) = 3.71982 5.34083 4.60225
#
# Compressibility (1/GPa) = 0.25763702
#
# Stress axis : x y z
#
# Youngs Moduli (GPa) = 57.86795 63.82860 7.13383
#
# Poissons Ratio (x) = -0.13085 -0.17847
# Poissons Ratio (y) = -0.11863 -0.10836
# Poissons Ratio (z) = -1.44769 -0.96949
#
# Static dielectric constant tensor:
#      x y z
#    x 1.752260 0.000000 -0.041580 
#    y 0.000000 1.812660 0.000000 
#    z -0.041580 0.000000 1.727320 
# 
# From -- ./inp_files/53362.got.cif
#   From: 2010.05.17/outbox.cif.g08.bks.cpg/sg10_27_cif.got.tgz:53362.got - 2010.06.03 11:33:40.
