data_PCOD9142749
_publ_section_title
;
Structure prediction by ZEFSAII (Michael W. Deem and Ramdas Pophale) SiO2 
 PCOD9142749
Probable space group: P 2/M
;
_chemical_formula_sum "Si O2"
_cell_formula_units_Z 32
_cell_length_a 26.664443
_cell_length_b 8.658479
_cell_length_c 15.095950
_cell_angle_alpha 90.000000
_cell_angle_beta 147.777120
_cell_angle_gamma 90.000000
_cell_volume 1858.387324
_symmetry_space_group_name_H-M "P 2/M"
_symmetry_group_IT_number 10
_symmetry_cell_setting 'monoclinic'
loop_
_space_group_symop_operation_xyz
x,y,z
-x,y,-z
-x,-y,-z
x,-y,z
loop_
_atom_site_type_symbol
_atom_site_label
_atom_site_fract_x
_atom_site_fract_y
_atom_site_fract_z
Si Si1 0.266984 0.313229 0.623226
Si Si2 0.651880 0.313123 0.071985
Si Si3 0.436296 0.313010 0.751502
Si Si4 0.345569 0.816651 0.117626
Si Si5 0.272489 0.684889 0.182767
Si Si6 0.894983 0.814053 0.739151
Si Si7 0.553548 0.313557 0.435539
Si Si8 0.886691 0.813528 0.928290
O O1 0.267157 0.500000 0.621583
O O2 0.282973 0.265927 0.748766
O O3 0.356798 0.257685 0.699741
O O4 0.173577 0.254528 0.436354
O O5 0.652212 0.500000 0.066004
O O6 0.543657 0.265708 0.931205
O O7 0.677333 0.246255 0.014475
O O8 0.435629 0.500000 0.755506
O O9 0.416003 0.271203 0.619129
O O10 0.277780 0.753546 0.092646
O O11 0.450950 0.756684 0.297114
O O12 0.345064 0.000000 0.116167
O O13 0.273062 0.500000 0.178904
O O14 0.367185 0.734406 0.376787
O O15 0.184530 0.740619 0.108862
O O16 0.004494 0.771398 0.891183
O O17 0.890106 0.000000 0.729145
O O18 0.865429 0.765921 0.794812
O O19 0.544111 0.500000 0.425101
O O20 0.879914 0.000000 0.922143
#
# Coordination Sequence:
#
# PCOD9142749 Si02
#       8
#     4   4   4   4   4   4   4   4
#     4  10  18  29  51  78 100 129 171 211 247 292
#     4   9  18  33  50  69  99 136 171 210 251 289
#     4   8  14  27  47  71  99 130 163 198 239 288
#     4  11  22  34  49  70  99 135 172 208 246 293
#     4  11  21  33  53  77  99 128 167 210 253 294
#     4   9  19  35  53  74 105 138 162 194 244 298
#     4   9  18  32  49  71 102 135 165 200 245 295
#     4   9  19  36  54  74 103 137 166 194 240 299
#
# _framework density 17.219228999999999
#
# number of rings (size 3 to 8) (size 9 to 14) (size 15 to 20)
#    0.000    2.500    0.000    4.500    0.000    6.500 
#    0.000    5.000    0.000    4.500    0.000    5.250 
#    0.000    0.000    0.000    0.000    0.000    0.000 
#
# Total GULP energy -178541.804343 kJ/mol
# GULP energy per Si atom -5579.431386 kJ/mol
# Density = 1.718004 g / cm^3
# Si number density = 17.219229 Si / 1000 Ang^3
#
#
#
# Elastic Constant Matrix: (Units=GPa)
#
#
# Indices 1 2 3 4 5 6 
#
# 1 138.0505 36.8961 72.5940 0.0000 -10.3201 0.0000
# 2 36.8961 27.7052 28.4611 0.0000 -5.4446 0.0000
# 3 72.5940 28.4611 116.7559 0.0000 -25.0982 0.0000
# 4 0.0000 0.0000 0.0000 32.5451 0.0000 0.4583
# 5 -10.3201 -5.4446 -25.0982 0.0000 15.4610 0.0000
# 6 0.0000 0.0000 0.0000 0.4583 0.0000 24.7913
#
#
#
# Elastic Compliance Matrix: (Units=1/GPa)
#
#
# Indices 1 2 3 4 5 6 
#
# 1 0.013699 -0.012459 -0.006847 0.000000 -0.006359 0.000000
# 2 -0.012459 0.059588 -0.006230 0.000000 0.002555 0.000000
# 3 -0.006847 -0.006230 0.019794 0.000000 0.025368 0.000000
# 4 0.000000 0.000000 0.000000 0.030735 0.000000 -0.000568
# 5 -0.006359 0.002555 0.025368 0.000000 0.102514 0.000000
# 6 0.000000 0.000000 0.000000 -0.000568 0.000000 0.040347
#
#
# Mechanical properties :
#
#
# Convention : Reuss Voigt Hill
#
# Bulk Modulus (GPa) = 23.80454 62.04599 42.92526
# Shear Modulus (GPa) = 15.07152 24.19685 19.63418
#
# Velocity S-wave (km/s) = 2.96171 3.75270 3.38042
# Velocity P-wave (km/s) = 5.05470 7.40865 6.34185
#
# Compressibility (1/GPa) = 0.04200880
#
# Stress axis : x y z
#
# Youngs Moduli (GPa) = 72.99917 16.78184 50.52050
#
# Poissons Ratio (x) = 0.20908 0.34592
# Poissons Ratio (y) = 0.90948 0.31475
# Poissons Ratio (z) = 0.49984 0.10455
#
# Static dielectric constant tensor:
#      x y z
#    x 1.580770 0.000000 -0.011070 
#    y 0.000000 1.585030 0.000000 
#    z -0.011070 0.000000 1.573400 
# 
# From -- ./inp_files/72238.got.cif
#   From: 2010.05.17/outbox.cif.g08.bks.cpg/sg10_37_cif.got.tgz:72238.got - 2010.06.03 11:33:40.
