data_PCOD9142399
_publ_section_title
;
Structure prediction by ZEFSAII (Michael W. Deem and Ramdas Pophale) SiO2 
 PCOD9142399
Probable space group: P 2/M
;
_chemical_formula_sum "Si O2"
_cell_formula_units_Z 28
_cell_length_a 23.423970
_cell_length_b 12.109263
_cell_length_c 17.879668
_cell_angle_alpha 90.000000
_cell_angle_beta 18.901781
_cell_angle_gamma 90.000000
_cell_volume 1642.901004
_symmetry_space_group_name_H-M "P 2/M"
_symmetry_group_IT_number 10
_symmetry_cell_setting 'monoclinic'
loop_
_space_group_symop_operation_xyz
x,y,z
-x,y,-z
-x,-y,-z
x,-y,z
loop_
_atom_site_type_symbol
_atom_site_label
_atom_site_fract_x
_atom_site_fract_y
_atom_site_fract_z
Si Si1 0.652761 0.634871 0.118932
Si Si2 0.300856 0.726132 0.772931
Si Si3 0.470635 0.629712 0.121514
Si Si4 0.154239 0.370572 0.259846
Si Si5 0.286565 0.297423 0.494448
Si Si6 0.146207 0.500000 0.752262
Si Si7 0.013616 0.131730 0.894761
Si Si8 0.315179 0.500000 0.685618
O O1 0.657508 0.500000 0.113541
O O2 0.684250 0.685475 0.160679
O O3 0.470063 0.680301 0.310722
O O4 0.805401 0.673180 0.872437
O O5 0.500000 0.754879 0.500000
O O6 0.237796 0.616843 0.806033
O O7 0.159826 0.820128 0.930877
O O8 0.417028 0.500000 0.184615
O O9 0.335920 0.689329 0.345615
O O10 0.500000 0.669169 0.000000
O O11 0.661892 0.633889 0.923624
O O12 0.108860 0.500000 0.305704
O O13 0.000000 0.318526 0.500000
O O14 0.159926 0.395057 0.681814
O O15 0.185651 0.187618 0.644486
O O16 0.318552 0.500000 0.592615
O O17 0.000000 0.500000 0.000000
O O18 0.020938 0.000000 0.880439
O O19 0.000000 0.162121 0.000000
O O20 0.500000 0.500000 0.500000
#
# Coordination Sequence:
#
# PCOD9142399 Si02
#       8
#     4   4   4   4   4   2   4   2
#     4  10  18  32  52  79 113 139 169 212 275 336
#     4  11  21  34  54  79 107 139 175 224 275 328
#     4   9  17  30  49  78 114 145 173 208 264 336
#     4   8  15  27  43  67 102 145 171 196 242 313
#     4  11  19  35  55  79 111 146 178 223 274 328
#     4  12  20  28  47  75 105 135 172 210 267 327
#     4  11  25  42  55  73 104 147 197 238 269 311
#     4  10  18  28  46  73 105 129 158 206 265 325
#
# _framework density 17.043022000000001
#
# number of rings (size 3 to 8) (size 9 to 14) (size 15 to 20)
#    0.000    1.857    2.143    5.571    0.000    1.429 
#    0.000    2.143    0.000    0.429    0.000    0.000 
#    0.000    5.143    0.000    0.000    0.000    0.000 
#
# Total GULP energy -156004.894218 kJ/mol
# GULP energy per Si atom -5571.603365 kJ/mol
# Density = 1.700423 g / cm^3
# Si number density = 17.043022 Si / 1000 Ang^3
#
#
#
# Elastic Constant Matrix: (Units=GPa)
#
#
# Indices 1 2 3 4 5 6 
#
# 1 100.5088 31.3554 47.6854 0.0000 31.4320 0.0000
# 2 31.3554 65.8969 39.0965 0.0000 8.3272 0.0000
# 3 47.6854 39.0965 135.3112 0.0000 32.7804 0.0000
# 4 0.0000 0.0000 0.0000 15.5368 0.0000 -2.2962
# 5 31.4320 8.3272 32.7804 0.0000 35.5577 0.0000
# 6 0.0000 0.0000 0.0000 -2.2962 0.0000 13.0557
#
#
#
# Elastic Compliance Matrix: (Units=1/GPa)
#
#
# Indices 1 2 3 4 5 6 
#
# 1 0.015826 -0.005338 -0.001221 0.000000 -0.011614 0.000000
# 2 -0.005338 0.020131 -0.005068 0.000000 0.004677 0.000000
# 3 -0.001221 -0.005068 0.011248 0.000000 -0.008103 0.000000
# 4 0.000000 0.000000 0.000000 0.066081 0.000000 0.011622
# 5 -0.011614 0.004677 -0.008103 0.000000 0.044764 0.000000
# 6 0.000000 0.000000 0.000000 0.011622 0.000000 0.078639
#
#
# Mechanical properties :
#
#
# Convention : Reuss Voigt Hill
#
# Bulk Modulus (GPa) = 41.75421 59.77681 50.76551
# Shear Modulus (GPa) = 18.66164 25.06870 21.86517
#
# Velocity S-wave (km/s) = 3.31263 3.83940 3.58570
# Velocity P-wave (km/s) = 6.25970 7.40303 6.85524
#
# Compressibility (1/GPa) = 0.02394968
#
# Stress axis : x y z
#
# Youngs Moduli (GPa) = 63.18660 49.67362 88.90216
#
# Poissons Ratio (x) = 0.26517 0.10858
# Poissons Ratio (y) = 0.33730 0.45060
# Poissons Ratio (z) = 0.07718 0.25177
#
# Static dielectric constant tensor:
#      x y z
#    x 1.611290 0.000000 -0.011760 
#    y 0.000000 1.556090 0.000000 
#    z -0.011760 0.000000 1.673870 
# 
# From -- ./inp_files/80229.got.cif
#   From: 2010.05.17/outbox.cif.g08.bks.cpg/sg10_41_cif.got.tgz:80229.got - 2010.06.03 11:33:40.
