data_PCOD9142121
_publ_section_title
;
Structure prediction by ZEFSAII (Michael W. Deem and Ramdas Pophale) SiO2 
 PCOD9142121
Probable space group: P 2/M
;
_chemical_formula_sum "Si O2"
_cell_formula_units_Z 26
_cell_length_a 7.422793
_cell_length_b 13.206356
_cell_length_c 12.154030
_cell_angle_alpha 90.000000
_cell_angle_beta 67.280387
_cell_angle_gamma 90.000000
_cell_volume 1098.987474
_symmetry_space_group_name_H-M "P 2/M"
_symmetry_group_IT_number 10
_symmetry_cell_setting 'monoclinic'
loop_
_space_group_symop_operation_xyz
x,y,z
-x,y,-z
-x,-y,-z
x,-y,z
loop_
_atom_site_type_symbol
_atom_site_label
_atom_site_fract_x
_atom_site_fract_y
_atom_site_fract_z
Si Si1 0.000000 0.772203 0.500000
Si Si2 0.248892 0.842654 0.263117
Si Si3 0.538502 0.310532 0.108891
Si Si4 0.859193 0.167549 0.943436
Si Si5 0.418009 0.110849 0.643639
Si Si6 0.180913 0.309373 0.775633
Si Si7 0.270366 0.611475 0.530890
O O1 0.051984 0.835033 0.380301
O O2 0.184003 0.699974 0.477728
O O3 0.341971 0.732784 0.208984
O O4 0.200550 0.886756 0.154800
O O5 0.405888 0.889562 0.309017
O O6 0.675420 0.360039 0.168510
O O7 0.500000 0.361707 0.000000
O O8 0.665168 0.209563 0.047266
O O9 0.984818 0.267077 0.876515
O O10 0.000000 0.116636 0.000000
O O11 0.500000 0.122376 0.500000
O O12 0.288479 0.206876 0.707049
O O13 0.320071 0.000000 0.672930
O O14 0.160709 0.377952 0.673574
O O15 0.500000 0.624295 0.500000
O O16 0.240463 0.500000 0.489959
#
# Coordination Sequence:
#
# PCOD9142121 Si02
#       7
#     2   4   4   4   4   4   4
#     4  12  21  36  61  92 120 156 197 244 299 358
#     4  10  19  33  57  84 115 150 194 241 288 356
#     4   8  16  30  54  85 106 147 197 233 289 346
#     4   9  17  31  57  84 108 149 201 235 285 347
#     4  10  21  36  55  83 120 157 192 239 298 358
#     4  10  17  34  58  80 110 151 193 243 287 347
#     4  11  23  37  56  87 123 158 195 241 301 359
#
# _framework density 23.65814
#
# number of rings (size 3 to 8) (size 9 to 14) (size 15 to 20)
#    0.000    2.154    1.538    3.462    0.000    0.000 
#    0.000    1.154    0.000   62.769    0.000    0.000 
#    0.000    0.000    0.000    0.000    0.000    0.000 
#
# Total GULP energy -145173.145360 kJ/mol
# GULP energy per Si atom -5583.582514 kJ/mol
# Density = 2.360429 g / cm^3
# Si number density = 23.658140 Si / 1000 Ang^3
#
#
#
# Elastic Constant Matrix: (Units=GPa)
#
#
# Indices 1 2 3 4 5 6 
#
# 1 90.3730 -2.7090 18.7002 0.0000 22.1804 0.0000
# 2 -2.7090 46.1141 -3.2141 0.0000 -3.3353 0.0000
# 3 18.7002 -3.2141 138.0241 0.0000 18.0740 0.0000
# 4 0.0000 0.0000 0.0000 8.1653 0.0000 9.3803
# 5 22.1804 -3.3353 18.0740 0.0000 58.2624 0.0000
# 6 0.0000 0.0000 0.0000 9.3803 0.0000 11.2754
#
#
#
# Elastic Compliance Matrix: (Units=1/GPa)
#
#
# Indices 1 2 3 4 5 6 
#
# 1 0.012370 0.000336 -0.001099 0.000000 -0.004349 0.000000
# 2 0.000336 0.021802 0.000329 0.000000 0.001018 0.000000
# 3 -0.001099 0.000329 0.007655 0.000000 -0.001938 0.000000
# 4 0.000000 0.000000 0.000000 2.765972 0.000000 -2.301090
# 5 -0.004349 0.001018 -0.001938 0.000000 0.019479 0.000000
# 6 0.000000 0.000000 0.000000 -2.301090 0.000000 2.003030
#
#
# Mechanical properties :
#
#
# Convention : Reuss Voigt Hill
#
# Bulk Modulus (GPa) = 24.41484 33.34060 28.87772
# Shear Modulus (GPa) = 1.03203 32.98955 17.01079
#
# Velocity S-wave (km/s) = 0.66119 3.73825 2.68437
# Velocity P-wave (km/s) = 3.30532 5.72328 4.67339
#
# Compressibility (1/GPa) = 0.04095870
#
# Stress axis : x y z
#
# Youngs Moduli (GPa) = 80.84019 45.86810 130.62741
#
# Poissons Ratio (x) = -0.01539 0.14351
# Poissons Ratio (y) = -0.02712 -0.04296
# Poissons Ratio (z) = 0.08881 -0.01509
#
# Static dielectric constant tensor:
#      x y z
#    x 1.960870 0.000000 0.029180 
#    y 0.000000 1.824820 0.000000 
#    z 0.029180 0.000000 1.928080 
# 
# From -- ./inp_files/42422.got.cif
#   From: 2010.05.17/outbox.cif.g08.bks.cpg/sg10_22_cif.got.tgz:42422.got - 2010.06.03 11:33:40.
