data_PCOD9142061
_publ_section_title
;
Structure prediction by ZEFSAII (Michael W. Deem and Ramdas Pophale) SiO2 
 PCOD9142061
Probable space group: P 2/M
;
_chemical_formula_sum "Si O2"
_cell_formula_units_Z 32
_cell_length_a 14.256717
_cell_length_b 17.556404
_cell_length_c 19.331288
_cell_angle_alpha 90.000000
_cell_angle_beta 19.779387
_cell_angle_gamma 90.000000
_cell_volume 1637.364890
_symmetry_space_group_name_H-M "P 2/M"
_symmetry_group_IT_number 10
_symmetry_cell_setting 'monoclinic'
loop_
_space_group_symop_operation_xyz
x,y,z
-x,y,-z
-x,-y,-z
x,-y,z
loop_
_atom_site_type_symbol
_atom_site_label
_atom_site_fract_x
_atom_site_fract_y
_atom_site_fract_z
Si Si1 0.405049 0.316647 0.993956
Si Si2 0.169682 0.910027 0.075450
Si Si3 0.067319 0.671301 0.101913
Si Si4 0.720533 0.415533 0.241686
Si Si5 0.996302 0.181201 0.322275
Si Si6 0.272714 0.173074 0.267064
Si Si7 0.566315 0.266400 0.281785
Si Si8 0.222154 0.816316 0.729174
O O1 0.258614 0.357635 0.031368
O O2 0.178237 0.253779 0.173395
O O3 0.500000 0.355277 0.000000
O O4 0.647344 0.262429 0.795812
O O5 0.984537 0.878480 0.268004
O O6 0.021903 0.877134 0.109582
O O7 0.189659 0.000000 0.061055
O O8 0.467060 0.871019 0.881967
O O9 0.855794 0.608612 0.220367
O O10 0.873843 0.744151 0.251269
O O11 0.261295 0.707726 0.905862
O O12 0.601123 0.500000 0.323756
O O13 0.524945 0.348174 0.349208
O O14 0.000000 0.415247 0.000000
O O15 0.704408 0.217185 0.548096
O O16 0.180476 0.145237 0.255360
O O17 0.000000 0.164129 0.500000
O O18 0.722285 0.216710 0.232865
O O19 0.500000 0.846007 0.500000
#
# Coordination Sequence:
#
# PCOD9142061 Si02
#       8
#     4   4   4   4   4   4   4   4
#     4   9  17  31  51  79 106 138 181 227 271 323
#     4  11  23  38  55  76 106 147 185 228 284 342
#     4  10  17  31  56  80 108 143 180 231 274 314
#     4   8  16  29  48  81 118 146 177 220 275 331
#     4  10  19  34  55  77 104 143 185 229 273 335
#     4  10  20  35  57  80 104 133 183 243 286 325
#     4  10  19  31  56  85 108 144 186 229 275 315
#     4  11  19  35  54  77 103 145 183 226 265 337
#
# _framework density 19.543596999999998
#
# number of rings (size 3 to 8) (size 9 to 14) (size 15 to 20)
#    0.000    2.125    3.750    3.000    0.000    1.500 
#    0.000    0.000    0.000   15.375    0.000    2.625 
#    0.000   18.250    0.000    0.250    0.000    0.000 
#
# Total GULP energy -178244.763714 kJ/mol
# GULP energy per Si atom -5570.148866 kJ/mol
# Density = 1.949912 g / cm^3
# Si number density = 19.543597 Si / 1000 Ang^3
#
#
#
# Elastic Constant Matrix: (Units=GPa)
#
#
# Indices 1 2 3 4 5 6 
#
# 1 105.8893 12.5662 19.7235 0.0000 -21.6646 0.0000
# 2 12.5662 64.9780 20.6375 0.0000 -12.8489 0.0000
# 3 19.7235 20.6375 75.8498 0.0000 -13.3342 0.0000
# 4 0.0000 0.0000 0.0000 7.2646 0.0000 -0.9952
# 5 -21.6646 -12.8489 -13.3342 0.0000 25.3256 0.0000
# 6 0.0000 0.0000 0.0000 -0.9952 0.0000 12.5625
#
#
#
# Elastic Compliance Matrix: (Units=1/GPa)
#
#
# Indices 1 2 3 4 5 6 
#
# 1 0.011581 0.000021 -0.001404 0.000000 0.009178 0.000000
# 2 0.000021 0.017965 -0.003623 0.000000 0.007225 0.000000
# 3 -0.001404 -0.003623 0.015429 0.000000 0.005084 0.000000
# 4 0.000000 0.000000 0.000000 0.139164 0.000000 0.011024
# 5 0.009178 0.007225 0.005084 0.000000 0.053680 0.000000
# 6 0.000000 0.000000 0.000000 0.011024 0.000000 0.080475
#
#
# Mechanical properties :
#
#
# Convention : Reuss Voigt Hill
#
# Bulk Modulus (GPa) = 28.60192 39.17462 33.88827
# Shear Modulus (GPa) = 14.70767 21.94988 18.32877
#
# Velocity S-wave (km/s) = 2.74625 3.35494 3.06574
# Velocity P-wave (km/s) = 4.97218 5.92417 5.46893
#
# Compressibility (1/GPa) = 0.03496268
#
# Stress axis : x y z
#
# Youngs Moduli (GPa) = 86.35142 55.66307 64.81462
#
# Poissons Ratio (x) = -0.00118 0.09097
# Poissons Ratio (y) = -0.00183 0.23485
# Poissons Ratio (z) = 0.12120 0.20169
#
# Static dielectric constant tensor:
#      x y z
#    x 1.831460 0.000000 0.015930 
#    y 0.000000 1.662240 0.000000 
#    z 0.015930 0.000000 1.740400 
# 
# From -- ./inp_files/85485.got.cif
#   From: 2010.05.17/outbox.cif.g08.bks.cpg/sg10_43_cif.got.tgz:85485.got - 2010.06.03 11:33:40.
