data_PCOD9142117
_publ_section_title
;
Structure prediction by ZEFSAII (Michael W. Deem and Ramdas Pophale) SiO2 
 PCOD9142117
Probable space group: P 2/M
;
_chemical_formula_sum "Si O2"
_cell_formula_units_Z 30
_cell_length_a 11.659131
_cell_length_b 14.807752
_cell_length_c 12.301087
_cell_angle_alpha 90.000000
_cell_angle_beta 47.644469
_cell_angle_gamma 90.000000
_cell_volume 1569.388937
_symmetry_space_group_name_H-M "P 2/M"
_symmetry_group_IT_number 10
_symmetry_cell_setting 'monoclinic'
loop_
_space_group_symop_operation_xyz
x,y,z
-x,y,-z
-x,-y,-z
x,-y,z
loop_
_atom_site_type_symbol
_atom_site_label
_atom_site_fract_x
_atom_site_fract_y
_atom_site_fract_z
Si Si1 0.885756 0.822458 0.434923
Si Si2 0.688171 0.106550 0.128785
Si Si3 0.678636 0.403222 0.420472
Si Si4 0.199490 0.102128 0.168342
Si Si5 0.313996 0.789832 0.646532
Si Si6 0.000000 0.661920 0.500000
Si Si7 0.333089 0.600790 0.310862
Si Si8 0.385941 0.801536 0.220630
O O1 0.786292 0.827739 0.388853
O O2 0.759302 0.831104 0.610372
O O3 0.031727 0.887733 0.330408
O O4 0.965831 0.726907 0.418238
O O5 0.715294 0.160317 0.222131
O O6 0.531242 0.144491 0.174191
O O7 0.674212 0.000000 0.160811
O O8 0.813377 0.119118 0.952555
O O9 0.500000 0.409958 0.500000
O O10 0.755767 0.500000 0.349003
O O11 0.735862 0.315394 0.321349
O O12 0.675930 0.388699 0.552196
O O13 0.323223 0.169729 0.143168
O O14 0.258285 0.000000 0.145290
O O15 0.500000 0.794466 0.500000
O O16 0.155712 0.606234 0.383126
O O17 0.397601 0.500000 0.246731
O O18 0.409780 0.693300 0.217935
#
# Coordination Sequence:
#
# PCOD9142117 Si02
#       8
#     4   4   4   4   4   2   4   4
#     4  11  20  36  62  88 116 146 194 245 296 340
#     4  11  25  41  59  84 115 161 203 240 296 353
#     4   9  16  28  51  84 116 146 184 235 289 340
#     4  11  24  40  59  84 117 159 200 239 294 357
#     4  11  20  38  59  85 117 148 194 247 293 346
#     4  10  17  34  51  90 120 148 189 234 293 346
#     4  10  18  30  56  90 121 151 188 238 291 345
#     4  11  19  39  62  90 121 149 198 245 288 342
#
# _framework density 19.115718999999999
#
# number of rings (size 3 to 8) (size 9 to 14) (size 15 to 20)
#    0.000    1.467    6.667    1.800    0.000    4.000 
#    0.000    1.333    0.000    2.400    0.000    0.933 
#    0.000    0.000    0.000    0.000    0.000    0.000 
#
# Total GULP energy -167143.133928 kJ/mol
# GULP energy per Si atom -5571.437798 kJ/mol
# Density = 1.907221 g / cm^3
# Si number density = 19.115719 Si / 1000 Ang^3
#
#
#
# Elastic Constant Matrix: (Units=GPa)
#
#
# Indices 1 2 3 4 5 6 
#
# 1 86.0314 6.1315 11.6352 0.0000 24.9132 0.0000
# 2 6.1315 115.1777 34.2775 0.0000 25.7801 0.0000
# 3 11.6352 34.2775 57.5467 0.0000 19.1436 0.0000
# 4 0.0000 0.0000 0.0000 2.6582 0.0000 10.8220
# 5 24.9132 25.7801 19.1436 0.0000 33.2273 0.0000
# 6 0.0000 0.0000 0.0000 10.8220 0.0000 23.5778
#
#
#
# Elastic Compliance Matrix: (Units=1/GPa)
#
#
# Indices 1 2 3 4 5 6 
#
# 1 0.015262 0.002115 0.000009 0.000000 -0.013089 0.000000
# 2 0.002115 0.011779 -0.004795 0.000000 -0.007962 0.000000
# 3 0.000009 -0.004795 0.023500 0.000000 -0.009826 0.000000
# 4 0.000000 0.000000 0.000000 -0.433090 0.000000 0.198784
# 5 -0.013089 -0.007962 -0.009826 0.000000 0.051748 0.000000
# 6 0.000000 0.000000 0.000000 0.198784 0.000000 -0.048827
#
#
# Mechanical properties :
#
#
# Convention : Reuss Voigt Hill
#
# Bulk Modulus (GPa) = 22.12487 40.31602 31.22044
# Shear Modulus (GPa) = -13.91907 25.67344 5.87718
#
# Velocity S-wave (km/s) = -2.70135 3.66875 1.75534
# Velocity P-wave (km/s) = 1.36733 6.25160 4.52505
#
# Compressibility (1/GPa) = 0.04519801
#
# Stress axis : x y z
#
# Youngs Moduli (GPa) = 65.52170 84.89888 42.55289
#
# Poissons Ratio (x) = -0.17953 -0.00038
# Poissons Ratio (y) = -0.13855 0.20404
# Poissons Ratio (z) = -0.00058 0.40709
#
# Static dielectric constant tensor:
#      x y z
#    x 1.662970 0.000000 0.000230 
#    y 0.000000 1.727640 0.000000 
#    z 0.000230 0.000000 1.680970 
# 
# From -- ./inp_files/47369.got.cif
#   From: 2010.05.17/outbox.cif.g08.bks.cpg/sg10_24_cif.got.tgz:47369.got - 2010.06.03 11:33:40.
