data_PCOD9142614
_publ_section_title
;
Structure prediction by ZEFSAII (Michael W. Deem and Ramdas Pophale) SiO2 
 PCOD9142614
Probable space group: P 2/M
;
_chemical_formula_sum "Si O2"
_cell_formula_units_Z 32
_cell_length_a 21.781304
_cell_length_b 9.291893
_cell_length_c 12.983527
_cell_angle_alpha 90.000000
_cell_angle_beta 53.409903
_cell_angle_gamma 90.000000
_cell_volume 2109.858434
_symmetry_space_group_name_H-M "P 2/M"
_symmetry_group_IT_number 10
_symmetry_cell_setting 'monoclinic'
loop_
_space_group_symop_operation_xyz
x,y,z
-x,y,-z
-x,-y,-z
x,-y,z
loop_
_atom_site_type_symbol
_atom_site_label
_atom_site_fract_x
_atom_site_fract_y
_atom_site_fract_z
Si Si1 0.412262 0.675005 0.587738
Si Si2 0.411274 0.827513 0.968507
Si Si3 0.153390 0.328418 0.724323
Si Si4 1.000000 0.834366 0.125251
Si Si5 0.588727 0.827513 0.791054
Si Si6 0.318689 0.326241 0.884909
Si Si7 0.846610 0.671582 0.031103
Si Si8 0.681311 0.326241 0.522286
O O1 0.500000 0.724334 0.500000
O O2 0.412676 0.500000 0.587323
O O3 0.367465 0.718564 0.735420
O O4 0.367465 0.718564 0.529649
O O5 0.500000 0.789892 0.856691
O O6 0.355214 0.746281 0.947888
O O7 0.403934 0.000000 0.964172
O O8 0.397313 0.793315 0.102687
O O9 0.141560 0.500000 0.726329
O O10 0.077518 0.245896 0.765396
O O11 0.165875 0.300130 0.834125
O O12 0.230378 0.288402 0.587263
O O13 1.000000 0.000000 0.157636
O O14 0.000000 0.830294 0.000000
O O15 0.077518 0.754104 0.079569
O O16 0.644787 0.746281 0.658316
O O17 0.596066 0.000000 0.772041
O O18 0.323245 0.500000 0.888205
O O19 0.230377 0.288401 0.951983
O O20 0.858440 0.500000 0.009448
O O21 0.676755 0.500000 0.534694
#
# Coordination Sequence:
#
# PCOD9142614 Si02
#       8
#     4   4   4   4   4   4   4   4
#     4   9  16  26  41  64  95 124 148 181 227 273
#     4   9  19  35  50  64  88 123 160 198 239 277
#     4   9  16  28  44  64  93 125 153 182 224 277
#     4   9  17  27  41  63  90 121 158 191 221 259
#     4   9  19  35  50  64  88 123 160 198 239 277
#     4  10  18  29  47  71  94 120 155 192 230 275
#     4   9  16  28  44  64  93 125 153 182 224 277
#     4  10  18  29  47  71  94 120 155 192 230 275
#
# _framework density 15.166893999999999
#
# number of rings (size 3 to 8) (size 9 to 14) (size 15 to 20)
#    0.000    2.750    1.250    1.875    0.000    4.500 
#    0.000    1.875    0.000    2.250    0.000    0.875 
#    0.000    7.000    0.000    0.000    0.000    0.000 
#
# Total GULP energy -178332.993257 kJ/mol
# GULP energy per Si atom -5572.906039 kJ/mol
# Density = 1.513237 g / cm^3
# Si number density = 15.166894 Si / 1000 Ang^3
#
#
#
# Elastic Constant Matrix: (Units=GPa)
#
#
# Indices 1 2 3 4 5 6 
#
# 1 141.8837 57.7705 81.4396 0.0000 -24.6371 0.0000
# 2 57.7705 35.3963 46.6550 0.0000 -11.9197 0.0000
# 3 81.4396 46.6550 99.4112 0.0000 -20.9079 0.0000
# 4 0.0000 0.0000 0.0000 21.2548 0.0000 -0.1974
# 5 -24.6371 -11.9197 -20.9079 0.0000 22.7341 0.0000
# 6 0.0000 0.0000 0.0000 -0.1974 0.0000 21.4390
#
#
#
# Elastic Compliance Matrix: (Units=1/GPa)
#
#
# Indices 1 2 3 4 5 6 
#
# 1 0.021856 -0.030805 -0.002310 0.000000 0.005410 0.000000
# 2 -0.030805 0.118843 -0.030319 0.000000 0.001043 0.000000
# 3 -0.002310 -0.030319 0.027661 0.000000 0.007039 0.000000
# 4 0.000000 0.000000 0.000000 0.047052 0.000000 0.000433
# 5 0.005410 0.001043 0.007039 0.000000 0.056870 0.000000
# 6 0.000000 0.000000 0.000000 0.000433 0.000000 0.046648
#
#
# Mechanical properties :
#
#
# Convention : Reuss Voigt Hill
#
# Bulk Modulus (GPa) = 24.10102 72.04685 48.07393
# Shear Modulus (GPa) = 10.87832 19.14063 15.00948
#
# Velocity S-wave (km/s) = 2.68104 3.55632 3.14924
# Velocity P-wave (km/s) = 5.05065 8.02926 6.70739
#
# Compressibility (1/GPa) = 0.04149202
#
# Stress axis : x y z
#
# Youngs Moduli (GPa) = 45.75374 8.41448 36.15169
#
# Poissons Ratio (x) = 0.25921 0.08351
# Poissons Ratio (y) = 1.40945 1.09608
# Poissons Ratio (z) = 0.10569 0.25512
#
# Static dielectric constant tensor:
#      x y z
#    x 1.493030 0.000000 -0.009790 
#    y 0.000000 1.502660 0.000000 
#    z -0.009790 0.000000 1.483900 
# 
# From -- ./inp_files/54814.got.cif
#   From: 2010.05.17/outbox.cif.g08.bks.cpg/sg10_28_cif.got.tgz:54814.got - 2010.06.03 11:33:40.
