data_PCOD9142861
_publ_section_title
;
Structure prediction by ZEFSAII (Michael W. Deem and Ramdas Pophale) SiO2 
 PCOD9142861
Probable space group: P 2/M
;
_chemical_formula_sum "Si O2"
_cell_formula_units_Z 32
_cell_length_a 7.534729
_cell_length_b 20.555647
_cell_length_c 13.767040
_cell_angle_alpha 90.000000
_cell_angle_beta 47.327404
_cell_angle_gamma 90.000000
_cell_volume 1567.717549
_symmetry_space_group_name_H-M "P 2/M"
_symmetry_group_IT_number 10
_symmetry_cell_setting 'monoclinic'
loop_
_space_group_symop_operation_xyz
x,y,z
-x,y,-z
-x,-y,-z
x,-y,z
loop_
_atom_site_type_symbol
_atom_site_label
_atom_site_fract_x
_atom_site_fract_y
_atom_site_fract_z
Si Si1 0.454465 0.289982 0.401243
Si Si2 0.995598 0.430087 0.118580
Si Si3 0.359412 0.149298 0.450052
Si Si4 0.547783 0.430213 0.598100
Si Si5 0.231597 0.151378 0.055387
Si Si6 0.995081 0.289257 0.117869
Si Si7 0.950401 0.073147 0.702571
Si Si8 0.415030 0.074452 0.809543
O O1 0.500000 0.292158 0.500000
O O2 0.318509 0.223091 0.429030
O O3 0.340418 0.360098 0.416903
O O4 0.718698 0.284326 0.255179
O O5 0.101502 0.500000 0.112617
O O6 0.095120 0.359914 0.115530
O O7 0.716504 0.429988 0.254953
O O8 0.000000 0.430228 0.000000
O O9 0.500000 0.153046 0.500000
O O10 0.523331 0.109858 0.313774
O O11 0.113918 0.112725 0.567157
O O12 0.500000 0.430426 0.500000
O O13 0.666402 0.500000 0.578789
O O14 0.135426 0.224688 0.095154
O O15 0.067739 0.107529 0.186516
O O16 0.500000 0.151068 0.000000
O O17 0.256072 0.119160 0.940071
O O18 0.000000 0.290549 0.000000
O O19 0.678267 0.070351 0.763337
O O20 0.045785 0.000000 0.675907
O O21 0.325655 0.000000 0.832619
#
# Coordination Sequence:
#
# PCOD9142861 Si02
#       8
#     4   4   4   4   4   4   4   4
#     4   9  17  28  43  65  95 124 148 182 228 274
#     4   8  14  24  40  63  89 119 154 187 221 266
#     4  11  21  33  50  74 102 126 152 189 240 291
#     4   8  13  22  37  58  85 117 150 181 215 258
#     4  10  20  34  52  72  93 121 160 201 239 281
#     4  10  18  30  48  69  96 126 154 190 236 280
#     4  10  21  37  54  70  91 123 161 199 238 281
#     4  10  21  37  54  70  91 122 161 201 237 278
#
# _framework density 20.411839000000001
#
# number of rings (size 3 to 8) (size 9 to 14) (size 15 to 20)
#    0.000    2.500    0.000    3.375    0.000    3.500 
#    0.000    0.000    0.000    3.375    0.000    0.000 
#    0.000    4.000    0.000    0.000    0.000  117.750 
#
# Total GULP energy -178379.375680 kJ/mol
# GULP energy per Si atom -5574.355490 kJ/mol
# Density = 2.036538 g / cm^3
# Si number density = 20.411839 Si / 1000 Ang^3
#
#
#
# Elastic Constant Matrix: (Units=GPa)
#
#
# Indices 1 2 3 4 5 6 
#
# 1 10.4154 13.9309 18.3143 0.0000 -4.8148 0.0000
# 2 13.9309 257.7936 61.0290 0.0000 -4.7993 0.0000
# 3 18.3143 61.0290 130.3065 0.0000 19.0077 0.0000
# 4 0.0000 0.0000 0.0000 34.4999 0.0000 3.9707
# 5 -4.8148 -4.7993 19.0077 0.0000 21.9463 0.0000
# 6 0.0000 0.0000 0.0000 3.9707 0.0000 14.7714
#
#
#
# Elastic Compliance Matrix: (Units=1/GPa)
#
#
# Indices 1 2 3 4 5 6 
#
# 1 0.203322 -0.000003 -0.040155 0.000000 0.079384 0.000000
# 2 -0.000003 0.004557 -0.002609 0.000000 0.003255 0.000000
# 3 -0.040155 -0.002609 0.018208 0.000000 -0.025150 0.000000
# 4 0.000000 0.000000 0.000000 0.029911 0.000000 -0.008040
# 5 0.079384 0.003255 -0.025150 0.000000 0.085477 0.000000
# 6 0.000000 0.000000 0.000000 -0.008040 0.000000 0.069860
#
#
# Mechanical properties :
#
#
# Convention : Reuss Voigt Hill
#
# Bulk Modulus (GPa) = 7.11470 65.00708 36.06089
# Shear Modulus (GPa) = 9.19591 34.59295 21.89443
#
# Velocity S-wave (km/s) = 2.12485 4.12120 3.27866
# Velocity P-wave (km/s) = 3.08433 7.38665 5.66020
#
# Compressibility (1/GPa) = 0.14055406
#
# Stress axis : x y z
#
# Youngs Moduli (GPa) = 4.91831 219.41954 54.91975
#
# Poissons Ratio (x) = 0.00074 2.20528
# Poissons Ratio (y) = 0.00002 0.14328
# Poissons Ratio (z) = 0.19749 0.57244
#
# Static dielectric constant tensor:
#      x y z
#    x 1.721830 0.000000 0.005000 
#    y 0.000000 1.823120 0.000000 
#    z 0.005000 0.000000 1.667510 
# 
# From -- ./inp_files/30286.got.cif
#   From: 2010.05.17/outbox.cif.g08.bks.cpg/sg10_16_cif.got.tgz:30286.got - 2010.06.03 11:33:40.
