data_PCOD9142174
_publ_section_title
;
Structure prediction by ZEFSAII (Michael W. Deem and Ramdas Pophale) SiO2 
 PCOD9142174
Probable space group: P 2/M
;
_chemical_formula_sum "Si O2"
_cell_formula_units_Z 24
_cell_length_a 13.208951
_cell_length_b 14.486217
_cell_length_c 10.360181
_cell_angle_alpha 90.000000
_cell_angle_beta 147.221989
_cell_angle_gamma 90.000000
_cell_volume 1073.241211
_symmetry_space_group_name_H-M "P 2/M"
_symmetry_group_IT_number 10
_symmetry_cell_setting 'monoclinic'
loop_
_space_group_symop_operation_xyz
x,y,z
-x,y,-z
-x,-y,-z
x,-y,z
loop_
_atom_site_type_symbol
_atom_site_label
_atom_site_fract_x
_atom_site_fract_y
_atom_site_fract_z
Si Si1 0.229763 0.298245 0.260632
Si Si2 0.230107 0.305426 0.740209
Si Si3 0.668990 0.000000 0.990786
Si Si4 0.172980 0.808187 0.443633
Si Si5 0.182572 0.500000 0.289065
Si Si6 0.735283 0.209084 0.966296
Si Si7 0.819472 0.500000 0.402252
Si Si8 0.759043 0.000000 0.377524
O O1 0.269154 0.225631 0.417051
O O2 0.280922 0.402635 0.358659
O O3 0.317982 0.258659 0.224226
O O4 0.000000 0.300020 0.000000
O O5 0.274479 0.234485 0.675131
O O6 0.318212 0.269282 0.966275
O O7 0.282087 0.406431 0.746923
O O8 0.000000 0.304183 0.500000
O O9 0.696242 0.098912 0.945887
O O10 0.785434 0.000000 0.250895
O O11 0.458513 0.000000 0.818039
O O12 0.157958 0.913789 0.460436
O O13 0.959608 0.777329 0.206874
O O14 0.139443 0.500000 0.398463
O O15 0.000000 0.500000 0.000000
O O16 0.000000 0.500000 0.500000
#
# Coordination Sequence:
#
# PCOD9142174 Si02
#       8
#     4   4   2   4   2   4   2   2
#     4   9  19  31  50  77 113 143 172 213 264 313
#     4   9  17  27  47  74 107 139 176 209 249 307
#     4  11  23  38  53  80 104 136 175 230 276 311
#     4  10  18  34  53  80 103 143 175 212 259 317
#     4  10  18  28  44  74 117 148 168 212 271 311
#     4  10  20  34  54  78 110 140 177 217 264 315
#     4  10  18  26  44  78 115 143 177 213 256 315
#     4  11  23  36  57  78 104 134 179 224 276 321
#
# _framework density 22.362166999999999
#
# number of rings (size 3 to 8) (size 9 to 14) (size 15 to 20)
#    0.000    2.167    3.333    0.500    7.000    1.333 
#    0.000    4.167    0.000    0.000    0.000    7.000 
#    0.000    0.000    0.000    0.000    0.000    0.000 
#
# Total GULP energy -133839.791681 kJ/mol
# GULP energy per Si atom -5576.657987 kJ/mol
# Density = 2.231127 g / cm^3
# Si number density = 22.362167 Si / 1000 Ang^3
#
#
#
# Elastic Constant Matrix: (Units=GPa)
#
#
# Indices 1 2 3 4 5 6 
#
# 1 94.0700 40.9471 57.4920 0.0000 -32.2864 0.0000
# 2 40.9471 187.6226 48.9023 0.0000 -72.8550 0.0000
# 3 57.4920 48.9023 82.9913 0.0000 -48.5504 0.0000
# 4 0.0000 0.0000 0.0000 32.2680 0.0000 -11.4075
# 5 -32.2864 -72.8550 -48.5504 0.0000 60.4293 0.0000
# 6 0.0000 0.0000 0.0000 -11.4075 0.0000 26.8423
#
#
#
# Elastic Compliance Matrix: (Units=1/GPa)
#
#
# Indices 1 2 3 4 5 6 
#
# 1 0.018737 -0.001713 -0.013816 0.000000 -0.003155 0.000000
# 2 -0.001713 0.010394 0.003505 0.000000 0.014432 0.000000
# 3 -0.013816 0.003505 0.033414 0.000000 0.023689 0.000000
# 4 0.000000 0.000000 0.000000 0.036470 0.000000 0.015499
# 5 -0.003155 0.014432 0.023689 0.000000 0.051295 0.000000
# 6 0.000000 0.000000 0.000000 0.015499 0.000000 0.043842
#
#
# Mechanical properties :
#
#
# Convention : Reuss Voigt Hill
#
# Bulk Modulus (GPa) = 25.97640 73.26295 49.61967
# Shear Modulus (GPa) = 21.64192 38.39741 30.01966
#
# Velocity S-wave (km/s) = 3.11431 4.14825 3.66789
# Velocity P-wave (km/s) = 4.95715 7.46841 6.33839
#
# Compressibility (1/GPa) = 0.03849648
#
# Stress axis : x y z
#
# Youngs Moduli (GPa) = 53.36946 96.20608 29.92778
#
# Poissons Ratio (x) = 0.16482 0.41349
# Poissons Ratio (y) = 0.09143 -0.10490
# Poissons Ratio (z) = 0.73737 -0.33720
#
# Static dielectric constant tensor:
#      x y z
#    x 2.223320 0.000000 -0.187450 
#    y 0.000000 1.779990 0.000000 
#    z -0.187450 0.000000 2.022920 
# 
# From -- ./inp_files/29748.got.cif
#   From: 2010.05.17/outbox.cif.g08.bks.cpg/sg10_15_cif.got.tgz:29748.got - 2010.06.03 11:33:40.
