data_PCOD9142439
_publ_section_title
;
Structure prediction by ZEFSAII (Michael W. Deem and Ramdas Pophale) SiO2 
 PCOD9142439
Probable space group: P 2/M
;
_chemical_formula_sum "Si O2"
_cell_formula_units_Z 32
_cell_length_a 11.897911
_cell_length_b 9.092216
_cell_length_c 22.066363
_cell_angle_alpha 90.000000
_cell_angle_beta 50.368151
_cell_angle_gamma 90.000000
_cell_volume 1838.448634
_symmetry_space_group_name_H-M "P 2/M"
_symmetry_group_IT_number 10
_symmetry_cell_setting 'monoclinic'
loop_
_space_group_symop_operation_xyz
x,y,z
-x,y,-z
-x,-y,-z
x,-y,z
loop_
_atom_site_type_symbol
_atom_site_label
_atom_site_fract_x
_atom_site_fract_y
_atom_site_fract_z
Si Si1 0.464118 0.825840 0.580977
Si Si2 0.761709 0.176207 0.182886
Si Si3 0.539369 0.325111 0.673626
Si Si4 0.683120 0.826230 0.080899
Si Si5 0.876152 0.171968 0.268627
Si Si6 0.336615 0.323578 0.038308
Si Si7 0.150319 0.675086 0.220690
Si Si8 0.642864 0.175314 0.754023
O O1 0.500000 0.783254 0.500000
O O2 0.552772 0.736613 0.601087
O O3 0.291428 0.806760 0.653328
O O4 0.495044 0.000000 0.577678
O O5 0.621504 0.270341 0.250481
O O6 0.785498 0.207989 0.103843
O O7 0.879726 0.202865 0.194735
O O8 0.724891 0.000000 0.199401
O O9 0.550286 0.500000 0.671826
O O10 0.642160 0.250115 0.688316
O O11 0.516396 0.795199 0.160418
O O12 0.694031 0.000000 0.065573
O O13 0.710513 0.741927 0.009615
O O14 0.985665 0.271981 0.268160
O O15 0.912953 0.000000 0.264740
O O16 0.340515 0.500000 0.031574
O O17 0.231982 0.284898 0.129843
O O18 0.500000 0.272897 0.000000
O O19 0.160648 0.500000 0.225476
O O20 0.234073 0.756787 0.245644
O O21 0.656522 0.000000 0.743896
#
# Coordination Sequence:
#
# PCOD9142439 Si02
#       8
#     4   4   4   4   4   4   4   4
#     4   9  18  35  59  83 107 136 168 202 242 293
#     4   8  16  32  50  70  97 131 170 211 252 301
#     4  10  18  28  48  79 109 133 163 206 252 295
#     4   9  17  29  49  73  93 120 168 222 260 293
#     4   9  18  34  54  75 102 133 167 204 247 301
#     4  10  20  33  46  65  98 134 169 211 259 308
#     4  11  22  34  49  71 101 136 173 212 258 306
#     4  10  19  32  50  72  99 133 174 214 254 300
#
# _framework density 17.405978999999999
#
# number of rings (size 3 to 8) (size 9 to 14) (size 15 to 20)
#    0.000    2.500    1.250    3.375    0.000    5.500 
#    0.000    0.625    0.000    4.500    0.000    5.250 
#    0.000    0.000    0.000    0.000    0.000    0.000 
#
# Total GULP energy -178378.457211 kJ/mol
# GULP energy per Si atom -5574.326788 kJ/mol
# Density = 1.736636 g / cm^3
# Si number density = 17.405979 Si / 1000 Ang^3
#
#
#
# Elastic Constant Matrix: (Units=GPa)
#
#
# Indices 1 2 3 4 5 6 
#
# 1 109.5130 63.7017 42.2898 0.0000 36.3807 0.0000
# 2 63.7017 60.7689 35.4481 0.0000 24.1760 0.0000
# 3 42.2898 35.4481 58.3705 0.0000 34.6953 0.0000
# 4 0.0000 0.0000 0.0000 16.5300 0.0000 -0.2276
# 5 36.3807 24.1760 34.6953 0.0000 31.4361 0.0000
# 6 0.0000 0.0000 0.0000 -0.2276 0.0000 7.3500
#
#
#
# Elastic Compliance Matrix: (Units=1/GPa)
#
#
# Indices 1 2 3 4 5 6 
#
# 1 0.028073 -0.025467 0.008130 0.000000 -0.021876 0.000000
# 2 -0.025467 0.049179 -0.018759 0.000000 0.012356 0.000000
# 3 0.008130 -0.018759 0.057130 0.000000 -0.058035 0.000000
# 4 0.000000 0.000000 0.000000 0.060522 0.000000 0.001874
# 5 -0.021876 0.012356 -0.058035 0.000000 0.111676 0.000000
# 6 0.000000 0.000000 0.000000 0.001874 0.000000 0.136112
#
#
# Mechanical properties :
#
#
# Convention : Reuss Voigt Hill
#
# Bulk Modulus (GPa) = 16.08008 56.83683 36.45846
# Shear Modulus (GPa) = 9.33507 16.87743 13.10625
#
# Velocity S-wave (km/s) = 2.31836 3.11727 2.74701
# Velocity P-wave (km/s) = 4.05274 6.75877 5.57251
#
# Compressibility (1/GPa) = 0.06218875
#
# Stress axis : x y z
#
# Youngs Moduli (GPa) = 35.62167 20.33375 17.50400
#
# Poissons Ratio (x) = 0.51784 -0.14231
# Poissons Ratio (y) = 0.90718 0.32837
# Poissons Ratio (z) = -0.28960 0.38145
#
# Static dielectric constant tensor:
#      x y z
#    x 1.606770 0.000000 0.010130 
#    y 0.000000 1.575980 0.000000 
#    z 0.010130 0.000000 1.596360 
# 
# From -- ./inp_files/75973.got.cif
#   From: 2010.05.17/outbox.cif.g08.bks.cpg/sg10_38_cif.got.tgz:75973.got - 2010.06.03 11:33:40.
