data_PCOD9142058
_publ_section_title
;
Structure prediction by ZEFSAII (Michael W. Deem and Ramdas Pophale) SiO2 
 PCOD9142058
Probable space group: P 2/M
;
_chemical_formula_sum "Si O2"
_cell_formula_units_Z 28
_cell_length_a 13.815934
_cell_length_b 14.608150
_cell_length_c 8.864287
_cell_angle_alpha 90.000000
_cell_angle_beta 51.403117
_cell_angle_gamma 90.000000
_cell_volume 1398.229618
_symmetry_space_group_name_H-M "P 2/M"
_symmetry_group_IT_number 10
_symmetry_cell_setting 'monoclinic'
loop_
_space_group_symop_operation_xyz
x,y,z
-x,y,-z
-x,-y,-z
x,-y,z
loop_
_atom_site_type_symbol
_atom_site_label
_atom_site_fract_x
_atom_site_fract_y
_atom_site_fract_z
Si Si1 0.139207 0.602375 0.421024
Si Si2 0.950441 0.105192 0.374401
Si Si3 0.474076 0.667695 0.189887
Si Si4 0.733465 0.210588 0.711469
Si Si5 0.631241 0.252821 0.286274
Si Si6 0.738686 0.399830 0.394564
Si Si7 0.781175 0.890732 0.971364
O O1 0.186009 0.500000 0.335363
O O2 0.212237 0.690568 0.291425
O O3 0.151304 0.609305 0.591265
O O4 0.000000 0.609215 0.500000
O O5 0.829497 0.168081 0.497196
O O6 0.000000 0.105901 0.500000
O O7 0.072195 0.134474 0.163837
O O8 0.919195 0.000000 0.366844
O O9 0.397436 0.762221 0.232850
O O10 0.592749 0.693080 0.171883
O O11 0.382934 0.606930 0.379374
O O12 0.500000 0.628205 0.000000
O O13 0.732175 0.143872 0.855556
O O14 0.500000 0.238849 0.500000
O O15 0.719426 0.317985 0.298388
O O16 0.700873 0.160803 0.173636
O O17 0.743749 0.500000 0.317504
O O18 0.773647 0.000000 0.986319
#
# Coordination Sequence:
#
# PCOD9142058 Si02
#       7
#     4   4   4   4   4   4   4
#     4   9  17  31  56  89 118 144 183 232 284 348
#     4   8  15  28  50  81 109 141 188 244 297 344
#     4  10  19  33  54  85 118 150 199 249 281 338
#     4  10  17  31  55  83 119 150 185 241 300 340
#     4  10  21  37  56  79 120 164 196 241 286 348
#     4   9  20  37  58  84 115 157 193 233 293 350
#     4  10  19  33  56  84 114 151 202 248 292 349
#
# _framework density 20.025321999999999
#
# number of rings (size 3 to 8) (size 9 to 14) (size 15 to 20)
#    0.000    2.571    1.429    2.571    0.000    3.143 
#    0.000    2.857    0.000   24.857    0.000   39.000 
#    0.000    0.000    0.000    0.000    0.000    0.000 
#
# Total GULP energy -156079.596292 kJ/mol
# GULP energy per Si atom -5574.271296 kJ/mol
# Density = 1.997974 g / cm^3
# Si number density = 20.025322 Si / 1000 Ang^3
#
#
#
# Elastic Constant Matrix: (Units=GPa)
#
#
# Indices 1 2 3 4 5 6 
#
# 1 85.9937 35.8732 18.2208 0.0000 0.0608 0.0000
# 2 35.8732 98.4694 35.0835 0.0000 5.4262 0.0000
# 3 18.2208 35.0835 58.9180 0.0000 5.0099 0.0000
# 4 0.0000 0.0000 0.0000 26.0581 0.0000 4.2065
# 5 0.0608 5.4262 5.0099 0.0000 13.8247 0.0000
# 6 0.0000 0.0000 0.0000 4.2065 0.0000 11.8655
#
#
#
# Elastic Compliance Matrix: (Units=1/GPa)
#
#
# Indices 1 2 3 4 5 6 
#
# 1 0.013909 -0.004561 -0.001787 0.000000 0.002377 0.000000
# 2 -0.004561 0.014460 -0.006933 0.000000 -0.003143 0.000000
# 3 -0.001787 -0.006933 0.022103 0.000000 -0.005281 0.000000
# 4 0.000000 0.000000 0.000000 0.040705 0.000000 -0.014431
# 5 0.002377 -0.003143 -0.005281 0.000000 0.075471 0.000000
# 6 0.000000 0.000000 0.000000 -0.014431 0.000000 0.089394
#
#
# Mechanical properties :
#
#
# Convention : Reuss Voigt Hill
#
# Bulk Modulus (GPa) = 41.82529 46.85959 44.34244
# Shear Modulus (GPa) = 17.20729 20.62990 18.91859
#
# Velocity S-wave (km/s) = 2.93452 3.21314 3.07699
# Velocity P-wave (km/s) = 5.69328 6.10055 5.90043
#
# Compressibility (1/GPa) = 0.02390898
#
# Stress axis : x y z
#
# Youngs Moduli (GPa) = 71.89832 69.15450 45.24321
#
# Poissons Ratio (x) = 0.31542 0.08087
# Poissons Ratio (y) = 0.32794 0.31366
# Poissons Ratio (z) = 0.12851 0.47943
#
# Static dielectric constant tensor:
#      x y z
#    x 1.735000 0.000000 -0.007260 
#    y 0.000000 1.700450 0.000000 
#    z -0.007260 0.000000 1.756960 
# 
# From -- ./inp_files/29419.got.cif
#   From: 2010.05.17/outbox.cif.g08.bks.cpg/sg10_15_cif.got.tgz:29419.got - 2010.06.03 11:33:40.
