data_PCOD9142596
_publ_section_title
;
Structure prediction by ZEFSAII (Michael W. Deem and Ramdas Pophale) SiO2 
 PCOD9142596
Probable space group: P 2/M
;
_chemical_formula_sum "Si O2"
_cell_formula_units_Z 28
_cell_length_a 17.097498
_cell_length_b 7.400142
_cell_length_c 18.298286
_cell_angle_alpha 90.000000
_cell_angle_beta 33.866295
_cell_angle_gamma 90.000000
_cell_volume 1290.144519
_symmetry_space_group_name_H-M "P 2/M"
_symmetry_group_IT_number 10
_symmetry_cell_setting 'monoclinic'
loop_
_space_group_symop_operation_xyz
x,y,z
-x,y,-z
-x,-y,-z
x,-y,z
loop_
_atom_site_type_symbol
_atom_site_label
_atom_site_fract_x
_atom_site_fract_y
_atom_site_fract_z
Si Si1 0.855194 0.279317 0.224921
Si Si2 0.210119 0.219921 0.481907
Si Si3 0.304114 0.279302 0.791241
Si Si4 0.108854 0.785103 0.247452
Si Si5 0.168885 0.209543 0.355330
Si Si6 0.609052 0.291574 0.520179
Si Si7 0.842926 0.283508 0.952724
O O1 0.858492 0.500000 0.225689
O O2 0.818596 0.230915 0.170255
O O3 0.726057 0.214565 0.375222
O O4 0.003164 0.216427 0.141886
O O5 0.232158 0.283967 0.381378
O O6 0.323152 0.284613 0.452060
O O7 0.053355 0.279756 0.628329
O O8 0.211649 0.000000 0.481071
O O9 0.311063 0.500000 0.786785
O O10 0.453473 0.213560 0.645379
O O11 0.267888 0.218861 0.901100
O O12 0.184604 0.712482 0.261760
O O13 0.179774 0.756737 0.114563
O O14 0.098529 0.000000 0.266911
O O15 0.000000 0.212376 0.500000
O O16 0.213879 0.000000 0.318018
O O17 0.592290 0.500000 0.510091
O O18 0.846138 0.500000 0.955889
#
# Coordination Sequence:
#
# PCOD9142596 Si02
#       7
#     4   4   4   4   4   4   4
#     4   9  16  28  47  68  89 116 154 193 223 259
#     4   9  16  28  47  69  93 119 148 183 226 270
#     4   9  18  30  45  66  93 124 152 183 225 269
#     4   9  16  28  47  69  93 119 148 183 226 270
#     4   7  12  24  43  66  89 116 148 180 217 268
#     4  10  18  29  47  70  93 117 151 190 225 263
#     4  10  18  29  47  70  93 117 151 190 225 263
#
# _framework density 21.702992999999999
#
# number of rings (size 3 to 8) (size 9 to 14) (size 15 to 20)
#    0.000    3.000    1.429    2.571    0.000    3.429 
#    0.000    1.429    0.000    8.571    0.000    6.000 
#    0.000    0.000    0.000    0.000    0.000    0.000 
#
# Total GULP energy -156169.624024 kJ/mol
# GULP energy per Si atom -5577.486572 kJ/mol
# Density = 2.165360 g / cm^3
# Si number density = 21.702993 Si / 1000 Ang^3
#
#
#
# Elastic Constant Matrix: (Units=GPa)
#
#
# Indices 1 2 3 4 5 6 
#
# 1 56.8346 -7.6073 -7.1169 0.0000 24.6622 0.0000
# 2 -7.6073 73.5981 0.3553 0.0000 -2.6561 0.0000
# 3 -7.1169 0.3553 52.1926 0.0000 12.3718 0.0000
# 4 0.0000 0.0000 0.0000 4.2602 0.0000 5.5914
# 5 24.6622 -2.6561 12.3718 0.0000 30.4583 0.0000
# 6 0.0000 0.0000 0.0000 5.5914 0.0000 -3.3789
#
#
#
# Elastic Compliance Matrix: (Units=1/GPa)
#
#
# Indices 1 2 3 4 5 6 
#
# 1 0.032993 0.002221 0.011918 0.000000 -0.031362 0.000000
# 2 0.002221 0.013788 0.000388 0.000000 -0.000753 0.000000
# 3 0.011918 0.000388 0.025519 0.000000 -0.019981 0.000000
# 4 0.000000 0.000000 0.000000 0.074003 0.000000 0.122461
# 5 -0.031362 -0.000753 -0.019981 0.000000 0.066276 0.000000
# 6 0.000000 0.000000 0.000000 0.122461 0.000000 -0.093305
#
#
# Mechanical properties :
#
#
# Convention : Reuss Voigt Hill
#
# Bulk Modulus (GPa) = 9.86654 17.09862 13.48258
# Shear Modulus (GPa) = 40.32074 19.40088 29.86081
#
# Velocity S-wave (km/s) = 4.31495 2.99310 3.71332
# Velocity P-wave (km/s) = 5.42043 4.45426 4.96092
#
# Compressibility (1/GPa) = 0.10135266
#
# Stress axis : x y z
#
# Youngs Moduli (GPa) = 30.30905 72.52786 39.18699
#
# Poissons Ratio (x) = -0.16108 -0.46703
# Poissons Ratio (y) = -0.06731 -0.01519
# Poissons Ratio (z) = -0.36122 -0.02811
#
# Static dielectric constant tensor:
#      x y z
#    x 1.785670 0.000000 0.042640 
#    y 0.000000 1.855180 0.000000 
#    z 0.042640 0.000000 1.791210 
# 
# From -- ./inp_files/28216.got.cif
#   From: 2010.05.17/outbox.cif.g08.bks.cpg/sg10_15_cif.got.tgz:28216.got - 2010.06.03 11:33:40.
