data_PCOD9142230
_publ_section_title
;
Structure prediction by ZEFSAII (Michael W. Deem and Ramdas Pophale) SiO2 
 PCOD9142230
Probable space group: P 2/M
;
_chemical_formula_sum "Si O2"
_cell_formula_units_Z 28
_cell_length_a 16.408595
_cell_length_b 9.160120
_cell_length_c 16.595531
_cell_angle_alpha 90.000000
_cell_angle_beta 50.064081
_cell_angle_gamma 90.000000
_cell_volume 1912.602803
_symmetry_space_group_name_H-M "P 2/M"
_symmetry_group_IT_number 10
_symmetry_cell_setting 'monoclinic'
loop_
_space_group_symop_operation_xyz
x,y,z
-x,y,-z
-x,-y,-z
x,-y,z
loop_
_atom_site_type_symbol
_atom_site_label
_atom_site_fract_x
_atom_site_fract_y
_atom_site_fract_z
Si Si1 0.525994 0.825208 0.795066
Si Si2 0.881693 0.675385 0.977200
Si Si3 0.705733 0.826414 0.980515
Si Si4 0.872903 0.325043 0.170926
Si Si5 0.527086 0.177223 0.610606
Si Si6 0.672162 0.176239 0.371371
Si Si7 0.381931 0.668086 0.114623
O O1 0.538691 0.774068 0.695038
O O2 0.602950 0.745756 0.809249
O O3 0.543277 0.000000 0.788263
O O4 0.404575 0.798988 0.900945
O O5 0.870478 0.500000 0.976087
O O6 0.801837 0.756326 0.968827
O O7 0.005522 0.712424 0.884137
O O8 0.857955 0.712386 0.085781
O O9 0.691004 0.754171 0.902245
O O10 0.718139 0.000000 0.965369
O O11 0.862447 0.500000 0.184342
O O12 0.784246 0.246522 0.279751
O O13 0.620592 0.219986 0.489747
O O14 0.415277 0.220250 0.640648
O O15 0.526106 0.000000 0.612484
O O16 0.680125 0.000000 0.364898
O O17 0.349070 0.500000 0.143485
O O18 0.500000 0.670161 0.000000
#
# Coordination Sequence:
#
# PCOD9142230 Si02
#       7
#     4   4   4   4   4   4   4
#     4   9  16  27  42  61  87 115 142 174 209 245
#     4   9  18  31  44  59  84 117 145 170 209 256
#     4  10  18  27  43  66  87 109 141 178 210 244
#     4   9  18  31  44  60  85 115 144 175 211 247
#     4   8  15  27  43  63  87 115 143 172 211 251
#     4   9  16  28  45  63  85 114 146 176 207 247
#     4   9  17  28  41  59  85 115 142 169 207 254
#
# _framework density 14.639735999999999
#
# number of rings (size 3 to 8) (size 9 to 14) (size 15 to 20)
#    0.000    3.000    0.000    3.429    0.000    4.571 
#    0.000    4.286    0.000    0.000    0.000    1.000 
#    0.000    8.000    0.000    0.000    0.000    0.000 
#
# Total GULP energy -155971.722954 kJ/mol
# GULP energy per Si atom -5570.418677 kJ/mol
# Density = 1.460641 g / cm^3
# Si number density = 14.639736 Si / 1000 Ang^3
#
#
#
# Elastic Constant Matrix: (Units=GPa)
#
#
# Indices 1 2 3 4 5 6 
#
# 1 128.8884 58.1224 63.6994 0.0000 19.5665 0.0000
# 2 58.1224 42.8887 41.5324 0.0000 6.4715 0.0000
# 3 63.6994 41.5324 96.2876 0.0000 13.7566 0.0000
# 4 0.0000 0.0000 0.0000 19.2185 0.0000 0.3012
# 5 19.5665 6.4715 13.7566 0.0000 26.9605 0.0000
# 6 0.0000 0.0000 0.0000 0.3012 0.0000 28.2733
#
#
#
# Elastic Compliance Matrix: (Units=1/GPa)
#
#
# Indices 1 2 3 4 5 6 
#
# 1 0.022079 -0.026907 -0.001762 0.000000 -0.008666 0.000000
# 2 -0.026907 0.072851 -0.015008 0.000000 0.009699 0.000000
# 3 -0.001762 -0.015008 0.018690 0.000000 -0.004655 0.000000
# 4 0.000000 0.000000 0.000000 0.052042 0.000000 -0.000554
# 5 -0.008666 0.009699 -0.004655 0.000000 0.043428 0.000000
# 6 0.000000 0.000000 0.000000 -0.000554 0.000000 0.035375
#
#
# Mechanical properties :
#
#
# Convention : Reuss Voigt Hill
#
# Bulk Modulus (GPa) = 38.07458 66.08590 52.08024
# Shear Modulus (GPa) = 14.68109 21.87116 18.27612
#
# Velocity S-wave (km/s) = 3.17018 3.86937 3.53709
# Velocity P-wave (km/s) = 6.28205 8.07478 7.23417
#
# Compressibility (1/GPa) = 0.02626424
#
# Stress axis : x y z
#
# Youngs Moduli (GPa) = 45.29210 13.72673 53.50395
#
# Poissons Ratio (x) = 0.36934 0.09429
# Poissons Ratio (y) = 1.21867 0.80301
# Poissons Ratio (z) = 0.07982 0.20602
#
# Static dielectric constant tensor:
#      x y z
#    x 1.465950 0.000000 0.009270 
#    y 0.000000 1.486430 0.000000 
#    z 0.009270 0.000000 1.475430 
# 
# From -- ./inp_files/49168.got.cif
#   From: 2010.05.17/outbox.cif.g08.bks.cpg/sg10_25_cif.got.tgz:49168.got - 2010.06.03 11:33:40.
