data_PCOD9142736
_publ_section_title
;
Structure prediction by ZEFSAII (Michael W. Deem and Ramdas Pophale) SiO2 
 PCOD9142736
Probable space group: P 2/M
;
_chemical_formula_sum "Si O2"
_cell_formula_units_Z 32
_cell_length_a 17.996791
_cell_length_b 9.628907
_cell_length_c 24.491796
_cell_angle_alpha 90.000000
_cell_angle_beta 155.787624
_cell_angle_gamma 90.000000
_cell_volume 1740.618896
_symmetry_space_group_name_H-M "P 2/M"
_symmetry_group_IT_number 10
_symmetry_cell_setting 'monoclinic'
loop_
_space_group_symop_operation_xyz
x,y,z
-x,y,-z
-x,-y,-z
x,-y,z
loop_
_atom_site_type_symbol
_atom_site_label
_atom_site_fract_x
_atom_site_fract_y
_atom_site_fract_z
Si Si1 0.564019 0.662628 0.660335
Si Si2 0.091339 0.833507 0.897997
Si Si3 0.511209 0.839373 0.850568
Si Si4 0.563434 0.839434 0.326886
Si Si5 0.087249 0.659499 0.420192
Si Si6 0.164954 0.664199 0.651620
Si Si7 0.027965 0.337986 0.083170
Si Si8 0.827827 0.660430 0.648192
O O1 0.550723 0.500000 0.667331
O O2 0.552790 0.755497 0.706863
O O3 0.757247 0.680955 0.761638
O O4 0.385001 0.691778 0.504591
O O5 0.080510 0.763426 0.950259
O O6 0.928456 0.765763 0.754920
O O7 0.079543 0.000000 0.893866
O O8 0.283104 0.798030 0.997742
O O9 0.505996 0.833206 0.781183
O O10 0.348041 0.746802 0.763156
O O11 0.482091 0.000000 0.847055
O O12 0.758506 0.765642 0.458265
O O13 0.576678 0.000000 0.352215
O O14 0.144561 0.500000 0.471387
O O15 0.909711 0.685183 0.337076
O O16 0.079360 0.668681 0.349587
O O17 0.195799 0.500000 0.663506
O O18 0.000000 0.705263 0.500000
O O19 0.980586 0.500000 0.061452
O O20 0.000000 0.312371 0.000000
O O21 0.842459 0.500000 0.677239
#
# Coordination Sequence:
#
# PCOD9142736 Si02
#       8
#     4   4   4   4   4   4   4   4
#     4   9  19  35  56  82 111 142 179 227 275 321
#     4  11  24  40  56  77 110 149 188 230 271 319
#     4  10  22  36  50  75 112 149 181 219 276 332
#     4  10  18  29  50  79 109 142 179 216 265 330
#     4   9  18  34  54  80 112 141 174 223 278 323
#     4  10  19  32  55  86 113 139 178 227 275 327
#     4  10  21  38  61  88 114 142 179 221 275 336
#     4   9  19  37  58  77 105 146 188 226 268 320
#
# _framework density 18.384266
#
# number of rings (size 3 to 8) (size 9 to 14) (size 15 to 20)
#    0.000    2.250    1.250    2.250    0.000    5.500 
#    0.000    3.125    0.000    3.750    0.000    0.000 
#    0.000    0.000    0.000    0.000    0.000    0.000 
#
# Total GULP energy -178528.522635 kJ/mol
# GULP energy per Si atom -5579.016332 kJ/mol
# Density = 1.834242 g / cm^3
# Si number density = 18.384266 Si / 1000 Ang^3
#
#
#
# Elastic Constant Matrix: (Units=GPa)
#
#
# Indices 1 2 3 4 5 6 
#
# 1 58.4447 40.1479 36.9316 0.0000 21.3876 0.0000
# 2 40.1479 68.4352 45.5302 0.0000 16.5355 0.0000
# 3 36.9316 45.5302 75.2605 0.0000 15.3698 0.0000
# 4 0.0000 0.0000 0.0000 14.4413 0.0000 -1.0841
# 5 21.3876 16.5355 15.3698 0.0000 27.3119 0.0000
# 6 0.0000 0.0000 0.0000 -1.0841 0.0000 22.4843
#
#
#
# Elastic Compliance Matrix: (Units=1/GPa)
#
#
# Indices 1 2 3 4 5 6 
#
# 1 0.036268 -0.012794 -0.006597 0.000000 -0.016942 0.000000
# 2 -0.012794 0.030337 -0.011716 0.000000 -0.001755 0.000000
# 3 -0.006597 -0.011716 0.023850 0.000000 -0.001162 0.000000
# 4 0.000000 0.000000 0.000000 0.069497 0.000000 0.003351
# 5 -0.016942 -0.001755 -0.001162 0.000000 0.051598 0.000000
# 6 0.000000 0.000000 0.000000 0.003351 0.000000 0.044637
#
#
# Mechanical properties :
#
#
# Convention : Reuss Voigt Hill
#
# Bulk Modulus (GPa) = 35.41136 49.70665 42.55900
# Shear Modulus (GPa) = 15.25255 18.14955 16.70105
#
# Velocity S-wave (km/s) = 2.88349 3.14543 3.01731
# Velocity P-wave (km/s) = 5.51268 6.34728 5.94465
#
# Compressibility (1/GPa) = 0.02823952
#
# Stress axis : x y z
#
# Youngs Moduli (GPa) = 27.57286 32.96325 41.92892
#
# Poissons Ratio (x) = 0.42172 0.27662
# Poissons Ratio (y) = 0.35276 0.49125
# Poissons Ratio (z) = 0.18191 0.38621
#
# Static dielectric constant tensor:
#      x y z
#    x 1.644880 0.000000 -0.003830 
#    y 0.000000 1.610020 0.000000 
#    z -0.003830 0.000000 1.647660 
# 
# From -- ./inp_files/93799.got.cif
#   From: 2010.05.17/outbox.cif.g08.bks.cpg/sg10_47_cif.got.tgz:93799.got - 2010.06.03 11:33:40.
