data_PCOD9142919
_publ_section_title
;
Structure prediction by ZEFSAII (Michael W. Deem and Ramdas Pophale) SiO2 
 PCOD9142919
Probable space group: P 2/M
;
_chemical_formula_sum "Si O2"
_cell_formula_units_Z 32
_cell_length_a 20.645981
_cell_length_b 7.307798
_cell_length_c 13.933324
_cell_angle_alpha 90.000000
_cell_angle_beta 39.408177
_cell_angle_gamma 90.000000
_cell_volume 1334.570792
_symmetry_space_group_name_H-M "P 2/M"
_symmetry_group_IT_number 10
_symmetry_cell_setting 'monoclinic'
loop_
_space_group_symop_operation_xyz
x,y,z
-x,y,-z
-x,-y,-z
x,-y,z
loop_
_atom_site_type_symbol
_atom_site_label
_atom_site_fract_x
_atom_site_fract_y
_atom_site_fract_z
Si Si1 0.949888 0.719622 0.848659
Si Si2 0.962150 0.722934 0.441763
Si Si3 0.099422 0.210291 0.831702
Si Si4 0.588061 0.276955 0.700212
Si Si5 0.268963 0.276640 0.287336
Si Si6 0.669302 0.293767 0.403869
Si Si7 0.648144 0.722118 0.015311
Si Si8 0.724569 0.723918 0.138573
O O1 0.949979 0.500000 0.853748
O O2 0.957618 0.777423 0.730413
O O3 0.054464 0.783906 0.776610
O O4 0.843053 0.779984 0.015639
O O5 0.961569 0.500000 0.442946
O O6 0.846253 0.778830 0.557485
O O7 0.000000 0.786827 0.500000
O O8 0.208316 0.301183 0.717953
O O9 0.111231 0.000000 0.847519
O O10 0.000000 0.290283 0.000000
O O11 0.595660 0.500000 0.688913
O O12 0.656862 0.217294 0.711370
O O13 0.623042 0.211773 0.554245
O O14 0.470909 0.229770 0.852300
O O15 0.272784 0.500000 0.281741
O O16 0.299340 0.218228 0.144400
O O17 0.627295 0.500000 0.445812
O O18 0.661665 0.214459 0.304662
O O19 0.656716 0.500000 0.006658
O O20 0.689941 0.781319 0.071955
O O21 0.721570 0.500000 0.143906
#
# Coordination Sequence:
#
# PCOD9142919 Si02
#       8
#     4   4   4   4   4   4   4   4
#     4  10  18  30  49  72 100 131 164 199 238 286
#     4   9  16  25  41  68 100 131 161 197 239 284
#     4  11  22  34  49  71  97 127 163 199 239 288
#     4   9  17  27  42  65  93 128 162 197 241 285
#     4   9  15  24  37  57  91 130 162 191 234 289
#     4  10  19  32  49  71  99 126 159 197 239 291
#     4   9  16  26  40  62  95 128 159 197 243 288
#     4   9  17  27  42  65  92 126 159 193 238 286
#
# _framework density 23.977746
#
# number of rings (size 3 to 8) (size 9 to 14) (size 15 to 20)
#    0.000    2.500    1.250    2.250    0.000    7.500 
#    0.000    2.500    0.000    0.375    0.000    2.625 
#    0.000    8.000    0.000    0.000    0.000    0.000 
#
# Total GULP energy -178708.676514 kJ/mol
# GULP energy per Si atom -5584.646141 kJ/mol
# Density = 2.392317 g / cm^3
# Si number density = 23.977746 Si / 1000 Ang^3
#
#
#
# Elastic Constant Matrix: (Units=GPa)
#
#
# Indices 1 2 3 4 5 6 
#
# 1 96.2612 1.0247 17.9341 0.0000 24.8419 0.0000
# 2 1.0247 99.8557 2.1339 0.0000 4.1473 0.0000
# 3 17.9341 2.1339 114.1289 0.0000 32.0575 0.0000
# 4 0.0000 0.0000 0.0000 -11.0661 0.0000 16.1921
# 5 24.8419 4.1473 32.0575 0.0000 45.7561 0.0000
# 6 0.0000 0.0000 0.0000 16.1921 0.0000 -12.7081
#
#
#
# Elastic Compliance Matrix: (Units=1/GPa)
#
#
# Indices 1 2 3 4 5 6 
#
# 1 0.012084 0.000149 -0.000069 0.000000 -0.006526 0.000000
# 2 0.000149 0.010055 0.000084 0.000000 -0.001051 0.000000
# 3 -0.000069 0.000084 0.010910 0.000000 -0.007614 0.000000
# 4 0.000000 0.000000 0.000000 0.104544 0.000000 0.133206
# 5 -0.006526 -0.001051 -0.007614 0.000000 0.030828 0.000000
# 6 0.000000 0.000000 0.000000 0.133206 0.000000 0.091036
#
#
# Mechanical properties :
#
#
# Convention : Reuss Voigt Hill
#
# Bulk Modulus (GPa) = 29.96172 39.15902 34.56037
# Shear Modulus (GPa) = 18.50106 23.67326 21.08716
#
# Velocity S-wave (km/s) = 2.78077 3.14554 2.96876
# Velocity P-wave (km/s) = 4.77839 5.43686 5.11823
#
# Compressibility (1/GPa) = 0.03337592
#
# Stress axis : x y z
#
# Youngs Moduli (GPa) = 82.75599 99.45528 91.65965
#
# Poissons Ratio (x) = -0.01477 0.00628
# Poissons Ratio (y) = -0.01229 -0.00768
# Poissons Ratio (z) = 0.00567 -0.00833
#
# Static dielectric constant tensor:
#      x y z
#    x 1.916160 0.000000 0.065850 
#    y 0.000000 1.940150 0.000000 
#    z 0.065850 0.000000 1.890310 
# 
# From -- ./inp_files/53518.got.cif
#   From: 2010.05.17/outbox.cif.g08.bks.cpg/sg10_27_cif.got.tgz:53518.got - 2010.06.03 11:33:40.
