data_PCOD9142717
_publ_section_title
;
Structure prediction by ZEFSAII (Michael W. Deem and Ramdas Pophale) SiO2 
 PCOD9142717
Probable space group: P 2/M
;
_chemical_formula_sum "Si O2"
_cell_formula_units_Z 22
_cell_length_a 10.089977
_cell_length_b 11.259678
_cell_length_c 9.749337
_cell_angle_alpha 90.000000
_cell_angle_beta 56.076191
_cell_angle_gamma 90.000000
_cell_volume 919.082349
_symmetry_space_group_name_H-M "P 2/M"
_symmetry_group_IT_number 10
_symmetry_cell_setting 'monoclinic'
loop_
_space_group_symop_operation_xyz
x,y,z
-x,y,-z
-x,-y,-z
x,-y,z
loop_
_atom_site_type_symbol
_atom_site_label
_atom_site_fract_x
_atom_site_fract_y
_atom_site_fract_z
Si Si1 0.758309 0.861765 0.097256
Si Si2 0.813781 0.293157 0.295474
Si Si3 0.341897 0.500000 0.255898
Si Si4 0.623616 0.864223 0.619357
Si Si5 0.312574 0.752254 0.140922
Si Si6 0.609846 0.500000 0.299865
Si Si7 0.925799 0.500000 0.392259
O O1 0.858499 0.811134 0.166461
O O2 0.567958 0.850700 0.250643
O O3 0.787254 0.000000 0.057515
O O4 0.776420 0.792288 0.943992
O O5 0.696614 0.231995 0.473866
O O6 0.718090 0.384412 0.253787
O O7 0.940704 0.378538 0.298704
O O8 0.293935 0.617166 0.202062
O O9 0.524327 0.500000 0.201324
O O10 0.257975 0.500000 0.452433
O O11 0.709974 0.836991 0.714471
O O12 0.652614 0.000000 0.557727
O O13 0.500000 0.764709 0.000000
O O14 0.500000 0.500000 0.500000
O O15 0.000000 0.500000 0.500000
#
# Coordination Sequence:
#
# PCOD9142717 Si02
#       7
#     4   4   2   4   4   2   2
#     4  10  20  31  49  83 122 145 172 211 261 330
#     4  11  20  33  55  78 111 142 179 226 276 321
#     4  12  20  34  55  80 108 149 184 224 265 329
#     4  10  18  29  49  80 116 155 181 204 257 329
#     4  10  19  31  48  79 121 153 175 206 260 330
#     4  11  16  27  48  79 107 132 167 216 274 320
#     4  11  25  40  57  79 104 139 188 243 279 310
#
# _framework density 23.936920000000001
#
# number of rings (size 3 to 8) (size 9 to 14) (size 15 to 20)
#    0.000    1.455    3.636    5.182    0.000    5.091 
#    0.000    0.000    0.000    4.364    0.000    1.273 
#    0.000    0.000    0.000    0.000    0.000    0.000 
#
# Total GULP energy -123023.174863 kJ/mol
# GULP energy per Si atom -5591.962494 kJ/mol
# Density = 2.388244 g / cm^3
# Si number density = 23.936920 Si / 1000 Ang^3
#
#
#
# Elastic Constant Matrix: (Units=GPa)
#
#
# Indices 1 2 3 4 5 6 
#
# 1 99.4023 49.2251 35.8649 0.0000 42.0370 0.0000
# 2 49.2251 176.2224 53.5050 0.0000 29.5010 0.0000
# 3 35.8649 53.5050 91.8885 0.0000 24.4331 0.0000
# 4 0.0000 0.0000 0.0000 44.4402 0.0000 14.3303
# 5 42.0370 29.5010 24.4331 0.0000 41.7658 0.0000
# 6 0.0000 0.0000 0.0000 14.3303 0.0000 4.3294
#
#
#
# Elastic Compliance Matrix: (Units=1/GPa)
#
#
# Indices 1 2 3 4 5 6 
#
# 1 0.018524 -0.001909 -0.001800 0.000000 -0.016243 0.000000
# 2 -0.001909 0.007419 -0.003188 0.000000 -0.001454 0.000000
# 3 -0.001800 -0.003188 0.014638 0.000000 -0.004500 0.000000
# 4 0.000000 0.000000 0.000000 -0.334187 0.000000 1.106145
# 5 -0.016243 -0.001454 -0.004500 0.000000 0.043951 0.000000
# 6 0.000000 0.000000 0.000000 1.106145 0.000000 -3.430314
#
#
# Mechanical properties :
#
#
# Convention : Reuss Voigt Hill
#
# Bulk Modulus (GPa) = 37.33024 71.63369 54.48197
# Shear Modulus (GPa) = -1.36715 33.36830 16.00057
#
# Velocity S-wave (km/s) = -0.75656 3.73769 2.58824
# Velocity P-wave (km/s) = 3.85564 6.97267 5.63401
#
# Compressibility (1/GPa) = 0.02678793
#
# Stress axis : x y z
#
# Youngs Moduli (GPa) = 53.98450 134.78232 68.31400
#
# Poissons Ratio (x) = 0.25726 0.12293
# Poissons Ratio (y) = 0.10304 0.21782
# Poissons Ratio (z) = 0.09715 0.42975
#
# Static dielectric constant tensor:
#      x y z
#    x 2.068130 0.000000 -0.068500 
#    y 0.000000 1.899750 0.000000 
#    z -0.068500 0.000000 1.918680 
# 
# From -- ./inp_files/23974.got.cif
#   From: 2010.05.17/outbox.cif.g08.bks.cpg/sg10_12_cif.got.tgz:23974.got - 2010.06.03 11:33:40.
