data_PCOD9142936
_publ_section_title
;
Structure prediction by ZEFSAII (Michael W. Deem and Ramdas Pophale) SiO2 
 PCOD9142936
Probable space group: P 2/M
;
_chemical_formula_sum "Si O2"
_cell_formula_units_Z 28
_cell_length_a 8.353610
_cell_length_b 13.529875
_cell_length_c 13.994493
_cell_angle_alpha 90.000000
_cell_angle_beta 58.154618
_cell_angle_gamma 90.000000
_cell_volume 1343.617876
_symmetry_space_group_name_H-M "P 2/M"
_symmetry_group_IT_number 10
_symmetry_cell_setting 'monoclinic'
loop_
_space_group_symop_operation_xyz
x,y,z
-x,y,-z
-x,-y,-z
x,-y,z
loop_
_atom_site_type_symbol
_atom_site_label
_atom_site_fract_x
_atom_site_fract_y
_atom_site_fract_z
Si Si1 0.711863 0.387987 0.036484
Si Si2 0.899310 0.611980 0.188197
Si Si3 0.694601 0.879732 0.542581
Si Si4 0.731266 0.804086 0.325764
Si Si5 0.768823 0.115090 0.722846
Si Si6 0.583854 0.819670 0.073689
Si Si7 0.066769 0.883620 0.128423
O O1 0.641298 0.500000 0.044841
O O2 0.802384 0.384284 0.114029
O O3 0.564720 0.298731 0.081800
O O4 0.880057 0.369987 0.906646
O O5 0.881872 0.500000 0.230043
O O6 0.797122 0.691725 0.287116
O O7 0.783578 0.845727 0.414451
O O8 0.489364 0.828152 0.611811
O O9 0.803802 0.849843 0.604525
O O10 0.674441 0.000000 0.547360
O O11 0.847829 0.860191 0.206511
O O12 0.543496 0.128775 0.807934
O O13 0.855393 0.157516 0.793412
O O14 0.820899 0.000000 0.707348
O O15 0.500000 0.859166 0.000000
O O16 0.806089 0.839725 0.995677
O O17 0.096017 0.000000 0.114862
#
# Coordination Sequence:
#
# PCOD9142936 Si02
#       7
#     4   4   4   4   4   4   4
#     4   9  17  31  49  73 100 126 158 199 245 296
#     4   9  18  32  52  73  96 125 160 202 249 295
#     4  10  21  35  50  72 102 135 165 202 246 284
#     4  11  19  33  53  74  97 127 165 210 247 283
#     4   9  19  34  49  69 104 140 166 195 238 291
#     4  10  18  30  49  74 103 130 161 199 247 292
#     4  10  19  31  50  75 100 131 167 202 240 292
#
# _framework density 20.839258000000001
#
# number of rings (size 3 to 8) (size 9 to 14) (size 15 to 20)
#    0.000    2.286    1.429    3.857    0.000    2.571 
#    0.000    3.571    0.000    4.286    0.000    1.000 
#    0.000    0.000    0.000    0.000    0.000    0.000 
#
# Total GULP energy -156136.326957 kJ/mol
# GULP energy per Si atom -5576.297391 kJ/mol
# Density = 2.079183 g / cm^3
# Si number density = 20.839258 Si / 1000 Ang^3
#
#
#
# Elastic Constant Matrix: (Units=GPa)
#
#
# Indices 1 2 3 4 5 6 
#
# 1 32.3762 -3.3038 14.6630 0.0000 7.4183 0.0000
# 2 -3.3038 98.6316 13.9749 0.0000 4.2541 0.0000
# 3 14.6630 13.9749 104.3175 0.0000 -1.4627 0.0000
# 4 0.0000 0.0000 0.0000 73.6709 0.0000 19.2644
# 5 7.4183 4.2541 -1.4627 0.0000 33.1289 0.0000
# 6 0.0000 0.0000 0.0000 19.2644 0.0000 25.5820
#
#
#
# Elastic Compliance Matrix: (Units=1/GPa)
#
#
# Indices 1 2 3 4 5 6 
#
# 1 0.035527 0.002325 -0.005424 0.000000 -0.008493 0.000000
# 2 0.002325 0.010551 -0.001768 0.000000 -0.001954 0.000000
# 3 -0.005424 -0.001768 0.010612 0.000000 0.001910 0.000000
# 4 0.000000 0.000000 0.000000 0.016902 0.000000 -0.012728
# 5 -0.008493 -0.001954 0.001910 0.000000 0.032422 0.000000
# 6 0.000000 0.000000 0.000000 -0.012728 0.000000 0.048675
#
#
# Mechanical properties :
#
#
# Convention : Reuss Voigt Hill
#
# Bulk Modulus (GPa) = 21.29642 31.77704 26.53673
# Shear Modulus (GPa) = 27.76608 40.47576 34.12092
#
# Velocity S-wave (km/s) = 3.65416 4.41192 4.05079
# Velocity P-wave (km/s) = 5.29579 6.42146 5.88559
#
# Compressibility (1/GPa) = 0.04695625
#
# Stress axis : x y z
#
# Youngs Moduli (GPa) = 28.14775 94.77468 94.23156
#
# Poissons Ratio (x) = -0.22034 0.51114
# Poissons Ratio (y) = -0.06544 0.16657
# Poissons Ratio (z) = 0.15268 0.16753
#
# Static dielectric constant tensor:
#      x y z
#    x 1.852490 0.000000 -0.020020 
#    y 0.000000 1.743170 0.000000 
#    z -0.020020 0.000000 1.753870 
# 
# From -- ./inp_files/61764.got.cif
#   From: 2010.05.17/outbox.cif.g08.bks.cpg/sg10_31_cif.got.tgz:61764.got - 2010.06.03 11:33:40.
