data_PCOD9142985
_publ_section_title
;
Structure prediction by ZEFSAII (Michael W. Deem and Ramdas Pophale) SiO2 
 PCOD9142985
Probable space group: P 2/M
;
_chemical_formula_sum "Si O2"
_cell_formula_units_Z 28
_cell_length_a 23.619767
_cell_length_b 8.315683
_cell_length_c 18.206736
_cell_angle_alpha 90.000000
_cell_angle_beta 25.555841
_cell_angle_gamma 90.000000
_cell_volume 1542.681484
_symmetry_space_group_name_H-M "P 2/M"
_symmetry_group_IT_number 10
_symmetry_cell_setting 'monoclinic'
loop_
_space_group_symop_operation_xyz
x,y,z
-x,y,-z
-x,-y,-z
x,-y,z
loop_
_atom_site_type_symbol
_atom_site_label
_atom_site_fract_x
_atom_site_fract_y
_atom_site_fract_z
Si Si1 0.272703 0.808111 0.390384
Si Si2 0.710050 0.303496 0.371034
Si Si3 0.581307 0.305961 0.242435
Si Si4 0.201688 0.303168 0.894706
Si Si5 0.094568 0.305925 0.728333
Si Si6 0.436855 0.191877 0.899428
Si Si7 0.645628 0.308100 0.854688
O O1 0.159592 0.746730 0.576117
O O2 0.414361 0.747843 0.256125
O O3 0.261599 0.752684 0.318971
O O4 0.275581 0.000000 0.388680
O O5 0.709894 0.500000 0.371501
O O6 0.562986 0.250329 0.562879
O O7 0.754658 0.252707 0.237860
O O8 0.811590 0.250422 0.314917
O O9 0.580055 0.500000 0.246098
O O10 0.693374 0.250197 0.167299
O O11 0.603288 0.253782 0.133178
O O12 0.201731 0.500000 0.894597
O O13 0.054285 0.250315 0.085760
O O14 0.093584 0.500000 0.731497
O O15 0.441020 0.000000 0.893760
O O16 0.342917 0.246769 0.075801
O O17 0.647205 0.500000 0.853277
O O18 0.500000 0.250966 0.000000
#
# Coordination Sequence:
#
# PCOD9142985 Si02
#       7
#     4   4   4   4   4   4   4
#     4  10  19  31  48  72 103 134 165 202 248 296
#     4   9  16  28  49  74  99 128 167 213 256 295
#     4  10  18  30  50  74 100 131 169 209 250 296
#     4   9  18  30  47  74 103 130 165 213 258 293
#     4  10  18  30  50  74 100 131 169 209 250 296
#     4  10  19  31  48  72 103 134 165 202 248 296
#     4   9  17  29  49  76 103 128 161 204 248 294
#
# _framework density 18.150213999999998
#
# number of rings (size 3 to 8) (size 9 to 14) (size 15 to 20)
#    0.000    2.429    1.429    2.143    0.000    6.286 
#    0.000    0.714    0.000    6.000    0.000    6.000 
#    0.000    0.000    0.000    0.000    0.000    0.000 
#
# Total GULP energy -156181.426374 kJ/mol
# GULP energy per Si atom -5577.908085 kJ/mol
# Density = 1.810890 g / cm^3
# Si number density = 18.150214 Si / 1000 Ang^3
#
#
#
# Elastic Constant Matrix: (Units=GPa)
#
#
# Indices 1 2 3 4 5 6 
#
# 1 123.7806 17.2410 131.5058 0.0000 17.0116 0.0000
# 2 17.2410 9.9153 18.1818 0.0000 0.0334 0.0000
# 3 131.5058 18.1818 143.9843 0.0000 27.5136 0.0000
# 4 0.0000 0.0000 0.0000 -20.3766 0.0000 -23.6289
# 5 17.0116 0.0334 27.5136 0.0000 36.4898 0.0000
# 6 0.0000 0.0000 0.0000 -23.6289 0.0000 -13.7625
#
#
#
# Elastic Compliance Matrix: (Units=1/GPa)
#
#
# Indices 1 2 3 4 5 6 
#
# 1 0.644095 0.023078 -0.623663 0.000000 0.169949 0.000000
# 2 0.023078 0.138942 -0.042694 0.000000 0.021306 0.000000
# 3 -0.623663 -0.042694 0.614992 0.000000 -0.172918 0.000000
# 4 0.000000 0.000000 0.000000 0.049525 0.000000 -0.085029
# 5 0.169949 0.021306 -0.172918 0.000000 0.078537 0.000000
# 6 0.000000 0.000000 0.000000 -0.085029 0.000000 0.073325
#
#
# Mechanical properties :
#
#
# Convention : Reuss Voigt Hill
#
# Bulk Modulus (GPa) = 8.97103 67.94859 38.45981
# Shear Modulus (GPa) = 1.71049 7.85359 4.78204
#
# Velocity S-wave (km/s) = 0.97183 2.08240 1.62494
# Velocity P-wave (km/s) = 2.49252 6.58027 4.97557
#
# Compressibility (1/GPa) = 0.11146996
#
# Stress axis : x y z
#
# Youngs Moduli (GPa) = 1.55257 7.19724 1.62604
#
# Poissons Ratio (x) = -0.16609 1.01410
# Poissons Ratio (y) = -0.03583 0.06942
# Poissons Ratio (z) = 0.96828 0.30728
#
# Static dielectric constant tensor:
#      x y z
#    x 1.613820 0.000000 0.003170 
#    y 0.000000 1.616540 0.000000 
#    z 0.003170 0.000000 1.615160 
# 
# From -- ./inp_files/63489.got.cif
#   From: 2010.05.17/outbox.cif.g08.bks.cpg/sg10_32_cif.got.tgz:63489.got - 2010.06.03 11:33:40.
