data_PCOD9142839
_publ_section_title
;
Structure prediction by ZEFSAII (Michael W. Deem and Ramdas Pophale) SiO2 
 PCOD9142839
Probable space group: P 2/M
;
_chemical_formula_sum "Si O2"
_cell_formula_units_Z 30
_cell_length_a 12.430053
_cell_length_b 18.500270
_cell_length_c 13.258986
_cell_angle_alpha 90.000000
_cell_angle_beta 34.227971
_cell_angle_gamma 90.000000
_cell_volume 1715.038646
_symmetry_space_group_name_H-M "P 2/M"
_symmetry_group_IT_number 10
_symmetry_cell_setting 'monoclinic'
loop_
_space_group_symop_operation_xyz
x,y,z
-x,y,-z
-x,-y,-z
x,-y,z
loop_
_atom_site_type_symbol
_atom_site_label
_atom_site_fract_x
_atom_site_fract_y
_atom_site_fract_z
Si Si1 0.665248 0.780762 0.561835
Si Si2 0.011534 0.388704 0.109678
Si Si3 0.463808 0.262630 0.912915
Si Si4 0.424320 0.577653 0.867503
Si Si5 0.384057 0.622076 0.487930
Si Si6 0.563730 0.921640 0.334900
Si Si7 0.950515 0.774611 0.850870
Si Si8 0.000000 0.879874 0.000000
O O1 0.624521 0.763853 0.709997
O O2 0.603633 0.708471 0.546893
O O3 0.538210 0.850983 0.633014
O O4 0.887113 0.787277 0.359371
O O5 0.826248 0.405400 0.320005
O O6 0.024855 0.302045 0.111762
O O7 0.000000 0.407152 0.000000
O O8 0.201983 0.420417 0.009491
O O9 0.458670 0.349932 0.904721
O O10 0.500000 0.243122 0.000000
O O11 0.261915 0.229862 0.030507
O O12 0.473199 0.500000 0.876154
O O13 0.535073 0.586074 0.675297
O O14 0.500000 0.608556 0.500000
O O15 0.500000 0.920608 0.500000
O O16 0.505322 0.000000 0.335542
O O17 0.794245 0.918191 0.157014
O O18 0.989147 0.832761 0.906967
#
# Coordination Sequence:
#
# PCOD9142839 Si02
#       8
#     4   4   4   4   4   4   4   2
#     4  10  20  35  56  81 110 148 187 233 276 318
#     4  10  18  30  47  74 106 139 176 217 261 322
#     4  10  22  40  60  82 103 137 195 245 281 323
#     4  10  22  36  50  75 108 141 176 220 282 339
#     4  10  19  30  50  75 106 143 182 217 264 326
#     4  11  22  33  51  87 130 160 181 211 267 340
#     4  10  20  31  58  85 108 146 180 231 277 325
#     4  12  19  32  56  86 123 150 184 214 271 336
#
# _framework density 17.492317
#
# number of rings (size 3 to 8) (size 9 to 14) (size 15 to 20)
#    0.000    1.733    4.667    0.600    1.867    1.867 
#    0.000    0.000    0.000    0.400    0.000    8.400 
#    0.000    0.000    0.000    0.000    0.000    0.000 
#
# Total GULP energy -167208.134594 kJ/mol
# GULP energy per Si atom -5573.604486 kJ/mol
# Density = 1.745250 g / cm^3
# Si number density = 17.492317 Si / 1000 Ang^3
#
#
#
# Elastic Constant Matrix: (Units=GPa)
#
#
# Indices 1 2 3 4 5 6 
#
# 1 49.1960 9.6800 36.7803 0.0000 16.6328 0.0000
# 2 9.6800 95.8216 26.1097 0.0000 0.5404 0.0000
# 3 36.7803 26.1097 137.6192 0.0000 -3.9917 0.0000
# 4 0.0000 0.0000 0.0000 -14.4161 0.0000 6.6291
# 5 16.6328 0.5404 -3.9917 0.0000 23.4160 0.0000
# 6 0.0000 0.0000 0.0000 6.6291 0.0000 12.9234
#
#
#
# Elastic Compliance Matrix: (Units=1/GPa)
#
#
# Indices 1 2 3 4 5 6 
#
# 1 0.038627 -0.000730 -0.011035 0.000000 -0.029302 0.000000
# 2 -0.000730 0.011028 -0.001899 0.000000 -0.000060 0.000000
# 3 -0.011035 -0.001899 0.010858 0.000000 0.009733 0.000000
# 4 0.000000 0.000000 0.000000 -0.056128 0.000000 0.028791
# 5 -0.029302 -0.000060 0.009733 0.000000 0.065180 0.000000
# 6 0.000000 0.000000 0.000000 0.028791 0.000000 0.062611
#
#
# Mechanical properties :
#
#
# Convention : Reuss Voigt Hill
#
# Bulk Modulus (GPa) = 30.13381 47.53078 38.83230
# Shear Modulus (GPa) = 29.31428 18.38912 23.85170
#
# Velocity S-wave (km/s) = 4.09814 3.24584 3.69664
# Velocity P-wave (km/s) = 6.29740 6.42485 6.36145
#
# Compressibility (1/GPa) = 0.03318532
#
# Stress axis : x y z
#
# Youngs Moduli (GPa) = 25.88841 90.68207 92.09614
#
# Poissons Ratio (x) = 0.06621 1.01628
# Poissons Ratio (y) = 0.01890 0.17487
# Poissons Ratio (z) = 0.28568 0.17219
#
# Static dielectric constant tensor:
#      x y z
#    x 1.545020 0.000000 -0.028420 
#    y 0.000000 1.646570 0.000000 
#    z -0.028420 0.000000 1.605170 
# 
# From -- ./inp_files/47895.got.cif
#   From: 2010.05.17/outbox.cif.g08.bks.cpg/sg10_24_cif.got.tgz:47895.got - 2010.06.03 11:33:40.
