data_PCOD9142497
_publ_section_title
;
Structure prediction by ZEFSAII (Michael W. Deem and Ramdas Pophale) SiO2 
 PCOD9142497
Probable space group: P 2/M
;
_chemical_formula_sum "Si O2"
_cell_formula_units_Z 32
_cell_length_a 18.241585
_cell_length_b 8.914365
_cell_length_c 24.631243
_cell_angle_alpha 90.000000
_cell_angle_beta 149.504439
_cell_angle_gamma 90.000000
_cell_volume 2032.595972
_symmetry_space_group_name_H-M "P 2/M"
_symmetry_group_IT_number 10
_symmetry_cell_setting 'monoclinic'
loop_
_space_group_symop_operation_xyz
x,y,z
-x,y,-z
-x,-y,-z
x,-y,z
loop_
_atom_site_type_symbol
_atom_site_label
_atom_site_fract_x
_atom_site_fract_y
_atom_site_fract_z
Si Si1 0.628971 0.680245 0.813026
Si Si2 0.061875 0.180708 0.980555
Si Si3 0.191122 0.819021 0.262536
Si Si4 0.764267 0.180532 0.585933
Si Si5 0.547497 0.679839 0.637050
Si Si6 0.868039 0.826493 0.372142
Si Si7 0.099271 0.818655 0.438770
Si Si8 0.673570 0.679249 0.332173
O O1 0.642313 0.500000 0.823500
O O2 0.591873 0.721703 0.726973
O O3 0.491387 0.724454 0.761681
O O4 0.779568 0.752853 0.925748
O O5 0.947483 0.226173 0.861497
O O6 0.071265 0.000000 0.986597
O O7 0.000000 0.227603 0.000000
O O8 0.180066 0.778935 0.318782
O O9 0.333140 0.745916 0.327202
O O10 0.204903 0.000000 0.267283
O O11 0.609400 0.254983 0.476522
O O12 0.870130 0.221226 0.603890
O O13 0.745824 0.000000 0.572720
O O14 0.544223 0.500000 0.631304
O O15 0.740086 0.733787 0.317718
O O16 0.000000 0.822429 0.500000
O O17 0.945625 0.772162 0.366629
O O18 0.823916 0.000000 0.338229
O O19 0.226184 0.749642 0.556673
O O20 0.105849 0.000000 0.448674
O O21 0.683263 0.500000 0.342278
#
# Coordination Sequence:
#
# PCOD9142497 Si02
#       8
#     4   4   4   4   4   4   4   4
#     4  10  21  33  47  69  96 125 156 193 234 277
#     4  10  20  34  52  70  89 118 158 202 240 278
#     4  10  21  36  50  69  93 121 162 202 236 277
#     4  10  20  33  50  69  95 129 159 192 233 278
#     4  11  21  33  48  69  97 127 159 194 232 277
#     4   8  15  27  42  64  93 122 153 185 222 276
#     4   9  17  29  45  66  93 126 156 183 225 278
#     4  10  18  29  44  67  96 123 153 189 229 273
#
# _framework density 15.743415000000001
#
# number of rings (size 3 to 8) (size 9 to 14) (size 15 to 20)
#    0.000    2.250    2.500    1.875    0.000    6.500 
#    0.000    0.000    0.000    0.000    0.000    0.875 
#    0.000    7.000    0.000    0.000    0.000    0.000 
#
# Total GULP energy -178428.314891 kJ/mol
# GULP energy per Si atom -5575.884840 kJ/mol
# Density = 1.570758 g / cm^3
# Si number density = 15.743415 Si / 1000 Ang^3
#
#
#
# Elastic Constant Matrix: (Units=GPa)
#
#
# Indices 1 2 3 4 5 6 
#
# 1 170.7986 37.0340 72.3246 0.0000 10.5248 0.0000
# 2 37.0340 13.6824 18.5763 0.0000 1.2065 0.0000
# 3 72.3246 18.5763 69.0690 0.0000 -7.1602 0.0000
# 4 0.0000 0.0000 0.0000 44.9316 0.0000 20.6647
# 5 10.5248 1.2065 -7.1602 0.0000 21.5712 0.0000
# 6 0.0000 0.0000 0.0000 20.6647 0.0000 29.5709
#
#
#
# Elastic Compliance Matrix: (Units=1/GPa)
#
#
# Indices 1 2 3 4 5 6 
#
# 1 0.019030 -0.034450 -0.011832 0.000000 -0.011285 0.000000
# 2 -0.034450 0.184090 -0.013217 0.000000 0.002125 0.000000
# 3 -0.011832 -0.013217 0.032206 0.000000 0.017202 0.000000
# 4 0.000000 0.000000 0.000000 0.032797 0.000000 -0.022919
# 5 -0.011285 0.002125 0.017202 0.000000 0.057456 0.000000
# 6 0.000000 0.000000 0.000000 -0.022919 0.000000 0.049833
#
#
# Mechanical properties :
#
#
# Convention : Reuss Voigt Hill
#
# Bulk Modulus (GPa) = 8.59638 56.60220 32.59929
# Shear Modulus (GPa) = 9.37759 27.58908 18.48333
#
# Velocity S-wave (km/s) = 2.44325 4.19073 3.43014
# Velocity P-wave (km/s) = 3.66489 7.71021 6.03650
#
# Compressibility (1/GPa) = 0.11632798
#
# Stress axis : x y z
#
# Youngs Moduli (GPa) = 52.54813 5.43212 31.05034
#
# Poissons Ratio (x) = 0.18714 0.36738
# Poissons Ratio (y) = 1.81029 0.41040
# Poissons Ratio (z) = 0.62173 0.07180
#
# Static dielectric constant tensor:
#      x y z
#    x 1.553060 0.000000 -0.005060 
#    y 0.000000 1.527250 0.000000 
#    z -0.005060 0.000000 1.489650 
# 
# From -- ./inp_files/54797.got.cif
#   From: 2010.05.17/outbox.cif.g08.bks.cpg/sg10_28_cif.got.tgz:54797.got - 2010.06.03 11:33:40.
