data_PCOD9142256
_publ_section_title
;
Structure prediction by ZEFSAII (Michael W. Deem and Ramdas Pophale) SiO2 
 PCOD9142256
Probable space group: P 2/M
;
_chemical_formula_sum "Si O2"
_cell_formula_units_Z 24
_cell_length_a 14.626002
_cell_length_b 8.774541
_cell_length_c 12.370709
_cell_angle_alpha 90.000000
_cell_angle_beta 109.798426
_cell_angle_gamma 90.000000
_cell_volume 1493.769247
_symmetry_space_group_name_H-M "P 2/M"
_symmetry_group_IT_number 10
_symmetry_cell_setting 'monoclinic'
loop_
_space_group_symop_operation_xyz
x,y,z
-x,y,-z
-x,-y,-z
x,-y,z
loop_
_atom_site_type_symbol
_atom_site_label
_atom_site_fract_x
_atom_site_fract_y
_atom_site_fract_z
Si Si1 0.941829 0.818399 0.586552
Si Si2 0.670071 0.819253 0.738868
Si Si3 0.526026 0.676844 0.382272
Si Si4 0.006365 0.681766 0.836146
Si Si5 0.731811 0.683466 0.533287
Si Si6 0.853087 0.817698 0.945188
O O1 0.992156 0.738387 0.709022
O O2 0.832193 0.756109 0.536249
O O3 0.000000 0.787792 0.500000
O O4 0.939548 0.000000 0.604282
O O5 0.558706 0.769526 0.709821
O O6 0.710033 0.736317 0.647305
O O7 0.743077 0.783054 0.865932
O O8 0.674882 0.000000 0.721339
O O9 0.500000 0.682936 0.500000
O O10 0.520677 0.500000 0.347450
O O11 0.637740 0.729511 0.424178
O O12 0.997866 0.500000 0.839680
O O13 0.921883 0.758089 0.875492
O O14 0.106016 0.737613 0.931534
O O15 0.737470 0.500000 0.534407
O O16 0.864544 0.000000 0.959226
#
# Coordination Sequence:
#
# PCOD9142256 Si02
#       6
#     4   4   4   4   4   4
#     4  11  23  37  52  70  95 129 166 204 246 290
#     4  10  18  27  45  71  98 130 161 192 236 289
#     4   8  16  28  42  64  95 127 157 193 238 285
#     4  11  21  32  49  71  95 127 165 201 242 289
#     4  10  19  31  47  67  95 128 161 201 242 284
#     4  10  19  31  48  70 101 132 160 197 241 288
#
# _framework density 16.066738999999998
#
# number of rings (size 3 to 8) (size 9 to 14) (size 15 to 20)
#    0.000    2.000    1.667    5.500    0.000    7.000 
#    0.000    0.000    0.000    0.000    0.000    1.167 
#    0.000    9.333    0.000    0.000    0.000    0.000 
#
# Total GULP energy -133841.333269 kJ/mol
# GULP energy per Si atom -5576.722220 kJ/mol
# Density = 1.603017 g / cm^3
# Si number density = 16.066739 Si / 1000 Ang^3
#
#
#
# Elastic Constant Matrix: (Units=GPa)
#
#
# Indices 1 2 3 4 5 6 
#
# 1 90.1504 35.4586 57.3547 0.0000 26.9857 0.0000
# 2 35.4586 56.5558 36.9877 0.0000 9.0391 0.0000
# 3 57.3547 36.9877 82.2265 0.0000 25.6396 0.0000
# 4 0.0000 0.0000 0.0000 26.7251 0.0000 12.4815
# 5 26.9857 9.0391 25.6396 0.0000 29.3101 0.0000
# 6 0.0000 0.0000 0.0000 12.4815 0.0000 16.3058
#
#
#
# Elastic Compliance Matrix: (Units=1/GPa)
#
#
# Indices 1 2 3 4 5 6 
#
# 1 0.023065 -0.006242 -0.009982 0.000000 -0.010579 0.000000
# 2 -0.006242 0.026925 -0.009571 0.000000 0.005816 0.000000
# 3 -0.009982 -0.009571 0.027011 0.000000 -0.011487 0.000000
# 4 0.000000 0.000000 0.000000 0.058238 0.000000 -0.044579
# 5 -0.010579 0.005816 -0.011487 0.000000 0.052112 0.000000
# 6 0.000000 0.000000 0.000000 -0.044579 0.000000 0.095451
#
#
# Mechanical properties :
#
#
# Convention : Reuss Voigt Hill
#
# Bulk Modulus (GPa) = 39.35270 54.28165 46.81717
# Shear Modulus (GPa) = 14.58305 21.07699 17.83002
#
# Velocity S-wave (km/s) = 3.01600 3.62586 3.33490
# Velocity P-wave (km/s) = 6.05597 7.16852 6.63560
#
# Compressibility (1/GPa) = 0.02541122
#
# Stress axis : x y z
#
# Youngs Moduli (GPa) = 43.35580 37.13977 37.02169
#
# Poissons Ratio (x) = 0.23183 0.36954
# Poissons Ratio (y) = 0.27063 0.35435
# Poissons Ratio (z) = 0.43277 0.35548
#
# Static dielectric constant tensor:
#      x y z
#    x 1.543470 0.000000 0.044160 
#    y 0.000000 1.538100 0.000000 
#    z 0.044160 0.000000 1.533790 
# 
# From -- ./inp_files/48665.got.cif
#   From: 2010.05.17/outbox.cif.g08.bks.cpg/sg10_25_cif.got.tgz:48665.got - 2010.06.03 11:33:40.
