data_PCOD9142178
_publ_section_title
;
Structure prediction by ZEFSAII (Michael W. Deem and Ramdas Pophale) SiO2 
 PCOD9142178
Probable space group: P 2/M
;
_chemical_formula_sum "Si O2"
_cell_formula_units_Z 12
_cell_length_a 13.382875
_cell_length_b 8.915736
_cell_length_c 16.855929
_cell_angle_alpha 90.000000
_cell_angle_beta 15.998788
_cell_angle_gamma 90.000000
_cell_volume 554.326130
_symmetry_space_group_name_H-M "P 2/M"
_symmetry_group_IT_number 10
_symmetry_cell_setting 'monoclinic'
loop_
_space_group_symop_operation_xyz
x,y,z
-x,y,-z
-x,-y,-z
x,-y,z
loop_
_atom_site_type_symbol
_atom_site_label
_atom_site_fract_x
_atom_site_fract_y
_atom_site_fract_z
Si Si1 0.528391 0.171494 0.828317
Si Si2 0.998326 0.675397 0.343624
Si Si3 0.263048 0.826455 0.606055
O O1 0.860875 0.232645 0.524229
O O2 0.576787 0.000000 0.817451
O O3 0.377904 0.273497 0.014527
O O4 0.168543 0.172808 0.046489
O O5 0.992033 0.500000 0.364513
O O6 0.722778 0.721661 0.482070
O O7 0.500000 0.779905 0.500000
O O8 0.357486 0.000000 0.513350
#
# Coordination Sequence:
#
# PCOD9142178 Si02
#       3
#     4   4   4
#     4   9  17  29  39  45  54  68  77  78  87 106
#     4  10  18  27  37  49  58  61  70  87  96  95
#     4   8  16  28  38  44  52  66  76  78  86 104
#
# _framework density 21.647904
#
# number of rings (size 3 to 8) (size 9 to 14) (size 15 to 20)
#    2.000    1.000    0.000    3.000    0.000    2.000 
#    0.000    6.667    0.000    0.000    0.000    0.000 
#    0.000    0.000    0.000    0.000    0.000    0.000 
#
# Total GULP energy -66863.591838 kJ/mol
# GULP energy per Si atom -5571.965986 kJ/mol
# Density = 2.159863 g / cm^3
# Si number density = 21.647904 Si / 1000 Ang^3
#
#
#
# Elastic Constant Matrix: (Units=GPa)
#
#
# Indices 1 2 3 4 5 6 
#
# 1 87.8510 -0.7054 15.8488 0.0000 -7.5114 0.0000
# 2 -0.7054 109.0995 16.9873 0.0000 25.2621 0.0000
# 3 15.8488 16.9873 69.6473 0.0000 16.7898 0.0000
# 4 0.0000 0.0000 0.0000 37.5852 0.0000 12.5069
# 5 -7.5114 25.2621 16.7898 0.0000 37.4507 0.0000
# 6 0.0000 0.0000 0.0000 12.5069 0.0000 14.6860
#
#
#
# Elastic Compliance Matrix: (Units=1/GPa)
#
#
# Indices 1 2 3 4 5 6 
#
# 1 0.012449 -0.000355 -0.003819 0.000000 0.004448 0.000000
# 2 -0.000355 0.010934 -0.000887 0.000000 -0.007049 0.000000
# 3 -0.003819 -0.000887 0.017360 0.000000 -0.007951 0.000000
# 4 0.000000 0.000000 0.000000 0.037128 0.000000 -0.031619
# 5 0.004448 -0.007049 -0.007951 0.000000 0.035913 0.000000
# 6 0.000000 0.000000 0.000000 -0.031619 0.000000 0.095019
#
#
# Mechanical properties :
#
#
# Convention : Reuss Voigt Hill
#
# Bulk Modulus (GPa) = 32.65590 36.76215 34.70903
# Shear Modulus (GPa) = 21.82152 33.57552 27.69852
#
# Velocity S-wave (km/s) = 3.17838 3.94252 3.58089
# Velocity P-wave (km/s) = 5.34670 6.14356 5.75893
#
# Compressibility (1/GPa) = 0.03062234
#
# Stress axis : x y z
#
# Youngs Moduli (GPa) = 80.32574 91.45832 57.60387
#
# Poissons Ratio (x) = 0.03246 0.21997
# Poissons Ratio (y) = 0.02851 0.05108
# Poissons Ratio (z) = 0.30674 0.08110
#
# Static dielectric constant tensor:
#      x y z
#    x 1.839370 0.000000 -0.067000 
#    y 0.000000 1.718690 0.000000 
#    z -0.067000 0.000000 1.784750 
# 
# From -- ./inp_files/65886.got.cif
#   From: 2010.05.17/outbox.cif.g08.bks.cpg/sg10_33_cif.got.tgz:65886.got - 2010.06.03 11:33:40.
