data_PCOD9142722
_publ_section_title
;
Structure prediction by ZEFSAII (Michael W. Deem and Ramdas Pophale) SiO2 
 PCOD9142722
Probable space group: P 2/M
;
_chemical_formula_sum "Si O2"
_cell_formula_units_Z 32
_cell_length_a 23.222424
_cell_length_b 8.664656
_cell_length_c 14.531475
_cell_angle_alpha 90.000000
_cell_angle_beta 37.629907
_cell_angle_gamma 90.000000
_cell_volume 1785.237305
_symmetry_space_group_name_H-M "P 2/M"
_symmetry_group_IT_number 10
_symmetry_cell_setting 'monoclinic'
loop_
_space_group_symop_operation_xyz
x,y,z
-x,y,-z
-x,-y,-z
x,-y,z
loop_
_atom_site_type_symbol
_atom_site_label
_atom_site_fract_x
_atom_site_fract_y
_atom_site_fract_z
Si Si1 0.885513 0.824210 0.148213
Si Si2 0.105815 0.683518 0.668483
Si Si3 0.472585 0.187880 0.636002
Si Si4 0.356341 0.812236 0.058411
Si Si5 0.111723 0.684295 0.049920
Si Si6 0.555653 0.188195 0.721081
Si Si7 0.729398 0.186083 0.023993
Si Si8 0.719371 0.186517 0.648260
O O1 0.860769 0.733036 0.271665
O O2 0.851982 0.000000 0.198370
O O3 0.854809 0.752035 0.090549
O O4 0.000000 0.824294 0.000000
O O5 0.107910 0.500000 0.658505
O O6 0.176351 0.756627 0.506171
O O7 0.996811 0.735388 0.796689
O O8 0.500000 0.243781 0.500000
O O9 0.460384 0.238064 0.364151
O O10 0.365889 0.228416 0.799801
O O11 0.476438 0.000000 0.629561
O O12 0.320430 0.759853 0.202906
O O13 0.357771 0.000000 0.058528
O O14 0.462553 0.765375 0.896761
O O15 0.289530 0.767670 0.057701
O O16 0.111588 0.500000 0.043538
O O17 0.180551 0.740310 0.042476
O O18 0.648645 0.239318 0.656727
O O19 0.556619 0.000000 0.718964
O O20 0.737698 0.000000 0.016662
O O21 0.719031 0.000000 0.649090
#
# Coordination Sequence:
#
# PCOD9142722 Si02
#       8
#     4   4   4   4   4   4   4   4
#     4   9  17  31  52  74  94 120 158 200 236 278
#     4  10  21  35  48  68 102 135 161 197 247 297
#     4   8  14  25  42  69 103 129 152 192 244 293
#     4   8  15  29  48  72  99 125 160 209 258 297
#     4  10  20  34  51  70  97 134 167 197 241 294
#     4   8  14  25  44  70  97 126 161 201 248 301
#     4   9  17  30  50  72  95 128 168 206 242 286
#     4  10  18  29  50  75  96 124 166 213 253 291
#
# _framework density 17.924786000000001
#
# number of rings (size 3 to 8) (size 9 to 14) (size 15 to 20)
#    0.000    3.000    0.000    3.000    0.000    5.500 
#    0.000    3.750    0.000    8.625    0.000    0.000 
#    0.000    0.000    0.000    0.000    0.000    0.000 
#
# Total GULP energy -178341.610793 kJ/mol
# GULP energy per Si atom -5573.175337 kJ/mol
# Density = 1.788399 g / cm^3
# Si number density = 17.924786 Si / 1000 Ang^3
#
#
#
# Elastic Constant Matrix: (Units=GPa)
#
#
# Indices 1 2 3 4 5 6 
#
# 1 116.5273 17.7625 52.5983 0.0000 6.3984 0.0000
# 2 17.7625 9.2155 9.0235 0.0000 0.8878 0.0000
# 3 52.5983 9.0235 99.8094 0.0000 21.8090 0.0000
# 4 0.0000 0.0000 0.0000 7.1299 0.0000 1.4508
# 5 6.3984 0.8878 21.8090 0.0000 17.5188 0.0000
# 6 0.0000 0.0000 0.0000 1.4508 0.0000 7.5045
#
#
#
# Elastic Compliance Matrix: (Units=1/GPa)
#
#
# Indices 1 2 3 4 5 6 
#
# 1 0.014762 -0.022344 -0.006633 0.000000 0.003998 0.000000
# 2 -0.022344 0.154191 -0.003078 0.000000 0.004179 0.000000
# 3 -0.006633 -0.003078 0.018173 0.000000 -0.020045 0.000000
# 4 0.000000 0.000000 0.000000 0.145997 0.000000 -0.028225
# 5 0.003998 0.004179 -0.020045 0.000000 0.080363 0.000000
# 6 0.000000 0.000000 0.000000 -0.028225 0.000000 0.138710
#
#
# Mechanical properties :
#
#
# Convention : Reuss Voigt Hill
#
# Bulk Modulus (GPa) = 8.12904 42.70231 25.41568
# Shear Modulus (GPa) = 7.60674 16.17516 11.89095
#
# Velocity S-wave (km/s) = 2.06226 3.00724 2.57841
# Velocity P-wave (km/s) = 3.19617 5.99439 4.80355
#
# Compressibility (1/GPa) = 0.12301579
#
# Stress axis : x y z
#
# Youngs Moduli (GPa) = 67.74130 6.48547 55.02731
#
# Poissons Ratio (x) = 0.14491 0.36500
# Poissons Ratio (y) = 1.51358 0.16939
# Poissons Ratio (z) = 0.44933 0.01996
#
# Static dielectric constant tensor:
#      x y z
#    x 1.611350 0.000000 0.001690 
#    y 0.000000 1.603060 0.000000 
#    z 0.001690 0.000000 1.610500 
# 
# From -- ./inp_files/55260.got.cif
#   From: 2010.05.17/outbox.cif.g08.bks.cpg/sg10_28_cif.got.tgz:55260.got - 2010.06.03 11:33:40.
