data_PCOD9142123
_publ_section_title
;
Structure prediction by ZEFSAII (Michael W. Deem and Ramdas Pophale) SiO2 
 PCOD9142123
Probable space group: P 2/M
;
_chemical_formula_sum "Si O2"
_cell_formula_units_Z 28
_cell_length_a 11.623017
_cell_length_b 14.836245
_cell_length_c 9.466514
_cell_angle_alpha 90.000000
_cell_angle_beta 125.159661
_cell_angle_gamma 90.000000
_cell_volume 1334.589048
_symmetry_space_group_name_H-M "P 2/M"
_symmetry_group_IT_number 10
_symmetry_cell_setting 'monoclinic'
loop_
_space_group_symop_operation_xyz
x,y,z
-x,y,-z
-x,-y,-z
x,-y,z
loop_
_atom_site_type_symbol
_atom_site_label
_atom_site_fract_x
_atom_site_fract_y
_atom_site_fract_z
Si Si1 0.398662 0.248111 0.794190
Si Si2 0.969869 0.098540 0.732683
Si Si3 0.912576 0.281376 0.313228
Si Si4 0.196817 0.142093 0.127412
Si Si5 0.488659 0.895214 0.652356
Si Si6 0.142053 0.649377 0.031299
Si Si7 0.462079 0.602694 0.310751
O O1 0.243812 0.264475 0.742250
O O2 0.393699 0.162461 0.687759
O O3 0.463902 0.328719 0.745330
O O4 0.500000 0.233494 0.000000
O O5 0.831299 0.108727 0.733149
O O6 0.006345 0.187307 0.668322
O O7 0.968902 0.000000 0.661924
O O8 0.090320 0.100482 0.939048
O O9 0.000000 0.326563 0.500000
O O10 0.894105 0.338713 0.158676
O O11 0.351234 0.119309 0.183371
O O12 0.165602 0.248462 0.105332
O O13 0.500000 0.860782 0.500000
O O14 0.452355 0.000000 0.625440
O O15 0.293137 0.605312 0.167203
O O16 0.000000 0.611204 0.000000
O O17 0.500000 0.626970 0.500000
O O18 0.510951 0.500000 0.321917
#
# Coordination Sequence:
#
# PCOD9142123 Si02
#       7
#     4   4   4   4   4   4   4
#     4  12  24  44  68  93 135 180 219 271 340 398
#     4  10  19  33  55  83 121 167 220 270 313 372
#     4  11  25  39  59  98 130 176 220 263 335 398
#     4  10  17  34  59  86 115 166 218 265 317 375
#     4  11  24  37  59  94 129 173 229 278 326 387
#     4  11  21  42  71  96 130 169 216 268 326 395
#     4  11  26  47  75 104 128 167 222 276 336 408
#
# _framework density 20.980242000000001
#
# number of rings (size 3 to 8) (size 9 to 14) (size 15 to 20)
#    0.000    1.143    5.714    3.000    4.000    1.714 
#    0.000    0.000    0.000    0.857    0.000    0.000 
#    0.000    0.000    0.000    0.000    0.000    0.000 
#
# Total GULP energy -156448.949488 kJ/mol
# GULP energy per Si atom -5587.462482 kJ/mol
# Density = 2.093249 g / cm^3
# Si number density = 20.980242 Si / 1000 Ang^3
#
#
#
# Elastic Constant Matrix: (Units=GPa)
#
#
# Indices 1 2 3 4 5 6 
#
# 1 118.2181 -1.1624 30.1838 0.0000 -13.6710 0.0000
# 2 -1.1624 71.5583 10.8252 0.0000 -19.2178 0.0000
# 3 30.1838 10.8252 121.2267 0.0000 -18.2672 0.0000
# 4 0.0000 0.0000 0.0000 14.3835 0.0000 4.8853
# 5 -13.6710 -19.2178 -18.2672 0.0000 33.1859 0.0000
# 6 0.0000 0.0000 0.0000 4.8853 0.0000 -2.2721
#
#
#
# Elastic Compliance Matrix: (Units=1/GPa)
#
#
# Indices 1 2 3 4 5 6 
#
# 1 0.009382 0.001417 -0.001915 0.000000 0.003631 0.000000
# 2 0.001417 0.016763 -0.000326 0.000000 0.010112 0.000000
# 3 -0.001915 -0.000326 0.009386 0.000000 0.004189 0.000000
# 4 0.000000 0.000000 0.000000 0.040181 0.000000 0.086393
# 5 0.003631 0.010112 0.004189 0.000000 0.039791 0.000000
# 6 0.000000 0.000000 0.000000 0.086393 0.000000 -0.254360
#
#
# Mechanical properties :
#
#
# Convention : Reuss Voigt Hill
#
# Bulk Modulus (GPa) = 29.51372 43.41073 36.46222
# Shear Modulus (GPa) = -39.70918 27.13653 -6.28633
#
# Velocity S-wave (km/s) = -4.35523 3.60033 -1.73286
# Velocity P-wave (km/s) = 3.34556 6.16598 3.66242
#
# Compressibility (1/GPa) = 0.03388255
#
# Stress axis : x y z
#
# Youngs Moduli (GPa) = 106.58879 59.65682 106.53932
#
# Poissons Ratio (x) = -0.08456 0.20406
# Poissons Ratio (y) = -0.15108 0.03474
# Poissons Ratio (z) = 0.20415 0.01945
#
# Static dielectric constant tensor:
#      x y z
#    x 1.770230 0.000000 0.035370 
#    y 0.000000 1.748850 0.000000 
#    z 0.035370 0.000000 1.786900 
# 
# From -- ./inp_files/25406.got.cif
#   From: 2010.05.17/outbox.cif.g08.bks.cpg/sg10_13_cif.got.tgz:25406.got - 2010.06.03 11:33:40.
