data_PCOD9142874
_publ_section_title
;
Structure prediction by ZEFSAII (Michael W. Deem and Ramdas Pophale) SiO2 
 PCOD9142874
Probable space group: P 2/M
;
_chemical_formula_sum "Si O2"
_cell_formula_units_Z 28
_cell_length_a 14.017410
_cell_length_b 7.676618
_cell_length_c 15.350688
_cell_angle_alpha 90.000000
_cell_angle_beta 127.915232
_cell_angle_gamma 90.000000
_cell_volume 1303.163568
_symmetry_space_group_name_H-M "P 2/M"
_symmetry_group_IT_number 10
_symmetry_cell_setting 'monoclinic'
loop_
_space_group_symop_operation_xyz
x,y,z
-x,y,-z
-x,-y,-z
x,-y,z
loop_
_atom_site_type_symbol
_atom_site_label
_atom_site_fract_x
_atom_site_fract_y
_atom_site_fract_z
Si Si1 0.976107 0.198954 0.080042
Si Si2 0.124494 0.700176 0.428376
Si Si3 0.123318 0.705281 0.795452
Si Si4 0.656614 0.285889 0.341785
Si Si5 0.384003 0.713373 0.878690
Si Si6 0.235353 0.802338 0.315082
Si Si7 0.522606 0.705025 0.609683
O O1 0.895014 0.276868 0.111046
O O2 0.107532 0.195936 0.196764
O O3 0.933051 0.000000 0.040876
O O4 0.000000 0.284195 0.000000
O O5 0.099865 0.500000 0.438334
O O6 0.209142 0.774181 0.552589
O O7 0.212757 0.702555 0.392886
O O8 0.996009 0.777587 0.322984
O O9 0.123725 0.500000 0.775799
O O10 0.254145 0.774549 0.842352
O O11 0.659807 0.500000 0.344564
O O12 0.615828 0.235060 0.222609
O O13 0.559155 0.224531 0.358826
O O14 0.384815 0.500000 0.882219
O O15 0.500000 0.770987 0.000000
O O16 0.334066 0.729085 0.304213
O O17 0.266856 0.000000 0.355874
O O18 0.500000 0.777513 0.500000
O O19 0.495623 0.500000 0.591117
#
# Coordination Sequence:
#
# PCOD9142874 Si02
#       7
#     4   4   4   4   4   4   4
#     4   9  19  35  52  71  99 135 169 201 246 302
#     4   9  16  30  49  71  98 125 163 203 244 300
#     4   9  18  31  52  77  98 125 162 210 253 287
#     4   9  17  29  47  68  96 136 167 197 245 297
#     4   9  18  32  48  72 104 130 161 205 251 295
#     4  10  19  30  47  72 101 131 161 203 253 292
#     4  10  18  30  48  71 100 135 167 196 244 303
#
# _framework density 21.486177000000001
#
# number of rings (size 3 to 8) (size 9 to 14) (size 15 to 20)
#    0.000    2.714    1.429    0.429    0.000    2.857 
#    0.000    4.286    0.000    2.143    0.000    4.000 
#    0.000    0.000    0.000    0.000    0.000    0.000 
#
# Total GULP energy -155985.611319 kJ/mol
# GULP energy per Si atom -5570.914690 kJ/mol
# Density = 2.143727 g / cm^3
# Si number density = 21.486177 Si / 1000 Ang^3
#
#
#
# Elastic Constant Matrix: (Units=GPa)
#
#
# Indices 1 2 3 4 5 6 
#
# 1 163.1935 4.6024 86.5988 0.0000 6.2535 0.0000
# 2 4.6024 33.6058 16.9050 0.0000 1.3211 0.0000
# 3 86.5988 16.9050 132.0193 0.0000 -7.4271 0.0000
# 4 0.0000 0.0000 0.0000 5.1110 0.0000 5.6470
# 5 6.2535 1.3211 -7.4271 0.0000 24.7811 0.0000
# 6 0.0000 0.0000 0.0000 5.6470 0.0000 -29.4006
#
#
#
# Elastic Compliance Matrix: (Units=1/GPa)
#
#
# Indices 1 2 3 4 5 6 
#
# 1 0.010051 0.002422 -0.007174 0.000000 -0.004815 0.000000
# 2 0.002422 0.032605 -0.005997 0.000000 -0.004147 0.000000
# 3 -0.007174 -0.005997 0.013394 0.000000 0.006144 0.000000
# 4 0.000000 0.000000 0.000000 0.161404 0.000000 0.031001
# 5 -0.004815 -0.004147 0.006144 0.000000 0.043631 0.000000
# 6 0.000000 0.000000 0.000000 0.031001 0.000000 -0.028058
#
#
# Mechanical properties :
#
#
# Convention : Reuss Voigt Hill
#
# Bulk Modulus (GPa) = 28.94244 60.55901 44.75073
# Shear Modulus (GPa) = 18.79411 14.81248 16.80329
#
# Velocity S-wave (km/s) = 2.96075 2.62848 2.79955
# Velocity P-wave (km/s) = 5.01872 6.12031 5.59669
#
# Compressibility (1/GPa) = 0.03455134
#
# Stress axis : x y z
#
# Youngs Moduli (GPa) = 99.49545 30.67044 74.66098
#
# Poissons Ratio (x) = -0.07427 0.53560
# Poissons Ratio (y) = -0.24093 0.44772
# Poissons Ratio (z) = 0.71376 0.18392
#
# Static dielectric constant tensor:
#      x y z
#    x 1.819160 0.000000 0.029270 
#    y 0.000000 1.816240 0.000000 
#    z 0.029270 0.000000 1.816990 
# 
# From -- ./inp_files/50070.got.cif
#   From: 2010.05.17/outbox.cif.g08.bks.cpg/sg10_26_cif.got.tgz:50070.got - 2010.06.03 11:33:40.
