data_PCOD9142147
_publ_section_title
;
Structure prediction by ZEFSAII (Michael W. Deem and Ramdas Pophale) SiO2 
 PCOD9142147
Probable space group: P 2/M
;
_chemical_formula_sum "Si O2"
_cell_formula_units_Z 32
_cell_length_a 11.820798
_cell_length_b 13.452750
_cell_length_c 11.367205
_cell_angle_alpha 90.000000
_cell_angle_beta 103.701370
_cell_angle_gamma 90.000000
_cell_volume 1756.199264
_symmetry_space_group_name_H-M "P 2/M"
_symmetry_group_IT_number 10
_symmetry_cell_setting 'monoclinic'
loop_
_space_group_symop_operation_xyz
x,y,z
-x,y,-z
-x,-y,-z
x,-y,z
loop_
_atom_site_type_symbol
_atom_site_label
_atom_site_fract_x
_atom_site_fract_y
_atom_site_fract_z
Si Si1 0.038364 0.116264 0.685134
Si Si2 0.285859 0.119776 0.652129
Si Si3 0.770104 0.881239 0.620034
Si Si4 0.851175 0.112383 0.040222
Si Si5 0.983471 0.611041 0.137866
Si Si6 0.806899 0.261801 0.827927
Si Si7 0.722350 0.618736 0.023072
Si Si8 0.615381 0.807416 0.095056
O O1 0.155319 0.158313 0.654417
O O2 0.906216 0.143823 0.625238
O O3 0.042939 0.000000 0.654836
O O4 0.060804 0.124905 0.830081
O O5 0.301084 0.135570 0.517138
O O6 0.375498 0.169780 0.764492
O O7 0.289523 0.000000 0.673304
O O8 0.739355 0.808241 0.719865
O O9 0.765008 0.000000 0.648250
O O10 0.863403 0.188218 0.937882
O O11 0.858910 0.000000 0.998908
O O12 0.724631 0.134186 0.064986
O O13 0.999084 0.500000 0.187891
O O14 0.087072 0.679740 0.207217
O O15 0.848422 0.638593 0.116397
O O16 0.000000 0.607486 0.000000
O O17 0.734940 0.339103 0.892222
O O18 0.702171 0.500000 0.019069
O O19 0.634993 0.691088 0.069462
O O20 0.500000 0.840749 0.000000
#
# Coordination Sequence:
#
# PCOD9142147 Si02
#       8
#     4   4   4   4   4   4   4   4
#     4   8  15  26  39  59  91 132 167 190 219 261
#     4   9  18  32  46  66 100 134 165 196 231 280
#     4  10  19  27  41  68 104 142 167 186 218 276
#     4   9  18  29  42  68 104 130 157 201 238 272
#     4   8  15  27  43  65  93 126 156 187 235 290
#     4  10  18  25  46  72 101 132 165 188 226 286
#     4   9  19  34  51  72  98 120 151 208 263 300
#     4  10  20  33  55  76  87 115 165 214 257 293
#
# _framework density 18.221166
#
# number of rings (size 3 to 8) (size 9 to 14) (size 15 to 20)
#    0.000    2.875    0.000    3.000    8.750    2.750 
#    0.000    1.875    0.000    4.500    0.000   10.500 
#    0.000    0.000    0.000    0.000    0.000    0.000 
#
# Total GULP energy -178257.321166 kJ/mol
# GULP energy per Si atom -5570.541286 kJ/mol
# Density = 1.817969 g / cm^3
# Si number density = 18.221166 Si / 1000 Ang^3
#
#
#
# Elastic Constant Matrix: (Units=GPa)
#
#
# Indices 1 2 3 4 5 6 
#
# 1 16.9065 9.9049 23.2685 0.0000 12.4506 0.0000
# 2 9.9049 93.4691 45.5616 0.0000 -1.3712 0.0000
# 3 23.2685 45.5616 103.9607 0.0000 11.5613 0.0000
# 4 0.0000 0.0000 0.0000 15.5216 0.0000 -4.6646
# 5 12.4506 -1.3712 11.5613 0.0000 16.9377 0.0000
# 6 0.0000 0.0000 0.0000 -4.6646 0.0000 12.8037
#
#
#
# Elastic Compliance Matrix: (Units=1/GPa)
#
#
# Indices 1 2 3 4 5 6 
#
# 1 0.189269 -0.010055 -0.024232 0.000000 -0.123402 0.000000
# 2 -0.010055 0.014648 -0.005544 0.000000 0.012361 0.000000
# 3 -0.024232 -0.005544 0.016818 0.000000 0.005884 0.000000
# 4 0.000000 0.000000 0.000000 0.072347 0.000000 0.026357
# 5 -0.123402 0.012361 0.005884 0.000000 0.146735 0.000000
# 6 0.000000 0.000000 0.000000 0.026357 0.000000 0.087705
#
#
# Mechanical properties :
#
#
# Convention : Reuss Voigt Hill
#
# Bulk Modulus (GPa) = 7.08855 41.31183 24.20019
# Shear Modulus (GPa) = 7.64284 18.09268 12.86776
#
# Velocity S-wave (km/s) = 2.05027 3.15453 2.66032
# Velocity P-wave (km/s) = 3.08278 5.99914 4.76934
#
# Compressibility (1/GPa) = 0.14107263
#
# Stress axis : x y z
#
# Youngs Moduli (GPa) = 5.28349 68.26935 59.46062
#
# Poissons Ratio (x) = 0.68645 1.44086
# Poissons Ratio (y) = 0.05313 0.32963
# Poissons Ratio (z) = 0.12803 0.37846
#
# Static dielectric constant tensor:
#      x y z
#    x 1.682700 0.000000 -0.019400 
#    y 0.000000 1.664760 0.000000 
#    z -0.019400 0.000000 1.645520 
# 
# From -- ./inp_files/47403.got.cif
#   From: 2010.05.17/outbox.cif.g08.bks.cpg/sg10_24_cif.got.tgz:47403.got - 2010.06.03 11:33:40.
