data_PCOD9142398
_publ_section_title
;
Structure prediction by ZEFSAII (Michael W. Deem and Ramdas Pophale) SiO2 
 PCOD9142398
Probable space group: P 2/M
;
_chemical_formula_sum "Si O2"
_cell_formula_units_Z 32
_cell_length_a 22.330994
_cell_length_b 9.005106
_cell_length_c 27.633661
_cell_angle_alpha 90.000000
_cell_angle_beta 19.016639
_cell_angle_gamma 90.000000
_cell_volume 1810.686810
_symmetry_space_group_name_H-M "P 2/M"
_symmetry_group_IT_number 10
_symmetry_cell_setting 'monoclinic'
loop_
_space_group_symop_operation_xyz
x,y,z
-x,y,-z
-x,-y,-z
x,-y,z
loop_
_atom_site_type_symbol
_atom_site_label
_atom_site_fract_x
_atom_site_fract_y
_atom_site_fract_z
Si Si1 0.152849 0.326174 0.696003
Si Si2 0.946591 0.177463 0.391551
Si Si3 0.517153 0.822121 0.702849
Si Si4 0.096204 0.322012 0.475704
Si Si5 0.438759 0.674504 0.662360
Si Si6 0.849902 0.177981 0.860471
Si Si7 0.705953 0.171088 0.319563
Si Si8 0.523813 0.677450 0.164320
O O1 0.103331 0.500000 0.734319
O O2 0.351786 0.312205 0.517968
O O3 0.174317 0.263113 0.733710
O O4 0.006307 0.232561 0.778015
O O5 0.082032 0.221848 0.245009
O O6 0.736516 0.213238 0.536341
O O7 0.984687 0.252566 0.413679
O O8 0.954971 0.000000 0.390681
O O9 0.433168 0.752708 0.718594
O O10 0.439826 0.751149 0.811124
O O11 0.496340 0.000000 0.719063
O O12 0.077271 0.500000 0.492740
O O13 0.313507 0.287571 0.310625
O O14 0.000000 0.269833 0.500000
O O15 0.396872 0.500000 0.698041
O O16 0.312811 0.753039 0.718290
O O17 0.834207 0.000000 0.874447
O O18 0.663080 0.255086 0.019407
O O19 0.500000 0.171211 0.500000
O O20 0.765538 0.000000 0.270604
O O21 0.543172 0.500000 0.153002
#
# Coordination Sequence:
#
# PCOD9142398 Si02
#       8
#     4   4   4   4   4   4   4   4
#     4  10  19  30  47  72 103 138 176 219 270 316
#     4   9  19  33  53  80 107 137 176 217 257 307
#     4  10  18  32  52  75 103 137 177 221 268 314
#     4   9  19  37  60  83 108 139 175 214 257 308
#     4  10  18  28  46  73 103 134 175 224 270 315
#     4  11  21  35  53  77 109 142 177 217 264 317
#     4   9  17  28  43  66  99 137 176 220 269 317
#     4  10  21  36  54  79 108 138 175 217 263 313
#
# _framework density 17.672851999999999
#
# number of rings (size 3 to 8) (size 9 to 14) (size 15 to 20)
#    0.000    2.250    1.250    2.250    0.000    4.750 
#    0.000    0.625    0.000    4.500    0.000    5.250 
#    0.000    0.000    0.000    0.000    0.000    0.000 
#
# Total GULP energy -178593.610768 kJ/mol
# GULP energy per Si atom -5581.050337 kJ/mol
# Density = 1.763263 g / cm^3
# Si number density = 17.672852 Si / 1000 Ang^3
#
#
#
# Elastic Constant Matrix: (Units=GPa)
#
#
# Indices 1 2 3 4 5 6 
#
# 1 163.1232 46.6376 43.8906 0.0000 16.2656 0.0000
# 2 46.6376 61.1051 29.1867 0.0000 11.3791 0.0000
# 3 43.8906 29.1867 57.4540 0.0000 24.4159 0.0000
# 4 0.0000 0.0000 0.0000 19.8048 0.0000 3.4594
# 5 16.2656 11.3791 24.4159 0.0000 19.3406 0.0000
# 6 0.0000 0.0000 0.0000 3.4594 0.0000 32.6080
#
#
#
# Elastic Compliance Matrix: (Units=1/GPa)
#
#
# Indices 1 2 3 4 5 6 
#
# 1 0.008590 -0.004479 -0.005041 0.000000 0.001775 0.000000
# 2 -0.004479 0.023999 -0.009428 0.000000 0.001549 0.000000
# 3 -0.005041 -0.009428 0.047219 0.000000 -0.049823 0.000000
# 4 0.000000 0.000000 0.000000 0.051446 0.000000 -0.005458
# 5 0.001775 0.001549 -0.049823 0.000000 0.112197 0.000000
# 6 0.000000 0.000000 0.000000 -0.005458 0.000000 0.031246
#
#
# Mechanical properties :
#
#
# Convention : Reuss Voigt Hill
#
# Bulk Modulus (GPa) = 23.86018 57.90135 40.88077
# Shear Modulus (GPa) = 15.31088 25.14851 20.22970
#
# Velocity S-wave (km/s) = 2.94658 3.77636 3.38698
# Velocity P-wave (km/s) = 5.01066 7.20059 6.20304
#
# Compressibility (1/GPa) = 0.04191083
#
# Stress axis : x y z
#
# Youngs Moduli (GPa) = 116.40949 41.66913 21.17795
#
# Poissons Ratio (x) = 0.18664 0.10677
# Poissons Ratio (y) = 0.52140 0.19967
# Poissons Ratio (z) = 0.58686 0.39286
#
# Static dielectric constant tensor:
#      x y z
#    x 1.579320 0.000000 0.000540 
#    y 0.000000 1.585700 0.000000 
#    z 0.000540 0.000000 1.605060 
# 
# From -- ./inp_files/93691.got.cif
#   From: 2010.05.17/outbox.cif.g08.bks.cpg/sg10_47_cif.got.tgz:93691.got - 2010.06.03 11:33:40.
