data_PCOD9142001
_publ_section_title
;
Structure prediction by ZEFSAII (Michael W. Deem and Ramdas Pophale) SiO2 
 PCOD9142001
Probable space group: P 2/M
;
_chemical_formula_sum "Si O2"
_cell_formula_units_Z 28
_cell_length_a 16.715929
_cell_length_b 15.384020
_cell_length_c 9.711057
_cell_angle_alpha 90.000000
_cell_angle_beta 37.256576
_cell_angle_gamma 90.000000
_cell_volume 1511.815380
_symmetry_space_group_name_H-M "P 2/M"
_symmetry_group_IT_number 10
_symmetry_cell_setting 'monoclinic'
loop_
_space_group_symop_operation_xyz
x,y,z
-x,y,-z
-x,-y,-z
x,-y,z
loop_
_atom_site_type_symbol
_atom_site_label
_atom_site_fract_x
_atom_site_fract_y
_atom_site_fract_z
Si Si1 0.308975 0.729775 0.360767
Si Si2 0.856181 0.657698 0.169664
Si Si3 0.608505 0.897954 0.231059
Si Si4 0.835327 0.096078 0.386272
Si Si5 0.647247 0.403030 0.236407
Si Si6 0.874430 0.147467 0.023391
Si Si7 0.603380 0.268515 0.059820
O O1 0.207592 0.677124 0.594302
O O2 0.269918 0.830709 0.433200
O O3 0.452794 0.709261 0.225675
O O4 0.312468 0.715895 0.192991
O O5 0.754157 0.608429 0.211088
O O6 0.875864 0.751508 0.066942
O O7 0.000000 0.618244 0.000000
O O8 0.500000 0.878208 0.500000
O O9 0.753031 0.877902 0.094270
O O10 0.594948 0.830727 0.124535
O O11 0.594825 0.000000 0.215113
O O12 0.849829 0.097872 0.200834
O O13 0.800365 0.000000 0.481881
O O14 0.982853 0.122619 0.232457
O O15 0.500000 0.394776 0.500000
O O16 0.660138 0.500000 0.158998
O O17 0.657081 0.328202 0.109065
#
# Coordination Sequence:
#
# PCOD9142001 Si02
#       7
#     4   4   4   4   4   4   4
#     4  10  22  37  57  88 116 163 196 241 312 348
#     4  11  19  38  66  91 119 153 203 248 296 358
#     4  11  21  32  52  82 113 154 204 249 291 344
#     4  10  18  31  51  80 117 155 203 245 287 348
#     4  11  23  41  68  95 118 153 200 249 305 364
#     4  10  17  30  53  82 108 153 200 249 289 335
#     4  11  22  39  60  84 126 155 197 250 297 374
#
# _framework density 18.520779000000001
#
# number of rings (size 3 to 8) (size 9 to 14) (size 15 to 20)
#    0.000    1.429    5.714    3.857    0.000    2.571 
#    0.000    6.429    0.000    2.571    0.000    0.000 
#    0.000    0.000    0.000    0.000    0.000    0.000 
#
# Total GULP energy -156227.774058 kJ/mol
# GULP energy per Si atom -5579.563359 kJ/mol
# Density = 1.847862 g / cm^3
# Si number density = 18.520779 Si / 1000 Ang^3
#
#
#
# Elastic Constant Matrix: (Units=GPa)
#
#
# Indices 1 2 3 4 5 6 
#
# 1 92.5153 20.0895 40.3329 0.0000 -5.0820 0.0000
# 2 20.0895 63.5472 21.3633 0.0000 6.1641 0.0000
# 3 40.3329 21.3633 74.1560 0.0000 3.9479 0.0000
# 4 0.0000 0.0000 0.0000 47.5855 0.0000 5.5455
# 5 -5.0820 6.1641 3.9479 0.0000 26.1923 0.0000
# 6 0.0000 0.0000 0.0000 5.5455 0.0000 12.2895
#
#
#
# Elastic Compliance Matrix: (Units=1/GPa)
#
#
# Indices 1 2 3 4 5 6 
#
# 1 0.014961 -0.002617 -0.007632 0.000000 0.004669 0.000000
# 2 -0.002617 0.018182 -0.003589 0.000000 -0.004246 0.000000
# 3 -0.007632 -0.003589 0.018855 0.000000 -0.003478 0.000000
# 4 0.000000 0.000000 0.000000 0.022181 0.000000 -0.010009
# 5 0.004669 -0.004246 -0.003478 0.000000 0.040609 0.000000
# 6 0.000000 0.000000 0.000000 -0.010009 0.000000 0.085887
#
#
# Mechanical properties :
#
#
# Convention : Reuss Voigt Hill
#
# Bulk Modulus (GPa) = 41.11311 43.75445 42.43378
# Shear Modulus (GPa) = 21.14554 27.10897 24.12726
#
# Velocity S-wave (km/s) = 3.38260 3.82999 3.61323
# Velocity P-wave (km/s) = 6.12393 6.57528 6.35361
#
# Compressibility (1/GPa) = 0.02432314
#
# Stress axis : x y z
#
# Youngs Moduli (GPa) = 66.84081 54.99982 53.03640
#
# Poissons Ratio (x) = 0.14393 0.40476
# Poissons Ratio (y) = 0.17492 0.19033
# Poissons Ratio (z) = 0.51012 0.19737
#
# Static dielectric constant tensor:
#      x y z
#    x 1.645060 0.000000 -0.018890 
#    y 0.000000 1.646390 0.000000 
#    z -0.018890 0.000000 1.636320 
# 
# From -- ./inp_files/30116.got.cif
#   From: 2010.05.17/outbox.cif.g08.bks.cpg/sg10_16_cif.got.tgz:30116.got - 2010.06.03 11:33:40.
