data_PCOD9142987
_publ_section_title
;
Structure prediction by ZEFSAII (Michael W. Deem and Ramdas Pophale) SiO2 
 PCOD9142987
Probable space group: P 2/M
;
_chemical_formula_sum "Si O2"
_cell_formula_units_Z 28
_cell_length_a 17.322293
_cell_length_b 8.648807
_cell_length_c 20.298290
_cell_angle_alpha 90.000000
_cell_angle_beta 148.581987
_cell_angle_gamma 90.000000
_cell_volume 1585.223107
_symmetry_space_group_name_H-M "P 2/M"
_symmetry_group_IT_number 10
_symmetry_cell_setting 'monoclinic'
loop_
_space_group_symop_operation_xyz
x,y,z
-x,y,-z
-x,-y,-z
x,-y,z
loop_
_atom_site_type_symbol
_atom_site_label
_atom_site_fract_x
_atom_site_fract_y
_atom_site_fract_z
Si Si1 0.068310 0.813007 0.749194
Si Si2 0.346690 0.821826 0.346690
Si Si3 0.569924 0.813007 0.250807
Si Si4 0.188656 0.684700 0.352526
Si Si5 0.483605 0.315300 0.647475
Si Si6 0.589478 0.188805 1.000000
Si Si7 0.911626 0.188507 0.500000
O O1 0.964041 0.751163 0.731123
O O2 0.992910 0.762368 0.625772
O O3 0.066134 0.000000 0.749609
O O4 0.239043 0.762970 0.875014
O O5 0.500000 0.816430 0.500000
O O6 0.228873 0.741076 0.308561
O O7 0.388248 0.741076 0.308560
O O8 0.307254 0.000000 0.307254
O O9 0.501795 0.751163 0.268877
O O10 0.489016 0.762970 0.124987
O O11 0.741367 0.762368 0.374229
O O12 0.566917 0.000000 0.250392
O O13 0.185684 0.500000 0.351675
O O14 0.325203 0.736408 0.500000
O O15 0.482335 0.500000 0.648325
O O16 0.587832 0.000000 1.000000
O O17 0.500000 0.239453 0.000000
O O18 0.000000 0.240371 0.500000
O O19 0.912239 0.000000 0.500000
#
# Coordination Sequence:
#
# PCOD9142987 Si02
#       7
#     4   4   4   4   4   4   4
#     4  10  18  30  50  74 101 132 170 213 256 303
#     4   9  17  29  49  76 105 134 167 206 250 302
#     4  10  18  30  50  74 101 132 170 213 256 303
#     4  10  19  31  48  73 106 138 169 206 253 303
#     4  10  19  31  48  73 106 138 169 206 253 303
#     4   9  18  32  51  76 103 132 171 219 264 303
#     4   9  16  26  45  72  97 124 163 211 256 297
#
# _framework density 17.663128
#
# number of rings (size 3 to 8) (size 9 to 14) (size 15 to 20)
#    0.000    2.429    1.429    2.143    0.000    6.286 
#    0.000    0.714    0.000    6.000    0.000    6.000 
#    0.000    0.000    0.000    0.000    0.000    0.000 
#
# Total GULP energy -156164.727599 kJ/mol
# GULP energy per Si atom -5577.311700 kJ/mol
# Density = 1.762293 g / cm^3
# Si number density = 17.663128 Si / 1000 Ang^3
#
#
#
# Elastic Constant Matrix: (Units=GPa)
#
#
# Indices 1 2 3 4 5 6 
#
# 1 204.8324 33.4445 88.8515 0.0000 0.5493 0.0000
# 2 33.4445 21.1628 23.2085 0.0000 0.0887 0.0000
# 3 88.8515 23.2085 122.2296 0.0000 0.1666 0.0000
# 4 0.0000 0.0000 0.0000 8.2336 0.0000 -0.2776
# 5 0.5493 0.0887 0.1666 0.0000 26.3170 0.0000
# 6 0.0000 0.0000 0.0000 -0.2776 0.0000 -23.7414
#
#
#
# Elastic Compliance Matrix: (Units=1/GPa)
#
#
# Indices 1 2 3 4 5 6 
#
# 1 0.008075 -0.007986 -0.004353 0.000000 -0.000114 0.000000
# 2 -0.007986 0.067579 -0.007026 0.000000 -0.000017 0.000000
# 3 -0.004353 -0.007026 0.012680 0.000000 0.000034 0.000000
# 4 0.000000 0.000000 0.000000 0.121405 0.000000 -0.001419
# 5 -0.000114 -0.000017 0.000034 0.000000 0.038001 0.000000
# 6 0.000000 0.000000 0.000000 -0.001419 0.000000 -0.042104
#
#
# Mechanical properties :
#
#
# Convention : Reuss Voigt Hill
#
# Bulk Modulus (GPa) = 20.16031 71.02599 45.59315
# Shear Modulus (GPa) = 19.16438 15.67653 17.42046
#
# Velocity S-wave (km/s) = 3.29750 2.98237 3.14389
# Velocity P-wave (km/s) = 5.09279 7.22206 6.24879
#
# Compressibility (1/GPa) = 0.04960241
#
# Stress axis : x y z
#
# Youngs Moduli (GPa) = 123.84559 14.79744 78.86624
#
# Poissons Ratio (x) = 0.11818 0.34331
# Poissons Ratio (y) = 0.98907 0.55413
# Poissons Ratio (z) = 0.53910 0.10397
#
# Static dielectric constant tensor:
#      x y z
#    x 1.591330 0.000000 -0.000010 
#    y 0.000000 1.591370 0.000000 
#    z -0.000010 0.000000 1.592590 
# 
# From -- ./inp_files/85653.got.cif
#   From: 2010.05.17/outbox.cif.g08.bks.cpg/sg10_43_cif.got.tgz:85653.got - 2010.06.03 11:33:40.
