data_PCOD9142353
_publ_section_title
;
Structure prediction by ZEFSAII (Michael W. Deem and Ramdas Pophale) SiO2 
 PCOD9142353
Probable space group: P 2/M
;
_chemical_formula_sum "Si O2"
_cell_formula_units_Z 20
_cell_length_a 14.543063
_cell_length_b 7.785856
_cell_length_c 8.350919
_cell_angle_alpha 90.000000
_cell_angle_beta 90.233177
_cell_angle_gamma 90.000000
_cell_volume 945.568351
_symmetry_space_group_name_H-M "P 2/M"
_symmetry_group_IT_number 10
_symmetry_cell_setting 'monoclinic'
loop_
_space_group_symop_operation_xyz
x,y,z
-x,y,-z
-x,-y,-z
x,-y,z
loop_
_atom_site_type_symbol
_atom_site_label
_atom_site_fract_x
_atom_site_fract_y
_atom_site_fract_z
Si Si1 0.202823 0.000000 0.922132
Si Si2 0.066461 0.000000 0.349085
Si Si3 0.595955 0.000000 0.100151
Si Si4 0.252390 0.000000 0.551250
Si Si5 0.134795 0.296225 0.138811
Si Si6 0.319573 0.304496 0.356434
Si Si7 0.487312 0.684607 0.808397
O O1 0.308175 0.000000 0.990818
O O2 0.217358 0.000000 0.732384
O O3 0.153744 0.826753 0.985296
O O4 0.165362 0.000000 0.432353
O O5 0.064968 0.824415 0.242722
O O6 0.000000 0.000000 0.500000
O O7 0.587209 0.831594 0.206918
O O8 0.500000 0.000000 0.000000
O O9 0.305524 0.831080 0.495353
O O10 0.110117 0.500000 0.113909
O O11 0.232264 0.298117 0.235135
O O12 0.324322 0.500000 0.414787
O O13 0.414533 0.267264 0.264536
O O14 0.459488 0.500000 0.742420
O O15 0.500000 0.665756 0.000000
#
# Coordination Sequence:
#
# PCOD9142353 Si02
#       7
#     2   2   2   2   4   4   4
#     4  11  22  33  51  78 107 140 174 214 261 305
#     4   9  19  37  61  85 105 132 170 206 249 309
#     4  10  18  28  45  68  95 130 172 214 252 291
#     4  10  21  36  52  75 108 138 166 210 265 313
#     4   9  18  34  56  80 105 137 176 210 245 302
#     4   9  17  32  53  73  98 137 181 218 255 309
#     4   9  16  26  44  69  92 121 169 224 262 287
#
# _framework density 21.151299000000002
#
# number of rings (size 3 to 8) (size 9 to 14) (size 15 to 20)
#    0.000    2.600    0.000    3.600    0.000    3.600 
#    0.000    4.000    0.000    3.600    0.000    0.000 
#    0.000    0.000    0.000    0.000    0.000    0.000 
#
# Total GULP energy -111423.130621 kJ/mol
# GULP energy per Si atom -5571.156531 kJ/mol
# Density = 2.110316 g / cm^3
# Si number density = 21.151299 Si / 1000 Ang^3
#
#
#
# Elastic Constant Matrix: (Units=GPa)
#
#
# Indices 1 2 3 4 5 6 
#
# 1 26.7416 21.4227 8.6036 0.0000 -20.3559 0.0000
# 2 21.4227 196.8907 76.6531 0.0000 -39.9618 0.0000
# 3 8.6036 76.6531 120.8892 0.0000 -26.8629 0.0000
# 4 0.0000 0.0000 0.0000 19.6001 0.0000 -6.0691
# 5 -20.3559 -39.9618 -26.8629 0.0000 46.8252 0.0000
# 6 0.0000 0.0000 0.0000 -6.0691 0.0000 9.2825
#
#
#
# Elastic Compliance Matrix: (Units=1/GPa)
#
#
# Indices 1 2 3 4 5 6 
#
# 1 0.056915 -0.002361 0.002861 0.000000 0.024369 0.000000
# 2 -0.002361 0.007482 -0.003880 0.000000 0.003134 0.000000
# 3 0.002861 -0.003880 0.011540 0.000000 0.004553 0.000000
# 4 0.000000 0.000000 0.000000 0.063971 0.000000 0.041826
# 5 0.024369 0.003134 0.004553 0.000000 0.037236 0.000000
# 6 0.000000 0.000000 0.000000 0.041826 0.000000 0.135076
#
#
# Mechanical properties :
#
#
# Convention : Reuss Voigt Hill
#
# Bulk Modulus (GPa) = 14.45521 61.98671 38.22096
# Shear Modulus (GPa) = 14.61817 30.99771 22.80794
#
# Velocity S-wave (km/s) = 2.63178 3.83237 3.28735
# Velocity P-wave (km/s) = 4.01049 6.99662 5.70249
#
# Compressibility (1/GPa) = 0.06917923
#
# Stress axis : x y z
#
# Youngs Moduli (GPa) = 17.56998 133.64712 86.65187
#
# Poissons Ratio (x) = 0.31548 -0.24793
# Poissons Ratio (y) = 0.04147 0.33622
# Poissons Ratio (z) = -0.05027 0.51857
#
# Static dielectric constant tensor:
#      x y z
#    x 1.823070 0.000000 0.069520 
#    y 0.000000 1.798110 0.000000 
#    z 0.069520 0.000000 1.793520 
# 
# From -- ./inp_files/26832.got.cif
#   From: 2010.05.17/outbox.cif.g08.bks.cpg/sg10_14_cif.got.tgz:26832.got - 2010.06.03 11:33:40.
