data_PCOD9142401
_publ_section_title
;
Structure prediction by ZEFSAII (Michael W. Deem and Ramdas Pophale) SiO2 
 PCOD9142401
Probable space group: P 2/M
;
_chemical_formula_sum "Si O2"
_cell_formula_units_Z 32
_cell_length_a 14.845636
_cell_length_b 8.732472
_cell_length_c 26.421455
_cell_angle_alpha 90.000000
_cell_angle_beta 146.744958
_cell_angle_gamma 90.000000
_cell_volume 1878.295461
_symmetry_space_group_name_H-M "P 2/M"
_symmetry_group_IT_number 10
_symmetry_cell_setting 'monoclinic'
loop_
_space_group_symop_operation_xyz
x,y,z
-x,y,-z
-x,-y,-z
x,-y,z
loop_
_atom_site_type_symbol
_atom_site_label
_atom_site_fract_x
_atom_site_fract_y
_atom_site_fract_z
Si Si1 0.112489 0.816572 0.347209
Si Si2 0.741442 0.686350 0.895408
Si Si3 0.950733 0.313379 0.896564
Si Si4 0.633092 0.314603 0.283857
Si Si5 0.149361 0.172583 0.530128
Si Si6 0.920230 0.681203 0.342180
Si Si7 0.198747 0.682899 0.279115
Si Si8 0.462241 0.825724 0.542377
O O1 0.127806 0.752839 0.297692
O O2 0.277046 0.764299 0.455036
O O3 0.956849 0.761830 0.306182
O O4 0.119778 0.000000 0.348598
O O5 0.740793 0.500000 0.895613
O O6 0.553737 0.735094 0.813227
O O7 0.819993 0.732410 0.878413
O O8 0.870254 0.735438 0.999161
O O9 0.950540 0.500000 0.895747
O O10 0.897628 0.262497 0.816024
O O11 0.639684 0.500000 0.290828
O O12 0.702111 0.244756 0.368494
O O13 0.757024 0.270288 0.296506
O O14 0.000000 0.162742 0.500000
O O15 0.072313 0.275054 0.450086
O O16 0.185782 0.000000 0.529219
O O17 0.912866 0.500000 0.331334
O O18 0.188105 0.500000 0.277507
O O19 0.390411 0.729981 0.364640
O O20 0.500000 0.832327 0.500000
O O21 0.467336 0.000000 0.564273
#
# Coordination Sequence:
#
# PCOD9142401 Si02
#       8
#     4   4   4   4   4   4   4   4
#     4  10  20  33  47  64  91 130 166 192 228 278
#     4   8  14  28  48  70  96 122 148 184 234 284
#     4   8  15  27  46  72  97 119 147 186 232 283
#     4   9  17  29  48  72  96 123 156 195 235 272
#     4   9  17  29  44  63  91 126 158 186 222 272
#     4  10  19  30  45  68  96 124 159 201 235 265
#     4  10  18  28  46  73  98 120 153 195 234 274
#     4   8  16  30  44  60  86 120 155 187 222 269
#
# _framework density 17.036722000000001
#
# number of rings (size 3 to 8) (size 9 to 14) (size 15 to 20)
#    0.000    3.000    0.000    3.000    0.000    5.750 
#    0.000    1.250    0.000    3.000    0.000    9.625 
#    0.000    0.000    0.000    0.000    0.000    0.000 
#
# Total GULP energy -178216.052047 kJ/mol
# GULP energy per Si atom -5569.251626 kJ/mol
# Density = 1.699795 g / cm^3
# Si number density = 17.036722 Si / 1000 Ang^3
#
#
#
# Elastic Constant Matrix: (Units=GPa)
#
#
# Indices 1 2 3 4 5 6 
#
# 1 92.0301 20.7923 71.4177 0.0000 4.3366 0.0000
# 2 20.7923 26.7381 24.9339 0.0000 -1.2078 0.0000
# 3 71.4177 24.9339 136.7019 0.0000 2.9093 0.0000
# 4 0.0000 0.0000 0.0000 -6.6664 0.0000 22.1499
# 5 4.3366 -1.2078 2.9093 0.0000 24.2983 0.0000
# 6 0.0000 0.0000 0.0000 22.1499 0.0000 -11.5671
#
#
#
# Elastic Compliance Matrix: (Units=1/GPa)
#
#
# Indices 1 2 3 4 5 6 
#
# 1 0.019412 -0.007010 -0.008804 0.000000 -0.002759 0.000000
# 2 -0.007010 0.047851 -0.005156 0.000000 0.004247 0.000000
# 3 -0.008804 -0.005156 0.012860 0.000000 -0.000225 0.000000
# 4 0.000000 0.000000 0.000000 0.027973 0.000000 0.053566
# 5 -0.002759 0.004247 -0.000225 0.000000 0.041885 0.000000
# 6 0.000000 0.000000 0.000000 0.053566 0.000000 0.016122
#
#
# Mechanical properties :
#
#
# Convention : Reuss Voigt Hill
#
# Bulk Modulus (GPa) = 26.18987 54.41755 40.30371
# Shear Modulus (GPa) = 22.64790 10.43470 16.54130
#
# Velocity S-wave (km/s) = 3.64999 2.47752 3.11934
# Velocity P-wave (km/s) = 5.75927 6.33994 6.05657
#
# Compressibility (1/GPa) = 0.03818271
#
# Stress axis : x y z
#
# Youngs Moduli (GPa) = 51.51447 20.89833 77.76024
#
# Poissons Ratio (x) = 0.14649 0.68462
# Poissons Ratio (y) = 0.36110 0.40093
# Poissons Ratio (z) = 0.45355 0.10775
#
# Static dielectric constant tensor:
#      x y z
#    x 1.600910 0.000000 0.011370 
#    y 0.000000 1.579720 0.000000 
#    z 0.011370 0.000000 1.572580 
# 
# From -- ./inp_files/93110.got.cif
#   From: 2010.05.17/outbox.cif.g08.bks.cpg/sg10_47_cif.got.tgz:93110.got - 2010.06.03 11:33:40.
