data_PCOD9142577
_publ_section_title
;
Structure prediction by ZEFSAII (Michael W. Deem and Ramdas Pophale) SiO2 
 PCOD9142577
Probable space group: P 2/M
;
_chemical_formula_sum "Si O2"
_cell_formula_units_Z 24
_cell_length_a 12.133145
_cell_length_b 8.209261
_cell_length_c 27.728294
_cell_angle_alpha 90.000000
_cell_angle_beta 151.490515
_cell_angle_gamma 90.000000
_cell_volume 1318.244267
_symmetry_space_group_name_H-M "P 2/M"
_symmetry_group_IT_number 10
_symmetry_cell_setting 'monoclinic'
loop_
_space_group_symop_operation_xyz
x,y,z
-x,y,-z
-x,-y,-z
x,-y,z
loop_
_atom_site_type_symbol
_atom_site_label
_atom_site_fract_x
_atom_site_fract_y
_atom_site_fract_z
Si Si1 0.122984 0.303709 0.194685
Si Si2 0.731936 0.685116 0.119225
Si Si3 0.138390 0.805294 0.379180
Si Si4 0.638575 0.812772 0.184928
Si Si5 0.884070 0.803458 0.005238
Si Si6 0.580769 0.695036 0.606030
O O1 0.129195 0.500000 0.193752
O O2 0.345895 0.250831 0.311816
O O3 0.921142 0.257589 0.154320
O O4 0.044880 0.241857 0.112553
O O5 0.790872 0.500000 0.158825
O O6 0.685426 0.801073 0.145898
O O7 0.500000 0.673097 0.000000
O O8 0.339401 0.763774 0.494158
O O9 0.229555 0.740590 0.362298
O O10 0.884741 0.742023 0.297685
O O11 0.122074 0.000000 0.368253
O O12 0.626361 0.000000 0.196917
O O13 0.382051 0.740370 0.093924
O O14 0.870736 0.000000 0.999927
O O15 0.000000 0.748734 0.000000
O O16 0.567252 0.500000 0.600900
#
# Coordination Sequence:
#
# PCOD9142577 Si02
#       6
#     4   4   4   4   4   4
#     4  10  20  33  51  75 103 133 165 204 248 299
#     4  10  18  29  46  72 103 132 161 195 244 303
#     4  10  19  30  46  72 105 136 166 199 240 293
#     4  10  20  32  49  73 102 133 165 204 247 296
#     4  10  22  38  54  73  98 131 171 213 255 297
#     4  10  19  31  48  72 104 137 166 197 240 295
#
# _framework density 18.206033000000001
#
# number of rings (size 3 to 8) (size 9 to 14) (size 15 to 20)
#    0.000    2.000    3.333    2.000    0.000    3.333 
#    0.000    0.000    0.000    1.000    0.000    7.000 
#    0.000    0.000    0.000    0.000    0.000    0.000 
#
# Total GULP energy -133626.182009 kJ/mol
# GULP energy per Si atom -5567.757584 kJ/mol
# Density = 1.816460 g / cm^3
# Si number density = 18.206033 Si / 1000 Ang^3
#
#
#
# Elastic Constant Matrix: (Units=GPa)
#
#
# Indices 1 2 3 4 5 6 
#
# 1 88.4119 8.7702 66.2724 0.0000 -9.3839 0.0000
# 2 8.7702 16.1236 10.5924 0.0000 2.0619 0.0000
# 3 66.2724 10.5924 161.3790 0.0000 -7.6435 0.0000
# 4 0.0000 0.0000 0.0000 15.5268 0.0000 -12.7022
# 5 -9.3839 2.0619 -7.6435 0.0000 12.3727 0.0000
# 6 0.0000 0.0000 0.0000 -12.7022 0.0000 9.7013
#
#
#
# Elastic Compliance Matrix: (Units=1/GPa)
#
#
# Indices 1 2 3 4 5 6 
#
# 1 0.017945 -0.006938 -0.006402 0.000000 0.010812 0.000000
# 2 -0.006938 0.069881 -0.002615 0.000000 -0.018523 0.000000
# 3 -0.006402 -0.002615 0.009053 0.000000 0.001173 0.000000
# 4 0.000000 0.000000 0.000000 -0.905219 0.000000 -1.185238
# 5 0.010812 -0.018523 0.001173 0.000000 0.092834 0.000000
# 6 0.000000 0.000000 0.000000 -1.185238 0.000000 -1.448797
#
#
# Mechanical properties :
#
#
# Convention : Reuss Voigt Hill
#
# Bulk Modulus (GPa) = 15.39176 48.57604 31.98390
# Shear Modulus (GPa) = -2.36884 19.53879 8.58497
#
# Velocity S-wave (km/s) = -1.14191 3.27953 2.17387
# Velocity P-wave (km/s) = 2.59499 6.40934 4.88946
#
# Compressibility (1/GPa) = 0.06496981
#
# Stress axis : x y z
#
# Youngs Moduli (GPa) = 55.72490 14.30998 110.46238
#
# Poissons Ratio (x) = 0.09928 0.70718
# Poissons Ratio (y) = 0.38661 0.28885
# Poissons Ratio (z) = 0.35675 0.03742
#
# Static dielectric constant tensor:
#      x y z
#    x 1.596860 0.000000 0.021050 
#    y 0.000000 1.668830 0.000000 
#    z 0.021050 0.000000 1.712860 
# 
# From -- ./inp_files/52606.got.cif
#   From: 2010.05.17/outbox.cif.g08.bks.cpg/sg10_27_cif.got.tgz:52606.got - 2010.06.03 11:33:40.
