data_PCOD9142235
_publ_section_title
;
Structure prediction by ZEFSAII (Michael W. Deem and Ramdas Pophale) SiO2 
 PCOD9142235
Probable space group: P 2/M
;
_chemical_formula_sum "Si O2"
_cell_formula_units_Z 32
_cell_length_a 15.506940
_cell_length_b 7.997411
_cell_length_c 21.493331
_cell_angle_alpha 90.000000
_cell_angle_beta 42.915614
_cell_angle_gamma 90.000000
_cell_volume 1814.995871
_symmetry_space_group_name_H-M "P 2/M"
_symmetry_group_IT_number 10
_symmetry_cell_setting 'monoclinic'
loop_
_space_group_symop_operation_xyz
x,y,z
-x,y,-z
-x,-y,-z
x,-y,z
loop_
_atom_site_type_symbol
_atom_site_label
_atom_site_fract_x
_atom_site_fract_y
_atom_site_fract_z
Si Si1 0.444571 0.703367 0.332552
Si Si2 0.384512 0.801346 0.017863
Si Si3 0.216495 0.796539 0.306035
Si Si4 0.865895 0.304482 0.381855
Si Si5 0.420387 0.704102 0.483076
Si Si6 0.491066 0.697166 0.832574
Si Si7 0.155752 0.806725 0.469325
Si Si8 0.867866 0.200438 0.785283
O O1 0.425370 0.500000 0.339661
O O2 0.481855 0.745015 0.383421
O O3 0.530252 0.750766 0.228060
O O4 0.308546 0.789392 0.394405
O O5 0.246505 0.735486 0.111082
O O6 0.382213 0.000000 0.030994
O O7 0.500000 0.733143 0.000000
O O8 0.415166 0.776503 0.929368
O O9 0.360443 0.734219 0.234385
O O10 0.136994 0.741498 0.408812
O O11 0.163750 0.740686 0.267928
O O12 0.218916 0.000000 0.306509
O O13 0.857478 0.500000 0.376200
O O14 0.725803 0.234619 0.440546
O O15 0.890296 0.274598 0.442621
O O16 0.986195 0.242162 0.279748
O O17 0.500000 0.763521 0.500000
O O18 0.416795 0.500000 0.487655
O O19 0.469337 0.500000 0.847554
O O20 0.115780 0.000000 0.492929
O O21 0.860946 0.000000 0.788369
#
# Coordination Sequence:
#
# PCOD9142235 Si02
#       8
#     4   4   4   4   4   4   4   4
#     4   8  15  27  43  68  97 119 143 182 229 270
#     4  10  19  33  49  63  84 119 164 203 227 259
#     4   9  17  30  45  61  83 119 162 194 218 257
#     4  10  20  32  45  65  94 118 143 185 230 272
#     4   8  14  28  51  73  92 118 148 175 214 274
#     4  10  18  27  43  67  95 120 147 192 240 271
#     4   9  16  27  45  63  84 118 157 187 215 259
#     4  10  20  33  47  61  84 119 158 194 226 261
#
# _framework density 17.630894000000001
#
# number of rings (size 3 to 8) (size 9 to 14) (size 15 to 20)
#    0.000    2.750    1.250    1.875    0.000    2.750 
#    0.000    2.500    0.000    9.375    0.000    0.875 
#    0.000    7.000    0.000    0.000    0.000    0.000 
#
# Total GULP energy -178209.917520 kJ/mol
# GULP energy per Si atom -5569.059923 kJ/mol
# Density = 1.759077 g / cm^3
# Si number density = 17.630894 Si / 1000 Ang^3
#
#
#
# Elastic Constant Matrix: (Units=GPa)
#
#
# Indices 1 2 3 4 5 6 
#
# 1 85.2035 5.3520 57.4143 0.0000 11.8078 0.0000
# 2 5.3520 11.1626 8.3170 0.0000 -0.5185 0.0000
# 3 57.4143 8.3170 145.2526 0.0000 2.6114 0.0000
# 4 0.0000 0.0000 0.0000 22.8350 0.0000 0.0938
# 5 11.8078 -0.5185 2.6114 0.0000 16.1092 0.0000
# 6 0.0000 0.0000 0.0000 0.0938 0.0000 11.1919
#
#
#
# Elastic Compliance Matrix: (Units=1/GPa)
#
#
# Indices 1 2 3 4 5 6 
#
# 1 0.018286 -0.004311 -0.006757 0.000000 -0.012446 0.000000
# 2 -0.004311 0.094837 -0.003849 0.000000 0.006836 0.000000
# 3 -0.006757 -0.003849 0.009717 0.000000 0.003254 0.000000
# 4 0.000000 0.000000 0.000000 0.043794 0.000000 -0.000367
# 5 -0.012446 0.006836 0.003254 0.000000 0.070892 0.000000
# 6 0.000000 0.000000 0.000000 -0.000367 0.000000 0.089353
#
#
# Mechanical properties :
#
#
# Convention : Reuss Voigt Hill
#
# Bulk Modulus (GPa) = 10.75200 42.64282 26.69741
# Shear Modulus (GPa) = 12.89607 21.39627 17.14617
#
# Velocity S-wave (km/s) = 2.70746 3.48741 3.12189
# Velocity P-wave (km/s) = 3.98565 6.36042 5.30756
#
# Compressibility (1/GPa) = 0.09300594
#
# Stress axis : x y z
#
# Youngs Moduli (GPa) = 54.68807 10.54437 102.90839
#
# Poissons Ratio (x) = 0.04545 0.69537
# Poissons Ratio (y) = 0.23574 0.39613
# Poissons Ratio (z) = 0.36954 0.04059
#
# Static dielectric constant tensor:
#      x y z
#    x 1.617890 0.000000 0.008240 
#    y 0.000000 1.628430 0.000000 
#    z 0.008240 0.000000 1.638870 
# 
# From -- ./inp_files/84733.got.cif
#   From: 2010.05.17/outbox.cif.g08.bks.cpg/sg10_43_cif.got.tgz:84733.got - 2010.06.03 11:33:40.
