data_PCOD9142481
_publ_section_title
;
Structure prediction by ZEFSAII (Michael W. Deem and Ramdas Pophale) SiO2 
 PCOD9142481
Probable space group: P 2/M
;
_chemical_formula_sum "Si O2"
_cell_formula_units_Z 32
_cell_length_a 12.868859
_cell_length_b 17.275704
_cell_length_c 10.736184
_cell_angle_alpha 90.000000
_cell_angle_beta 42.953527
_cell_angle_gamma 90.000000
_cell_volume 1626.413663
_symmetry_space_group_name_H-M "P 2/M"
_symmetry_group_IT_number 10
_symmetry_cell_setting 'monoclinic'
loop_
_space_group_symop_operation_xyz
x,y,z
-x,y,-z
-x,-y,-z
x,-y,z
loop_
_atom_site_type_symbol
_atom_site_label
_atom_site_fract_x
_atom_site_fract_y
_atom_site_fract_z
Si Si1 0.940618 0.656298 0.393693
Si Si2 0.832886 0.410576 0.120901
Si Si3 0.061954 0.088490 0.589705
Si Si4 0.265671 0.215375 0.308998
Si Si5 0.559449 0.291671 0.153400
Si Si6 0.651158 0.408583 0.508069
Si Si7 0.759077 0.415893 0.891417
Si Si8 0.158252 0.207539 0.123595
O O1 0.845168 0.711517 0.568154
O O2 0.813564 0.605727 0.435009
O O3 0.035778 0.722175 0.233249
O O4 0.078601 0.600820 0.312646
O O5 0.846150 0.500000 0.151811
O O6 0.695386 0.382945 0.328986
O O7 0.794222 0.413250 0.009529
O O8 0.000000 0.374860 0.000000
O O9 0.205341 0.145410 0.448097
O O10 0.000000 0.088591 0.500000
O O11 0.942601 0.129563 0.789409
O O12 0.093372 0.000000 0.595765
O O13 0.433114 0.237845 0.203190
O O14 0.238865 0.197768 0.188277
O O15 0.468801 0.350881 0.322807
O O16 0.639026 0.347845 0.981456
O O17 0.699800 0.239110 0.082786
O O18 0.605036 0.500000 0.555485
O O19 0.700277 0.500000 0.908012
#
# Coordination Sequence:
#
# PCOD9142481 Si02
#       8
#     4   4   4   4   4   4   4   4
#     4   9  16  26  45  63  80 113 153 189 220 253
#     4   9  16  27  45  65  83 105 139 186 238 282
#     4   8  14  27  49  73  89 105 139 180 210 249
#     4   9  17  30  46  62  86 121 150 173 211 259
#     4  10  20  29  42  60  86 122 151 175 213 262
#     4  10  18  29  44  62  84 113 150 189 227 266
#     4  10  18  29  44  62  84 113 150 189 227 266
#     4   9  17  30  46  62  86 121 150 173 211 259
#
# _framework density 19.675191000000002
#
# number of rings (size 3 to 8) (size 9 to 14) (size 15 to 20)
#    0.000    2.750    1.250    2.250    0.000    0.500 
#    0.000    2.500    0.000   55.500    0.000    0.000 
#    0.000    0.000    0.000  265.500    0.000    0.000 
#
# Total GULP energy -178209.765115 kJ/mol
# GULP energy per Si atom -5569.055160 kJ/mol
# Density = 1.963041 g / cm^3
# Si number density = 19.675191 Si / 1000 Ang^3
#
#
#
# Elastic Constant Matrix: (Units=GPa)
#
#
# Indices 1 2 3 4 5 6 
#
# 1 36.0172 17.4314 20.5801 0.0000 -17.0778 0.0000
# 2 17.4314 118.1558 39.5850 0.0000 -10.0147 0.0000
# 3 20.5801 39.5850 130.1614 0.0000 -13.2146 0.0000
# 4 0.0000 0.0000 0.0000 26.1614 0.0000 -5.0217
# 5 -17.0778 -10.0147 -13.2146 0.0000 27.4527 0.0000
# 6 0.0000 0.0000 0.0000 -5.0217 0.0000 1.3345
#
#
#
# Elastic Compliance Matrix: (Units=1/GPa)
#
#
# Indices 1 2 3 4 5 6 
#
# 1 0.042393 -0.003129 -0.003354 0.000000 0.023616 0.000000
# 2 -0.003129 0.009778 -0.002433 0.000000 0.000449 0.000000
# 3 -0.003354 -0.002433 0.009096 0.000000 0.001404 0.000000
# 4 0.000000 0.000000 0.000000 0.137668 0.000000 0.518063
# 5 0.023616 0.000449 0.001404 0.000000 0.051957 0.000000
# 6 0.000000 0.000000 0.000000 0.518063 0.000000 2.698914
#
#
# Mechanical properties :
#
#
# Convention : Reuss Voigt Hill
#
# Bulk Modulus (GPa) = 23.02303 48.83637 35.92970
# Shear Modulus (GPa) = 1.67666 24.77222 13.22444
#
# Velocity S-wave (km/s) = 0.92413 3.55217 2.59537
# Velocity P-wave (km/s) = 3.58687 6.45748 5.22325
#
# Compressibility (1/GPa) = 0.04343477
#
# Stress axis : x y z
#
# Youngs Moduli (GPa) = 23.58888 102.26648 109.94248
#
# Poissons Ratio (x) = 0.31999 0.36870
# Poissons Ratio (y) = 0.07381 0.26754
# Poissons Ratio (z) = 0.07911 0.24886
#
# Static dielectric constant tensor:
#      x y z
#    x 1.754490 0.000000 0.015580 
#    y 0.000000 1.704400 0.000000 
#    z 0.015580 0.000000 1.800520 
# 
# From -- ./inp_files/69278.got.cif
#   From: 2010.05.17/outbox.cif.g08.bks.cpg/sg10_35_cif.got.tgz:69278.got - 2010.06.03 11:33:40.
