data_PCOD9142405
_publ_section_title
;
Structure prediction by ZEFSAII (Michael W. Deem and Ramdas Pophale) SiO2 
 PCOD9142405
Probable space group: P 2/M
;
_chemical_formula_sum "Si O2"
_cell_formula_units_Z 28
_cell_length_a 11.021481
_cell_length_b 11.189456
_cell_length_c 12.839633
_cell_angle_alpha 90.000000
_cell_angle_beta 103.230429
_cell_angle_gamma 90.000000
_cell_volume 1541.411274
_symmetry_space_group_name_H-M "P 2/M"
_symmetry_group_IT_number 10
_symmetry_cell_setting 'monoclinic'
loop_
_space_group_symop_operation_xyz
x,y,z
-x,y,-z
-x,-y,-z
x,-y,z
loop_
_atom_site_type_symbol
_atom_site_label
_atom_site_fract_x
_atom_site_fract_y
_atom_site_fract_z
Si Si1 0.755781 0.360135 0.605679
Si Si2 0.567664 0.359605 0.748621
Si Si3 0.065432 0.635549 0.182813
Si Si4 0.378177 0.211636 0.031194
Si Si5 0.720790 0.360306 0.370544
Si Si6 0.220978 0.359784 0.840945
Si Si7 0.134324 0.127549 0.082768
O O1 0.720254 0.500000 0.586252
O O2 0.657482 0.315644 0.672712
O O3 0.889414 0.357501 0.688538
O O4 0.751702 0.306695 0.489600
O O5 0.597178 0.500000 0.777191
O O6 0.427168 0.356287 0.678275
O O7 0.582639 0.281341 0.855501
O O8 0.098116 0.500000 0.152836
O O9 0.132132 0.745188 0.140062
O O10 0.918143 0.651183 0.142035
O O11 0.322097 0.302813 0.935482
O O12 0.500000 0.155916 0.000000
O O13 0.257791 0.132352 0.035990
O O14 0.761533 0.500000 0.382245
O O15 0.777971 0.307715 0.275909
O O16 0.250133 0.500000 0.838224
O O17 0.140655 0.000000 0.143889
O O18 0.000000 0.125571 0.000000
#
# Coordination Sequence:
#
# PCOD9142405 Si02
#       7
#     4   4   4   4   4   4   4
#     4   9  17  29  48  74 107 149 192 233 276 330
#     4  10  18  28  46  75 111 149 188 229 279 337
#     4  10  20  35  57  86 113 145 192 240 285 332
#     4  12  22  34  55  82 112 146 193 236 285 340
#     4   9  17  29  44  72 115 154 186 226 282 337
#     4  10  20  31  48  80 120 153 184 232 290 339
#     4  11  24  42  61  83 114 155 194 231 286 350
#
# _framework density 18.165171999999998
#
# number of rings (size 3 to 8) (size 9 to 14) (size 15 to 20)
#    0.000    1.857    4.286    0.857    0.000    4.000 
#    0.000    2.857    0.000    0.000    0.000    5.000 
#    0.000    0.000    0.000    0.000    0.000    0.000 
#
# Total GULP energy -155869.609769 kJ/mol
# GULP energy per Si atom -5566.771777 kJ/mol
# Density = 1.812383 g / cm^3
# Si number density = 18.165172 Si / 1000 Ang^3
#
#
#
# Elastic Constant Matrix: (Units=GPa)
#
#
# Indices 1 2 3 4 5 6 
#
# 1 63.6874 24.1860 10.4199 0.0000 6.7838 0.0000
# 2 24.1860 63.1161 32.0630 0.0000 -4.7090 0.0000
# 3 10.4199 32.0630 88.4251 0.0000 -8.5048 0.0000
# 4 0.0000 0.0000 0.0000 -5.0295 0.0000 0.1106
# 5 6.7838 -4.7090 -8.5048 0.0000 14.8345 0.0000
# 6 0.0000 0.0000 0.0000 0.1106 0.0000 -62.2875
#
#
#
# Elastic Compliance Matrix: (Units=1/GPa)
#
#
# Indices 1 2 3 4 5 6 
#
# 1 0.020291 -0.008429 -0.000513 0.000000 -0.012249 0.000000
# 2 -0.008429 0.022994 -0.006638 0.000000 0.007348 0.000000
# 3 -0.000513 -0.006638 0.014390 0.000000 0.006377 0.000000
# 4 0.000000 0.000000 0.000000 -0.198836 0.000000 -0.000353
# 5 -0.012249 0.007348 0.006377 0.000000 0.079000 0.000000
# 6 0.000000 0.000000 0.000000 -0.000353 0.000000 -0.016055
#
#
# Mechanical properties :
#
#
# Convention : Reuss Voigt Hill
#
# Bulk Modulus (GPa) = 37.71304 38.72959 38.22132
# Shear Modulus (GPa) = -130.82488 -0.59251 -65.70869
#
# Velocity S-wave (km/s) = -8.49564 -0.57174 -6.02092
# Velocity P-wave (km/s) = 8.68495 4.57507 5.22002
#
# Compressibility (1/GPa) = 0.02651603
#
# Stress axis : x y z
#
# Youngs Moduli (GPa) = 49.28226 43.48977 69.49458
#
# Poissons Ratio (x) = 0.36657 0.03564
# Poissons Ratio (y) = 0.41540 0.46128
# Poissons Ratio (z) = 0.02528 0.28867
#
# Static dielectric constant tensor:
#      x y z
#    x 1.670820 0.000000 -0.027050 
#    y 0.000000 1.623160 0.000000 
#    z -0.027050 0.000000 1.662800 
# 
# From -- ./inp_files/45997.got.cif
#   From: 2010.05.17/outbox.cif.g08.bks.cpg/sg10_23_cif.got.tgz:45997.got - 2010.06.03 11:33:40.
