data_PCOD9142212
_publ_section_title
;
Structure prediction by ZEFSAII (Michael W. Deem and Ramdas Pophale) SiO2 
 PCOD9142212
Probable space group: P 2/M
;
_chemical_formula_sum "Si O2"
_cell_formula_units_Z 32
_cell_length_a 30.824573
_cell_length_b 9.083855
_cell_length_c 16.377174
_cell_angle_alpha 90.000000
_cell_angle_beta 150.086022
_cell_angle_gamma 90.000000
_cell_volume 2286.888077
_symmetry_space_group_name_H-M "P 2/M"
_symmetry_group_IT_number 10
_symmetry_cell_setting 'monoclinic'
loop_
_space_group_symop_operation_xyz
x,y,z
-x,y,-z
-x,-y,-z
x,-y,z
loop_
_atom_site_type_symbol
_atom_site_label
_atom_site_fract_x
_atom_site_fract_y
_atom_site_fract_z
Si Si1 0.999919 0.669435 0.400666
Si Si2 0.525730 0.324854 0.234847
Si Si3 0.821015 0.824905 0.307801
Si Si4 0.334440 0.324784 0.847225
Si Si5 0.597337 0.830365 0.197312
Si Si6 0.821524 0.823753 0.114022
Si Si7 0.473878 0.821859 0.589759
Si Si8 0.637259 0.821486 0.747113
O O1 0.004929 0.500000 0.382520
O O2 0.909169 0.744203 0.228299
O O3 0.000000 0.671507 0.500000
O O4 0.085446 0.758953 0.514839
O O5 0.538629 0.500000 0.257613
O O6 0.587115 0.251441 0.266700
O O7 0.538905 0.253656 0.344579
O O8 0.425888 0.297147 0.043316
O O9 0.743787 0.748011 0.230772
O O10 0.810155 0.797765 0.192730
O O11 0.819139 0.000000 0.317293
O O12 0.323099 0.500000 0.822660
O O13 0.344446 0.253817 0.773963
O O14 0.624083 0.000000 0.250703
O O15 0.500000 0.829875 0.000000
O O16 0.831200 0.000000 0.119245
O O17 0.734111 0.771761 0.926309
O O18 0.566655 0.778865 0.700716
O O19 0.401690 0.779899 0.404331
O O20 0.473146 0.000000 0.597275
O O21 0.638510 0.000000 0.750509
#
# Coordination Sequence:
#
# PCOD9142212 Si02
#       8
#     4   4   4   4   4   4   4   4
#     4   9  17  28  40  56  80 108 136 168 207 248
#     4  10  19  29  41  59  84 112 139 169 208 247
#     4  10  18  27  42  62  82 107 140 173 203 242
#     4  10  19  29  41  59  85 112 136 167 207 247
#     4   9  17  29  44  60  78 104 139 173 202 239
#     4   9  16  27  42  59  80 108 142 176 208 242
#     4   9  16  28  44  60  80 109 144 177 208 242
#     4   8  15  27  43  61  81 107 141 180 213 239
#
# _framework density 13.992813999999999
#
# number of rings (size 3 to 8) (size 9 to 14) (size 15 to 20)
#    0.000    2.750    0.000    3.375    0.000    6.000 
#    0.000    2.500    0.000    0.000    0.000    0.000 
#    0.000    1.000    0.000   10.750    0.000    4.750 
#
# Total GULP energy -178304.392364 kJ/mol
# GULP energy per Si atom -5572.012261 kJ/mol
# Density = 1.396097 g / cm^3
# Si number density = 13.992814 Si / 1000 Ang^3
#
#
#
# Elastic Constant Matrix: (Units=GPa)
#
#
# Indices 1 2 3 4 5 6 
#
# 1 88.0972 57.2066 39.0776 0.0000 -2.0408 0.0000
# 2 57.2066 69.7066 42.0205 0.0000 4.5724 0.0000
# 3 39.0776 42.0205 85.3174 0.0000 5.7798 0.0000
# 4 0.0000 0.0000 0.0000 16.6534 0.0000 3.0892
# 5 -2.0408 4.5724 5.7798 0.0000 23.9266 0.0000
# 6 0.0000 0.0000 0.0000 3.0892 0.0000 20.7958
#
#
#
# Elastic Compliance Matrix: (Units=1/GPa)
#
#
# Indices 1 2 3 4 5 6 
#
# 1 0.025477 -0.019963 -0.002280 0.000000 0.006539 0.000000
# 2 -0.019963 0.036099 -0.008187 0.000000 -0.006623 0.000000
# 3 -0.002280 -0.008187 0.016983 0.000000 -0.002732 0.000000
# 4 0.000000 0.000000 0.000000 0.061749 0.000000 -0.009173
# 5 0.006539 -0.006623 -0.002732 0.000000 0.044278 0.000000
# 6 0.000000 0.000000 0.000000 -0.009173 0.000000 0.049449
#
#
# Mechanical properties :
#
#
# Convention : Reuss Voigt Hill
#
# Bulk Modulus (GPa) = 56.50219 57.74785 57.12502
# Shear Modulus (GPa) = 16.62267 19.26291 17.94279
#
# Velocity S-wave (km/s) = 3.45040 3.71432 3.58479
# Velocity P-wave (km/s) = 7.50605 7.73008 7.61889
#
# Compressibility (1/GPa) = 0.01769843
#
# Stress axis : x y z
#
# Youngs Moduli (GPa) = 39.25131 27.70192 58.88362
#
# Poissons Ratio (x) = 0.55301 0.13425
# Poissons Ratio (y) = 0.78356 0.48209
# Poissons Ratio (z) = 0.08949 0.22680
#
# Static dielectric constant tensor:
#      x y z
#    x 1.436940 0.000000 0.003320 
#    y 0.000000 1.465960 0.000000 
#    z 0.003320 0.000000 1.451380 
# 
# From -- ./inp_files/72183.got.cif
#   From: 2010.05.17/outbox.cif.g08.bks.cpg/sg10_37_cif.got.tgz:72183.got - 2010.06.03 11:33:40.
