data_PCOD9142826
_publ_section_title
;
Structure prediction by ZEFSAII (Michael W. Deem and Ramdas Pophale) SiO2 
 PCOD9142826
Probable space group: P 2/M
;
_chemical_formula_sum "Si O2"
_cell_formula_units_Z 27
_cell_length_a 8.304330
_cell_length_b 31.360449
_cell_length_c 5.343626
_cell_angle_alpha 90.000000
_cell_angle_beta 57.986167
_cell_angle_gamma 90.000000
_cell_volume 1179.988765
_symmetry_space_group_name_H-M "P 2/M"
_symmetry_group_IT_number 10
_symmetry_cell_setting 'monoclinic'
loop_
_space_group_symop_operation_xyz
x,y,z
-x,y,-z
-x,-y,-z
x,-y,z
loop_
_atom_site_type_symbol
_atom_site_label
_atom_site_fract_x
_atom_site_fract_y
_atom_site_fract_z
Si Si1 0.370840 0.000000 0.853428
Si Si2 0.000000 0.500000 0.500000
Si Si3 0.231038 0.275465 0.817690
Si Si4 0.270775 0.905371 0.924019
Si Si5 0.772938 0.626934 0.154099
Si Si6 0.692508 0.574761 0.720519
Si Si7 0.231059 0.226437 0.320967
Si Si8 0.702616 0.869208 0.602106
O O1 0.500000 0.000000 0.500000
O O2 0.255691 0.043875 0.932788
O O3 0.500000 0.000000 0.000000
O O4 0.156316 0.537467 0.435475
O O5 0.293457 0.324203 0.797007
O O6 0.286180 0.257729 0.501570
O O7 0.287163 0.245524 0.005215
O O8 0.000000 0.275706 0.000000
O O9 0.495913 0.892045 0.753775
O O10 0.200761 0.881313 0.736994
O O11 0.193445 0.888222 0.245444
O O12 0.687823 0.600618 0.461425
O O13 0.743673 0.606678 0.905271
O O14 0.000000 0.626605 0.000000
O O15 0.500000 0.555811 0.000000
O O16 0.313454 0.180672 0.329999
O O17 0.000000 0.222139 0.500000
#
# Coordination Sequence:
#
# PCOD9142826 Si02
#       8
#     2   1   4   4   4   4   4   4
#     4  12  16  30  48  74  96 120 188 236 282 340
#     4  12  26  50  72 112 140 186 238 266 360 404
#     4   9  19  34  61  86 111 149 214 254 294 351
#     4  10  19  30  48  73  97 138 172 233 288 370
#     4  11  21  44  71  99 130 181 225 280 335 394
#     4  12  26  44  73 103 145 181 225 287 334 404
#     4  10  19  33  53  84 110 148 197 252 282 354
#     4  10  18  30  47  69 106 134 171 221 297 341
#
# _framework density 22.881572999999999
#
# number of rings (size 3 to 8) (size 9 to 14) (size 15 to 20)
#    0.000    1.481    4.444    2.444    0.000    3.556 
#    0.000    1.481   32.593    0.000    0.000    5.704 
#    0.000    0.000    0.000    0.000    0.000    0.000 
#
# Total GULP energy -150635.191579 kJ/mol
# GULP energy per Si atom -5579.081170 kJ/mol
# Density = 2.282949 g / cm^3
# Si number density = 22.881573 Si / 1000 Ang^3
#
#
#
# Elastic Constant Matrix: (Units=GPa)
#
#
# Indices 1 2 3 4 5 6 
#
# 1 71.1294 42.7756 56.6488 0.0000 24.4198 0.0000
# 2 42.7756 202.3237 41.4802 0.0000 33.5897 0.0000
# 3 56.6488 41.4802 133.0162 0.0000 40.1213 0.0000
# 4 0.0000 0.0000 0.0000 29.5788 0.0000 -62.8435
# 5 24.4198 33.5897 40.1213 0.0000 61.7139 0.0000
# 6 0.0000 0.0000 0.0000 -62.8435 0.0000 27.1135
#
#
#
# Elastic Compliance Matrix: (Units=1/GPa)
#
#
# Indices 1 2 3 4 5 6 
#
# 1 0.023127 -0.002819 -0.008301 0.000000 -0.002221 0.000000
# 2 -0.002819 0.005886 -0.000006 0.000000 -0.002084 0.000000
# 3 -0.008301 -0.000006 0.012518 0.000000 -0.004850 0.000000
# 4 0.000000 0.000000 0.000000 -0.008615 0.000000 -0.019967
# 5 -0.002221 -0.002084 -0.004850 0.000000 0.021370 0.000000
# 6 0.000000 0.000000 0.000000 -0.019967 0.000000 -0.009398
#
#
# Mechanical properties :
#
#
# Convention : Reuss Voigt Hill
#
# Bulk Modulus (GPa) = 51.86970 76.47540 64.17255
# Shear Modulus (GPa) = 67.96584 41.38556 54.67570
#
# Velocity S-wave (km/s) = 5.45599 4.25748 4.89356
# Velocity P-wave (km/s) = 7.89990 7.59361 7.74827
#
# Compressibility (1/GPa) = 0.01927908
#
# Stress axis : x y z
#
# Youngs Moduli (GPa) = 43.23885 169.89829 79.88623
#
# Poissons Ratio (x) = 0.47898 0.66310
# Poissons Ratio (y) = 0.12190 0.00050
# Poissons Ratio (z) = 0.35891 0.00106
#
# Static dielectric constant tensor:
#      x y z
#    x 1.918450 0.000000 -0.047690 
#    y 0.000000 1.811910 0.000000 
#    z -0.047690 0.000000 1.855800 
# 
# From -- ./inp_files/5445.got.cif
#   From: 2010.05.17/outbox.cif.g08.bks.cpg/sg10_3_cif.got.tgz:5445.got - 2010.06.03 11:33:40.
