data_PCOD9142993
_publ_section_title
;
Structure prediction by ZEFSAII (Michael W. Deem and Ramdas Pophale) SiO2 
 PCOD9142993
Probable space group: P 2/M
;
_chemical_formula_sum "Si O2"
_cell_formula_units_Z 26
_cell_length_a 26.793401
_cell_length_b 9.455906
_cell_length_c 8.958494
_cell_angle_alpha 90.000000
_cell_angle_beta 149.052778
_cell_angle_gamma 90.000000
_cell_volume 1167.182702
_symmetry_space_group_name_H-M "P 2/M"
_symmetry_group_IT_number 10
_symmetry_cell_setting 'monoclinic'
loop_
_space_group_symop_operation_xyz
x,y,z
-x,y,-z
-x,-y,-z
x,-y,z
loop_
_atom_site_type_symbol
_atom_site_label
_atom_site_fract_x
_atom_site_fract_y
_atom_site_fract_z
Si Si1 0.870494 0.668704 0.731226
Si Si2 0.528737 0.160321 0.910327
Si Si3 0.607213 0.340024 0.852955
Si Si4 0.059345 0.164833 0.339019
Si Si5 0.318804 0.842262 0.218132
Si Si6 0.202475 0.655325 0.144731
Si Si7 0.000000 0.262147 0.500000
O O1 0.889701 0.500000 0.763653
O O2 0.860301 0.743903 0.544778
O O3 0.793109 0.680839 0.666251
O O4 0.960373 0.757937 0.031196
O O5 0.595063 0.257381 0.976921
O O6 0.427592 0.148715 0.562033
O O7 0.568432 0.000000 0.030380
O O8 0.500000 0.216423 0.000000
O O9 0.500000 0.346074 0.500000
O O10 0.641491 0.500000 0.964384
O O11 0.672503 0.255873 0.903406
O O12 0.051973 0.177956 0.498661
O O13 0.064241 0.000000 0.311246
O O14 0.255300 0.772849 0.184365
O O15 0.284940 0.000000 0.092667
O O16 0.244068 0.500000 0.218288
O O17 0.089297 0.654709 0.804165
#
# Coordination Sequence:
#
# PCOD9142993 Si02
#       7
#     4   4   4   4   4   4   2
#     4   9  18  32  50  71  97 132 171 212 263 320
#     4   9  18  34  56  82 112 145 179 216 262 317
#     4   9  17  31  53  80 110 144 180 217 260 314
#     4  10  18  30  50  74  98 126 167 218 267 316
#     4  10  20  34  55  81 109 142 178 219 267 318
#     4  10  21  37  56  77 104 139 180 224 269 320
#     4  10  22  36  54  78 104 138 180 226 274 320
#
# _framework density 22.275862
#
# number of rings (size 3 to 8) (size 9 to 14) (size 15 to 20)
#    0.000    2.462    0.000    3.231    0.000    8.308 
#    0.000    1.538    0.000    3.692    0.000    0.000 
#    0.000    0.000    0.000    0.000    0.000    0.000 
#
# Total GULP energy -145038.093179 kJ/mol
# GULP energy per Si atom -5578.388199 kJ/mol
# Density = 2.222516 g / cm^3
# Si number density = 22.275862 Si / 1000 Ang^3
#
#
#
# Elastic Constant Matrix: (Units=GPa)
#
#
# Indices 1 2 3 4 5 6 
#
# 1 187.8674 112.7029 7.7474 0.0000 -41.2034 0.0000
# 2 112.7029 192.6232 7.8528 0.0000 -15.2290 0.0000
# 3 7.7474 7.8528 62.1568 0.0000 -6.0486 0.0000
# 4 0.0000 0.0000 0.0000 -72.0518 0.0000 -98.3268
# 5 -41.2034 -15.2290 -6.0486 0.0000 30.1789 0.0000
# 6 0.0000 0.0000 0.0000 -98.3268 0.0000 -120.0608
#
#
#
# Elastic Compliance Matrix: (Units=1/GPa)
#
#
# Indices 1 2 3 4 5 6 
#
# 1 0.011655 -0.005807 0.000555 0.000000 0.013094 0.000000
# 2 -0.005807 0.008311 -0.000703 0.000000 -0.003875 0.000000
# 3 0.000555 -0.000703 0.016468 0.000000 0.003704 0.000000
# 4 0.000000 0.000000 0.000000 0.117989 0.000000 -0.096630
# 5 0.013094 -0.003875 0.003704 0.000000 0.049800 0.000000
# 6 0.000000 0.000000 0.000000 -0.096630 0.000000 0.070808
#
#
# Mechanical properties :
#
#
# Convention : Reuss Voigt Hill
#
# Bulk Modulus (GPa) = 40.77490 77.69488 59.23489
# Shear Modulus (GPa) = 16.94237 -11.43046 2.75596
#
# Velocity S-wave (km/s) = 2.76084 -2.26770 1.11350
# Velocity P-wave (km/s) = 5.33922 5.30072 5.32000
#
# Compressibility (1/GPa) = 0.02452489
#
# Stress axis : x y z
#
# Youngs Moduli (GPa) = 85.79653 120.31651 60.72228
#
# Poissons Ratio (x) = 0.69867 -0.03371
# Poissons Ratio (y) = 0.49822 0.04271
# Poissons Ratio (z) = -0.04763 0.08463
#
# Static dielectric constant tensor:
#      x y z
#    x 1.829160 0.000000 -0.001840 
#    y 0.000000 1.778960 0.000000 
#    z -0.001840 0.000000 1.897090 
# 
# From -- ./inp_files/36814.got.cif
#   From: 2010.05.17/outbox.cif.g08.bks.cpg/sg10_19_cif.got.tgz:36814.got - 2010.06.03 11:33:40.
