data_PCOD9142701
_publ_section_title
;
Structure prediction by ZEFSAII (Michael W. Deem and Ramdas Pophale) SiO2 
 PCOD9142701
Probable space group: P 2/M
;
_chemical_formula_sum "Si O2"
_cell_formula_units_Z 28
_cell_length_a 15.056531
_cell_length_b 7.382642
_cell_length_c 14.814611
_cell_angle_alpha 90.000000
_cell_angle_beta 49.243938
_cell_angle_gamma 90.000000
_cell_volume 1247.404425
_symmetry_space_group_name_H-M "P 2/M"
_symmetry_group_IT_number 10
_symmetry_cell_setting 'monoclinic'
loop_
_space_group_symop_operation_xyz
x,y,z
-x,y,-z
-x,-y,-z
x,-y,z
loop_
_atom_site_type_symbol
_atom_site_label
_atom_site_fract_x
_atom_site_fract_y
_atom_site_fract_z
Si Si1 0.276575 0.284070 0.439948
Si Si2 0.507602 0.279354 0.389794
Si Si3 0.381251 0.784575 0.185584
Si Si4 0.642575 0.219576 0.004077
Si Si5 0.878435 0.708038 0.950658
Si Si6 0.767124 0.720582 0.200369
Si Si7 0.895132 0.720141 0.298373
O O1 0.277795 0.500000 0.451497
O O2 0.395677 0.214289 0.408301
O O3 0.289676 0.252908 0.325106
O O4 0.163593 0.215666 0.569697
O O5 0.500000 0.228704 0.500000
O O6 0.506360 0.500000 0.387984
O O7 0.634320 0.219548 0.270139
O O8 0.349118 0.722108 0.106438
O O9 0.391846 0.000000 0.170752
O O10 0.513117 0.719707 0.122229
O O11 0.752124 0.289622 0.987073
O O12 0.647746 0.000000 0.005012
O O13 0.915306 0.500000 0.942157
O O14 0.977580 0.785603 0.818938
O O15 0.855684 0.787389 0.064837
O O16 0.766901 0.500000 0.196868
O O17 0.808091 0.766829 0.273619
O O18 0.900995 0.500000 0.300940
#
# Coordination Sequence:
#
# PCOD9142701 Si02
#       7
#     4   4   4   4   4   4   4
#     4  10  18  29  49  76 103 132 163 197 242 287
#     4   9  14  22  39  67  99 126 156 194 234 279
#     4   9  19  36  56  74  94 123 158 199 251 306
#     4   9  19  37  56  72  94 125 158 198 254 305
#     4  10  19  30  49  76 100 127 169 210 236 271
#     4   9  15  25  43  69 100 133 165 198 238 283
#     4   9  17  29  44  69 107 140 162 193 239 287
#
# _framework density 22.446608999999999
#
# number of rings (size 3 to 8) (size 9 to 14) (size 15 to 20)
#    0.000    2.714    1.429    2.143    0.000    4.000 
#    0.000    2.857    0.000    7.286    0.000    0.000 
#    0.000    0.000    0.000    0.000    0.000    0.000 
#
# Total GULP energy -156335.471636 kJ/mol
# GULP energy per Si atom -5583.409701 kJ/mol
# Density = 2.239552 g / cm^3
# Si number density = 22.446609 Si / 1000 Ang^3
#
#
#
# Elastic Constant Matrix: (Units=GPa)
#
#
# Indices 1 2 3 4 5 6 
#
# 1 12.3641 -8.5562 12.1650 0.0000 -0.8872 0.0000
# 2 -8.5562 77.7417 0.3730 0.0000 -2.4080 0.0000
# 3 12.1650 0.3730 193.9185 0.0000 4.5242 0.0000
# 4 0.0000 0.0000 0.0000 12.8495 0.0000 14.3737
# 5 -0.8872 -2.4080 4.5242 0.0000 26.7320 0.0000
# 6 0.0000 0.0000 0.0000 14.3737 0.0000 -14.3362
#
#
#
# Elastic Compliance Matrix: (Units=1/GPa)
#
#
# Indices 1 2 3 4 5 6 
#
# 1 0.094551 0.010594 -0.006071 0.000000 0.005120 0.000000
# 2 0.010594 0.014087 -0.000732 0.000000 0.001744 0.000000
# 3 -0.006071 -0.000732 0.005567 0.000000 -0.001210 0.000000
# 4 0.000000 0.000000 0.000000 0.036683 0.000000 0.036779
# 5 0.005120 0.001744 -0.001210 0.000000 0.037940 0.000000
# 6 0.000000 0.000000 0.000000 0.036779 0.000000 -0.032879
#
#
# Mechanical properties :
#
#
# Convention : Reuss Voigt Hill
#
# Bulk Modulus (GPa) = 8.21113 32.44310 20.32712
# Shear Modulus (GPa) = 26.46005 23.71856 25.08930
#
# Velocity S-wave (km/s) = 3.43709 3.25417 3.34688
# Velocity P-wave (km/s) = 4.40652 5.34830 4.90009
#
# Compressibility (1/GPa) = 0.12178589
#
# Stress axis : x y z
#
# Youngs Moduli (GPa) = 10.57626 70.98930 179.62013
#
# Poissons Ratio (x) = -0.75206 1.09052
# Poissons Ratio (y) = -0.11204 0.13155
# Poissons Ratio (z) = 0.06421 0.05199
#
# Static dielectric constant tensor:
#      x y z
#    x 1.780680 0.000000 -0.004320 
#    y 0.000000 1.881520 0.000000 
#    z -0.004320 0.000000 1.869930 
# 
# From -- ./inp_files/46129.got.cif
#   From: 2010.05.17/outbox.cif.g08.bks.cpg/sg10_24_cif.got.tgz:46129.got - 2010.06.03 11:33:40.
