data_PCOD9142410
_publ_section_title
;
Structure prediction by ZEFSAII (Michael W. Deem and Ramdas Pophale) SiO2 
 PCOD9142410
Probable space group: P 2/M
;
_chemical_formula_sum "Si O2"
_cell_formula_units_Z 32
_cell_length_a 24.599033
_cell_length_b 7.573455
_cell_length_c 18.296335
_cell_angle_alpha 90.000000
_cell_angle_beta 148.900086
_cell_angle_gamma 90.000000
_cell_volume 1760.651725
_symmetry_space_group_name_H-M "P 2/M"
_symmetry_group_IT_number 10
_symmetry_cell_setting 'monoclinic'
loop_
_space_group_symop_operation_xyz
x,y,z
-x,y,-z
-x,-y,-z
x,-y,z
loop_
_atom_site_type_symbol
_atom_site_label
_atom_site_fract_x
_atom_site_fract_y
_atom_site_fract_z
Si Si1 0.517219 0.784581 0.434920
Si Si2 0.868235 0.214740 0.961784
Si Si3 0.896880 0.705527 0.719438
Si Si4 0.249285 0.794365 0.317605
Si Si5 0.942592 0.717204 0.611141
Si Si6 0.175479 0.712102 0.831939
Si Si7 0.123254 0.705481 0.617902
Si Si8 0.303531 0.210850 0.117507
O O1 0.500000 0.739165 0.500000
O O2 0.632543 0.720741 0.543732
O O3 0.417567 0.721339 0.273257
O O4 0.516125 0.000000 0.429247
O O5 0.821326 0.277407 0.830329
O O6 0.788000 0.274945 0.932875
O O7 0.872871 0.000000 0.967508
O O8 0.985882 0.276503 0.112996
O O9 0.870677 0.500000 0.683899
O O10 0.813634 0.784285 0.679650
O O11 0.901491 0.777808 0.642204
O O12 0.263015 0.000000 0.314201
O O13 0.942754 0.500000 0.611180
O O14 0.877334 0.778390 0.464891
O O15 0.064214 0.772532 0.738877
O O16 0.167316 0.500000 0.816893
O O17 0.182651 0.781326 0.756956
O O18 0.268204 0.753019 0.994406
O O19 0.154500 0.500000 0.647156
O O20 0.000000 0.708607 0.500000
O O21 0.305611 0.000000 0.129420
#
# Coordination Sequence:
#
# PCOD9142410 Si02
#       8
#     4   4   4   4   4   4   4   4
#     4   9  16  31  52  68  82 111 157 197 225 258
#     4  10  19  31  47  66  89 119 154 187 218 260
#     4  11  21  31  45  67  96 123 148 181 224 271
#     4  10  20  34  50  65  85 117 159 196 220 255
#     4   8  14  25  41  63  89 119 150 178 212 259
#     4   9  15  26  44  66  91 118 147 178 219 270
#     4   7  11  21  40  62  84 114 151 180 204 255
#     4  10  18  28  47  71  91 114 147 189 230 263
#
# _framework density 18.175087999999999
#
# number of rings (size 3 to 8) (size 9 to 14) (size 15 to 20)
#    0.000    2.750    2.500    2.250    0.000    2.000 
#    0.000    0.625    0.000    5.625    0.000    0.875 
#    0.000    7.000    0.000    0.000    0.000    0.000 
#
# Total GULP energy -178361.304306 kJ/mol
# GULP energy per Si atom -5573.790760 kJ/mol
# Density = 1.813372 g / cm^3
# Si number density = 18.175088 Si / 1000 Ang^3
#
#
#
# Elastic Constant Matrix: (Units=GPa)
#
#
# Indices 1 2 3 4 5 6 
#
# 1 106.4902 -6.3344 86.3673 0.0000 -12.8532 0.0000
# 2 -6.3344 35.2369 -6.8697 0.0000 0.3567 0.0000
# 3 86.3673 -6.8697 129.9084 0.0000 -22.9185 0.0000
# 4 0.0000 0.0000 0.0000 -6.5342 0.0000 -21.4988
# 5 -12.8532 0.3567 -22.9185 0.0000 32.3584 0.0000
# 6 0.0000 0.0000 0.0000 -21.4988 0.0000 -2.3321
#
#
#
# Elastic Compliance Matrix: (Units=1/GPa)
#
#
# Indices 1 2 3 4 5 6 
#
# 1 0.020497 0.000997 -0.013874 0.000000 -0.001695 0.000000
# 2 0.000997 0.028745 0.000996 0.000000 0.000784 0.000000
# 3 -0.013874 0.000996 0.018285 0.000000 0.007429 0.000000
# 4 0.000000 0.000000 0.000000 0.005218 0.000000 -0.048100
# 5 -0.001695 0.000784 0.007429 0.000000 0.035483 0.000000
# 6 0.000000 0.000000 0.000000 -0.048100 0.000000 0.014619
#
#
# Mechanical properties :
#
#
# Convention : Reuss Voigt Hill
#
# Bulk Modulus (GPa) = 22.84954 46.44020 34.64487
# Shear Modulus (GPa) = 31.01806 17.92992 24.47399
#
# Velocity S-wave (km/s) = 4.13561 3.14428 3.67354
# Velocity P-wave (km/s) = 5.95009 6.22809 6.09068
#
# Compressibility (1/GPa) = 0.04376455
#
# Stress axis : x y z
#
# Youngs Moduli (GPa) = 48.78730 34.78898 54.69112
#
# Poissons Ratio (x) = -0.03469 0.75876
# Poissons Ratio (y) = -0.04865 -0.05445
# Poissons Ratio (z) = 0.67685 -0.03463
#
# Static dielectric constant tensor:
#      x y z
#    x 1.621830 0.000000 -0.037830 
#    y 0.000000 1.700740 0.000000 
#    z -0.037830 0.000000 1.633710 
# 
# From -- ./inp_files/54867.got.cif
#   From: 2010.05.17/outbox.cif.g08.bks.cpg/sg10_28_cif.got.tgz:54867.got - 2010.06.03 11:33:40.
