data_PCOD9142440
_publ_section_title
;
Structure prediction by ZEFSAII (Michael W. Deem and Ramdas Pophale) SiO2 
 PCOD9142440
Probable space group: P 2/M
;
_chemical_formula_sum "Si O2"
_cell_formula_units_Z 32
_cell_length_a 13.389037
_cell_length_b 15.274458
_cell_length_c 11.458771
_cell_angle_alpha 90.000000
_cell_angle_beta 146.697126
_cell_angle_gamma 90.000000
_cell_volume 1286.698359
_symmetry_space_group_name_H-M "P 2/M"
_symmetry_group_IT_number 10
_symmetry_cell_setting 'monoclinic'
loop_
_space_group_symop_operation_xyz
x,y,z
-x,y,-z
-x,-y,-z
x,-y,z
loop_
_atom_site_type_symbol
_atom_site_label
_atom_site_fract_x
_atom_site_fract_y
_atom_site_fract_z
Si Si1 0.194934 0.773443 0.043466
Si Si2 0.721769 0.598488 0.729364
Si Si3 0.599969 0.788821 0.352548
Si Si4 0.276349 0.403780 0.531360
Si Si5 0.293490 0.095928 0.760025
Si Si6 0.281693 0.405850 0.799887
Si Si7 0.284390 0.098904 0.322069
Si Si8 0.117789 0.237163 0.729028
O O1 0.218108 0.682621 0.136974
O O2 0.384600 0.800305 0.163751
O O3 0.174603 0.853678 0.111987
O O4 0.053971 0.763193 0.799720
O O5 0.500000 0.605857 0.500000
O O6 0.758181 0.500000 0.812297
O O7 0.807576 0.600306 0.681659
O O8 0.614099 0.685202 0.360865
O O9 0.686584 0.834323 0.324220
O O10 0.704732 0.833680 0.561256
O O11 0.369572 0.500000 0.621246
O O12 0.194012 0.401121 0.582750
O O13 0.190951 0.141081 0.766711
O O14 0.221598 0.000000 0.656180
O O15 0.500000 0.085570 0.000000
O O16 0.224848 0.500000 0.795254
O O17 0.246775 0.321633 0.844096
O O18 0.500000 0.407840 0.000000
O O19 0.500000 0.092975 0.500000
O O20 0.223899 0.000000 0.289528
O O21 0.000000 0.253807 0.500000
#
# Coordination Sequence:
#
# PCOD9142440 Si02
#       8
#     4   4   4   4   4   4   4   4
#     4  11  20  33  53  80 118 160 189 237 294 355
#     4  10  18  28  48  84 121 153 187 235 299 353
#     4  11  17  32  58  87 118 146 189 248 301 354
#     4  10  18  29  52  84 117 148 186 235 291 349
#     4  11  23  40  64  88 112 152 204 260 307 352
#     4  10  21  38  63  90 118 158 204 252 298 346
#     4   9  18  30  49  82 115 146 183 239 307 358
#     4  12  26  41  59  86 124 165 201 243 297 363
#
# _framework density 24.869852000000002
#
# number of rings (size 3 to 8) (size 9 to 14) (size 15 to 20)
#    0.000    1.500    5.000    1.875    0.000    2.000 
#    0.000    0.000    0.000    3.000    0.000    4.375 
#    0.000    0.000    0.000    0.000    0.000    0.000 
#
# Total GULP energy -178551.797179 kJ/mol
# GULP energy per Si atom -5579.743662 kJ/mol
# Density = 2.481325 g / cm^3
# Si number density = 24.869852 Si / 1000 Ang^3
#
#
#
# Elastic Constant Matrix: (Units=GPa)
#
#
# Indices 1 2 3 4 5 6 
#
# 1 72.3109 47.6128 25.3956 0.0000 -16.7549 0.0000
# 2 47.6128 186.7829 51.2365 0.0000 -14.3596 0.0000
# 3 25.3956 51.2365 101.4253 0.0000 -33.5916 0.0000
# 4 0.0000 0.0000 0.0000 14.0080 0.0000 -8.6820
# 5 -16.7549 -14.3596 -33.5916 0.0000 39.0614 0.0000
# 6 0.0000 0.0000 0.0000 -8.6820 0.0000 37.0360
#
#
#
# Elastic Compliance Matrix: (Units=1/GPa)
#
#
# Indices 1 2 3 4 5 6 
#
# 1 0.017990 -0.003982 -0.000590 0.000000 0.005745 0.000000
# 2 -0.003982 0.007106 -0.003206 0.000000 -0.001853 0.000000
# 3 -0.000590 -0.003206 0.015594 0.000000 0.011979 0.000000
# 4 0.000000 0.000000 0.000000 0.083523 0.000000 0.019579
# 5 0.005745 -0.001853 0.011979 0.000000 0.037685 0.000000
# 6 0.000000 0.000000 0.000000 0.019579 0.000000 0.031591
#
#
# Mechanical properties :
#
#
# Convention : Reuss Voigt Hill
#
# Bulk Modulus (GPa) = 39.78852 67.66766 53.72809
# Shear Modulus (GPa) = 22.99665 33.77268 28.38467
#
# Velocity S-wave (km/s) = 3.04415 3.68907 3.38202
# Velocity P-wave (km/s) = 5.32816 6.73895 6.07465
#
# Compressibility (1/GPa) = 0.02513288
#
# Stress axis : x y z
#
# Youngs Moduli (GPa) = 55.58750 140.72627 64.12599
#
# Poissons Ratio (x) = 0.56041 0.03783
# Poissons Ratio (y) = 0.22136 0.20561
# Poissons Ratio (z) = 0.03279 0.45122
#
# Static dielectric constant tensor:
#      x y z
#    x 2.007930 0.000000 0.043030 
#    y 0.000000 1.963690 0.000000 
#    z 0.043030 0.000000 2.144690 
# 
# From -- ./inp_files/54073.got.cif
#   From: 2010.05.17/outbox.cif.g08.bks.cpg/sg10_28_cif.got.tgz:54073.got - 2010.06.03 11:33:40.
