data_PCOD9142907
_publ_section_title
;
Structure prediction by ZEFSAII (Michael W. Deem and Ramdas Pophale) SiO2 
 PCOD9142907
Probable space group: P 2/M
;
_chemical_formula_sum "Si O2"
_cell_formula_units_Z 32
_cell_length_a 31.747929
_cell_length_b 8.820972
_cell_length_c 22.036765
_cell_angle_alpha 90.000000
_cell_angle_beta 19.179924
_cell_angle_gamma 90.000000
_cell_volume 2027.506640
_symmetry_space_group_name_H-M "P 2/M"
_symmetry_group_IT_number 10
_symmetry_cell_setting 'monoclinic'
loop_
_space_group_symop_operation_xyz
x,y,z
-x,y,-z
-x,-y,-z
x,-y,z
loop_
_atom_site_type_symbol
_atom_site_label
_atom_site_fract_x
_atom_site_fract_y
_atom_site_fract_z
Si Si1 0.372549 0.675167 0.631131
Si Si2 0.305838 0.317792 0.275703
Si Si3 0.991929 0.681088 0.327021
Si Si4 0.521148 0.816955 0.064449
Si Si5 0.466280 0.817557 0.689550
Si Si6 0.616001 0.184289 0.067101
Si Si7 0.087852 0.816711 0.323210
Si Si8 0.218306 0.180723 0.944805
O O1 0.500000 0.683369 0.500000
O O2 0.337745 0.500000 0.671241
O O3 0.417841 0.746987 0.506323
O O4 0.264892 0.762169 0.815832
O O5 0.320449 0.500000 0.253779
O O6 0.156208 0.279737 0.483653
O O7 0.367505 0.246062 0.131129
O O8 0.390222 0.250588 0.215617
O O9 0.002811 0.500000 0.314189
O O10 0.034430 0.748383 0.333888
O O11 0.088584 0.745442 0.145285
O O12 0.518997 0.000000 0.063467
O O13 0.550139 0.770116 0.093953
O O14 0.453248 0.766425 0.776774
O O15 0.332848 0.779203 0.836490
O O16 0.477620 0.000000 0.672203
O O17 0.616268 0.000000 0.067565
O O18 0.764978 0.231090 0.866624
O O19 0.000000 0.774187 0.500000
O O20 0.085964 0.000000 0.320524
O O21 0.206627 0.000000 0.960827
#
# Coordination Sequence:
#
# PCOD9142907 Si02
#       8
#     4   4   4   4   4   4   4   4
#     4   9  17  28  43  66  97 127 160 196 232 276
#     4  10  21  36  50  67  97 129 160 203 253 291
#     4  11  22  33  47  69  99 131 162 199 242 287
#     4  10  19  33  55  75  91 119 166 212 245 282
#     4   9  16  29  46  66  96 129 160 191 235 287
#     4   9  17  30  47  72  99 124 156 201 245 281
#     4  10  19  32  49  68  95 130 163 195 237 289
#     4  10  18  30  49  69  94 129 164 196 236 285
#
# _framework density 15.782932000000001
#
# number of rings (size 3 to 8) (size 9 to 14) (size 15 to 20)
#    0.000    2.250    1.250    3.375    0.000    5.250 
#    0.000    2.500    0.000    0.000    0.000    0.875 
#    0.000    7.000    0.000    0.000    0.000    0.000 
#
# Total GULP energy -178488.681823 kJ/mol
# GULP energy per Si atom -5577.771307 kJ/mol
# Density = 1.574701 g / cm^3
# Si number density = 15.782932 Si / 1000 Ang^3
#
#
#
# Elastic Constant Matrix: (Units=GPa)
#
#
# Indices 1 2 3 4 5 6 
#
# 1 122.8482 36.9010 85.5522 0.0000 18.1405 0.0000
# 2 36.9010 36.8728 39.4436 0.0000 4.2985 0.0000
# 3 85.5522 39.4436 119.3871 0.0000 18.6213 0.0000
# 4 0.0000 0.0000 0.0000 25.3636 0.0000 -0.4703
# 5 18.1405 4.2985 18.6213 0.0000 21.9979 0.0000
# 6 0.0000 0.0000 0.0000 -0.4703 0.0000 2.9362
#
#
#
# Elastic Compliance Matrix: (Units=1/GPa)
#
#
# Indices 1 2 3 4 5 6 
#
# 1 0.017595 -0.006768 -0.009580 0.000000 -0.005077 0.000000
# 2 -0.006768 0.044867 -0.010918 0.000000 0.006056 0.000000
# 3 -0.009580 -0.010918 0.019912 0.000000 -0.006822 0.000000
# 4 0.000000 0.000000 0.000000 0.039544 0.000000 0.006334
# 5 -0.005077 0.006056 -0.006822 0.000000 0.054237 0.000000
# 6 0.000000 0.000000 0.000000 0.006334 0.000000 0.341596
#
#
# Mechanical properties :
#
#
# Convention : Reuss Voigt Hill
#
# Bulk Modulus (GPa) = 35.91779 66.98907 51.45343
# Shear Modulus (GPa) = 8.59751 17.87360 13.23556
#
# Velocity S-wave (km/s) = 2.33649 3.36886 2.89900
# Velocity P-wave (km/s) = 5.48504 7.59397 6.62398
#
# Compressibility (1/GPa) = 0.02784136
#
# Stress axis : x y z
#
# Youngs Moduli (GPa) = 56.83592 22.28833 50.21973
#
# Poissons Ratio (x) = 0.15085 0.48112
# Poissons Ratio (y) = 0.38466 0.54830
# Poissons Ratio (z) = 0.54450 0.24334
#
# Static dielectric constant tensor:
#      x y z
#    x 1.514850 0.000000 0.009040 
#    y 0.000000 1.529890 0.000000 
#    z 0.009040 0.000000 1.515540 
# 
# From -- ./inp_files/87178.got.cif
#   From: 2010.05.17/outbox.cif.g08.bks.cpg/sg10_44_cif.got.tgz:87178.got - 2010.06.03 11:33:40.
