data_PCOD9142463
_publ_section_title
;
Structure prediction by ZEFSAII (Michael W. Deem and Ramdas Pophale) SiO2 
 PCOD9142463
Probable space group: P 2/M
;
_chemical_formula_sum "Si O2"
_cell_formula_units_Z 30
_cell_length_a 28.878357
_cell_length_b 13.151579
_cell_length_c 30.636960
_cell_angle_alpha 90.000000
_cell_angle_beta 170.345504
_cell_angle_gamma 90.000000
_cell_volume 1951.398236
_symmetry_space_group_name_H-M "P 2/M"
_symmetry_group_IT_number 10
_symmetry_cell_setting 'monoclinic'
loop_
_space_group_symop_operation_xyz
x,y,z
-x,y,-z
-x,-y,-z
x,-y,z
loop_
_atom_site_type_symbol
_atom_site_label
_atom_site_fract_x
_atom_site_fract_y
_atom_site_fract_z
Si Si1 0.840316 0.688780 0.954814
Si Si2 0.046366 0.622862 0.325174
Si Si3 0.747108 0.375911 0.135460
Si Si4 0.500000 0.221946 0.500000
Si Si5 0.314149 0.623480 0.093682
Si Si6 0.113874 0.376105 0.558745
Si Si7 0.522890 0.384857 0.457196
Si Si8 0.008050 0.115774 0.954239
O O1 0.771980 0.679197 0.942028
O O2 0.613975 0.625522 0.717349
O O3 0.152821 0.645075 0.239813
O O4 0.828798 0.800752 0.922077
O O5 0.034067 0.500000 0.315003
O O6 0.893867 0.658850 0.227332
O O7 0.368945 0.648691 0.623173
O O8 0.883689 0.652572 0.130283
O O9 0.748328 0.500000 0.136034
O O10 0.918696 0.344391 0.337518
O O11 0.428958 0.344276 0.843496
O O12 0.367380 0.303454 0.343494
O O13 0.692748 0.148167 0.651399
O O14 0.293593 0.500000 0.081150
O O15 0.112615 0.500000 0.557956
O O16 0.000000 0.343257 0.500000
O O17 0.488183 0.500000 0.439702
O O18 0.075539 0.000000 0.006359
O O19 0.000000 0.124702 0.000000
#
# Coordination Sequence:
#
# PCOD9142463 Si02
#       8
#     4   4   4   2   4   4   4   4
#     4  11  22  35  50  72  91 117 146 176 216 267
#     4   9  17  27  41  57  74 104 137 172 212 252
#     4   9  15  23  33  47  67  92 132 171 205 252
#     4  10  20  34  50  74  92 118 144 174 202 258
#     4  10  18  29  43  59  82 106 133 168 215 261
#     4   9  15  21  30  45  68  97 127 168 217 252
#     4  11  21  33  49  69  96 120 141 167 205 255
#     4  10  20  37  55  71  91 116 145 181 216 257
#
# _framework density 15.373592
#
# number of rings (size 3 to 8) (size 9 to 14) (size 15 to 20)
#    0.000    2.133    1.333    3.600    0.000    5.867 
#    0.000    2.000    0.000    0.000    0.000    0.000 
#    0.000    0.000    0.000    0.000    0.000    0.000 
#
# Total GULP energy -167073.379127 kJ/mol
# GULP energy per Si atom -5569.112638 kJ/mol
# Density = 1.533860 g / cm^3
# Si number density = 15.373592 Si / 1000 Ang^3
#
#
#
# Elastic Constant Matrix: (Units=GPa)
#
#
# Indices 1 2 3 4 5 6 
#
# 1 69.9310 13.6514 1.7567 0.0000 -1.3314 0.0000
# 2 13.6514 60.3594 9.1960 0.0000 1.0732 0.0000
# 3 1.7567 9.1960 51.4487 0.0000 -6.2080 0.0000
# 4 0.0000 0.0000 0.0000 4.9578 0.0000 -0.9015
# 5 -1.3314 1.0732 -6.2080 0.0000 29.5596 0.0000
# 6 0.0000 0.0000 0.0000 -0.9015 0.0000 4.1580
#
#
#
# Elastic Compliance Matrix: (Units=1/GPa)
#
#
# Indices 1 2 3 4 5 6 
#
# 1 0.014981 -0.003434 0.000204 0.000000 0.000842 0.000000
# 2 -0.003434 0.017867 -0.003256 0.000000 -0.001487 0.000000
# 3 0.000204 -0.003256 0.020548 0.000000 0.004443 0.000000
# 4 0.000000 0.000000 0.000000 0.209978 0.000000 0.045525
# 5 0.000842 -0.001487 0.004443 0.000000 0.034855 0.000000
# 6 0.000000 0.000000 0.000000 0.045525 0.000000 0.250370
#
#
# Mechanical properties :
#
#
# Convention : Reuss Voigt Hill
#
# Bulk Modulus (GPa) = 24.73800 25.66079 25.19939
# Shear Modulus (GPa) = 8.69497 18.21075 13.45286
#
# Velocity S-wave (km/s) = 2.38077 3.44546 2.96136
# Velocity P-wave (km/s) = 4.86658 5.70578 5.30281
#
# Compressibility (1/GPa) = 0.04042364
#
# Stress axis : x y z
#
# Youngs Moduli (GPa) = 66.75061 55.97027 48.66675
#
# Poissons Ratio (x) = 0.19222 -0.00993
# Poissons Ratio (y) = 0.22924 0.15844
# Poissons Ratio (z) = -0.01362 0.18222
#
# Static dielectric constant tensor:
#      x y z
#    x 1.537750 0.000000 -0.024100 
#    y 0.000000 1.479000 0.000000 
#    z -0.024100 0.000000 1.580570 
# 
# From -- ./inp_files/95927.got.cif
#   From: 2010.05.17/outbox.cif.g08.bks.cpg/sg10_48_cif.got.tgz:95927.got - 2010.06.03 11:33:40.
