data_PCOD9142266
_publ_section_title
;
Structure prediction by ZEFSAII (Michael W. Deem and Ramdas Pophale) SiO2 
 PCOD9142266
Probable space group: P 2/M
;
_chemical_formula_sum "Si O2"
_cell_formula_units_Z 24
_cell_length_a 11.928945
_cell_length_b 10.939925
_cell_length_c 23.855149
_cell_angle_alpha 90.000000
_cell_angle_beta 23.518792
_cell_angle_gamma 90.000000
_cell_volume 1242.297586
_symmetry_space_group_name_H-M "P 2/M"
_symmetry_group_IT_number 10
_symmetry_cell_setting 'monoclinic'
loop_
_space_group_symop_operation_xyz
x,y,z
-x,y,-z
-x,-y,-z
x,-y,z
loop_
_atom_site_type_symbol
_atom_site_label
_atom_site_fract_x
_atom_site_fract_y
_atom_site_fract_z
Si Si1 0.337396 0.637416 0.703870
Si Si2 0.617877 0.860765 0.509392
Si Si3 0.661413 0.368000 0.163668
Si Si4 0.739972 0.129420 0.076188
Si Si5 0.190335 0.776140 0.074117
Si Si6 0.788218 0.859514 0.812372
O O1 0.418922 0.500000 0.648371
O O2 0.490237 0.750406 0.603640
O O3 0.385480 0.646127 0.748578
O O4 0.005347 0.658644 0.843870
O O5 0.500000 0.854730 0.500000
O O6 0.952331 0.845081 0.347978
O O7 0.560584 0.000000 0.556464
O O8 0.547380 0.500000 0.197545
O O9 0.567140 0.249470 0.172567
O O10 0.000000 0.373349 0.000000
O O11 0.585818 0.000000 0.150259
O O12 0.862211 0.146452 0.957972
O O13 0.000000 0.125052 0.000000
O O14 0.115372 0.838572 0.167596
O O15 0.528539 0.769187 0.920761
O O16 0.684694 0.000000 0.855728
#
# Coordination Sequence:
#
# PCOD9142266 Si02
#       6
#     4   4   4   4   4   4
#     4  11  22  36  57  84 113 148 186 231 280 330
#     4  10  21  37  57  81 109 148 194 231 272 332
#     4   9  17  32  50  75 108 140 176 222 277 327
#     4  10  18  27  48  85 112 131 172 231 279 317
#     4  11  19  34  55  84 115 145 181 229 279 334
#     4  10  21  36  55  81 116 155 183 220 283 340
#
# _framework density 19.319042
#
# number of rings (size 3 to 8) (size 9 to 14) (size 15 to 20)
#    0.000    1.833    5.000    2.000    0.000    2.333 
#    0.000    2.500    0.000    1.000    0.000    5.833 
#    0.000    0.000    0.000    0.000    0.000    0.000 
#
# Total GULP energy -133666.173665 kJ/mol
# GULP energy per Si atom -5569.423903 kJ/mol
# Density = 1.927507 g / cm^3
# Si number density = 19.319042 Si / 1000 Ang^3
#
#
#
# Elastic Constant Matrix: (Units=GPa)
#
#
# Indices 1 2 3 4 5 6 
#
# 1 60.1790 21.4912 18.1146 0.0000 19.9840 0.0000
# 2 21.4912 187.4415 59.2918 0.0000 18.5212 0.0000
# 3 18.1146 59.2918 76.1108 0.0000 4.2157 0.0000
# 4 0.0000 0.0000 0.0000 20.3309 0.0000 17.0092
# 5 19.9840 18.5212 4.2157 0.0000 23.9287 0.0000
# 6 0.0000 0.0000 0.0000 17.0092 0.0000 11.8526
#
#
#
# Elastic Compliance Matrix: (Units=1/GPa)
#
#
# Indices 1 2 3 4 5 6 
#
# 1 0.024700 0.000907 -0.005457 0.000000 -0.020368 0.000000
# 2 0.000907 0.007641 -0.005856 0.000000 -0.005640 0.000000
# 3 -0.005457 -0.005856 0.018678 0.000000 0.005799 0.000000
# 4 0.000000 0.000000 0.000000 -0.245189 0.000000 0.351863
# 5 -0.020368 -0.005640 0.005799 0.000000 0.062145 0.000000
# 6 0.000000 0.000000 0.000000 0.351863 0.000000 -0.420577
#
#
# Mechanical properties :
#
#
# Convention : Reuss Voigt Hill
#
# Bulk Modulus (GPa) = 33.10498 57.94737 45.52617
# Shear Modulus (GPa) = -9.58364 26.21135 8.31385
#
# Velocity S-wave (km/s) = -2.22968 3.68742 2.07673
# Velocity P-wave (km/s) = 3.24723 6.94187 5.41913
#
# Compressibility (1/GPa) = 0.03020694
#
# Stress axis : x y z
#
# Youngs Moduli (GPa) = 40.48629 130.88126 53.53930
#
# Poissons Ratio (x) = -0.11868 0.29215
# Poissons Ratio (y) = -0.03671 0.31350
# Poissons Ratio (z) = 0.22093 0.76638
#
# Static dielectric constant tensor:
#      x y z
#    x 1.692560 0.000000 -0.015500 
#    y 0.000000 1.732060 0.000000 
#    z -0.015500 0.000000 1.694240 
# 
# From -- ./inp_files/83816.got.cif
#   From: 2010.05.17/outbox.cif.g08.bks.cpg/sg10_42_cif.got.tgz:83816.got - 2010.06.03 11:33:40.
