data_PCOD9142306
_publ_section_title
;
Structure prediction by ZEFSAII (Michael W. Deem and Ramdas Pophale) SiO2 
 PCOD9142306
Probable space group: P 2/M
;
_chemical_formula_sum "Si O2"
_cell_formula_units_Z 28
_cell_length_a 15.813759
_cell_length_b 12.699650
_cell_length_c 8.179999
_cell_angle_alpha 90.000000
_cell_angle_beta 70.038161
_cell_angle_gamma 90.000000
_cell_volume 1544.084652
_symmetry_space_group_name_H-M "P 2/M"
_symmetry_group_IT_number 10
_symmetry_cell_setting 'monoclinic'
loop_
_space_group_symop_operation_xyz
x,y,z
-x,y,-z
-x,-y,-z
x,-y,z
loop_
_atom_site_type_symbol
_atom_site_label
_atom_site_fract_x
_atom_site_fract_y
_atom_site_fract_z
Si Si1 0.964508 0.623202 0.783827
Si Si2 0.700665 0.300302 0.443397
Si Si3 0.594858 0.875881 0.342156
Si Si4 0.860819 0.374948 0.507753
Si Si5 0.555884 0.618635 0.759232
Si Si6 0.382616 0.717772 0.956310
Si Si7 0.792710 0.376166 0.059422
O O1 0.981429 0.500000 0.807742
O O2 0.905516 0.630472 0.656551
O O3 0.062306 0.664434 0.669486
O O4 0.895267 0.662656 0.966434
O O5 0.669787 0.187876 0.395547
O O6 0.771063 0.308011 0.544952
O O7 0.610411 0.358562 0.560171
O O8 0.753844 0.359534 0.265021
O O9 0.500000 0.859163 0.500000
O O10 0.597185 0.823863 0.159163
O O11 0.611095 0.000000 0.323672
O O12 0.841404 0.500000 0.493790
O O13 0.575803 0.500000 0.802373
O O14 0.449196 0.635430 0.819404
O O15 0.589093 0.702550 0.874144
O O16 0.279623 0.684794 0.003273
O O17 0.791785 0.500000 0.018333
#
# Coordination Sequence:
#
# PCOD9142306 Si02
#       7
#     4   4   4   4   4   4   4
#     4   8  16  29  46  68 103 147 176 201 238 293
#     4  11  21  31  50  77  99 136 172 209 257 309
#     4  10  21  41  57  69  96 132 174 230 267 295
#     4   9  16  29  47  72 105 139 175 207 245 300
#     4  11  20  32  48  75 112 138 163 200 247 310
#     4  10  20  33  50  72  96 137 174 206 253 305
#     4  10  18  28  43  69 103 139 173 203 243 301
#
# _framework density 18.133721999999999
#
# number of rings (size 3 to 8) (size 9 to 14) (size 15 to 20)
#    0.000    2.143    1.429    4.714    0.000    1.714 
#    0.000    6.429    0.000    0.000    0.000   10.000 
#    0.000    0.000    0.000    0.286    0.000    0.000 
#
# Total GULP energy -156010.717471 kJ/mol
# GULP energy per Si atom -5571.811338 kJ/mol
# Density = 1.809245 g / cm^3
# Si number density = 18.133722 Si / 1000 Ang^3
#
#
#
# Elastic Constant Matrix: (Units=GPa)
#
#
# Indices 1 2 3 4 5 6 
#
# 1 49.5412 21.3655 6.4641 0.0000 -8.7793 0.0000
# 2 21.3655 83.2119 18.5493 0.0000 -0.4570 0.0000
# 3 6.4641 18.5493 88.3053 0.0000 -20.4443 0.0000
# 4 0.0000 0.0000 0.0000 19.8561 0.0000 0.3679
# 5 -8.7793 -0.4570 -20.4443 0.0000 37.0532 0.0000
# 6 0.0000 0.0000 0.0000 0.3679 0.0000 7.9296
#
#
#
# Elastic Compliance Matrix: (Units=1/GPa)
#
#
# Indices 1 2 3 4 5 6 
#
# 1 0.023865 -0.006316 0.000999 0.000000 0.006128 0.000000
# 2 -0.006316 0.014353 -0.003277 0.000000 -0.003127 0.000000
# 3 0.000999 -0.003277 0.013740 0.000000 0.007777 0.000000
# 4 0.000000 0.000000 0.000000 0.050406 0.000000 -0.002338
# 5 0.006128 -0.003127 0.007777 0.000000 0.032693 0.000000
# 6 0.000000 0.000000 0.000000 -0.002338 0.000000 0.126219
#
#
# Mechanical properties :
#
#
# Convention : Reuss Voigt Hill
#
# Bulk Modulus (GPa) = 28.76165 34.86848 31.81506
# Shear Modulus (GPa) = 17.23821 24.61307 20.92564
#
# Velocity S-wave (km/s) = 3.08655 3.68816 3.40069
# Velocity P-wave (km/s) = 5.34768 6.11613 5.74477
#
# Compressibility (1/GPa) = 0.03476852
#
# Stress axis : x y z
#
# Youngs Moduli (GPa) = 41.90253 69.67399 72.77945
#
# Poissons Ratio (x) = 0.44010 -0.07267
# Poissons Ratio (y) = 0.26468 0.23847
# Poissons Ratio (z) = -0.04184 0.22829
#
# Static dielectric constant tensor:
#      x y z
#    x 1.683600 0.000000 0.032180 
#    y 0.000000 1.565950 0.000000 
#    z 0.032180 0.000000 1.726540 
# 
# From -- ./inp_files/28225.got.cif
#   From: 2010.05.17/outbox.cif.g08.bks.cpg/sg10_15_cif.got.tgz:28225.got - 2010.06.03 11:33:40.
