data_PCOD9142681
_publ_section_title
;
Structure prediction by ZEFSAII (Michael W. Deem and Ramdas Pophale) SiO2 
 PCOD9142681
Probable space group: P 2/M
;
_chemical_formula_sum "Si O2"
_cell_formula_units_Z 28
_cell_length_a 7.419575
_cell_length_b 14.175786
_cell_length_c 13.587195
_cell_angle_alpha 90.000000
_cell_angle_beta 53.327141
_cell_angle_gamma 90.000000
_cell_volume 1146.204509
_symmetry_space_group_name_H-M "P 2/M"
_symmetry_group_IT_number 10
_symmetry_cell_setting 'monoclinic'
loop_
_space_group_symop_operation_xyz
x,y,z
-x,y,-z
-x,-y,-z
x,-y,z
loop_
_atom_site_type_symbol
_atom_site_label
_atom_site_fract_x
_atom_site_fract_y
_atom_site_fract_z
Si Si1 0.125205 0.607341 0.365998
Si Si2 0.884846 0.201269 0.252583
Si Si3 0.446361 0.390835 0.900406
Si Si4 0.215902 0.790581 0.987600
Si Si5 0.707664 0.395504 0.356690
Si Si6 0.493582 0.889990 0.749520
Si Si7 0.262343 0.890183 0.516919
O O1 0.184546 0.500000 0.380017
O O2 0.349205 0.640343 0.237837
O O3 0.000000 0.653256 0.500000
O O4 0.935196 0.600354 0.345321
O O5 0.751037 0.300510 0.281394
O O6 0.729524 0.126277 0.245485
O O7 0.891474 0.174470 0.364825
O O8 0.132323 0.203036 0.126185
O O9 0.396083 0.500000 0.898020
O O10 0.247623 0.318328 0.950967
O O11 0.500000 0.383469 0.000000
O O12 0.432386 0.841932 0.872690
O O13 0.000000 0.828357 0.000000
O O14 0.500000 0.381840 0.500000
O O15 0.678525 0.500000 0.319571
O O16 0.688496 0.857409 0.610358
O O17 0.530393 0.000000 0.753455
O O18 0.500000 0.886773 0.500000
O O19 0.191016 0.000000 0.538868
#
# Coordination Sequence:
#
# PCOD9142681 Si02
#       7
#     4   4   4   4   4   4   4
#     4   9  19  35  54  76 102 141 189 226 267 323
#     4  10  18  29  48  76 109 140 179 220 265 321
#     4  10  21  39  58  74 106 154 192 222 263 325
#     4  10  22  34  51  83 114 143 183 231 278 319
#     4  10  20  33  52  81 116 146 177 226 277 319
#     4   9  18  33  51  75 110 144 175 223 285 337
#     4   8  14  26  46  70  98 135 175 215 263 321
#
# _framework density 24.428447999999999
#
# number of rings (size 3 to 8) (size 9 to 14) (size 15 to 20)
#    0.000    2.571    0.000    3.429    0.000    8.571 
#    0.000    5.000    0.000    0.429    0.000    2.000 
#    0.000   17.714    0.000    0.000    0.000    0.000 
#
# Total GULP energy -156212.992502 kJ/mol
# GULP energy per Si atom -5579.035447 kJ/mol
# Density = 2.437285 g / cm^3
# Si number density = 24.428448 Si / 1000 Ang^3
#
#
#
# Elastic Constant Matrix: (Units=GPa)
#
#
# Indices 1 2 3 4 5 6 
#
# 1 42.2447 0.2405 14.2408 0.0000 -3.2668 0.0000
# 2 0.2405 78.7990 83.0535 0.0000 -0.7010 0.0000
# 3 14.2408 83.0535 266.3652 0.0000 -9.2972 0.0000
# 4 0.0000 0.0000 0.0000 -17.9722 0.0000 3.9526
# 5 -3.2668 -0.7010 -9.2972 0.0000 14.8596 0.0000
# 6 0.0000 0.0000 0.0000 3.9526 0.0000 13.9131
#
#
#
# Elastic Compliance Matrix: (Units=1/GPa)
#
#
# Indices 1 2 3 4 5 6 
#
# 1 0.024580 0.001768 -0.001711 0.000000 0.004416 0.000000
# 2 0.001768 0.019149 -0.006155 0.000000 -0.002559 0.000000
# 3 -0.001711 -0.006155 0.005870 0.000000 0.003006 0.000000
# 4 0.000000 0.000000 0.000000 -0.052369 0.000000 0.014878
# 5 0.004416 -0.002559 0.003006 0.000000 0.070027 0.000000
# 6 0.000000 0.000000 0.000000 0.014878 0.000000 0.067648
#
#
# Mechanical properties :
#
#
# Convention : Reuss Voigt Hill
#
# Bulk Modulus (GPa) = 26.73587 64.71984 45.72785
# Shear Modulus (GPa) = 31.33453 21.48505 26.40979
#
# Velocity S-wave (km/s) = 3.58537 2.96887 3.29159
# Velocity P-wave (km/s) = 5.30172 6.18897 5.76245
#
# Compressibility (1/GPa) = 0.03740293
#
# Stress axis : x y z
#
# Youngs Moduli (GPa) = 40.68364 52.22125 170.36699
#
# Poissons Ratio (x) = -0.09232 0.29153
# Poissons Ratio (y) = -0.07192 1.04855
# Poissons Ratio (z) = 0.06962 0.32140
#
# Static dielectric constant tensor:
#      x y z
#    x 1.933990 0.000000 0.027960 
#    y 0.000000 1.945600 0.000000 
#    z 0.027960 0.000000 2.073780 
# 
# From -- ./inp_files/61778.got.cif
#   From: 2010.05.17/outbox.cif.g08.bks.cpg/sg10_31_cif.got.tgz:61778.got - 2010.06.03 11:33:40.
