data_PCOD9142300
_publ_section_title
;
Structure prediction by ZEFSAII (Michael W. Deem and Ramdas Pophale) SiO2 
 PCOD9142300
Probable space group: P 2/M
;
_chemical_formula_sum "Si O2"
_cell_formula_units_Z 32
_cell_length_a 8.418120
_cell_length_b 12.561274
_cell_length_c 23.474452
_cell_angle_alpha 90.000000
_cell_angle_beta 48.467119
_cell_angle_gamma 90.000000
_cell_volume 1858.145746
_symmetry_space_group_name_H-M "P 2/M"
_symmetry_group_IT_number 10
_symmetry_cell_setting 'monoclinic'
loop_
_space_group_symop_operation_xyz
x,y,z
-x,y,-z
-x,-y,-z
x,-y,z
loop_
_atom_site_type_symbol
_atom_site_label
_atom_site_fract_x
_atom_site_fract_y
_atom_site_fract_z
Si Si1 0.363700 0.127956 0.389069
Si Si2 0.269068 0.870590 0.534152
Si Si3 0.174465 0.870712 0.312156
Si Si4 0.710994 0.880087 0.050476
Si Si5 0.255305 0.805336 0.171616
Si Si6 0.945991 0.223316 0.095808
Si Si7 0.259005 0.625208 0.079925
Si Si8 0.195416 0.121876 0.759398
O O1 0.249103 0.166863 0.473366
O O2 0.276734 0.159593 0.348305
O O3 0.615132 0.151338 0.328393
O O4 0.338475 0.000000 0.396587
O O5 0.500000 0.836375 0.500000
O O6 0.073199 0.842796 0.620834
O O7 0.268507 0.000000 0.533652
O O8 0.275412 0.810155 0.234954
O O9 0.197378 0.000000 0.298616
O O10 0.465886 0.860249 0.096884
O O11 0.797111 0.793848 0.076154
O O12 0.738840 0.000000 0.066257
O O13 0.863842 0.862106 0.960266
O O14 0.235761 0.693541 0.143391
O O15 0.037234 0.867527 0.211694
O O16 0.082075 0.328592 0.078001
O O17 0.809944 0.193055 0.183043
O O18 0.229502 0.500000 0.095516
O O19 0.500000 0.642376 0.000000
O O20 0.235587 0.000000 0.767020
#
# Coordination Sequence:
#
# PCOD9142300 Si02
#       8
#     4   4   4   4   4   4   4   4
#     4   9  17  28  42  63  97 142 177 202 239 285
#     4   9  16  26  41  62  94 136 179 210 237 284
#     4  10  18  28  43  67 101 136 168 207 250 301
#     4  11  20  32  48  73 109 137 159 196 242 307
#     4  11  21  32  50  74  96 129 171 207 256 307
#     4  10  20  33  49  71  95 130 168 202 251 304
#     4  10  21  41  58  70  92 125 171 227 271 300
#     4  10  18  28  43  65  96 131 167 203 241 294
#
# _framework density 17.221468999999999
#
# number of rings (size 3 to 8) (size 9 to 14) (size 15 to 20)
#    0.000    2.000    1.250    4.500    0.000    4.500 
#    0.000    3.750    0.000    0.000    0.000    0.000 
#    0.000   14.500    0.000    0.000    0.000    3.250 
#
# Total GULP energy -178277.953342 kJ/mol
# GULP energy per Si atom -5571.186042 kJ/mol
# Density = 1.718227 g / cm^3
# Si number density = 17.221469 Si / 1000 Ang^3
#
#
#
# Elastic Constant Matrix: (Units=GPa)
#
#
# Indices 1 2 3 4 5 6 
#
# 1 53.3777 15.8644 0.9373 0.0000 -3.3246 0.0000
# 2 15.8644 64.4862 18.2780 0.0000 2.5552 0.0000
# 3 0.9373 18.2780 56.3779 0.0000 3.7977 0.0000
# 4 0.0000 0.0000 0.0000 5.7779 0.0000 -1.2580
# 5 -3.3246 2.5552 3.7977 0.0000 30.8487 0.0000
# 6 0.0000 0.0000 0.0000 -1.2580 0.0000 15.8003
#
#
#
# Elastic Compliance Matrix: (Units=1/GPa)
#
#
# Indices 1 2 3 4 5 6 
#
# 1 0.020504 -0.005505 0.001275 0.000000 0.002509 0.000000
# 2 -0.005505 0.018571 -0.005834 0.000000 -0.001413 0.000000
# 3 0.001275 -0.005834 0.019730 0.000000 -0.001808 0.000000
# 4 0.000000 0.000000 0.000000 0.176126 0.000000 0.014023
# 5 0.002509 -0.001413 -0.001808 0.000000 0.033026 0.000000
# 6 0.000000 0.000000 0.000000 0.014023 0.000000 0.064407
#
#
# Mechanical properties :
#
#
# Convention : Reuss Voigt Hill
#
# Bulk Modulus (GPa) = 25.85554 27.15568 26.50561
# Shear Modulus (GPa) = 13.68419 19.76285 16.72352
#
# Velocity S-wave (km/s) = 2.82192 3.39126 3.11961
# Velocity P-wave (km/s) = 5.06595 5.58004 5.32920
#
# Compressibility (1/GPa) = 0.03867643
#
# Stress axis : x y z
#
# Youngs Moduli (GPa) = 48.76990 53.84693 50.68544
#
# Poissons Ratio (x) = 0.29643 -0.06462
# Poissons Ratio (y) = 0.26848 0.29571
# Poissons Ratio (z) = -0.06218 0.31415
#
# Static dielectric constant tensor:
#      x y z
#    x 1.674830 0.000000 0.008460 
#    y 0.000000 1.538750 0.000000 
#    z 0.008460 0.000000 1.612320 
# 
# From -- ./inp_files/36031.got.cif
#   From: 2010.05.17/outbox.cif.g08.bks.cpg/sg10_19_cif.got.tgz:36031.got - 2010.06.03 11:33:40.
