data_PCOD9142092
_publ_section_title
;
Structure prediction by ZEFSAII (Michael W. Deem and Ramdas Pophale) SiO2 
 PCOD9142092
Probable space group: P 2/M
;
_chemical_formula_sum "Si O2"
_cell_formula_units_Z 32
_cell_length_a 21.220409
_cell_length_b 7.647551
_cell_length_c 26.218919
_cell_angle_alpha 90.000000
_cell_angle_beta 22.461316
_cell_angle_gamma 90.000000
_cell_volume 1625.631114
_symmetry_space_group_name_H-M "P 2/M"
_symmetry_group_IT_number 10
_symmetry_cell_setting 'monoclinic'
loop_
_space_group_symop_operation_xyz
x,y,z
-x,y,-z
-x,-y,-z
x,-y,z
loop_
_atom_site_type_symbol
_atom_site_label
_atom_site_fract_x
_atom_site_fract_y
_atom_site_fract_z
Si Si1 0.944506 0.286267 0.916478
Si Si2 0.545355 0.714121 0.821427
Si Si3 0.161707 0.704843 0.842337
Si Si4 0.633568 0.713882 0.219921
Si Si5 0.027304 0.797528 0.325311
Si Si6 0.161239 0.711379 0.114088
Si Si7 0.337493 0.703698 0.375225
Si Si8 0.350485 0.291308 0.146863
O O1 0.950370 0.500000 0.912233
O O2 0.930826 0.228790 0.868385
O O3 0.097240 0.222167 0.836793
O O4 0.775739 0.240405 0.072528
O O5 0.551186 0.500000 0.817040
O O6 0.624654 0.777217 0.709282
O O7 0.634061 0.774695 0.806858
O O8 0.353031 0.764450 0.967960
O O9 0.199178 0.500000 0.805343
O O10 0.307342 0.778802 0.768694
O O11 0.000000 0.710552 0.000000
O O12 0.634526 0.500000 0.222915
O O13 0.460047 0.775573 0.327023
O O14 0.852795 0.711597 0.468012
O O15 0.080983 0.769269 0.226806
O O16 0.177235 0.738031 0.249034
O O17 0.002061 0.000000 0.353620
O O18 0.159919 0.500000 0.115096
O O19 0.384827 0.500000 0.336229
O O20 0.374596 0.500000 0.131693
O O21 0.500000 0.220983 0.000000
#
# Coordination Sequence:
#
# PCOD9142092 Si02
#       8
#     4   4   4   4   4   4   4   4
#     4   8  12  20  42  75 107 131 159 205 256 303
#     4   9  17  31  57  85 102 123 166 216 253 293
#     4   7  10  16  31  67 111 137 151 188 255 310
#     4   8  12  21  42  72 106 136 162 198 250 305
#     4  12  26  39  50  72 106 140 172 210 257 308
#     4  10  17  32  56  80 102 131 173 215 254 301
#     4  10  19  34  55  78 104 137 175 211 248 298
#     4  10  19  36  61  82 101 128 165 211 256 304
#
# _framework density 19.684663
#
# number of rings (size 3 to 8) (size 9 to 14) (size 15 to 20)
#    0.000    2.750    2.500    2.625    0.000    0.750 
#    0.000    3.750    0.000    0.750    0.000    6.125 
#    0.000    3.000    0.000    0.000    0.000    0.000 
#
# Total GULP energy -178367.217228 kJ/mol
# GULP energy per Si atom -5573.975538 kJ/mol
# Density = 1.963986 g / cm^3
# Si number density = 19.684663 Si / 1000 Ang^3
#
#
#
# Elastic Constant Matrix: (Units=GPa)
#
#
# Indices 1 2 3 4 5 6 
#
# 1 210.3339 1.3409 70.5363 0.0000 -30.9992 0.0000
# 2 1.3409 34.4911 -18.3461 0.0000 -3.2278 0.0000
# 3 70.5363 -18.3461 116.1689 0.0000 -12.2697 0.0000
# 4 0.0000 0.0000 0.0000 -139.4053 0.0000 -32.2729
# 5 -30.9992 -3.2278 -12.2697 0.0000 27.2819 0.0000
# 6 0.0000 0.0000 0.0000 -32.2729 0.0000 -39.3758
#
#
#
# Elastic Compliance Matrix: (Units=1/GPa)
#
#
# Indices 1 2 3 4 5 6 
#
# 1 0.006936 -0.001770 -0.003864 0.000000 0.005934 0.000000
# 2 -0.001770 0.033167 0.006839 0.000000 0.004989 0.000000
# 3 -0.003864 0.006839 0.012238 0.000000 0.001922 0.000000
# 4 0.000000 0.000000 0.000000 -0.008853 0.000000 0.007256
# 5 0.005934 0.004989 0.001922 0.000000 0.044852 0.000000
# 6 0.000000 0.000000 0.000000 0.007256 0.000000 -0.031344
#
#
# Mechanical properties :
#
#
# Convention : Reuss Voigt Hill
#
# Bulk Modulus (GPa) = 18.26450 52.00622 35.13536
# Shear Modulus (GPa) = 68.64870 -9.80231 29.42320
#
# Velocity S-wave (km/s) = 5.91185 -2.23394 3.87036
# Velocity P-wave (km/s) = 7.47653 4.45231 6.15311
#
# Compressibility (1/GPa) = 0.05475103
#
# Stress axis : x y z
#
# Youngs Moduli (GPa) = 144.17415 30.15084 81.71527
#
# Poissons Ratio (x) = 0.05336 0.31577
# Poissons Ratio (y) = 0.25515 -0.55888
# Poissons Ratio (z) = 0.55712 -0.20621
#
# Static dielectric constant tensor:
#      x y z
#    x 1.774870 0.000000 -0.078730 
#    y 0.000000 1.721630 0.000000 
#    z -0.078730 0.000000 1.731140 
# 
# From -- ./inp_files/93673.got.cif
#   From: 2010.05.17/outbox.cif.g08.bks.cpg/sg10_47_cif.got.tgz:93673.got - 2010.06.03 11:33:40.
