data_PCOD9142680
_publ_section_title
;
Structure prediction by ZEFSAII (Michael W. Deem and Ramdas Pophale) SiO2 
 PCOD9142680
Probable space group: P 2/M
;
_chemical_formula_sum "Si O2"
_cell_formula_units_Z 32
_cell_length_a 21.694701
_cell_length_b 13.847480
_cell_length_c 18.809069
_cell_angle_alpha 90.000000
_cell_angle_beta 20.470373
_cell_angle_gamma 90.000000
_cell_volume 1976.131770
_symmetry_space_group_name_H-M "P 2/M"
_symmetry_group_IT_number 10
_symmetry_cell_setting 'monoclinic'
loop_
_space_group_symop_operation_xyz
x,y,z
-x,y,-z
-x,-y,-z
x,-y,z
loop_
_atom_site_type_symbol
_atom_site_label
_atom_site_fract_x
_atom_site_fract_y
_atom_site_fract_z
Si Si1 0.158854 0.388199 0.024628
Si Si2 0.489545 0.885248 0.241388
Si Si3 0.993072 0.112283 0.424859
Si Si4 0.846288 0.798457 0.884513
Si Si5 0.100754 0.111752 0.726323
Si Si6 0.463277 0.385086 0.458074
Si Si7 0.088617 0.299931 0.827644
Si Si8 0.420026 0.886849 0.158573
O O1 0.142737 0.500000 0.062247
O O2 0.128566 0.312234 0.120449
O O3 0.019076 0.362590 0.113720
O O4 0.355597 0.371655 0.780850
O O5 0.299004 0.874874 0.482763
O O6 0.478100 0.848563 0.172214
O O7 0.529971 0.000000 0.197072
O O8 0.644776 0.829910 0.112871
O O9 0.790255 0.115872 0.619877
O O10 0.000000 0.140963 0.500000
O O11 0.102448 0.175325 0.251425
O O12 0.053445 0.000000 0.355562
O O13 0.969550 0.861183 0.803672
O O14 0.071817 0.189432 0.819507
O O15 0.077227 0.000000 0.772122
O O16 0.500000 0.355335 0.500000
O O17 0.423392 0.500000 0.501754
O O18 0.292775 0.330913 0.611958
O O19 0.000000 0.313829 0.000000
O O20 0.473966 0.000000 0.100992
O O21 0.500000 0.843402 0.000000
#
# Coordination Sequence:
#
# PCOD9142680 Si02
#       8
#     4   4   4   4   4   4   4   4
#     4  10  22  37  54  78 103 129 164 212 262 310
#     4  10  18  30  49  70  99 136 170 203 243 295
#     4  10  18  29  48  76 107 135 170 210 246 290
#     4  11  20  33  53  74 102 135 172 208 254 302
#     4  10  21  35  49  70 103 139 173 205 240 296
#     4  10  19  33  55  79 103 126 158 212 270 314
#     4  11  21  34  55  78 101 131 167 207 254 306
#     4   9  16  26  41  68 103 133 162 201 244 283
#
# _framework density 16.193251
#
# number of rings (size 3 to 8) (size 9 to 14) (size 15 to 20)
#    0.000    1.875    2.500    3.000    0.000    2.750 
#    0.000    0.000    0.000    0.750    0.000    0.000 
#    0.000    2.000    0.000    0.000    0.000    0.000 
#
# Total GULP energy -178508.709458 kJ/mol
# GULP energy per Si atom -5578.397171 kJ/mol
# Density = 1.615639 g / cm^3
# Si number density = 16.193251 Si / 1000 Ang^3
#
#
#
# Elastic Constant Matrix: (Units=GPa)
#
#
# Indices 1 2 3 4 5 6 
#
# 1 79.8666 36.5919 25.4207 0.0000 -12.4117 0.0000
# 2 36.5919 75.2223 24.8165 0.0000 -2.5272 0.0000
# 3 25.4207 24.8165 49.7272 0.0000 -17.6846 0.0000
# 4 0.0000 0.0000 0.0000 165.1813 0.0000 -110.3815
# 5 -12.4117 -2.5272 -17.6846 0.0000 31.3142 0.0000
# 6 0.0000 0.0000 0.0000 -110.3815 0.0000 98.8407
#
#
#
# Elastic Compliance Matrix: (Units=1/GPa)
#
#
# Indices 1 2 3 4 5 6 
#
# 1 0.017726 -0.007164 -0.003996 0.000000 0.004191 0.000000
# 2 -0.007164 0.019221 -0.007994 0.000000 -0.005803 0.000000
# 3 -0.003996 -0.007994 0.031720 0.000000 0.015685 0.000000
# 4 0.000000 0.000000 0.000000 0.023860 0.000000 0.026646
# 5 0.004191 -0.005803 0.015685 0.000000 0.041985 0.000000
# 6 0.000000 0.000000 0.000000 0.026646 0.000000 0.039874
#
#
# Mechanical properties :
#
#
# Convention : Reuss Voigt Hill
#
# Bulk Modulus (GPa) = 32.93843 42.05270 37.49556
# Shear Modulus (GPa) = 22.44030 66.93305 44.68668
#
# Velocity S-wave (km/s) = 3.72665 6.43612 5.25888
# Velocity P-wave (km/s) = 6.23716 9.01428 7.75111
#
# Compressibility (1/GPa) = 0.03035968
#
# Stress axis : x y z
#
# Youngs Moduli (GPa) = 56.41335 52.02640 31.52607
#
# Poissons Ratio (x) = 0.37271 0.12598
# Poissons Ratio (y) = 0.40413 0.25201
# Poissons Ratio (z) = 0.22544 0.41589
#
# Static dielectric constant tensor:
#      x y z
#    x 1.546990 0.000000 -0.000980 
#    y 0.000000 1.523520 0.000000 
#    z -0.000980 0.000000 1.556050 
# 
# From -- ./inp_files/79703.got.cif
#   From: 2010.05.17/outbox.cif.g08.bks.cpg/sg10_40_cif.got.tgz:79703.got - 2010.06.03 11:33:40.
