data_PCOD9142486
_publ_section_title
;
Structure prediction by ZEFSAII (Michael W. Deem and Ramdas Pophale) SiO2 
 PCOD9142486
Probable space group: P 2/M
;
_chemical_formula_sum "Si O2"
_cell_formula_units_Z 32
_cell_length_a 22.416413
_cell_length_b 14.031379
_cell_length_c 16.812585
_cell_angle_alpha 90.000000
_cell_angle_beta 18.481079
_cell_angle_gamma 90.000000
_cell_volume 1676.287647
_symmetry_space_group_name_H-M "P 2/M"
_symmetry_group_IT_number 10
_symmetry_cell_setting 'monoclinic'
loop_
_space_group_symop_operation_xyz
x,y,z
-x,y,-z
-x,-y,-z
x,-y,z
loop_
_atom_site_type_symbol
_atom_site_label
_atom_site_fract_x
_atom_site_fract_y
_atom_site_fract_z
Si Si1 0.693145 0.615193 0.426431
Si Si2 0.401707 0.688817 0.044576
Si Si3 0.270792 0.607888 0.794441
Si Si4 0.717518 0.293856 0.057459
Si Si5 0.743636 0.613371 0.533213
Si Si6 0.881945 0.892273 0.777205
Si Si7 0.723243 0.892314 0.797721
Si Si8 0.945717 0.386550 0.440125
O O1 0.651790 0.500000 0.479378
O O2 0.787544 0.632910 0.221573
O O3 0.804602 0.637733 0.366597
O O4 0.499557 0.675092 0.673318
O O5 0.413779 0.802827 0.031250
O O6 0.184789 0.658717 0.326621
O O7 0.500000 0.648076 0.000000
O O8 0.528998 0.648164 0.814235
O O9 0.500000 0.604535 0.500000
O O10 0.205148 0.500000 0.896996
O O11 0.224331 0.675862 0.926389
O O12 0.773851 0.185923 0.965424
O O13 0.840894 0.353390 0.837834
O O14 0.746562 0.500000 0.535623
O O15 0.856715 0.647602 0.467630
O O16 0.803243 0.890224 0.786539
O O17 0.104916 0.874391 0.481285
O O18 0.859039 0.000000 0.836633
O O19 0.652299 0.000000 0.874260
O O20 0.934185 0.500000 0.461417
#
# Coordination Sequence:
#
# PCOD9142486 Si02
#       8
#     4   4   4   4   4   4   4   4
#     4   9  17  30  47  67  90 119 151 180 215 261
#     4  10  18  29  44  63  89 123 151 177 213 262
#     4   8  15  27  44  67  92 114 141 180 224 260
#     4  11  17  28  49  69  86 112 149 187 219 257
#     4   9  18  31  44  60  92 130 152 172 214 264
#     4   9  18  30  46  64  87 115 141 179 230 269
#     4   9  17  31  45  62  87 114 146 183 222 259
#     4  10  19  29  42  65  94 121 149 180 214 256
#
# _framework density 19.089801999999999
#
# number of rings (size 3 to 8) (size 9 to 14) (size 15 to 20)
#    0.000    2.625    1.250    3.750    0.000    1.750 
#    0.000    0.625    0.000    9.375    0.000    0.000 
#    0.000    1.000    0.000    0.000    0.000    1.000 
#
# Total GULP energy -178403.877846 kJ/mol
# GULP energy per Si atom -5575.121183 kJ/mol
# Density = 1.904635 g / cm^3
# Si number density = 19.089802 Si / 1000 Ang^3
#
#
#
# Elastic Constant Matrix: (Units=GPa)
#
#
# Indices 1 2 3 4 5 6 
#
# 1 60.8399 9.8021 12.7670 0.0000 18.1334 0.0000
# 2 9.8021 63.7192 31.5178 0.0000 19.1697 0.0000
# 3 12.7670 31.5178 89.7478 0.0000 15.7369 0.0000
# 4 0.0000 0.0000 0.0000 25.4754 0.0000 16.6381
# 5 18.1334 19.1697 15.7369 0.0000 24.4139 0.0000
# 6 0.0000 0.0000 0.0000 16.6381 0.0000 29.9217
#
#
#
# Elastic Compliance Matrix: (Units=1/GPa)
#
#
# Indices 1 2 3 4 5 6 
#
# 1 0.021342 0.002275 -0.000837 0.000000 -0.017099 0.000000
# 2 0.002275 0.022941 -0.005553 0.000000 -0.016124 0.000000
# 3 -0.000837 -0.005553 0.013910 0.000000 -0.003985 0.000000
# 4 0.000000 0.000000 0.000000 0.061638 0.000000 -0.034274
# 5 -0.017099 -0.016124 -0.003985 0.000000 0.068889 0.000000
# 6 0.000000 0.000000 0.000000 -0.034274 0.000000 0.052479
#
#
# Mechanical properties :
#
#
# Convention : Reuss Voigt Hill
#
# Bulk Modulus (GPa) = 20.01451 35.83117 27.92284
# Shear Modulus (GPa) = 18.79104 26.64352 22.71728
#
# Velocity S-wave (km/s) = 3.14084 3.73995 3.45341
# Velocity P-wave (km/s) = 4.86419 6.12047 5.52813
#
# Compressibility (1/GPa) = 0.04996374
#
# Stress axis : x y z
#
# Youngs Moduli (GPa) = 46.85621 43.58929 71.88987
#
# Poissons Ratio (x) = -0.09916 0.06015
# Poissons Ratio (y) = -0.10659 0.39920
# Poissons Ratio (z) = 0.03920 0.24205
#
# Static dielectric constant tensor:
#      x y z
#    x 1.749020 0.000000 -0.033200 
#    y 0.000000 1.639450 0.000000 
#    z -0.033200 0.000000 1.721300 
# 
# From -- ./inp_files/76543.got.cif
#   From: 2010.05.17/outbox.cif.g08.bks.cpg/sg10_39_cif.got.tgz:76543.got - 2010.06.03 11:33:40.
