data_PCOD9142339
_publ_section_title
;
Structure prediction by ZEFSAII (Michael W. Deem and Ramdas Pophale) SiO2 
 PCOD9142339
Probable space group: P 2/M
;
_chemical_formula_sum "Si O2"
_cell_formula_units_Z 32
_cell_length_a 21.675729
_cell_length_b 12.986482
_cell_length_c 11.763879
_cell_angle_alpha 90.000000
_cell_angle_beta 147.216777
_cell_angle_gamma 90.000000
_cell_volume 1793.014528
_symmetry_space_group_name_H-M "P 2/M"
_symmetry_group_IT_number 10
_symmetry_cell_setting 'monoclinic'
loop_
_space_group_symop_operation_xyz
x,y,z
-x,y,-z
-x,-y,-z
x,-y,z
loop_
_atom_site_type_symbol
_atom_site_label
_atom_site_fract_x
_atom_site_fract_y
_atom_site_fract_z
Si Si1 0.866707 0.382489 0.303947
Si Si2 0.532033 0.385356 0.340755
Si Si3 0.363428 0.778055 0.351590
Si Si4 0.658411 0.714080 0.078949
Si Si5 0.442129 0.120503 0.238661
Si Si6 0.315435 0.375564 0.642868
Si Si7 0.830884 0.380868 0.984661
Si Si8 0.943938 0.623026 0.797445
O O1 0.858607 0.500000 0.338369
O O2 0.791429 0.304216 0.259965
O O3 0.000000 0.357381 0.500000
O O4 0.819606 0.382348 0.102588
O O5 0.555673 0.500000 0.410709
O O6 0.554130 0.314335 0.481074
O O7 0.615336 0.356490 0.365373
O O8 0.406615 0.371934 0.096747
O O9 0.421684 0.861991 0.527147
O O10 0.379261 0.829467 0.252443
O O11 0.244672 0.715217 0.176911
O O12 0.636719 0.686698 0.175885
O O13 0.604947 0.817828 0.943692
O O14 0.418549 0.000000 0.196238
O O15 0.322142 0.500000 0.675413
O O16 0.184192 0.342513 0.423309
O O17 0.804497 0.500000 0.902538
O O18 0.962320 0.362093 0.154654
O O19 0.931607 0.500000 0.793250
O O20 0.000000 0.664633 0.000000
#
# Coordination Sequence:
#
# PCOD9142339 Si02
#       8
#     4   4   4   4   4   4   4   4
#     4  10  19  30  45  71 108 143 171 202 246 308
#     4  10  20  31  48  77 115 147 175 211 251 310
#     4  10  18  33  52  75 100 134 171 214 269 321
#     4  11  20  34  52  75 102 144 182 216 263 320
#     4  10  22  39  56  74  98 131 177 235 284 322
#     4  10  19  32  50  77 114 152 182 207 243 305
#     4  10  18  28  44  73 108 137 171 210 245 302
#     4   9  17  29  46  70 106 151 186 205 234 285
#
# _framework density 17.847038999999999
#
# number of rings (size 3 to 8) (size 9 to 14) (size 15 to 20)
#    0.000    2.000    1.250    4.125    0.000    5.000 
#    0.000    3.125    0.000    7.125    0.000    0.000 
#    0.000   11.500    0.000    0.000    0.000    0.000 
#
# Total GULP energy -178151.765606 kJ/mol
# GULP energy per Si atom -5567.242675 kJ/mol
# Density = 1.780642 g / cm^3
# Si number density = 17.847039 Si / 1000 Ang^3
#
#
#
# Elastic Constant Matrix: (Units=GPa)
#
#
# Indices 1 2 3 4 5 6 
#
# 1 62.7351 44.0003 21.1208 0.0000 -1.6022 0.0000
# 2 44.0003 90.8302 32.5035 0.0000 -6.9767 0.0000
# 3 21.1208 32.5035 79.2904 0.0000 5.7072 0.0000
# 4 0.0000 0.0000 0.0000 -36.2872 0.0000 0.7360
# 5 -1.6022 -6.9767 5.7072 0.0000 33.4176 0.0000
# 6 0.0000 0.0000 0.0000 0.7360 0.0000 -0.5713
#
#
#
# Elastic Compliance Matrix: (Units=1/GPa)
#
#
# Indices 1 2 3 4 5 6 
#
# 1 0.024418 -0.011238 -0.001835 0.000000 -0.000862 0.000000
# 2 -0.011238 0.018527 -0.004901 0.000000 0.004166 0.000000
# 3 -0.001835 -0.004901 0.015379 0.000000 -0.003738 0.000000
# 4 0.000000 0.000000 0.000000 -0.028297 0.000000 -0.036453
# 5 -0.000862 0.004166 -0.003738 0.000000 0.031391 0.000000
# 6 0.000000 0.000000 0.000000 -0.036453 0.000000 -1.797295
#
#
# Mechanical properties :
#
#
# Convention : Reuss Voigt Hill
#
# Bulk Modulus (GPa) = 44.69306 47.56721 46.13013
# Shear Modulus (GPa) = -2.95426 8.32722 2.68648
#
# Velocity S-wave (km/s) = -1.28799 2.16241 1.22823
# Velocity P-wave (km/s) = 4.78380 5.73980 5.28347
#
# Compressibility (1/GPa) = 0.02237484
#
# Stress axis : x y z
#
# Youngs Moduli (GPa) = 40.95353 53.97386 65.02359
#
# Poissons Ratio (x) = 0.60656 0.11934
# Poissons Ratio (y) = 0.46024 0.31870
# Poissons Ratio (z) = 0.07517 0.26455
#
# Static dielectric constant tensor:
#      x y z
#    x 1.651550 0.000000 0.005210 
#    y 0.000000 1.628470 0.000000 
#    z 0.005210 0.000000 1.685720 
# 
# From -- ./inp_files/57012.got.cif
#   From: 2010.05.17/outbox.cif.g08.bks.cpg/sg10_29_cif.got.tgz:57012.got - 2010.06.03 11:33:40.
