data_PCOD9142094
_publ_section_title
;
Structure prediction by ZEFSAII (Michael W. Deem and Ramdas Pophale) SiO2 
 PCOD9142094
Probable space group: P 2/M
;
_chemical_formula_sum "Si O2"
_cell_formula_units_Z 24
_cell_length_a 24.813854
_cell_length_b 7.699995
_cell_length_c 12.907288
_cell_angle_alpha 90.000000
_cell_angle_beta 29.455106
_cell_angle_gamma 90.000000
_cell_volume 1212.708658
_symmetry_space_group_name_H-M "P 2/M"
_symmetry_group_IT_number 10
_symmetry_cell_setting 'monoclinic'
loop_
_space_group_symop_operation_xyz
x,y,z
-x,y,-z
-x,-y,-z
x,-y,z
loop_
_atom_site_type_symbol
_atom_site_label
_atom_site_fract_x
_atom_site_fract_y
_atom_site_fract_z
Si Si1 0.619515 0.709834 0.760651
Si Si2 0.620762 0.712878 0.523150
Si Si3 0.764664 0.712878 0.091432
Si Si4 0.384378 0.300706 0.846867
Si Si5 0.241197 0.199216 0.276398
Si Si6 0.999670 0.709834 0.620170
O O1 0.617323 0.500000 0.763250
O O2 0.638229 0.770045 0.611948
O O3 0.709308 0.763618 0.694024
O O4 0.500000 0.769172 0.000000
O O5 0.617667 0.500000 0.530576
O O6 0.713917 0.764349 0.286086
O O7 0.502242 0.774520 0.679926
O O8 0.765899 0.500000 0.085869
O O9 0.684397 0.774522 0.133449
O O10 0.888394 0.770047 0.861434
O O11 0.407322 0.500000 0.778039
O O12 0.307775 0.301516 0.076665
O O13 0.112631 0.236401 0.484047
O O14 0.260982 0.000000 0.217029
O O15 0.997877 0.500000 0.621557
O O16 0.000000 0.769180 0.500000
#
# Coordination Sequence:
#
# PCOD9142094 Si02
#       6
#     4   4   4   4   4   4
#     4  10  19  35  58  81 106 139 180 224 268 314
#     4   9  17  30  54  86 112 135 171 222 273 319
#     4   9  17  30  54  86 112 135 171 222 273 319
#     4  10  17  32  56  83 113 139 172 217 272 324
#     4  12  24  35  52  80 112 144 184 222 263 315
#     4  10  19  35  58  81 106 139 180 224 268 314
#
# _framework density 19.790410000000001
#
# number of rings (size 3 to 8) (size 9 to 14) (size 15 to 20)
#    0.000    2.000    3.333    2.000    0.000    2.667 
#    0.000    0.833    0.000   10.000    0.000    0.000 
#    0.000    0.000    0.000    0.000    0.000    0.000 
#
# Total GULP energy -134028.897559 kJ/mol
# GULP energy per Si atom -5584.537398 kJ/mol
# Density = 1.974537 g / cm^3
# Si number density = 19.790410 Si / 1000 Ang^3
#
#
#
# Elastic Constant Matrix: (Units=GPa)
#
#
# Indices 1 2 3 4 5 6 
#
# 1 171.3765 2.5234 108.8316 0.0000 -9.4955 0.0000
# 2 2.5234 36.4860 3.1423 0.0000 0.3164 0.0000
# 3 108.8316 3.1423 163.1228 0.0000 5.3342 0.0000
# 4 0.0000 0.0000 0.0000 -24.6336 0.0000 32.8374
# 5 -9.4955 0.3164 5.3342 0.0000 29.5218 0.0000
# 6 0.0000 0.0000 0.0000 32.8374 0.0000 -88.9220
#
#
#
# Elastic Compliance Matrix: (Units=1/GPa)
#
#
# Indices 1 2 3 4 5 6 
#
# 1 0.010758 -0.000154 -0.007331 0.000000 0.004787 0.000000
# 2 -0.000154 0.027457 -0.000417 0.000000 -0.000268 0.000000
# 3 -0.007331 -0.000417 0.011173 0.000000 -0.004372 0.000000
# 4 0.000000 0.000000 0.000000 -0.079953 0.000000 -0.029525
# 5 0.004787 -0.000268 -0.004372 0.000000 0.036206 0.000000
# 6 0.000000 0.000000 0.000000 -0.029525 0.000000 -0.022149
#
#
# Mechanical properties :
#
#
# Convention : Reuss Voigt Hill
#
# Bulk Modulus (GPa) = 29.77768 66.66444 48.22106
# Shear Modulus (GPa) = 476.63907 0.29245 238.46576
#
# Velocity S-wave (km/s) = 15.53597 0.38483 10.98896
# Velocity P-wave (km/s) = 18.35486 5.82716 13.61721
#
# Compressibility (1/GPa) = 0.03358221
#
# Stress axis : x y z
#
# Youngs Moduli (GPa) = 92.95240 36.42102 89.50516
#
# Poissons Ratio (x) = 0.00561 0.65618
# Poissons Ratio (y) = 0.01433 0.03735
# Poissons Ratio (z) = 0.68145 0.01520
#
# Static dielectric constant tensor:
#      x y z
#    x 1.665050 0.000000 0.002910 
#    y 0.000000 1.729370 0.000000 
#    z 0.002910 0.000000 1.670760 
# 
# From -- ./inp_files/45263.got.cif
#   From: 2010.05.17/outbox.cif.g08.bks.cpg/sg10_23_cif.got.tgz:45263.got - 2010.06.03 11:33:40.
