data_PCOD9142283
_publ_section_title
;
Structure prediction by ZEFSAII (Michael W. Deem and Ramdas Pophale) SiO2 
 PCOD9142283
Probable space group: P 2/M
;
_chemical_formula_sum "Si O2"
_cell_formula_units_Z 32
_cell_length_a 15.221135
_cell_length_b 7.593523
_cell_length_c 14.612075
_cell_angle_alpha 90.000000
_cell_angle_beta 94.046926
_cell_angle_gamma 90.000000
_cell_volume 1684.682305
_symmetry_space_group_name_H-M "P 2/M"
_symmetry_group_IT_number 10
_symmetry_cell_setting 'monoclinic'
loop_
_space_group_symop_operation_xyz
x,y,z
-x,y,-z
-x,-y,-z
x,-y,z
loop_
_atom_site_type_symbol
_atom_site_label
_atom_site_fract_x
_atom_site_fract_y
_atom_site_fract_z
Si Si1 0.504706 0.706299 0.692874
Si Si2 0.786343 0.213515 0.678601
Si Si3 0.672823 0.213589 0.829351
Si Si4 0.911831 0.204474 0.536156
Si Si5 0.332104 0.199192 0.784124
Si Si6 0.382296 0.292540 0.460402
Si Si7 0.602498 0.215705 0.017931
Si Si8 0.747913 0.705243 0.403514
O O1 0.480318 0.500000 0.681609
O O2 0.589227 0.720860 0.765090
O O3 0.425820 0.798790 0.739026
O O4 0.537003 0.775796 0.595885
O O5 0.760330 0.267949 0.779635
O O6 0.870511 0.278925 0.627466
O O7 0.702327 0.269714 0.612032
O O8 0.789372 0.000000 0.677367
O O9 0.669443 0.000000 0.827349
O O10 0.657468 0.268497 0.932428
O O11 0.833638 0.210191 0.455218
O O12 0.000000 0.285459 0.500000
O O13 0.932013 0.000000 0.557702
O O14 0.353170 0.279416 0.884754
O O15 0.265223 0.279366 0.705614
O O16 0.302353 0.000000 0.796780
O O17 0.400416 0.500000 0.472819
O O18 0.340621 0.223931 0.551923
O O19 0.600626 0.000000 0.021877
O O20 0.500000 0.270422 0.000000
O O21 0.753815 0.500000 0.427737
#
# Coordination Sequence:
#
# PCOD9142283 Si02
#       8
#     4   4   4   4   4   4   4   4
#     4  10  18  28  42  62  86 116 154 190 226 261
#     4   8  14  24  43  69  91 113 144 180 215 257
#     4   9  15  27  45  63  86 117 154 192 224 260
#     4   9  17  31  51  75 100 120 139 170 218 275
#     4  11  21  32  45  61  86 120 157 192 230 269
#     4   8  16  29  43  58  84 120 149 179 220 263
#     4   9  16  28  45  63  84 116 157 196 233 264
#     4  10  20  34  48  65  91 119 150 186 222 264
#
# _framework density 18.994681
#
# number of rings (size 3 to 8) (size 9 to 14) (size 15 to 20)
#    0.000    2.750    1.250    1.125    0.000    1.750 
#    0.000    4.375    0.000    0.000    0.000    0.875 
#    0.000    7.000    0.000    0.000    0.000    0.000 
#
# Total GULP energy -178287.864603 kJ/mol
# GULP energy per Si atom -5571.495769 kJ/mol
# Density = 1.895145 g / cm^3
# Si number density = 18.994681 Si / 1000 Ang^3
#
#
#
# Elastic Constant Matrix: (Units=GPa)
#
#
# Indices 1 2 3 4 5 6 
#
# 1 85.5981 -0.7506 40.7241 0.0000 -29.4591 0.0000
# 2 -0.7506 44.5505 1.0817 0.0000 -3.2948 0.0000
# 3 40.7241 1.0817 162.8508 0.0000 -25.0083 0.0000
# 4 0.0000 0.0000 0.0000 22.9539 0.0000 13.7107
# 5 -29.4591 -3.2948 -25.0083 0.0000 26.1744 0.0000
# 6 0.0000 0.0000 0.0000 13.7107 0.0000 15.4816
#
#
#
# Elastic Compliance Matrix: (Units=1/GPa)
#
#
# Indices 1 2 3 4 5 6 
#
# 1 0.019650 0.001903 -0.001750 0.000000 0.020684 0.000000
# 2 0.001903 0.022858 0.000168 0.000000 0.005180 0.000000
# 3 -0.001750 0.000168 0.007357 0.000000 0.005081 0.000000
# 4 0.000000 0.000000 0.000000 0.092494 0.000000 -0.081914
# 5 0.020684 0.005180 0.005081 0.000000 0.066991 0.000000
# 6 0.000000 0.000000 0.000000 -0.081914 0.000000 0.137138
#
#
# Mechanical properties :
#
#
# Convention : Reuss Voigt Hill
#
# Bulk Modulus (GPa) = 19.79943 41.67884 30.73913
# Shear Modulus (GPa) = 13.78615 29.71825 21.75220
#
# Velocity S-wave (km/s) = 2.69697 3.95974 3.38771
# Velocity P-wave (km/s) = 4.48826 6.54951 5.61429
#
# Compressibility (1/GPa) = 0.05050651
#
# Stress axis : x y z
#
# Youngs Moduli (GPa) = 50.88978 43.74928 135.91736
#
# Poissons Ratio (x) = -0.08327 0.23790
# Poissons Ratio (y) = -0.09686 -0.02279
# Poissons Ratio (z) = 0.08907 -0.00733
#
# Static dielectric constant tensor:
#      x y z
#    x 1.664790 0.000000 -0.034640 
#    y 0.000000 1.746150 0.000000 
#    z -0.034640 0.000000 1.718740 
# 
# From -- ./inp_files/66081.got.cif
#   From: 2010.05.17/outbox.cif.g08.bks.cpg/sg10_34_cif.got.tgz:66081.got - 2010.06.03 11:33:40.
