data_PCOD9142322
_publ_section_title
;
Structure prediction by ZEFSAII (Michael W. Deem and Ramdas Pophale) SiO2 
 PCOD9142322
Probable space group: P 2/M
;
_chemical_formula_sum "Si O2"
_cell_formula_units_Z 28
_cell_length_a 14.402497
_cell_length_b 8.876472
_cell_length_c 14.286371
_cell_angle_alpha 90.000000
_cell_angle_beta 82.602069
_cell_angle_gamma 90.000000
_cell_volume 1811.214247
_symmetry_space_group_name_H-M "P 2/M"
_symmetry_group_IT_number 10
_symmetry_cell_setting 'monoclinic'
loop_
_space_group_symop_operation_xyz
x,y,z
-x,y,-z
-x,-y,-z
x,-y,z
loop_
_atom_site_type_symbol
_atom_site_label
_atom_site_fract_x
_atom_site_fract_y
_atom_site_fract_z
Si Si1 0.174007 0.180135 0.333105
Si Si2 0.083892 0.818055 0.919516
Si Si3 0.893338 0.326447 0.474576
Si Si4 0.526451 0.674572 0.107101
Si Si5 0.724836 0.682643 0.029101
Si Si6 0.326026 0.682681 0.177621
Si Si7 0.968149 0.818795 0.284563
O O1 0.166753 0.239219 0.440231
O O2 0.259013 0.251191 0.264842
O O3 0.075557 0.223386 0.295360
O O4 0.180255 0.000000 0.331504
O O5 0.180846 0.748206 0.941178
O O6 0.058685 0.773366 0.816762
O O7 0.090856 0.000000 0.921425
O O8 0.000000 0.773290 0.000000
O O9 0.864329 0.500000 0.472491
O O10 0.901205 0.252154 0.371807
O O11 0.000000 0.321592 0.500000
O O12 0.533621 0.500000 0.135863
O O13 0.631236 0.738607 0.095600
O O14 0.434097 0.738158 0.168903
O O15 0.500000 0.673279 0.000000
O O16 0.725637 0.500000 0.033442
O O17 0.712726 0.722902 0.920909
O O18 0.326815 0.500000 0.182360
O O19 0.962724 0.000000 0.292249
#
# Coordination Sequence:
#
# PCOD9142322 Si02
#       7
#     4   4   4   4   4   4   4
#     4  10  18  28  44  65  89 115 143 176 215 260
#     4  10  20  32  44  61  89 123 153 178 208 249
#     4   9  17  29  45  64  85 109 141 181 220 257
#     4   7  12  25  43  61  83 112 143 176 217 260
#     4   9  17  29  45  64  86 115 151 185 214 249
#     4   9  16  27  44  65  89 115 143 178 219 259
#     4   9  18  31  44  59  85 121 152 176 208 252
#
# _framework density 15.459243000000001
#
# number of rings (size 3 to 8) (size 9 to 14) (size 15 to 20)
#    0.000    3.000    0.000    3.429    0.000    4.857 
#    0.000    0.714    0.000    2.571    0.000    1.000 
#    0.000    8.000    0.000    0.000    0.000    0.000 
#
# Total GULP energy -155894.433477 kJ/mol
# GULP energy per Si atom -5567.658338 kJ/mol
# Density = 1.542406 g / cm^3
# Si number density = 15.459243 Si / 1000 Ang^3
#
#
#
# Elastic Constant Matrix: (Units=GPa)
#
#
# Indices 1 2 3 4 5 6 
#
# 1 116.7192 27.7532 71.9538 0.0000 -22.7006 0.0000
# 2 27.7532 19.9180 35.8601 0.0000 -8.7489 0.0000
# 3 71.9538 35.8601 131.3910 0.0000 -22.3758 0.0000
# 4 0.0000 0.0000 0.0000 24.2590 0.0000 -2.7896
# 5 -22.7006 -8.7489 -22.3758 0.0000 26.7252 0.0000
# 6 0.0000 0.0000 0.0000 -2.7896 0.0000 8.7137
#
#
#
# Elastic Compliance Matrix: (Units=1/GPa)
#
#
# Indices 1 2 3 4 5 6 
#
# 1 0.014773 -0.010389 -0.004312 0.000000 0.005537 0.000000
# 2 -0.010389 0.109075 -0.022745 0.000000 0.007839 0.000000
# 3 -0.004312 -0.022745 0.016664 0.000000 0.002844 0.000000
# 4 0.000000 0.000000 0.000000 0.042797 0.000000 0.013701
# 5 0.005537 0.007839 0.002844 0.000000 0.047068 0.000000
# 6 0.000000 0.000000 0.000000 0.013701 0.000000 0.119147
#
#
# Mechanical properties :
#
#
# Convention : Reuss Voigt Hill
#
# Bulk Modulus (GPa) = 15.23924 59.90694 37.57309
# Shear Modulus (GPa) = 11.20349 20.77034 15.98691
#
# Velocity S-wave (km/s) = 2.69497 3.66943 3.21928
# Velocity P-wave (km/s) = 4.42299 7.53582 6.17865
#
# Compressibility (1/GPa) = 0.06562006
#
# Stress axis : x y z
#
# Youngs Moduli (GPa) = 67.69204 9.16801 60.00977
#
# Poissons Ratio (x) = 0.09525 0.25873
# Poissons Ratio (y) = 0.70329 1.36491
# Poissons Ratio (z) = 0.29185 0.20852
#
# Static dielectric constant tensor:
#      x y z
#    x 1.517680 0.000000 -0.014410 
#    y 0.000000 1.522920 0.000000 
#    z -0.014410 0.000000 1.502980 
# 
# From -- ./inp_files/65730.got.cif
#   From: 2010.05.17/outbox.cif.g08.bks.cpg/sg10_33_cif.got.tgz:65730.got - 2010.06.03 11:33:40.
