data_PCOD9142015
_publ_section_title
;
Structure prediction by ZEFSAII (Michael W. Deem and Ramdas Pophale) SiO2 
 PCOD9142015
Probable space group: P 2/M
;
_chemical_formula_sum "Si O2"
_cell_formula_units_Z 32
_cell_length_a 18.319519
_cell_length_b 19.742477
_cell_length_c 7.392477
_cell_angle_alpha 90.000000
_cell_angle_beta 142.197899
_cell_angle_gamma 90.000000
_cell_volume 1638.780693
_symmetry_space_group_name_H-M "P 2/M"
_symmetry_group_IT_number 10
_symmetry_cell_setting 'monoclinic'
loop_
_space_group_symop_operation_xyz
x,y,z
-x,y,-z
-x,-y,-z
x,-y,z
loop_
_atom_site_type_symbol
_atom_site_label
_atom_site_fract_x
_atom_site_fract_y
_atom_site_fract_z
Si Si1 0.465757 0.177309 0.240652
Si Si2 0.941753 0.201674 0.573833
Si Si3 0.923041 0.575798 0.067950
Si Si4 0.817033 0.424876 0.269334
Si Si5 0.684824 0.168056 0.399106
Si Si6 0.130916 0.074957 0.337995
Si Si7 0.280185 0.711533 0.990347
Si Si8 0.831718 0.717612 0.832143
O O1 0.500000 0.143242 0.500000
O O2 0.585104 0.179912 0.355301
O O3 0.374503 0.149353 0.909722
O O4 0.397005 0.246081 0.167161
O O5 0.886070 0.135286 0.553117
O O6 0.837564 0.253645 0.322271
O O7 0.000000 0.180047 0.500000
O O8 0.047142 0.240289 0.887731
O O9 0.900997 0.500000 0.950786
O O10 0.867045 0.576650 0.160613
O O11 0.064226 0.584949 0.377895
O O12 0.868271 0.640689 0.861208
O O13 0.769553 0.500000 0.212626
O O14 0.722753 0.364618 0.090823
O O15 0.774760 0.106799 0.618113
O O16 0.759497 0.238027 0.546611
O O17 0.167467 0.000000 0.472179
O O18 0.000000 0.069341 0.000000
O O19 0.249751 0.713891 0.145414
#
# Coordination Sequence:
#
# PCOD9142015 Si02
#       8
#     4   4   4   4   4   4   4   4
#     4  11  23  40  61  86 114 150 209 259 289 339
#     4  10  19  32  58  92 120 154 195 240 295 353
#     4   8  13  22  41  78 125 159 187 232 297 364
#     4   8  13  22  42  78 120 159 194 233 295 360
#     4  11  23  39  63  88 114 158 200 247 300 341
#     4  11  23  40  62  91 126 155 182 227 295 368
#     4  10  17  31  56  84 119 156 198 255 291 339
#     4  10  17  30  55  89 120 153 197 243 299 355
#
# _framework density 19.526713000000001
#
# number of rings (size 3 to 8) (size 9 to 14) (size 15 to 20)
#    0.000    2.125    5.000    0.750    0.000    0.250 
#    0.000    1.250    0.000    2.625    0.000    4.375 
#    0.000    0.000    0.000    0.000    0.000    0.750 
#
# Total GULP energy -178290.779262 kJ/mol
# GULP energy per Si atom -5571.586852 kJ/mol
# Density = 1.948227 g / cm^3
# Si number density = 19.526713 Si / 1000 Ang^3
#
#
#
# Elastic Constant Matrix: (Units=GPa)
#
#
# Indices 1 2 3 4 5 6 
#
# 1 94.3291 28.6014 21.4417 0.0000 7.6078 0.0000
# 2 28.6014 113.4487 14.7332 0.0000 11.5253 0.0000
# 3 21.4417 14.7332 71.6169 0.0000 5.7830 0.0000
# 4 0.0000 0.0000 0.0000 28.7904 0.0000 6.8562
# 5 7.6078 11.5253 5.7830 0.0000 29.8253 0.0000
# 6 0.0000 0.0000 0.0000 6.8562 0.0000 22.8760
#
#
#
# Elastic Compliance Matrix: (Units=1/GPa)
#
#
# Indices 1 2 3 4 5 6 
#
# 1 0.012173 -0.002522 -0.003001 0.000000 -0.001549 0.000000
# 2 -0.002522 0.009888 -0.001039 0.000000 -0.002976 0.000000
# 3 -0.003001 -0.001039 0.015219 0.000000 -0.001784 0.000000
# 4 0.000000 0.000000 0.000000 0.037403 0.000000 -0.011210
# 5 -0.001549 -0.002976 -0.001784 0.000000 0.035420 0.000000
# 6 0.000000 0.000000 0.000000 -0.011210 0.000000 0.047074
#
#
# Mechanical properties :
#
#
# Convention : Reuss Voigt Hill
#
# Bulk Modulus (GPa) = 41.39543 45.43861 43.41702
# Shear Modulus (GPa) = 28.03454 30.60624 29.32039
#
# Velocity S-wave (km/s) = 3.79318 3.96334 3.87919
# Velocity P-wave (km/s) = 6.35843 6.65316 6.50747
#
# Compressibility (1/GPa) = 0.02415726
#
# Stress axis : x y z
#
# Youngs Moduli (GPa) = 82.15039 101.13698 65.70600
#
# Poissons Ratio (x) = 0.25505 0.19716
# Poissons Ratio (y) = 0.20717 0.06825
# Poissons Ratio (z) = 0.24650 0.10506
#
# Static dielectric constant tensor:
#      x y z
#    x 1.743640 0.000000 -0.018810 
#    y 0.000000 1.701500 0.000000 
#    z -0.018810 0.000000 1.713650 
# 
# From -- ./inp_files/35441.got.cif
#   From: 2010.05.17/outbox.cif.g08.bks.cpg/sg10_18_cif.got.tgz:35441.got - 2010.06.03 11:33:40.
