data_PCOD9142032
_publ_section_title
;
Structure prediction by ZEFSAII (Michael W. Deem and Ramdas Pophale) SiO2 
 PCOD9142032
Probable space group: P 2/M
;
_chemical_formula_sum "Si O2"
_cell_formula_units_Z 32
_cell_length_a 8.350422
_cell_length_b 12.124514
_cell_length_c 16.850266
_cell_angle_alpha 90.000000
_cell_angle_beta 86.652582
_cell_angle_gamma 90.000000
_cell_volume 1703.091232
_symmetry_space_group_name_H-M "P 2/M"
_symmetry_group_IT_number 10
_symmetry_cell_setting 'monoclinic'
loop_
_space_group_symop_operation_xyz
x,y,z
-x,y,-z
-x,-y,-z
x,-y,z
loop_
_atom_site_type_symbol
_atom_site_label
_atom_site_fract_x
_atom_site_fract_y
_atom_site_fract_z
Si Si1 0.430889 0.626799 0.676101
Si Si2 0.333278 0.630009 0.959166
Si Si3 0.262206 0.735575 0.268336
Si Si4 0.841842 0.625775 0.877949
Si Si5 0.202270 0.284941 0.560278
Si Si6 0.954748 0.130010 0.306347
Si Si7 0.813790 0.301980 0.189640
Si Si8 0.868463 0.618525 0.589475
O O1 0.488656 0.500000 0.670671
O O2 0.559649 0.715616 0.704627
O O3 0.362795 0.670590 0.594836
O O4 0.281102 0.631002 0.740663
O O5 0.332518 0.500000 0.934858
O O6 0.301675 0.703937 0.883228
O O7 0.500000 0.649939 0.000000
O O8 0.195847 0.646747 0.029170
O O9 0.254312 0.708911 0.175972
O O10 0.170480 0.638052 0.318183
O O11 0.144236 0.836547 0.294438
O O12 0.788203 0.500000 0.864267
O O13 0.026360 0.640218 0.848364
O O14 0.130851 0.181624 0.612155
O O15 0.206098 0.285797 0.464499
O O16 0.059062 0.372807 0.577519
O O17 0.871260 0.191958 0.234044
O O18 0.935270 0.000000 0.305026
O O19 0.807756 0.500000 0.565462
#
# Coordination Sequence:
#
# PCOD9142032 Si02
#       8
#     4   4   4   4   4   4   4   4
#     4  11  19  30  48  77 114 141 166 206 264 330
#     4  10  19  30  48  78 117 151 173 204 259 324
#     4  10  21  32  48  74 103 142 180 215 263 318
#     4  10  18  30  48  72 105 143 179 211 253 314
#     4   9  19  31  50  77 100 134 174 213 260 314
#     4   9  20  40  59  73  96 134 187 238 270 298
#     4  10  20  32  52  77 102 137 180 219 260 311
#     4  10  17  31  50  75 111 143 174 210 258 325
#
# _framework density 18.789362000000001
#
# number of rings (size 3 to 8) (size 9 to 14) (size 15 to 20)
#    0.000    2.125    0.000    5.625    0.000    2.500 
#    0.000    8.750    0.000    6.375    0.000   11.375 
#    0.000    0.000    0.000    0.000    0.000    0.000 
#
# Total GULP energy -178215.699122 kJ/mol
# GULP energy per Si atom -5569.240598 kJ/mol
# Density = 1.874660 g / cm^3
# Si number density = 18.789362 Si / 1000 Ang^3
#
#
#
# Elastic Constant Matrix: (Units=GPa)
#
#
# Indices 1 2 3 4 5 6 
#
# 1 74.9627 16.3634 9.6443 0.0000 15.4300 0.0000
# 2 16.3634 105.6581 32.7963 0.0000 5.3801 0.0000
# 3 9.6443 32.7963 72.9954 0.0000 15.9583 0.0000
# 4 0.0000 0.0000 0.0000 13.6833 0.0000 1.3781
# 5 15.4300 5.3801 15.9583 0.0000 36.2154 0.0000
# 6 0.0000 0.0000 0.0000 1.3781 0.0000 11.2183
#
#
#
# Elastic Compliance Matrix: (Units=1/GPa)
#
#
# Indices 1 2 3 4 5 6 
#
# 1 0.015044 -0.002113 0.000326 0.000000 -0.006239 0.000000
# 2 -0.002113 0.011307 -0.005124 0.000000 0.001479 0.000000
# 3 0.000326 -0.005124 0.017509 0.000000 -0.007093 0.000000
# 4 0.000000 0.000000 0.000000 0.073997 0.000000 -0.009090
# 5 -0.006239 0.001479 -0.007093 0.000000 0.033177 0.000000
# 6 0.000000 0.000000 0.000000 -0.009090 0.000000 0.090257
#
#
# Mechanical properties :
#
#
# Convention : Reuss Voigt Hill
#
# Bulk Modulus (GPa) = 33.29246 41.24715 37.26980
# Shear Modulus (GPa) = 18.85894 25.21088 22.03491
#
# Velocity S-wave (km/s) = 3.17156 3.66698 3.42823
# Velocity P-wave (km/s) = 5.58292 6.31895 5.96230
#
# Compressibility (1/GPa) = 0.03003683
#
# Stress axis : x y z
#
# Youngs Moduli (GPa) = 66.47350 88.44036 57.11208
#
# Poissons Ratio (x) = 0.18690 -0.01861
# Poissons Ratio (y) = 0.14048 0.29266
# Poissons Ratio (z) = -0.02166 0.45319
#
# Static dielectric constant tensor:
#      x y z
#    x 1.739430 0.000000 -0.005020 
#    y 0.000000 1.596620 0.000000 
#    z -0.005020 0.000000 1.693660 
# 
# From -- ./inp_files/74839.got.cif
#   From: 2010.05.17/outbox.cif.g08.bks.cpg/sg10_38_cif.got.tgz:74839.got - 2010.06.03 11:33:40.
