data_PCOD9142526
_publ_section_title
;
Structure prediction by ZEFSAII (Michael W. Deem and Ramdas Pophale) SiO2 
 PCOD9142526
Probable space group: P 2/M
;
_chemical_formula_sum "Si O2"
_cell_formula_units_Z 28
_cell_length_a 15.214591
_cell_length_b 13.611908
_cell_length_c 12.652597
_cell_angle_alpha 90.000000
_cell_angle_beta 36.054203
_cell_angle_gamma 90.000000
_cell_volume 1542.206662
_symmetry_space_group_name_H-M "P 2/M"
_symmetry_group_IT_number 10
_symmetry_cell_setting 'monoclinic'
loop_
_space_group_symop_operation_xyz
x,y,z
-x,y,-z
-x,-y,-z
x,-y,z
loop_
_atom_site_type_symbol
_atom_site_label
_atom_site_fract_x
_atom_site_fract_y
_atom_site_fract_z
Si Si1 0.844935 0.882814 0.698704
Si Si2 0.334674 0.119419 0.928182
Si Si3 0.921748 0.388435 0.960186
Si Si4 0.325037 0.116355 0.348398
Si Si5 0.336264 0.615803 0.641631
Si Si6 0.322250 0.116258 0.697821
Si Si7 0.162414 0.757562 0.677186
O O1 0.718921 0.872924 0.731093
O O2 0.000000 0.842921 0.500000
O O3 0.869943 0.000000 0.690509
O O4 0.781167 0.843554 0.871083
O O5 0.505374 0.146501 0.790800
O O6 0.299248 0.144221 0.842079
O O7 0.333028 0.000000 0.934948
O O8 0.935358 0.500000 0.901298
O O9 0.002491 0.296404 0.826874
O O10 0.754384 0.368694 0.161401
O O11 0.000000 0.393331 0.000000
O O12 0.212596 0.180930 0.527621
O O13 0.308669 0.000000 0.391240
O O14 0.500000 0.654497 0.500000
O O15 0.337957 0.500000 0.622430
O O16 0.267095 0.665655 0.606010
O O17 0.500000 0.130601 0.500000
O O18 0.206598 0.172734 0.734098
O O19 0.296182 0.000000 0.710127
#
# Coordination Sequence:
#
# PCOD9142526 Si02
#       7
#     4   4   4   4   4   4   4
#     4   9  18  34  50  64  87 124 177 230 258 278
#     4   9  17  31  50  66  87 131 178 212 250 288
#     4   8  16  32  49  66  96 131 165 202 245 297
#     4  10  19  31  49  71  98 133 171 209 248 296
#     4   9  18  33  52  71  95 130 172 211 243 291
#     4  10  18  29  45  70 107 143 170 200 243 302
#     4  11  18  28  47  75 108 134 160 195 256 306
#
# _framework density 18.155802000000001
#
# number of rings (size 3 to 8) (size 9 to 14) (size 15 to 20)
#    0.000    2.571    1.429    2.571    0.000    1.714 
#    7.714    0.000    0.000    7.714    0.000    0.000 
#    0.000   16.000    0.000    0.000    0.000    0.571 
#
# Total GULP energy -155945.322373 kJ/mol
# GULP energy per Si atom -5569.475799 kJ/mol
# Density = 1.811448 g / cm^3
# Si number density = 18.155802 Si / 1000 Ang^3
#
#
#
# Elastic Constant Matrix: (Units=GPa)
#
#
# Indices 1 2 3 4 5 6 
#
# 1 31.9658 15.7688 36.3365 0.0000 1.9172 0.0000
# 2 15.7688 83.6421 33.6537 0.0000 1.8261 0.0000
# 3 36.3365 33.6537 122.6645 0.0000 10.1285 0.0000
# 4 0.0000 0.0000 0.0000 20.4429 0.0000 -4.3886
# 5 1.9172 1.8261 10.1285 0.0000 28.2965 0.0000
# 6 0.0000 0.0000 0.0000 -4.3886 0.0000 13.2320
#
#
#
# Elastic Compliance Matrix: (Units=1/GPa)
#
#
# Indices 1 2 3 4 5 6 
#
# 1 0.048279 -0.003740 -0.013422 0.000000 0.001775 0.000000
# 2 -0.003740 0.013735 -0.002687 0.000000 0.000329 0.000000
# 3 -0.013422 -0.002687 0.013165 0.000000 -0.003630 0.000000
# 4 0.000000 0.000000 0.000000 0.052667 0.000000 0.017468
# 5 0.001775 0.000329 -0.003630 0.000000 0.036498 0.000000
# 6 0.000000 0.000000 0.000000 0.017468 0.000000 0.081368
#
#
# Mechanical properties :
#
#
# Convention : Reuss Voigt Hill
#
# Bulk Modulus (GPa) = 28.18483 45.53226 36.85854
# Shear Modulus (GPa) = 16.82156 22.56185 19.69170
#
# Velocity S-wave (km/s) = 3.04717 3.52899 3.29689
# Velocity P-wave (km/s) = 5.28563 6.46050 5.90237
#
# Compressibility (1/GPa) = 0.03548008
#
# Stress axis : x y z
#
# Youngs Moduli (GPa) = 20.71284 72.80683 75.95740
#
# Poissons Ratio (x) = 0.27232 1.01950
# Poissons Ratio (y) = 0.07747 0.20413
# Poissons Ratio (z) = 0.27801 0.19567
#
# Static dielectric constant tensor:
#      x y z
#    x 1.648890 0.000000 -0.054470 
#    y 0.000000 1.655880 0.000000 
#    z -0.054470 0.000000 1.699930 
# 
# From -- ./inp_files/51392.got.cif
#   From: 2010.05.17/outbox.cif.g08.bks.cpg/sg10_26_cif.got.tgz:51392.got - 2010.06.03 11:33:40.
