data_PCOD9142786
_publ_section_title
;
Structure prediction by ZEFSAII (Michael W. Deem and Ramdas Pophale) SiO2 
 PCOD9142786
Probable space group: P 2/M
;
_chemical_formula_sum "Si O2"
_cell_formula_units_Z 28
_cell_length_a 14.912815
_cell_length_b 8.674222
_cell_length_c 13.873509
_cell_angle_alpha 90.000000
_cell_angle_beta 76.721104
_cell_angle_gamma 90.000000
_cell_volume 1746.654224
_symmetry_space_group_name_H-M "P 2/M"
_symmetry_group_IT_number 10
_symmetry_cell_setting 'monoclinic'
loop_
_space_group_symop_operation_xyz
x,y,z
-x,y,-z
-x,-y,-z
x,-y,z
loop_
_atom_site_type_symbol
_atom_site_label
_atom_site_fract_x
_atom_site_fract_y
_atom_site_fract_z
Si Si1 0.601523 0.816734 0.582330
Si Si2 0.713733 0.185072 0.362117
Si Si3 0.094722 0.683680 0.368014
Si Si4 0.899048 0.815489 0.418702
Si Si5 0.432961 0.317975 0.730533
Si Si6 0.293420 0.684115 0.261829
Si Si7 0.539706 0.184435 0.885871
O O1 0.651579 0.775912 0.470999
O O2 0.506921 0.731418 0.630390
O O3 0.668837 0.771054 0.653001
O O4 0.584125 0.000000 0.586948
O O5 0.817489 0.229493 0.366006
O O6 0.666094 0.262466 0.282283
O O7 0.710637 0.000000 0.350927
O O8 0.080254 0.500000 0.372533
O O9 0.114314 0.738033 0.473087
O O10 0.184973 0.718306 0.282309
O O11 0.000669 0.766101 0.360296
O O12 0.894832 0.000000 0.433036
O O13 0.435320 0.500000 0.742842
O O14 0.470626 0.238493 0.818264
O O15 0.303774 0.500000 0.273074
O O16 0.361481 0.738654 0.160845
O O17 0.549655 0.000000 0.877690
O O18 0.500000 0.225940 0.000000
#
# Coordination Sequence:
#
# PCOD9142786 Si02
#       7
#     4   4   4   4   4   4   4
#     4  10  18  30  46  64  93 130 165 200 232 272
#     4  10  20  32  45  65  94 131 168 200 234 274
#     4  10  19  30  44  67  98 130 163 201 242 279
#     4  10  19  30  46  66  92 131 173 205 234 271
#     4  11  22  32  47  70  95 125 158 195 239 290
#     4  10  19  30  48  72  99 129 160 197 241 288
#     4  10  21  37  56  75  95 121 155 198 244 289
#
# _framework density 16.030647999999999
#
# number of rings (size 3 to 8) (size 9 to 14) (size 15 to 20)
#    0.000    1.857    1.429    6.429    0.000    6.857 
#    0.000    0.000    0.000    0.000    0.000    1.000 
#    0.000    8.000    0.000    0.000    0.000    0.000 
#
# Total GULP energy -156224.660053 kJ/mol
# GULP energy per Si atom -5579.452145 kJ/mol
# Density = 1.599416 g / cm^3
# Si number density = 16.030648 Si / 1000 Ang^3
#
#
#
# Elastic Constant Matrix: (Units=GPa)
#
#
# Indices 1 2 3 4 5 6 
#
# 1 110.6266 13.5439 34.8360 0.0000 2.0921 0.0000
# 2 13.5439 30.2785 13.8527 0.0000 1.7874 0.0000
# 3 34.8360 13.8527 61.0251 0.0000 -9.4574 0.0000
# 4 0.0000 0.0000 0.0000 -278.8252 0.0000 -287.8905
# 5 2.0921 1.7874 -9.4574 0.0000 12.2531 0.0000
# 6 0.0000 0.0000 0.0000 -287.8905 0.0000 -252.7937
#
#
#
# Elastic Compliance Matrix: (Units=1/GPa)
#
#
# Indices 1 2 3 4 5 6 
#
# 1 0.011736 -0.001326 -0.007586 0.000000 -0.007666 0.000000
# 2 -0.001326 0.039062 -0.010175 0.000000 -0.013325 0.000000
# 3 -0.007586 -0.010175 0.026645 0.000000 0.023345 0.000000
# 4 0.000000 0.000000 0.000000 0.020394 0.000000 -0.023225
# 5 -0.007666 -0.013325 0.023345 0.000000 0.102883 0.000000
# 6 0.000000 0.000000 0.000000 -0.023225 0.000000 0.022494
#
#
# Mechanical properties :
#
#
# Convention : Reuss Voigt Hill
#
# Bulk Modulus (GPa) = 25.46638 36.26616 30.86627
# Shear Modulus (GPa) = 18.21652 -94.55997 -38.17172
#
# Velocity S-wave (km/s) = 3.37464 -7.68863 -4.88502
# Velocity P-wave (km/s) = 5.57717 7.49319 3.53858
#
# Compressibility (1/GPa) = 0.03926745
#
# Stress axis : x y z
#
# Youngs Moduli (GPa) = 85.21081 25.60049 37.53075
#
# Poissons Ratio (x) = 0.03395 0.28471
# Poissons Ratio (y) = 0.11301 0.38188
# Poissons Ratio (z) = 0.64642 0.26049
#
# Static dielectric constant tensor:
#      x y z
#    x 1.572250 0.000000 -0.006590 
#    y 0.000000 1.538820 0.000000 
#    z -0.006590 0.000000 1.514060 
# 
# From -- ./inp_files/65727.got.cif
#   From: 2010.05.17/outbox.cif.g08.bks.cpg/sg10_33_cif.got.tgz:65727.got - 2010.06.03 11:33:40.
