data_PCOD9142026
_publ_section_title
;
Structure prediction by ZEFSAII (Michael W. Deem and Ramdas Pophale) SiO2 
 PCOD9142026
Probable space group: P 2/M
;
_chemical_formula_sum "Si O2"
_cell_formula_units_Z 28
_cell_length_a 21.654984
_cell_length_b 11.885769
_cell_length_c 11.199800
_cell_angle_alpha 90.000000
_cell_angle_beta 32.480303
_cell_angle_gamma 90.000000
_cell_volume 1548.023324
_symmetry_space_group_name_H-M "P 2/M"
_symmetry_group_IT_number 10
_symmetry_cell_setting 'monoclinic'
loop_
_space_group_symop_operation_xyz
x,y,z
-x,y,-z
-x,-y,-z
x,-y,z
loop_
_atom_site_type_symbol
_atom_site_label
_atom_site_fract_x
_atom_site_fract_y
_atom_site_fract_z
Si Si1 0.844254 0.132747 0.081156
Si Si2 0.367701 0.634146 0.189209
Si Si3 0.616686 0.000000 0.958010
Si Si4 0.634396 0.132341 0.254612
Si Si5 0.204754 0.793591 0.599968
Si Si6 0.931078 0.132988 0.416421
Si Si7 0.271065 0.227364 0.133589
Si Si8 0.632814 0.000000 0.648542
O O1 0.717572 0.144374 0.232415
O O2 0.863647 0.212771 0.164008
O O3 0.865014 0.000000 0.078956
O O4 0.935919 0.157140 0.826747
O O5 0.364333 0.500000 0.202697
O O6 0.279009 0.690636 0.427586
O O7 0.325211 0.675865 0.128099
O O8 0.500000 0.671760 0.000000
O O9 0.488345 0.000000 0.218934
O O10 0.679719 0.112486 0.890056
O O11 0.612798 0.000000 0.822356
O O12 0.500000 0.151261 0.500000
O O13 0.647398 0.000000 0.195063
O O14 0.683473 0.216948 0.074459
O O15 0.130514 0.841900 0.611055
O O16 0.295758 0.888978 0.489372
O O17 0.864868 0.210316 0.620350
O O18 0.919677 0.000000 0.464543
#
# Coordination Sequence:
#
# PCOD9142026 Si02
#       8
#     4   4   2   4   4   4   4   2
#     4  10  21  31  48  77 116 150 173 207 256 318
#     4  10  22  36  54  80 104 136 179 225 270 313
#     4  11  18  26  45  79 102 132 168 206 265 321
#     4  10  22  34  47  77 114 145 175 210 258 318
#     4  11  18  31  51  77 109 140 167 216 269 317
#     4  10  17  31  49  77 108 141 182 213 256 316
#     4  11  19  34  54  72 107 141 174 220 261 311
#     4  11  18  24  45  80 105 130 165 201 273 328
#
# _framework density 18.087582999999999
#
# number of rings (size 3 to 8) (size 9 to 14) (size 15 to 20)
#    0.000    1.571    5.714    1.286    4.000    1.714 
#    0.000    2.143    0.000    8.143    0.000    4.000 
#    0.000    0.000    0.000    0.000    0.000    0.000 
#
# Total GULP energy -156080.533662 kJ/mol
# GULP energy per Si atom -5574.304774 kJ/mol
# Density = 1.804641 g / cm^3
# Si number density = 18.087583 Si / 1000 Ang^3
#
#
#
# Elastic Constant Matrix: (Units=GPa)
#
#
# Indices 1 2 3 4 5 6 
#
# 1 53.4621 8.7455 27.1158 0.0000 6.5381 0.0000
# 2 8.7455 47.8809 12.4228 0.0000 2.0090 0.0000
# 3 27.1158 12.4228 88.6175 0.0000 0.1723 0.0000
# 4 0.0000 0.0000 0.0000 15.4624 0.0000 -2.9538
# 5 6.5381 2.0090 0.1723 0.0000 34.7659 0.0000
# 6 0.0000 0.0000 0.0000 -2.9538 0.0000 13.4142
#
#
#
# Elastic Compliance Matrix: (Units=1/GPa)
#
#
# Indices 1 2 3 4 5 6 
#
# 1 0.022988 -0.002285 -0.006706 0.000000 -0.004158 0.000000
# 2 -0.002285 0.021954 -0.002377 0.000000 -0.000827 0.000000
# 3 -0.006706 -0.002377 0.013667 0.000000 0.001331 0.000000
# 4 0.000000 0.000000 0.000000 0.067513 0.000000 0.014866
# 5 -0.004158 -0.000827 0.001331 0.000000 0.029587 0.000000
# 6 0.000000 0.000000 0.000000 0.014866 0.000000 0.077821
#
#
# Mechanical properties :
#
#
# Convention : Reuss Voigt Hill
#
# Bulk Modulus (GPa) = 27.87493 31.83653 29.85573
# Shear Modulus (GPa) = 18.64121 22.17358 20.40739
#
# Velocity S-wave (km/s) = 3.21379 3.50508 3.36259
# Velocity P-wave (km/s) = 5.40517 5.83270 5.62300
#
# Compressibility (1/GPa) = 0.03587453
#
# Stress axis : x y z
#
# Youngs Moduli (GPa) = 43.50063 45.55008 73.16918
#
# Poissons Ratio (x) = 0.10406 0.49065
# Poissons Ratio (y) = 0.09938 0.17392
# Poissons Ratio (z) = 0.29170 0.10827
#
# Static dielectric constant tensor:
#      x y z
#    x 1.657060 0.000000 0.029440 
#    y 0.000000 1.570600 0.000000 
#    z 0.029440 0.000000 1.799750 
# 
# From -- ./inp_files/56854.got.cif
#   From: 2010.05.17/outbox.cif.g08.bks.cpg/sg10_29_cif.got.tgz:56854.got - 2010.06.03 11:33:40.
