data_PCOD9142020
_publ_section_title
;
Structure prediction by ZEFSAII (Michael W. Deem and Ramdas Pophale) SiO2 
 PCOD9142020
Probable space group: P 2/M
;
_chemical_formula_sum "Si O2"
_cell_formula_units_Z 20
_cell_length_a 9.503922
_cell_length_b 7.521594
_cell_length_c 13.906026
_cell_angle_alpha 90.000000
_cell_angle_beta 47.641837
_cell_angle_gamma 90.000000
_cell_volume 734.563561
_symmetry_space_group_name_H-M "P 2/M"
_symmetry_group_IT_number 10
_symmetry_cell_setting 'monoclinic'
loop_
_space_group_symop_operation_xyz
x,y,z
-x,y,-z
-x,-y,-z
x,-y,z
loop_
_atom_site_type_symbol
_atom_site_label
_atom_site_fract_x
_atom_site_fract_y
_atom_site_fract_z
Si Si1 0.429967 0.288411 0.889444
Si Si2 0.797556 0.206099 0.619704
Si Si3 0.884476 0.290068 0.835551
Si Si4 0.258786 0.711384 0.771225
Si Si5 0.751966 0.715913 0.432167
O O1 0.395154 0.500000 0.910086
O O2 0.655182 0.271626 0.767762
O O3 0.334465 0.213886 0.835808
O O4 0.314293 0.216184 0.034346
O O5 0.691877 0.224785 0.564757
O O6 0.000000 0.294789 0.500000
O O7 0.825320 0.000000 0.625243
O O8 0.864722 0.500000 0.824410
O O9 0.031122 0.273181 0.859397
O O10 0.025509 0.222471 0.686860
O O11 0.301848 0.500000 0.754496
O O12 0.333044 0.773874 0.631955
O O13 0.743652 0.500000 0.435792
#
# Coordination Sequence:
#
# PCOD9142020 Si02
#       5
#     4   4   4   4   4
#     4  10  17  30  57  85 105 130 163 200 246 300
#     4  11  25  41  50  62  95 141 183 219 252 288
#     4   7  13  27  52  86 112 127 150 193 250 307
#     4   7  13  26  52  86 113 127 148 193 250 307
#     4   8  16  33  56  79 104 130 161 201 249 303
#
# _framework density 27.227049999999998
#
# number of rings (size 3 to 8) (size 9 to 14) (size 15 to 20)
#    1.200    2.200    0.000    1.200    0.000    4.800 
#    0.000    7.000    0.000    7.200    0.000    0.000 
#    0.000    0.000    0.000    0.000    0.000    0.000 
#
# Total GULP energy -111516.970909 kJ/mol
# GULP energy per Si atom -5575.848545 kJ/mol
# Density = 2.716508 g / cm^3
# Si number density = 27.227050 Si / 1000 Ang^3
#
#
#
# Elastic Constant Matrix: (Units=GPa)
#
#
# Indices 1 2 3 4 5 6 
#
# 1 92.3747 2.0374 30.7265 0.0000 -0.4555 0.0000
# 2 2.0374 82.9807 0.5315 0.0000 5.5766 0.0000
# 3 30.7265 0.5315 223.9871 0.0000 18.2793 0.0000
# 4 0.0000 0.0000 0.0000 -31.9987 0.0000 10.3506
# 5 -0.4555 5.5766 18.2793 0.0000 36.1190 0.0000
# 6 0.0000 0.0000 0.0000 10.3506 0.0000 51.7338
#
#
#
# Elastic Compliance Matrix: (Units=1/GPa)
#
#
# Indices 1 2 3 4 5 6 
#
# 1 0.011385 -0.000338 -0.001645 0.000000 0.001028 0.000000
# 2 -0.000338 0.012191 0.000179 0.000000 -0.001977 0.000000
# 3 -0.001645 0.000179 0.004896 0.000000 -0.002526 0.000000
# 4 0.000000 0.000000 0.000000 -0.029352 0.000000 0.005873
# 5 0.001028 -0.001977 -0.002526 0.000000 0.029283 0.000000
# 6 0.000000 0.000000 0.000000 0.005873 0.000000 0.018155
#
#
# Mechanical properties :
#
#
# Convention : Reuss Voigt Hill
#
# Bulk Modulus (GPa) = 40.21939 51.77034 45.99487
# Shear Modulus (GPa) = 85.53678 35.57397 60.55538
#
# Velocity S-wave (km/s) = 5.61109 3.61857 4.72114
# Velocity P-wave (km/s) = 7.53545 6.04271 6.82998
#
# Compressibility (1/GPa) = 0.02486363
#
# Stress axis : x y z
#
# Youngs Moduli (GPa) = 87.83368 82.02762 204.25167
#
# Poissons Ratio (x) = 0.02773 0.33598
# Poissons Ratio (y) = 0.02970 -0.03652
# Poissons Ratio (z) = 0.14448 -0.01467
#
# Static dielectric constant tensor:
#      x y z
#    x 2.309550 0.000000 -0.110270 
#    y 0.000000 2.017420 0.000000 
#    z -0.110270 0.000000 2.204260 
# 
# From -- ./inp_files/48931.got.cif
#   From: 2010.05.17/outbox.cif.g08.bks.cpg/sg10_25_cif.got.tgz:48931.got - 2010.06.03 11:33:40.
