data_PCOD9142277
_publ_section_title
;
Structure prediction by ZEFSAII (Michael W. Deem and Ramdas Pophale) SiO2 
 PCOD9142277
Probable space group: P 2/M
;
_chemical_formula_sum "Si O2"
_cell_formula_units_Z 28
_cell_length_a 22.763648
_cell_length_b 8.943260
_cell_length_c 14.484996
_cell_angle_alpha 90.000000
_cell_angle_beta 141.137760
_cell_angle_gamma 90.000000
_cell_volume 1850.270577
_symmetry_space_group_name_H-M "P 2/M"
_symmetry_group_IT_number 10
_symmetry_cell_setting 'monoclinic'
loop_
_space_group_symop_operation_xyz
x,y,z
-x,y,-z
-x,-y,-z
x,-y,z
loop_
_atom_site_type_symbol
_atom_site_label
_atom_site_fract_x
_atom_site_fract_y
_atom_site_fract_z
Si Si1 0.207115 0.179820 0.349791
Si Si2 0.643421 0.677653 0.344854
Si Si3 0.724259 0.179578 0.255577
Si Si4 0.037636 0.677046 0.257327
Si Si5 0.463261 0.171886 0.061225
Si Si6 0.912018 0.827294 0.963617
Si Si7 0.075580 0.679015 0.515404
O O1 0.302543 0.251270 0.502629
O O2 0.125334 0.238506 0.317931
O O3 0.210108 0.000000 0.358605
O O4 0.174741 0.221378 0.206376
O O5 0.652812 0.500000 0.356036
O O6 0.693682 0.744342 0.314635
O O7 0.535214 0.727013 0.205402
O O8 0.826413 0.236237 0.354191
O O9 0.721891 0.000000 0.265014
O O10 0.644710 0.217923 0.082313
O O11 0.050972 0.500000 0.260462
O O12 0.037342 0.709316 0.365599
O O13 0.944928 0.730103 0.090099
O O14 0.469316 0.000000 0.100789
O O15 0.500000 0.173452 0.000000
O O16 0.899413 0.000000 0.976120
O O17 0.000000 0.823695 0.000000
O O18 0.092277 0.500000 0.542330
O O19 0.000000 0.720864 0.500000
#
# Coordination Sequence:
#
# PCOD9142277 Si02
#       7
#     4   4   4   4   4   4   4
#     4  10  18  28  42  60  86 117 145 175 213 258
#     4  11  19  26  41  65  89 115 145 176 214 259
#     4  10  19  31  46  61  82 114 149 184 219 256
#     4  10  18  28  43  61  82 112 146 182 220 255
#     4   8  16  29  42  59  83 112 144 176 213 257
#     4   8  16  28  41  58  81 112 143 173 214 259
#     4  10  21  34  46  63  88 117 150 187 224 258
#
# _framework density 15.132923
#
# number of rings (size 3 to 8) (size 9 to 14) (size 15 to 20)
#    0.000    2.429    1.429    4.286    0.000    7.143 
#    0.000    0.000    0.000    0.000    0.000    0.000 
#    0.000    1.143    0.000   12.857    0.000    5.714 
#
# Total GULP energy -156009.469646 kJ/mol
# GULP energy per Si atom -5571.766773 kJ/mol
# Density = 1.509848 g / cm^3
# Si number density = 15.132923 Si / 1000 Ang^3
#
#
#
# Elastic Constant Matrix: (Units=GPa)
#
#
# Indices 1 2 3 4 5 6 
#
# 1 45.9390 27.8151 42.1528 0.0000 7.3131 0.0000
# 2 27.8151 67.7506 65.3937 0.0000 8.1574 0.0000
# 3 42.1528 65.3937 147.7977 0.0000 20.4404 0.0000
# 4 0.0000 0.0000 0.0000 22.8117 0.0000 0.4880
# 5 7.3131 8.1574 20.4404 0.0000 14.3755 0.0000
# 6 0.0000 0.0000 0.0000 0.4880 0.0000 -10.6574
#
#
#
# Elastic Compliance Matrix: (Units=1/GPa)
#
#
# Indices 1 2 3 4 5 6 
#
# 1 0.031741 -0.007600 -0.005045 0.000000 -0.004660 0.000000
# 2 -0.007600 0.027627 -0.010484 0.000000 0.003097 0.000000
# 3 -0.005045 -0.010484 0.014522 0.000000 -0.012132 0.000000
# 4 0.000000 0.000000 0.000000 0.043794 0.000000 0.002005
# 5 -0.004660 0.003097 -0.012132 0.000000 0.087427 0.000000
# 6 0.000000 0.000000 0.000000 0.002005 0.000000 -0.093740
#
#
# Mechanical properties :
#
#
# Convention : Reuss Voigt Hill
#
# Bulk Modulus (GPa) = 36.19283 59.13450 47.66367
# Shear Modulus (GPa) = 29.96849 13.71435 21.84142
#
# Velocity S-wave (km/s) = 4.45494 3.01368 3.80321
# Velocity P-wave (km/s) = 7.10145 7.16039 7.13098
#
# Compressibility (1/GPa) = 0.02762978
#
# Stress axis : x y z
#
# Youngs Moduli (GPa) = 31.50452 36.19629 68.86225
#
# Poissons Ratio (x) = 0.27511 0.34744
# Poissons Ratio (y) = 0.23945 0.72198
# Poissons Ratio (z) = 0.15895 0.37950
#
# Static dielectric constant tensor:
#      x y z
#    x 1.466940 0.000000 0.018300 
#    y 0.000000 1.505310 0.000000 
#    z 0.018300 0.000000 1.544560 
# 
# From -- ./inp_files/54968.got.cif
#   From: 2010.05.17/outbox.cif.g08.bks.cpg/sg10_28_cif.got.tgz:54968.got - 2010.06.03 11:33:40.
