data_PCOD9142935
_publ_section_title
;
Structure prediction by ZEFSAII (Michael W. Deem and Ramdas Pophale) SiO2 
 PCOD9142935
Probable space group: P 2/M
;
_chemical_formula_sum "Si O2"
_cell_formula_units_Z 30
_cell_length_a 15.219976
_cell_length_b 21.844205
_cell_length_c 16.033006
_cell_angle_alpha 90.000000
_cell_angle_beta 161.267530
_cell_angle_gamma 90.000000
_cell_volume 1711.877678
_symmetry_space_group_name_H-M "P 2/M"
_symmetry_group_IT_number 10
_symmetry_cell_setting 'monoclinic'
loop_
_space_group_symop_operation_xyz
x,y,z
-x,y,-z
-x,-y,-z
x,-y,z
loop_
_atom_site_type_symbol
_atom_site_label
_atom_site_fract_x
_atom_site_fract_y
_atom_site_fract_z
Si Si1 0.689539 0.632530 0.251926
Si Si2 0.685848 0.886781 0.243052
Si Si3 0.932063 0.202772 0.675527
Si Si4 0.189060 0.068776 0.468290
Si Si5 0.477179 0.760985 0.828324
Si Si6 0.688143 0.500000 0.251396
Si Si7 0.246183 0.935664 0.333676
Si Si8 0.178613 0.803286 0.235406
O O1 0.625912 0.693421 0.245252
O O2 0.642842 0.566070 0.253164
O O3 0.000000 0.634930 0.500000
O O4 0.500000 0.634421 0.000000
O O5 0.649551 0.918848 0.300750
O O6 0.629580 0.814281 0.205834
O O7 0.000000 0.895812 0.500000
O O8 0.500000 0.909472 0.000000
O O9 0.990872 0.130439 0.707392
O O10 0.654453 0.218143 0.377418
O O11 0.883794 0.220006 0.728145
O O12 0.195984 0.237266 0.878404
O O13 0.343949 0.069461 0.518021
O O14 0.066644 0.000000 0.364445
O O15 0.000000 0.500000 0.500000
O O16 0.500000 0.500000 0.000000
O O17 0.500000 0.937976 0.500000
O O18 0.091566 0.874592 0.169884
O O19 0.089773 0.000000 0.186267
O O20 0.500000 0.800654 0.500000
O O21 0.000000 0.776642 0.000000
#
# Coordination Sequence:
#
# PCOD9142935 Si02
#       8
#     4   4   4   4   4   2   4   4
#     4  10  18  30  49  74 102 136 171 200 237 281
#     4  11  22  36  51  69  93 125 169 213 248 290
#     4  10  21  35  51  73  97 124 162 205 250 299
#     4   9  19  35  52  70  94 123 158 207 263 309
#     4  11  20  34  52  71  97 129 166 209 245 281
#     4   8  16  28  44  70 104 134 164 198 232 282
#     4   8  15  30  51  73  93 114 145 187 242 314
#     4  10  19  32  50  70  94 123 150 185 241 303
#
# _framework density 17.524616999999999
#
# number of rings (size 3 to 8) (size 9 to 14) (size 15 to 20)
#    0.000    2.267    0.000    4.000    0.000    1.867 
#    0.000    5.333    0.000   17.600    0.000    0.000 
#    0.000    0.000    0.000   12.000    0.000    1.200 
#
# Total GULP energy -167065.223548 kJ/mol
# GULP energy per Si atom -5568.840785 kJ/mol
# Density = 1.748473 g / cm^3
# Si number density = 17.524617 Si / 1000 Ang^3
#
#
#
# Elastic Constant Matrix: (Units=GPa)
#
#
# Indices 1 2 3 4 5 6 
#
# 1 73.9125 15.6319 25.6512 0.0000 -23.7185 0.0000
# 2 15.6319 85.2439 -12.7072 0.0000 3.7140 0.0000
# 3 25.6512 -12.7072 75.3917 0.0000 -9.7347 0.0000
# 4 0.0000 0.0000 0.0000 -17.7514 0.0000 9.4331
# 5 -23.7185 3.7140 -9.7347 0.0000 28.5972 0.0000
# 6 0.0000 0.0000 0.0000 9.4331 0.0000 7.3498
#
#
#
# Elastic Compliance Matrix: (Units=1/GPa)
#
#
# Indices 1 2 3 4 5 6 
#
# 1 0.022533 -0.005841 -0.006422 0.000000 0.017261 0.000000
# 2 -0.005841 0.013571 0.003579 0.000000 -0.005389 0.000000
# 3 -0.006422 0.003579 0.016008 0.000000 -0.000342 0.000000
# 4 0.000000 0.000000 0.000000 -0.033491 0.000000 0.042985
# 5 0.017261 -0.005389 -0.000342 0.000000 0.049868 0.000000
# 6 0.000000 0.000000 0.000000 0.042985 0.000000 0.080890
#
#
# Mechanical properties :
#
#
# Convention : Reuss Voigt Hill
#
# Bulk Modulus (GPa) = 28.78365 32.41111 30.59738
# Shear Modulus (GPa) = 28.03817 17.37060 22.70438
#
# Velocity S-wave (km/s) = 4.00425 3.15177 3.60331
# Velocity P-wave (km/s) = 6.15135 5.63734 5.89994
#
# Compressibility (1/GPa) = 0.03474195
#
# Stress axis : x y z
#
# Youngs Moduli (GPa) = 44.37956 73.68904 62.46786
#
# Poissons Ratio (x) = 0.43045 0.40119
# Poissons Ratio (y) = 0.25924 -0.22357
# Poissons Ratio (z) = 0.28502 -0.26373
#
# Static dielectric constant tensor:
#      x y z
#    x 1.630180 0.000000 -0.017260 
#    y 0.000000 1.643780 0.000000 
#    z -0.017260 0.000000 1.622280 
# 
# From -- ./inp_files/67911.got.cif
#   From: 2010.05.17/outbox.cif.g08.bks.cpg/sg10_34_cif.got.tgz:67911.got - 2010.06.03 11:33:40.
