data_PCOD9142637
_publ_section_title
;
Structure prediction by ZEFSAII (Michael W. Deem and Ramdas Pophale) SiO2 
 PCOD9142637
Probable space group: P 2/M
;
_chemical_formula_sum "Si O2"
_cell_formula_units_Z 24
_cell_length_a 5.737527
_cell_length_b 21.860303
_cell_length_c 12.585972
_cell_angle_alpha 90.000000
_cell_angle_beta 49.033608
_cell_angle_gamma 90.000000
_cell_volume 1191.979698
_symmetry_space_group_name_H-M "P 2/M"
_symmetry_group_IT_number 10
_symmetry_cell_setting 'monoclinic'
loop_
_space_group_symop_operation_xyz
x,y,z
-x,y,-z
-x,-y,-z
x,-y,z
loop_
_atom_site_type_symbol
_atom_site_label
_atom_site_fract_x
_atom_site_fract_y
_atom_site_fract_z
Si Si1 0.587828 0.745427 0.859500
Si Si2 0.470050 0.381418 0.832255
Si Si3 0.223868 0.188853 0.655639
Si Si4 0.041519 0.426956 0.156928
Si Si5 0.937457 0.066814 0.644132
Si Si6 0.680114 0.866750 0.141519
O O1 0.480129 0.691956 0.813851
O O2 0.413364 0.809946 0.904687
O O3 0.943577 0.763517 0.741445
O O4 0.500000 0.719346 0.000000
O O5 0.806465 0.401118 0.779112
O O6 0.306789 0.409564 0.776450
O O7 0.249530 0.401954 0.996487
O O8 0.500000 0.212284 0.500000
O O9 0.307584 0.167263 0.748662
O O10 0.115296 0.124891 0.635901
O O11 0.069922 0.500000 0.151301
O O12 0.580889 0.081961 0.774204
O O13 0.000000 0.065919 0.500000
O O14 0.026366 0.000000 0.661166
O O15 0.000000 0.891068 0.000000
#
# Coordination Sequence:
#
# PCOD9142637 Si02
#       6
#     4   4   4   4   4   4
#     4  11  22  35  56  85 114 156 197 244 295 365
#     4  10  19  29  49  75 116 159 200 243 298 366
#     4  11  23  40  60  85 116 153 195 245 303 357
#     4  10  18  29  47  76 119 160 198 250 306 356
#     4  10  22  40  61  88 114 148 200 244 295 369
#     4  11  23  37  61  84 119 152 192 242 305 356
#
# _framework density 20.134571000000001
#
# number of rings (size 3 to 8) (size 9 to 14) (size 15 to 20)
#    0.000    1.500    5.000    2.500    4.667    1.333 
#    0.000    0.833    0.000    0.000    0.000    0.000 
#    0.000    7.333    0.000    0.000    0.000    0.000 
#
# Total GULP energy -133798.904234 kJ/mol
# GULP energy per Si atom -5574.954343 kJ/mol
# Density = 2.008874 g / cm^3
# Si number density = 20.134571 Si / 1000 Ang^3
#
#
#
# Elastic Constant Matrix: (Units=GPa)
#
#
# Indices 1 2 3 4 5 6 
#
# 1 92.1790 12.1041 10.6921 0.0000 -0.7333 0.0000
# 2 12.1041 101.6144 4.9460 0.0000 -9.1011 0.0000
# 3 10.6921 4.9460 62.8697 0.0000 -17.1527 0.0000
# 4 0.0000 0.0000 0.0000 -1.8154 0.0000 -13.3064
# 5 -0.7333 -9.1011 -17.1527 0.0000 28.2958 0.0000
# 6 0.0000 0.0000 0.0000 -13.3064 0.0000 -163.4753
#
#
#
# Elastic Compliance Matrix: (Units=1/GPa)
#
#
# Indices 1 2 3 4 5 6 
#
# 1 0.011273 -0.001369 -0.002217 0.000000 -0.001492 0.000000
# 2 -0.001369 0.010300 0.000379 0.000000 0.003507 0.000000
# 3 -0.002217 0.000379 0.019495 0.000000 0.011882 0.000000
# 4 0.000000 0.000000 0.000000 -1.365545 0.000000 0.111151
# 5 -0.001492 0.003507 0.011882 0.000000 0.043633 0.000000
# 6 0.000000 0.000000 0.000000 0.111151 0.000000 -0.015165
#
#
# Mechanical properties :
#
#
# Convention : Reuss Voigt Hill
#
# Bulk Modulus (GPa) = 28.85460 34.68307 31.76884
# Shear Modulus (GPa) = -3.91223 -12.13760 -8.02491
#
# Velocity S-wave (km/s) = -1.39544 -2.45791 -1.99857
# Velocity P-wave (km/s) = 3.43011 3.03446 3.23833
#
# Compressibility (1/GPa) = 0.03465651
#
# Stress axis : x y z
#
# Youngs Moduli (GPa) = 88.70427 97.08911 51.29559
#
# Poissons Ratio (x) = 0.13287 0.11370
# Poissons Ratio (y) = 0.12140 -0.01946
# Poissons Ratio (z) = 0.19662 -0.03683
#
# Static dielectric constant tensor:
#      x y z
#    x 1.830170 0.000000 -0.010310 
#    y 0.000000 1.680950 0.000000 
#    z -0.010310 0.000000 1.637400 
# 
# From -- ./inp_files/39924.got.cif
#   From: 2010.05.17/outbox.cif.g08.bks.cpg/sg10_20_cif.got.tgz:39924.got - 2010.06.03 11:33:40.
