data_PCOD9142836
_publ_section_title
;
Structure prediction by ZEFSAII (Michael W. Deem and Ramdas Pophale) SiO2 
 PCOD9142836
Probable space group: P 2/M
;
_chemical_formula_sum "Si O2"
_cell_formula_units_Z 24
_cell_length_a 14.349706
_cell_length_b 17.389011
_cell_length_c 8.408884
_cell_angle_alpha 90.000000
_cell_angle_beta 29.988998
_cell_angle_gamma 90.000000
_cell_volume 1048.773673
_symmetry_space_group_name_H-M "P 2/M"
_symmetry_group_IT_number 10
_symmetry_cell_setting 'monoclinic'
loop_
_space_group_symop_operation_xyz
x,y,z
-x,y,-z
-x,-y,-z
x,-y,z
loop_
_atom_site_type_symbol
_atom_site_label
_atom_site_fract_x
_atom_site_fract_y
_atom_site_fract_z
Si Si1 0.661908 0.335993 0.127583
Si Si2 0.217174 0.828063 0.493089
Si Si3 0.550225 0.500000 0.237679
Si Si4 0.888298 0.089732 0.835107
Si Si5 0.427436 0.171937 0.862301
Si Si6 0.951399 0.664007 0.259110
Si Si7 0.161871 0.500000 0.626034
O O1 0.500000 0.336677 0.500000
O O2 0.654478 0.419595 0.057527
O O3 0.611147 0.262772 0.097488
O O4 0.862206 0.325019 0.913384
O O5 0.352797 0.841973 0.441608
O O6 0.180219 0.737228 0.528416
O O7 0.018858 0.869478 0.772375
O O8 0.331453 0.854033 0.168547
O O9 0.500000 0.500000 0.500000
O O10 0.360490 0.500000 0.418532
O O11 0.000000 0.097461 0.500000
O O12 0.866511 0.000000 0.900466
O O13 0.689909 0.130522 0.101324
O O14 0.866482 0.580405 0.421514
O O15 0.000000 0.663323 0.000000
O O16 0.000000 0.500000 0.000000
#
# Coordination Sequence:
#
# PCOD9142836 Si02
#       7
#     4   4   2   4   4   4   2
#     4  11  20  33  53  78 106 142 181 221 263 313
#     4  10  20  35  55  81 110 139 176 220 265 315
#     4  10  18  30  47  72 105 136 181 222 259 304
#     4   9  18  34  56  81 107 137 174 217 264 317
#     4  10  20  35  55  81 110 139 176 220 265 315
#     4  11  20  33  53  78 106 142 181 221 263 313
#     4  10  18  30  47  72 105 136 181 222 259 304
#
# _framework density 22.883870000000002
#
# number of rings (size 3 to 8) (size 9 to 14) (size 15 to 20)
#    0.000    1.833    1.667    6.500    0.000    0.667 
#    0.000    4.167    0.000    6.000    0.000    0.000 
#    0.000    0.000    0.000    0.000    0.000    0.000 
#
# Total GULP energy -134124.083650 kJ/mol
# GULP energy per Si atom -5588.503485 kJ/mol
# Density = 2.283179 g / cm^3
# Si number density = 22.883870 Si / 1000 Ang^3
#
#
#
# Elastic Constant Matrix: (Units=GPa)
#
#
# Indices 1 2 3 4 5 6 
#
# 1 150.9050 56.7745 59.1645 0.0000 -65.2054 0.0000
# 2 56.7745 131.0099 20.6671 0.0000 -36.7202 0.0000
# 3 59.1645 20.6671 66.9770 0.0000 -20.1477 0.0000
# 4 0.0000 0.0000 0.0000 20.1602 0.0000 0.7094
# 5 -65.2054 -36.7202 -20.1477 0.0000 59.6348 0.0000
# 6 0.0000 0.0000 0.0000 0.7094 0.0000 19.4629
#
#
#
# Elastic Compliance Matrix: (Units=1/GPa)
#
#
# Indices 1 2 3 4 5 6 
#
# 1 0.018034 -0.001938 -0.010864 0.000000 0.014855 0.000000
# 2 -0.001938 0.009531 -0.000113 0.000000 0.003712 0.000000
# 3 -0.010864 -0.000113 0.023340 0.000000 -0.004062 0.000000
# 4 0.000000 0.000000 0.000000 0.049666 0.000000 -0.001810
# 5 0.014855 0.003712 -0.004062 0.000000 0.033924 0.000000
# 6 0.000000 0.000000 0.000000 -0.001810 0.000000 0.051446
#
#
# Mechanical properties :
#
#
# Convention : Reuss Voigt Hill
#
# Bulk Modulus (GPa) = 39.87860 69.12269 54.50065
# Shear Modulus (GPa) = 22.71414 34.00397 28.35905
#
# Velocity S-wave (km/s) = 3.15395 3.85897 3.52413
# Velocity P-wave (km/s) = 5.54324 7.08004 6.35824
#
# Compressibility (1/GPa) = 0.02507611
#
# Stress axis : x y z
#
# Youngs Moduli (GPa) = 55.45203 104.92186 42.84558
#
# Poissons Ratio (x) = 0.20331 0.46546
# Poissons Ratio (y) = 0.10745 0.00483
# Poissons Ratio (z) = 0.60241 0.01182
#
# Static dielectric constant tensor:
#      x y z
#    x 1.831260 0.000000 -0.002360 
#    y 0.000000 1.822840 0.000000 
#    z -0.002360 0.000000 1.828940 
# 
# From -- ./inp_files/30055.got.cif
#   From: 2010.05.17/outbox.cif.g08.bks.cpg/sg10_16_cif.got.tgz:30055.got - 2010.06.03 11:33:40.
