data_PCOD9142346
_publ_section_title
;
Structure prediction by ZEFSAII (Michael W. Deem and Ramdas Pophale) SiO2 
 PCOD9142346
Probable space group: P 2/M
;
_chemical_formula_sum "Si O2"
_cell_formula_units_Z 24
_cell_length_a 22.127349
_cell_length_b 8.733914
_cell_length_c 12.471137
_cell_angle_alpha 90.000000
_cell_angle_beta 141.887377
_cell_angle_gamma 90.000000
_cell_volume 1487.567771
_symmetry_space_group_name_H-M "P 2/M"
_symmetry_group_IT_number 10
_symmetry_cell_setting 'monoclinic'
loop_
_space_group_symop_operation_xyz
x,y,z
-x,y,-z
-x,-y,-z
x,-y,z
loop_
_atom_site_type_symbol
_atom_site_label
_atom_site_fract_x
_atom_site_fract_y
_atom_site_fract_z
Si Si1 0.727032 0.818841 0.775744
Si Si2 0.668400 0.316251 0.923358
Si Si3 0.539754 0.677764 0.432687
Si Si4 0.152057 0.817198 0.713029
Si Si5 0.992338 0.317514 0.653063
Si Si6 0.950685 0.816029 0.043205
O O1 0.708442 0.732493 0.862011
O O2 0.639617 0.771982 0.573725
O O3 0.722145 0.000000 0.790414
O O4 0.834714 0.781737 0.882920
O O5 0.672820 0.500000 0.937317
O O6 0.553863 0.269740 0.766816
O O7 0.739286 0.239471 0.108376
O O8 0.500000 0.683520 0.500000
O O9 0.560518 0.500000 0.437462
O O10 0.104914 0.744703 0.540875
O O11 0.082040 0.757790 0.711769
O O12 0.147027 0.000000 0.701815
O O13 0.998303 0.500000 0.650516
O O14 0.001576 0.266185 0.788292
O O15 0.961428 0.000000 0.071779
O O16 0.000000 0.772469 0.000000
#
# Coordination Sequence:
#
# PCOD9142346 Si02
#       6
#     4   4   4   4   4   4
#     4  10  18  28  45  67  93 126 162 200 237 281
#     4  10  18  29  45  68  97 128 157 192 239 290
#     4   8  16  28  42  62  93 127 155 189 238 288
#     4  11  20  31  49  71  98 129 159 195 242 293
#     4  11  21  33  49  70  96 127 163 201 240 287
#     4  10  21  36  51  69  97 132 167 203 242 282
#
# _framework density 16.133717999999998
#
# number of rings (size 3 to 8) (size 9 to 14) (size 15 to 20)
#    0.000    2.000    1.667    6.000    0.000    4.667 
#    0.000    0.000    0.000    0.000    0.000    1.167 
#    0.000    9.333    0.000    0.000    0.000    0.000 
#
# Total GULP energy -133859.423316 kJ/mol
# GULP energy per Si atom -5577.475972 kJ/mol
# Density = 1.609700 g / cm^3
# Si number density = 16.133718 Si / 1000 Ang^3
#
#
#
# Elastic Constant Matrix: (Units=GPa)
#
#
# Indices 1 2 3 4 5 6 
#
# 1 53.4497 29.5711 41.9109 0.0000 -3.5642 0.0000
# 2 29.5711 78.3325 51.0782 0.0000 -0.1930 0.0000
# 3 41.9109 51.0782 150.8457 0.0000 7.7774 0.0000
# 4 0.0000 0.0000 0.0000 32.0424 0.0000 -4.2933
# 5 -3.5642 -0.1930 7.7774 0.0000 15.9471 0.0000
# 6 0.0000 0.0000 0.0000 -4.2933 0.0000 84.3489
#
#
#
# Elastic Compliance Matrix: (Units=1/GPa)
#
#
# Indices 1 2 3 4 5 6 
#
# 1 0.027548 -0.006527 -0.005906 0.000000 0.008958 0.000000
# 2 -0.006527 0.018069 -0.004350 0.000000 0.000882 0.000000
# 3 -0.005906 -0.004350 0.010067 0.000000 -0.006282 0.000000
# 4 0.000000 0.000000 0.000000 0.031423 0.000000 0.001599
# 5 0.008958 0.000882 -0.006282 0.000000 0.067784 0.000000
# 6 0.000000 0.000000 0.000000 0.001599 0.000000 0.011937
#
#
# Mechanical properties :
#
#
# Convention : Reuss Voigt Hill
#
# Bulk Modulus (GPa) = 45.21097 58.63869 51.92483
# Shear Modulus (GPa) = 24.06546 37.13889 30.60217
#
# Velocity S-wave (km/s) = 3.86635 4.80306 4.35993
# Velocity P-wave (km/s) = 6.92929 8.19656 7.58942
#
# Compressibility (1/GPa) = 0.02211852
#
# Stress axis : x y z
#
# Youngs Moduli (GPa) = 36.29995 55.34372 99.33242
#
# Poissons Ratio (x) = 0.36120 0.58665
# Poissons Ratio (y) = 0.23691 0.43214
# Poissons Ratio (z) = 0.21438 0.24077
#
# Static dielectric constant tensor:
#      x y z
#    x 1.504580 0.000000 0.016780 
#    y 0.000000 1.541270 0.000000 
#    z 0.016780 0.000000 1.580780 
# 
# From -- ./inp_files/48883.got.cif
#   From: 2010.05.17/outbox.cif.g08.bks.cpg/sg10_25_cif.got.tgz:48883.got - 2010.06.03 11:33:40.
