data_PCOD9142016
_publ_section_title
;
Structure prediction by ZEFSAII (Michael W. Deem and Ramdas Pophale) SiO2 
 PCOD9142016
Probable space group: P 2/M
;
_chemical_formula_sum "Si O2"
_cell_formula_units_Z 30
_cell_length_a 12.161909
_cell_length_b 7.434732
_cell_length_c 32.824986
_cell_angle_alpha 90.000000
_cell_angle_beta 157.263091
_cell_angle_gamma 90.000000
_cell_volume 1147.153123
_symmetry_space_group_name_H-M "P 2/M"
_symmetry_group_IT_number 10
_symmetry_cell_setting 'monoclinic'
loop_
_space_group_symop_operation_xyz
x,y,z
-x,y,-z
-x,-y,-z
x,-y,z
loop_
_atom_site_type_symbol
_atom_site_label
_atom_site_fract_x
_atom_site_fract_y
_atom_site_fract_z
Si Si1 0.624165 0.284157 0.364794
Si Si2 0.367880 0.702648 0.721318
Si Si3 0.801824 0.000000 0.494639
Si Si4 0.059073 0.711469 0.868443
Si Si5 0.902524 0.290799 0.206868
Si Si6 0.584659 0.713124 0.175907
Si Si7 0.533724 0.799131 0.556723
Si Si8 0.009380 0.203587 0.940881
O O1 0.687025 0.500000 0.389176
O O2 0.702158 0.209837 0.345897
O O3 0.749063 0.157699 0.441676
O O4 0.282853 0.270397 0.250891
O O5 0.252518 0.500000 0.680575
O O6 0.314540 0.789666 0.746675
O O7 0.714405 0.690651 0.839277
O O8 0.745932 0.157136 0.512316
O O9 0.129833 0.500000 0.894678
O O10 0.157643 0.785991 0.858498
O O11 0.139442 0.789059 0.939598
O O12 0.818128 0.500000 0.175000
O O13 0.737541 0.210478 0.188635
O O14 0.233467 0.287167 0.333656
O O15 0.647733 0.500000 0.199626
O O16 0.250077 0.732982 0.053860
O O17 0.500000 0.716388 0.500000
O O18 0.656248 0.000000 0.590785
O O19 0.931014 0.000000 0.923608
#
# Coordination Sequence:
#
# PCOD9142016 Si02
#       8
#     4   4   2   4   4   4   4   4
#     4   9  17  29  50  80 104 135 180 220 258 306
#     4   9  19  34  51  70  98 136 180 223 263 306
#     4  10  17  30  56  80 111 140 164 212 268 311
#     4   9  17  31  49  71  99 131 172 217 261 307
#     4  10  20  34  55  77 101 133 175 216 256 320
#     4  10  21  37  51  68  99 142 177 214 271 314
#     4   9  19  34  52  79 111 140 160 197 259 318
#     4  11  22  32  48  72 100 131 178 226 266 307
#
# _framework density 26.151695
#
# number of rings (size 3 to 8) (size 9 to 14) (size 15 to 20)
#    0.400    2.000    1.333    2.400    3.733    4.000 
#    0.000    2.667    0.000    0.400    0.000    1.867 
#    0.000    4.267    0.000    0.000    0.000    0.000 
#
# Total GULP energy -167104.201366 kJ/mol
# GULP energy per Si atom -5570.140046 kJ/mol
# Density = 2.609217 g / cm^3
# Si number density = 26.151695 Si / 1000 Ang^3
#
#
#
# Elastic Constant Matrix: (Units=GPa)
#
#
# Indices 1 2 3 4 5 6 
#
# 1 144.1298 15.8898 43.3207 0.0000 -59.0769 0.0000
# 2 15.8898 95.6594 6.1681 0.0000 -19.8607 0.0000
# 3 43.3207 6.1681 118.2817 0.0000 -34.1419 0.0000
# 4 0.0000 0.0000 0.0000 30.1789 0.0000 -6.2348
# 5 -59.0769 -19.8607 -34.1419 0.0000 53.3259 0.0000
# 6 0.0000 0.0000 0.0000 -6.2348 0.0000 7.2780
#
#
#
# Elastic Compliance Matrix: (Units=1/GPa)
#
#
# Indices 1 2 3 4 5 6 
#
# 1 0.012822 0.000838 -0.000674 0.000000 0.014085 0.000000
# 2 0.000838 0.011442 0.000729 0.000000 0.005657 0.000000
# 3 -0.000674 0.000729 0.010459 0.000000 0.006221 0.000000
# 4 0.000000 0.000000 0.000000 0.040261 0.000000 0.034490
# 5 0.014085 0.005657 0.006221 0.000000 0.040447 0.000000
# 6 0.000000 0.000000 0.000000 0.034490 0.000000 0.166948
#
#
# Mechanical properties :
#
#
# Convention : Reuss Voigt Hill
#
# Bulk Modulus (GPa) = 27.39048 54.31423 40.85236
# Shear Modulus (GPa) = 17.07875 37.66937 27.37406
#
# Velocity S-wave (km/s) = 2.55829 3.79940 3.23885
# Velocity P-wave (km/s) = 4.38439 6.32940 5.44445
#
# Compressibility (1/GPa) = 0.03650903
#
# Stress axis : x y z
#
# Youngs Moduli (GPa) = 77.99319 87.39741 95.61154
#
# Poissons Ratio (x) = -0.07324 0.06444
# Poissons Ratio (y) = -0.06536 -0.06972
# Poissons Ratio (z) = 0.05257 -0.06373
#
# Static dielectric constant tensor:
#      x y z
#    x 2.160990 0.000000 0.042750 
#    y 0.000000 1.982740 0.000000 
#    z 0.042750 0.000000 2.054310 
# 
# From -- ./inp_files/94890.got.cif
#   From: 2010.05.17/outbox.cif.g08.bks.cpg/sg10_48_cif.got.tgz:94890.got - 2010.06.03 11:33:40.
