data_PCOD9142930
_publ_section_title
;
Structure prediction by ZEFSAII (Michael W. Deem and Ramdas Pophale) SiO2 
 PCOD9142930
Probable space group: P 2/M
;
_chemical_formula_sum "Si O2"
_cell_formula_units_Z 32
_cell_length_a 12.144907
_cell_length_b 7.313784
_cell_length_c 29.312490
_cell_angle_alpha 90.000000
_cell_angle_beta 31.422263
_cell_angle_gamma 90.000000
_cell_volume 1357.410251
_symmetry_space_group_name_H-M "P 2/M"
_symmetry_group_IT_number 10
_symmetry_cell_setting 'monoclinic'
loop_
_space_group_symop_operation_xyz
x,y,z
-x,y,-z
-x,-y,-z
x,-y,z
loop_
_atom_site_type_symbol
_atom_site_label
_atom_site_fract_x
_atom_site_fract_y
_atom_site_fract_z
Si Si1 0.060341 0.209776 0.208809
Si Si2 0.593013 0.223932 0.847636
Si Si3 0.847427 0.222811 0.668620
Si Si4 0.279740 0.220725 0.478484
Si Si5 0.655856 0.292171 0.406525
Si Si6 0.364362 0.222509 0.350459
Si Si7 0.107815 0.777261 0.009324
Si Si8 0.849514 0.223502 0.190448
O O1 0.877498 0.209852 0.312443
O O2 0.961304 0.288412 0.197506
O O3 0.272662 0.287077 0.156100
O O4 0.109519 0.000000 0.180258
O O5 0.722424 0.282007 0.757179
O O6 0.350641 0.280535 0.929088
O O7 0.594008 0.000000 0.848001
O O8 0.732778 0.282654 0.662793
O O9 0.090856 0.279673 0.578192
O O10 0.847136 0.000000 0.669243
O O11 0.504689 0.288245 0.415918
O O12 0.241862 0.275590 0.439704
O O13 0.288847 0.000000 0.476286
O O14 0.500000 0.208134 0.500000
O O15 0.699140 0.500000 0.404948
O O16 0.606585 0.279564 0.271246
O O17 0.360264 0.000000 0.350502
O O18 0.107654 0.000000 0.008366
O O19 0.000000 0.718063 0.000000
O O20 0.975949 0.723048 0.100464
O O21 0.845256 0.000000 0.193833
#
# Coordination Sequence:
#
# PCOD9142930 Si02
#       8
#     4   4   4   4   4   4   4   4
#     4  10  19  33  51  73 101 130 168 211 250 291
#     4   9  17  27  41  66 100 135 167 201 243 294
#     4   9  16  25  41  67  97 129 166 206 245 290
#     4  10  18  30  49  73  97 127 166 207 251 291
#     4  11  23  36  50  70  99 135 171 206 248 300
#     4   9  15  25  42  67  97 126 163 205 244 289
#     4   9  16  26  41  66 105 142 163 192 251 309
#     4   9  16  26  43  67  97 134 168 202 246 296
#
# _framework density 23.574303
#
# number of rings (size 3 to 8) (size 9 to 14) (size 15 to 20)
#    0.000    2.500    1.250    2.250    0.000    7.000 
#    0.000    2.500    0.000    1.500    0.000    1.750 
#    0.000    1.000    0.000    0.000    0.000    0.000 
#
# Total GULP energy -178867.009510 kJ/mol
# GULP energy per Si atom -5589.594047 kJ/mol
# Density = 2.352065 g / cm^3
# Si number density = 23.574303 Si / 1000 Ang^3
#
#
#
# Elastic Constant Matrix: (Units=GPa)
#
#
# Indices 1 2 3 4 5 6 
#
# 1 117.1562 3.2207 33.6343 0.0000 -12.7967 0.0000
# 2 3.2207 95.2002 -0.3497 0.0000 0.2795 0.0000
# 3 33.6343 -0.3497 118.4421 0.0000 -6.8270 0.0000
# 4 0.0000 0.0000 0.0000 -29.7381 0.0000 9.5366
# 5 -12.7967 0.2795 -6.8270 0.0000 42.6866 0.0000
# 6 0.0000 0.0000 0.0000 9.5366 0.0000 65.8992
#
#
#
# Elastic Compliance Matrix: (Units=1/GPa)
#
#
# Indices 1 2 3 4 5 6 
#
# 1 0.009551 -0.000340 -0.002572 0.000000 0.002454 0.000000
# 2 -0.000340 0.010517 0.000119 0.000000 -0.000152 0.000000
# 3 -0.002572 0.000119 0.009214 0.000000 0.000702 0.000000
# 4 0.000000 0.000000 0.000000 -0.032136 0.000000 0.004650
# 5 0.002454 -0.000152 0.000702 0.000000 0.024276 0.000000
# 6 0.000000 0.000000 0.000000 0.004650 0.000000 0.014502
#
#
# Mechanical properties :
#
#
# Convention : Reuss Voigt Hill
#
# Bulk Modulus (GPa) = 42.20065 44.86766 43.53416
# Shear Modulus (GPa) = 101.19791 35.38912 68.29351
#
# Velocity S-wave (km/s) = 6.55899 3.87870 5.38817
# Velocity P-wave (km/s) = 8.67759 6.25563 7.56417
#
# Compressibility (1/GPa) = 0.02369631
#
# Stress axis : x y z
#
# Youngs Moduli (GPa) = 104.69690 95.08818 108.52948
#
# Poissons Ratio (x) = 0.03231 0.27912
# Poissons Ratio (y) = 0.03557 -0.01289
# Poissons Ratio (z) = 0.26927 -0.01130
#
# Static dielectric constant tensor:
#      x y z
#    x 1.873900 0.000000 0.007640 
#    y 0.000000 1.953130 0.000000 
#    z 0.007640 0.000000 1.828290 
# 
# From -- ./inp_files/87191.got.cif
#   From: 2010.05.17/outbox.cif.g08.bks.cpg/sg10_44_cif.got.tgz:87191.got - 2010.06.03 11:33:40.
