data_PCOD9142293
_publ_section_title
;
Structure prediction by ZEFSAII (Michael W. Deem and Ramdas Pophale) SiO2 
 PCOD9142293
Probable space group: P 2/M
;
_chemical_formula_sum "Si O2"
_cell_formula_units_Z 32
_cell_length_a 17.278628
_cell_length_b 8.947305
_cell_length_c 24.408330
_cell_angle_alpha 90.000000
_cell_angle_beta 145.848477
_cell_angle_gamma 90.000000
_cell_volume 2118.356880
_symmetry_space_group_name_H-M "P 2/M"
_symmetry_group_IT_number 10
_symmetry_cell_setting 'monoclinic'
loop_
_space_group_symop_operation_xyz
x,y,z
-x,y,-z
-x,-y,-z
x,-y,z
loop_
_atom_site_type_symbol
_atom_site_label
_atom_site_fract_x
_atom_site_fract_y
_atom_site_fract_z
Si Si1 0.176931 0.821776 0.340040
Si Si2 0.013546 0.175203 0.419754
Si Si3 0.613541 0.672524 0.615390
Si Si4 0.368265 0.679038 0.887455
Si Si5 0.292540 0.677593 0.615325
Si Si6 0.400104 0.821569 0.567066
Si Si7 0.060781 0.678430 0.739007
Si Si8 0.697002 0.825058 0.266350
O O1 0.255740 0.757001 0.333494
O O2 0.276926 0.789483 0.451120
O O3 0.031466 0.742925 0.266243
O O4 0.162272 0.000000 0.327810
O O5 0.993890 0.238266 0.347241
O O6 0.863783 0.187889 0.359439
O O7 0.133742 0.269059 0.517865
O O8 0.053020 0.000000 0.441919
O O9 0.500000 0.673814 0.500000
O O10 0.644381 0.500000 0.646206
O O11 0.538581 0.754949 0.621498
O O12 0.375447 0.500000 0.883024
O O13 0.224555 0.708555 0.835174
O O14 0.360043 0.757020 0.823539
O O15 0.500000 0.725899 0.000000
O O16 0.301241 0.500000 0.618539
O O17 0.365041 0.748390 0.604575
O O18 0.348379 0.740058 0.705572
O O19 0.409423 0.000000 0.577608
O O20 0.040636 0.500000 0.722264
O O21 0.663987 0.000000 0.250813
#
# Coordination Sequence:
#
# PCOD9142293 Si02
#       8
#     4   4   4   4   4   4   4   4
#     4  10  18  28  43  62  89 122 156 193 230 269
#     4  10  19  31  44  61  88 121 153 190 230 268
#     4   9  17  28  42  60  85 117 157 196 227 265
#     4   9  19  36  54  71  93 119 149 190 239 284
#     4  12  22  30  44  64  90 122 158 193 226 268
#     4  10  19  30  43  60  88 124 159 191 229 269
#     4  10  18  28  46  69  91 119 155 192 230 274
#     4  10  21  34  48  66  89 117 153 191 231 276
#
# _framework density 15.106047999999999
#
# number of rings (size 3 to 8) (size 9 to 14) (size 15 to 20)
#    0.000    2.000    1.250    3.750    0.000    6.250 
#    0.000    0.000    0.000    0.000    0.000    0.000 
#    0.000    1.000    0.000   10.750    0.000    4.750 
#
# Total GULP energy -178521.623509 kJ/mol
# GULP energy per Si atom -5578.800735 kJ/mol
# Density = 1.507167 g / cm^3
# Si number density = 15.106048 Si / 1000 Ang^3
#
#
#
# Elastic Constant Matrix: (Units=GPa)
#
#
# Indices 1 2 3 4 5 6 
#
# 1 106.0992 70.6928 51.1018 0.0000 -6.0411 0.0000
# 2 70.6928 92.4438 33.8456 0.0000 -4.8948 0.0000
# 3 51.1018 33.8456 56.9503 0.0000 -2.9539 0.0000
# 4 0.0000 0.0000 0.0000 11.3298 0.0000 2.7781
# 5 -6.0411 -4.8948 -2.9539 0.0000 10.3670 0.0000
# 6 0.0000 0.0000 0.0000 2.7781 0.0000 26.1810
#
#
#
# Elastic Compliance Matrix: (Units=1/GPa)
#
#
# Indices 1 2 3 4 5 6 
#
# 1 0.026668 -0.014679 -0.014980 0.000000 0.004341 0.000000
# 2 -0.014679 0.022092 0.000141 0.000000 0.001917 0.000000
# 3 -0.014980 0.000141 0.030925 0.000000 0.000149 0.000000
# 4 0.000000 0.000000 0.000000 0.090621 0.000000 -0.009616
# 5 0.004341 0.001917 0.000149 0.000000 0.099937 0.000000
# 6 0.000000 0.000000 0.000000 -0.009616 0.000000 0.039216
#
#
# Mechanical properties :
#
#
# Convention : Reuss Voigt Hill
#
# Bulk Modulus (GPa) = 48.42784 62.97486 55.70135
# Shear Modulus (GPa) = 13.31994 16.23243 14.77618
#
# Velocity S-wave (km/s) = 2.97267 3.28161 3.13095
# Velocity P-wave (km/s) = 6.62650 7.49251 7.07277
#
# Compressibility (1/GPa) = 0.02064928
#
# Stress axis : x y z
#
# Youngs Moduli (GPa) = 37.49853 45.26511 32.33643
#
# Poissons Ratio (x) = 0.66443 0.48441
# Poissons Ratio (y) = 0.55043 -0.00457
# Poissons Ratio (z) = 0.56174 -0.00640
#
# Static dielectric constant tensor:
#      x y z
#    x 1.518300 0.000000 0.008120 
#    y 0.000000 1.500330 0.000000 
#    z 0.008120 0.000000 1.474260 
# 
# From -- ./inp_files/49889.got.cif
#   From: 2010.05.17/outbox.cif.g08.bks.cpg/sg10_25_cif.got.tgz:49889.got - 2010.06.03 11:33:40.
