data_PCOD9142783
_publ_section_title
;
Structure prediction by ZEFSAII (Michael W. Deem and Ramdas Pophale) SiO2 
 PCOD9142783
Probable space group: P 2/M
;
_chemical_formula_sum "Si O2"
_cell_formula_units_Z 28
_cell_length_a 9.819626
_cell_length_b 7.417231
_cell_length_c 14.468988
_cell_angle_alpha 90.000000
_cell_angle_beta 74.188486
_cell_angle_gamma 90.000000
_cell_volume 1013.966663
_symmetry_space_group_name_H-M "P 2/M"
_symmetry_group_IT_number 10
_symmetry_cell_setting 'monoclinic'
loop_
_space_group_symop_operation_xyz
x,y,z
-x,y,-z
-x,-y,-z
x,-y,z
loop_
_atom_site_type_symbol
_atom_site_label
_atom_site_fract_x
_atom_site_fract_y
_atom_site_fract_z
Si Si1 0.290059 0.218662 0.885271
Si Si2 0.596833 0.208243 0.856806
Si Si3 0.310920 0.277542 0.553472
Si Si4 0.131794 0.216428 0.084957
Si Si5 0.033994 0.285069 0.715000
Si Si6 0.855458 0.285797 0.587019
Si Si7 0.478268 0.706963 0.689848
O O1 0.437927 0.272007 0.910759
O O2 0.329984 0.288621 0.776563
O O3 0.286954 0.000000 0.877645
O O4 0.163800 0.279746 0.974934
O O5 0.735496 0.287835 0.877949
O O6 0.586489 0.217990 0.746411
O O7 0.599824 0.000000 0.882770
O O8 0.316979 0.500000 0.550961
O O9 0.269413 0.219411 0.457201
O O10 0.439391 0.219285 0.596408
O O11 0.174331 0.219168 0.638959
O O12 0.994657 0.250451 0.172498
O O13 0.136600 0.000000 0.076991
O O14 0.036560 0.500000 0.703449
O O15 0.902437 0.211916 0.677691
O O16 0.831616 0.500000 0.602448
O O17 0.000000 0.267813 0.500000
O O18 0.516621 0.500000 0.670503
#
# Coordination Sequence:
#
# PCOD9142783 Si02
#       7
#     4   4   4   4   4   4   4
#     4   8  16  30  45  61  82 114 149 175 208 254
#     4   8  16  30  46  61  82 113 148 176 209 255
#     4   8  14  27  46  66  89 114 138 170 214 258
#     4  10  18  30  46  62  86 117 143 174 216 256
#     4   9  17  28  45  69  90 109 139 177 214 252
#     4   7  11  23  44  65  83 108 141 172 206 252
#     4   9  16  26  44  68  87 106 142 183 212 241
#
# _framework density 27.614319999999999
#
# number of rings (size 3 to 8) (size 9 to 14) (size 15 to 20)
#    0.857    2.714    0.000    2.143    0.000    2.857 
#    0.000    2.857    0.000   10.714    0.000    6.000 
#    0.000    0.000    0.000    0.000    0.000    0.000 
#
# Total GULP energy -156230.977142 kJ/mol
# GULP energy per Si atom -5579.677755 kJ/mol
# Density = 2.755147 g / cm^3
# Si number density = 27.614320 Si / 1000 Ang^3
#
#
#
# Elastic Constant Matrix: (Units=GPa)
#
#
# Indices 1 2 3 4 5 6 
#
# 1 117.8861 -2.7808 32.4060 0.0000 16.7636 0.0000
# 2 -2.7808 85.3106 -10.4068 0.0000 -2.0408 0.0000
# 3 32.4060 -10.4068 182.2772 0.0000 9.0683 0.0000
# 4 0.0000 0.0000 0.0000 56.3974 0.0000 -0.4506
# 5 16.7636 -2.0408 9.0683 0.0000 53.7295 0.0000
# 6 0.0000 0.0000 0.0000 -0.4506 0.0000 -2.0625
#
#
#
# Elastic Compliance Matrix: (Units=1/GPa)
#
#
# Indices 1 2 3 4 5 6 
#
# 1 0.009275 0.000055 -0.001515 0.000000 -0.002636 0.000000
# 2 0.000055 0.011810 0.000649 0.000000 0.000322 0.000000
# 3 -0.001515 0.000649 0.005817 0.000000 -0.000484 0.000000
# 4 0.000000 0.000000 0.000000 0.017700 0.000000 -0.003867
# 5 -0.002636 0.000322 -0.000484 0.000000 0.019528 0.000000
# 6 0.000000 0.000000 0.000000 -0.003867 0.000000 -0.484009
#
#
# Mechanical properties :
#
#
# Convention : Reuss Voigt Hill
#
# Bulk Modulus (GPa) = 39.55845 47.10117 43.32981
# Shear Modulus (GPa) = -12.20023 46.02992 16.91485
#
# Velocity S-wave (km/s) = -2.10420 4.08718 2.47764
# Velocity P-wave (km/s) = 2.90738 6.27433 4.88979
#
# Compressibility (1/GPa) = 0.02527905
#
# Stress axis : x y z
#
# Youngs Moduli (GPa) = 107.81315 84.67064 171.92239
#
# Poissons Ratio (x) = -0.00461 0.26042
# Poissons Ratio (y) = -0.00588 -0.11151
# Poissons Ratio (z) = 0.16331 -0.05492
#
# Static dielectric constant tensor:
#      x y z
#    x 2.286260 0.000000 -0.032860 
#    y 0.000000 2.047600 0.000000 
#    z -0.032860 0.000000 2.197830 
# 
# From -- ./inp_files/64087.got.cif
#   From: 2010.05.17/outbox.cif.g08.bks.cpg/sg10_33_cif.got.tgz:64087.got - 2010.06.03 11:33:40.
