data_PCOD9142627
_publ_section_title
;
Structure prediction by ZEFSAII (Michael W. Deem and Ramdas Pophale) SiO2 
 PCOD9142627
Probable space group: P 2/M
;
_chemical_formula_sum "Si O2"
_cell_formula_units_Z 28
_cell_length_a 19.959125
_cell_length_b 7.726034
_cell_length_c 15.002821
_cell_angle_alpha 90.000000
_cell_angle_beta 138.567137
_cell_angle_gamma 90.000000
_cell_volume 1530.945525
_symmetry_space_group_name_H-M "P 2/M"
_symmetry_group_IT_number 10
_symmetry_cell_setting 'monoclinic'
loop_
_space_group_symop_operation_xyz
x,y,z
-x,y,-z
-x,-y,-z
x,-y,z
loop_
_atom_site_type_symbol
_atom_site_label
_atom_site_fract_x
_atom_site_fract_y
_atom_site_fract_z
Si Si1 0.302533 0.207572 0.017602
Si Si2 0.508071 0.203769 0.908362
Si Si3 0.383927 0.288734 0.484831
Si Si4 0.884081 0.208774 0.484922
Si Si5 0.887275 0.211533 0.283817
Si Si6 0.618155 0.707769 0.714375
Si Si7 0.312646 0.295677 0.601938
O O1 0.400646 0.275798 0.061227
O O2 0.315633 0.243495 0.134936
O O3 0.301871 0.000000 0.007855
O O4 0.199447 0.272482 0.869548
O O5 0.401988 0.218990 0.751545
O O6 0.530855 0.000000 0.941885
O O7 0.500000 0.278784 0.000000
O O8 0.381640 0.500000 0.481344
O O9 0.349991 0.230654 0.352481
O O10 0.501582 0.235609 0.613305
O O11 0.323046 0.229858 0.510841
O O12 0.863705 0.263584 0.362314
O O13 0.795824 0.265742 0.462308
O O14 0.997858 0.266823 0.622540
O O15 0.884453 0.000000 0.485024
O O16 0.887635 0.000000 0.283174
O O17 0.615427 0.500000 0.708337
O O18 0.332319 0.500000 0.619499
#
# Coordination Sequence:
#
# PCOD9142627 Si02
#       7
#     4   4   4   4   4   4   4
#     4  10  18  29  47  73  98 119 152 202 242 271
#     4  10  20  32  46  67  98 132 159 184 225 287
#     4   8  16  30  48  66  91 127 162 190 228 286
#     4   9  17  33  54  71  90 127 169 196 226 280
#     4   8  16  32  53  71  92 126 165 196 230 280
#     4   9  16  31  50  66  89 127 164 190 229 289
#     4  11  20  31  48  72  99 124 154 198 243 278
#
# _framework density 18.289352000000001
#
# number of rings (size 3 to 8) (size 9 to 14) (size 15 to 20)
#    0.000    2.714    1.429    3.000    0.000    2.571 
#    0.000    7.143    0.000    0.857    0.000    6.000 
#    0.000    0.000    0.000    0.000    0.000    0.000 
#
# Total GULP energy -156123.876477 kJ/mol
# GULP energy per Si atom -5575.852731 kJ/mol
# Density = 1.824772 g / cm^3
# Si number density = 18.289352 Si / 1000 Ang^3
#
#
#
# Elastic Constant Matrix: (Units=GPa)
#
#
# Indices 1 2 3 4 5 6 
#
# 1 141.6130 -7.7840 99.7355 0.0000 -21.8410 0.0000
# 2 -7.7840 20.1829 0.7754 0.0000 -5.8118 0.0000
# 3 99.7355 0.7754 146.5508 0.0000 -19.3455 0.0000
# 4 0.0000 0.0000 0.0000 13.6627 0.0000 -2.0779
# 5 -21.8410 -5.8118 -19.3455 0.0000 22.5342 0.0000
# 6 0.0000 0.0000 0.0000 -2.0779 0.0000 17.7929
#
#
#
# Elastic Compliance Matrix: (Units=1/GPa)
#
#
# Indices 1 2 3 4 5 6 
#
# 1 0.015700 0.009134 -0.009489 0.000000 0.009427 0.000000
# 2 0.009134 0.059231 -0.003772 0.000000 0.020891 0.000000
# 3 -0.009489 -0.003772 0.013487 0.000000 0.001409 0.000000
# 4 0.000000 0.000000 0.000000 0.074515 0.000000 0.008702
# 5 0.009427 0.020891 0.001409 0.000000 0.060112 0.000000
# 6 0.000000 0.000000 0.000000 0.008702 0.000000 0.057219
#
#
# Mechanical properties :
#
#
# Convention : Reuss Voigt Hill
#
# Bulk Modulus (GPa) = 12.47426 54.86671 33.67048
# Shear Modulus (GPa) = 15.86102 25.17261 20.51682
#
# Velocity S-wave (km/s) = 2.94807 3.71395 3.35295
# Velocity P-wave (km/s) = 4.29225 6.96101 5.78269
#
# Compressibility (1/GPa) = 0.08016508
#
# Stress axis : x y z
#
# Youngs Moduli (GPa) = 63.69303 16.88317 74.14478
#
# Poissons Ratio (x) = -0.15422 0.70354
# Poissons Ratio (y) = -0.58179 0.27968
# Poissons Ratio (z) = 0.60437 0.06368
#
# Static dielectric constant tensor:
#      x y z
#    x 1.638590 0.000000 -0.016360 
#    y 0.000000 1.687620 0.000000 
#    z -0.016360 0.000000 1.613590 
# 
# From -- ./inp_files/68601.got.cif
#   From: 2010.05.17/outbox.cif.g08.bks.cpg/sg10_35_cif.got.tgz:68601.got - 2010.06.03 11:33:40.
