data_PCOD9142552
_publ_section_title
;
Structure prediction by ZEFSAII (Michael W. Deem and Ramdas Pophale) SiO2 
 PCOD9142552
Probable space group: P 2/M
;
_chemical_formula_sum "Si O2"
_cell_formula_units_Z 22
_cell_length_a 5.257428
_cell_length_b 13.178601
_cell_length_c 19.931962
_cell_angle_alpha 90.000000
_cell_angle_beta 68.787662
_cell_angle_gamma 90.000000
_cell_volume 1287.428679
_symmetry_space_group_name_H-M "P 2/M"
_symmetry_group_IT_number 10
_symmetry_cell_setting 'monoclinic'
loop_
_space_group_symop_operation_xyz
x,y,z
-x,y,-z
-x,-y,-z
x,-y,z
loop_
_atom_site_type_symbol
_atom_site_label
_atom_site_fract_x
_atom_site_fract_y
_atom_site_fract_z
Si Si1 0.775819 0.623063 0.830225
Si Si2 0.993061 0.884299 0.418779
Si Si3 0.500000 0.777481 0.500000
Si Si4 0.871012 0.310501 0.672482
Si Si5 0.152083 0.377339 0.918726
Si Si6 0.494973 0.614880 0.598578
O O1 0.793954 0.500000 0.817238
O O2 0.828535 0.679762 0.755539
O O3 0.471260 0.646891 0.884886
O O4 0.993203 0.652257 0.866380
O O5 0.679259 0.851278 0.437462
O O6 0.000000 0.875437 0.500000
O O7 0.146969 0.801367 0.359285
O O8 0.054783 0.000000 0.395957
O O9 0.641514 0.696106 0.535898
O O10 0.637094 0.373722 0.656914
O O11 0.174946 0.355192 0.629567
O O12 0.136071 0.500000 0.922299
O O13 0.000000 0.339256 0.000000
O O14 0.527844 0.500000 0.572829
#
# Coordination Sequence:
#
# PCOD9142552 Si02
#       6
#     4   4   2   4   4   4
#     4  10  18  29  46  68 102 135 159 196 241 287
#     4  10  20  37  55  71  94 128 172 225 272 302
#     4  10  20  34  50  74  92 126 168 216 258 310
#     4  11  22  35  50  75 100 134 174 209 256 306
#     4   9  17  29  47  71  98 132 167 193 225 279
#     4  11  21  33  49  69 100 132 167 206 247 303
#
# _framework density 17.088327
#
# number of rings (size 3 to 8) (size 9 to 14) (size 15 to 20)
#    0.000    1.818    1.818    3.818    0.000    3.636 
#    0.000    2.727    0.000    0.000    0.000    0.000 
#    0.000    4.364    0.000    0.000    0.000    0.000 
#
# Total GULP energy -122559.592260 kJ/mol
# GULP energy per Si atom -5570.890557 kJ/mol
# Density = 1.704943 g / cm^3
# Si number density = 17.088327 Si / 1000 Ang^3
#
#
#
# Elastic Constant Matrix: (Units=GPa)
#
#
# Indices 1 2 3 4 5 6 
#
# 1 48.5364 9.2894 -13.3921 0.0000 8.5679 0.0000
# 2 9.2894 93.6586 17.3970 0.0000 0.9736 0.0000
# 3 -13.3921 17.3970 55.6576 0.0000 5.3291 0.0000
# 4 0.0000 0.0000 0.0000 10.8705 0.0000 1.1495
# 5 8.5679 0.9736 5.3291 0.0000 25.1586 0.0000
# 6 0.0000 0.0000 0.0000 1.1495 0.0000 8.5117
#
#
#
# Elastic Compliance Matrix: (Units=1/GPa)
#
#
# Indices 1 2 3 4 5 6 
#
# 1 0.025488 -0.003974 0.008361 0.000000 -0.010297 0.000000
# 2 -0.003974 0.011957 -0.004878 0.000000 0.001924 0.000000
# 3 0.008361 -0.004878 0.022208 0.000000 -0.007363 0.000000
# 4 0.000000 0.000000 0.000000 0.093325 0.000000 -0.012604
# 5 -0.010297 0.001924 -0.007363 0.000000 0.044740 0.000000
# 6 0.000000 0.000000 0.000000 -0.012604 0.000000 0.119187
#
#
# Mechanical properties :
#
#
# Convention : Reuss Voigt Hill
#
# Bulk Modulus (GPa) = 17.04380 24.93792 20.99086
# Shear Modulus (GPa) = 14.81723 21.21207 18.01465
#
# Velocity S-wave (km/s) = 2.94784 3.52706 3.25038
# Velocity P-wave (km/s) = 4.64564 5.58678 5.13780
#
# Compressibility (1/GPa) = 0.05867238
#
# Stress axis : x y z
#
# Youngs Moduli (GPa) = 39.23348 83.63086 45.02782
#
# Poissons Ratio (x) = 0.33235 -0.37648
# Poissons Ratio (y) = 0.15592 0.21964
# Poissons Ratio (z) = -0.32803 0.40795
#
# Static dielectric constant tensor:
#      x y z
#    x 1.691220 0.000000 0.006790 
#    y 0.000000 1.558520 0.000000 
#    z 0.006790 0.000000 1.603150 
# 
# From -- ./inp_files/10827.got.cif
#   From: 2010.05.17/outbox.cif.g08.bks.cpg/sg10_6_cif.got.tgz:10827.got - 2010.06.03 11:33:40.
