data_PCOD9142488
_publ_section_title
;
Structure prediction by ZEFSAII (Michael W. Deem and Ramdas Pophale) SiO2 
 PCOD9142488
Probable space group: P 2/M
;
_chemical_formula_sum "Si O2"
_cell_formula_units_Z 32
_cell_length_a 28.885316
_cell_length_b 7.589259
_cell_length_c 14.835715
_cell_angle_alpha 90.000000
_cell_angle_beta 150.301242
_cell_angle_gamma 90.000000
_cell_volume 1611.298137
_symmetry_space_group_name_H-M "P 2/M"
_symmetry_group_IT_number 10
_symmetry_cell_setting 'monoclinic'
loop_
_space_group_symop_operation_xyz
x,y,z
-x,y,-z
-x,-y,-z
x,-y,z
loop_
_atom_site_type_symbol
_atom_site_label
_atom_site_fract_x
_atom_site_fract_y
_atom_site_fract_z
Si Si1 0.085577 0.283757 0.765770
Si Si2 0.189839 0.215565 0.444297
Si Si3 0.804376 0.697691 0.879752
Si Si4 0.702020 0.210617 0.199097
Si Si5 0.880869 0.289303 0.382697
Si Si6 0.691559 0.791036 0.520596
Si Si7 0.499161 0.215769 0.892474
Si Si8 0.986806 0.211071 0.083905
O O1 0.086057 0.500000 0.771445
O O2 0.114738 0.231324 0.714103
O O3 0.977001 0.226014 0.593300
O O4 0.157340 0.217661 0.963056
O O5 0.260211 0.273492 0.640419
O O6 0.228327 0.274953 0.412745
O O7 0.085295 0.272046 0.290779
O O8 0.185989 0.000000 0.436253
O O9 0.776161 0.500000 0.854729
O O10 0.723304 0.766505 0.677052
O O11 0.897742 0.700555 0.976599
O O12 0.783456 0.247092 0.265487
O O13 0.695791 0.000000 0.194642
O O14 0.595948 0.274101 0.009463
O O15 0.888303 0.500000 0.393510
O O16 0.592170 0.722706 0.316540
O O17 0.688466 0.000000 0.501270
O O18 0.496807 0.000000 0.888578
O O19 0.500000 0.266542 0.000000
O O20 0.974099 0.000000 0.074496
O O21 0.000000 0.240824 0.000000
#
# Coordination Sequence:
#
# PCOD9142488 Si02
#       8
#     4   4   4   4   4   4   4   4
#     4   8  17  34  54  72  96 130 167 198 237 299
#     4   9  16  27  45  67  95 127 160 193 229 279
#     4  11  21  32  47  70  98 128 162 205 246 282
#     4  10  18  29  49  78 102 121 155 208 253 284
#     4   9  17  34  56  74  94 128 165 199 244 299
#     4  10  18  32  50  68  93 132 171 195 228 288
#     4   9  16  29  52  74  95 129 170 203 237 287
#     4  10  18  29  44  64  94 132 164 189 223 283
#
# _framework density 19.859763000000001
#
# number of rings (size 3 to 8) (size 9 to 14) (size 15 to 20)
#    0.000    2.500    2.500    1.875    0.000    0.250 
#    0.000    4.375    0.000    1.500    0.000    5.250 
#    0.000    0.000    0.000    0.000    0.000    0.000 
#
# Total GULP energy -178414.256547 kJ/mol
# GULP energy per Si atom -5575.445517 kJ/mol
# Density = 1.981456 g / cm^3
# Si number density = 19.859763 Si / 1000 Ang^3
#
#
#
# Elastic Constant Matrix: (Units=GPa)
#
#
# Indices 1 2 3 4 5 6 
#
# 1 83.5546 -1.1498 57.2685 0.0000 -0.6876 0.0000
# 2 -1.1498 34.6134 5.1397 0.0000 -1.4973 0.0000
# 3 57.2685 5.1397 170.9202 0.0000 -2.3134 0.0000
# 4 0.0000 0.0000 0.0000 2.7584 0.0000 -5.5501
# 5 -0.6876 -1.4973 -2.3134 0.0000 29.4174 0.0000
# 6 0.0000 0.0000 0.0000 -5.5501 0.0000 8.5707
#
#
#
# Elastic Compliance Matrix: (Units=1/GPa)
#
#
# Indices 1 2 3 4 5 6 
#
# 1 0.015594 0.001300 -0.005264 0.000000 0.000017 0.000000
# 2 0.001300 0.029187 -0.001294 0.000000 0.001414 0.000000
# 3 -0.005264 -0.001294 0.007659 0.000000 0.000413 0.000000
# 4 0.000000 0.000000 0.000000 -1.196606 0.000000 -0.774887
# 5 0.000017 0.001414 0.000413 0.000000 0.034098 0.000000
# 6 0.000000 0.000000 0.000000 -0.774887 0.000000 -0.385117
#
#
# Mechanical properties :
#
#
# Convention : Reuss Voigt Hill
#
# Bulk Modulus (GPa) = 23.85232 45.73391 34.79312
# Shear Modulus (GPa) = -3.39975 23.33796 9.96910
#
# Velocity S-wave (km/s) = -1.30981 3.43175 2.24291
# Velocity P-wave (km/s) = 3.12234 6.22743 4.92595
#
# Compressibility (1/GPa) = 0.04192464
#
# Stress axis : x y z
#
# Youngs Moduli (GPa) = 64.12679 34.26173 130.56708
#
# Poissons Ratio (x) = -0.04455 0.68728
# Poissons Ratio (y) = -0.08339 0.16898
# Poissons Ratio (z) = 0.33755 0.04434
#
# Static dielectric constant tensor:
#      x y z
#    x 1.685710 0.000000 -0.009860 
#    y 0.000000 1.762690 0.000000 
#    z -0.009860 0.000000 1.746460 
# 
# From -- ./inp_files/72583.got.cif
#   From: 2010.05.17/outbox.cif.g08.bks.cpg/sg10_37_cif.got.tgz:72583.got - 2010.06.03 11:33:40.
