data_PCOD9142924
_publ_section_title
;
Structure prediction by ZEFSAII (Michael W. Deem and Ramdas Pophale) SiO2 
 PCOD9142924
Probable space group: P 2/M
;
_chemical_formula_sum "Si O2"
_cell_formula_units_Z 32
_cell_length_a 20.746262
_cell_length_b 9.000959
_cell_length_c 25.612718
_cell_angle_alpha 90.000000
_cell_angle_beta 23.297163
_cell_angle_gamma 90.000000
_cell_volume 1891.606619
_symmetry_space_group_name_H-M "P 2/M"
_symmetry_group_IT_number 10
_symmetry_cell_setting 'monoclinic'
loop_
_space_group_symop_operation_xyz
x,y,z
-x,y,-z
-x,-y,-z
x,-y,z
loop_
_atom_site_type_symbol
_atom_site_label
_atom_site_fract_x
_atom_site_fract_y
_atom_site_fract_z
Si Si1 0.341981 0.822092 0.450247
Si Si2 0.743615 0.677231 0.907908
Si Si3 0.858649 0.178138 0.714519
Si Si4 0.968258 0.822840 0.244926
Si Si5 0.767521 0.180636 0.581004
Si Si6 0.450425 0.673945 0.620653
Si Si7 0.396320 0.178552 0.188861
Si Si8 0.766222 0.325002 0.309623
O O1 0.176195 0.786850 0.605844
O O2 0.318898 0.769264 0.408146
O O3 0.494342 0.756371 0.368360
O O4 0.355771 0.000000 0.439917
O O5 0.745622 0.500000 0.906967
O O6 0.802161 0.738448 0.808312
O O7 0.869989 0.741932 0.856204
O O8 0.564036 0.739584 0.052289
O O9 0.734542 0.205412 0.759557
O O10 0.042310 0.222432 0.562594
O O11 0.859413 0.000000 0.724625
O O12 0.904492 0.766393 0.236357
O O13 0.990277 0.000000 0.228680
O O14 0.679246 0.227216 0.699590
O O15 0.765010 0.000000 0.582716
O O16 0.425640 0.500000 0.649829
O O17 0.297370 0.727248 0.699784
O O18 0.607368 0.685282 0.465461
O O19 0.424808 0.000000 0.169346
O O20 0.808405 0.500000 0.275136
#
# Coordination Sequence:
#
# PCOD9142924 Si02
#       8
#     4   4   4   4   4   4   4   4
#     4   9  16  27  46  71 100 128 162 210 251 293
#     4  12  24  36  51  73 105 140 171 209 256 306
#     4  10  19  36  59  80 100 127 170 215 257 308
#     4  10  18  30  49  72  98 129 170 214 251 298
#     4   9  17  33  55  80 104 129 167 214 260 302
#     4   8  14  24  39  62  97 135 167 197 238 298
#     4  10  21  36  57  78 100 133 170 212 259 306
#     4   8  14  25  40  63  97 133 165 201 246 294
#
# _framework density 16.916836
#
# number of rings (size 3 to 8) (size 9 to 14) (size 15 to 20)
#    0.000    2.500    1.250    3.000    0.000    4.500 
#    0.000    3.750    0.000    1.500    0.000    0.875 
#    0.000    7.000    0.000    0.000    0.000    0.000 
#
# Total GULP energy -178388.506947 kJ/mol
# GULP energy per Si atom -5574.640842 kJ/mol
# Density = 1.687833 g / cm^3
# Si number density = 16.916836 Si / 1000 Ang^3
#
#
#
# Elastic Constant Matrix: (Units=GPa)
#
#
# Indices 1 2 3 4 5 6 
#
# 1 103.9119 36.7372 29.6266 0.0000 -20.7587 0.0000
# 2 36.7372 30.3857 16.0090 0.0000 -5.2650 0.0000
# 3 29.6266 16.0090 36.9660 0.0000 12.4676 0.0000
# 4 0.0000 0.0000 0.0000 5.4863 0.0000 -9.3393
# 5 -20.7587 -5.2650 12.4676 0.0000 10.3118 0.0000
# 6 0.0000 0.0000 0.0000 -9.3393 0.0000 12.9493
#
#
#
# Elastic Compliance Matrix: (Units=1/GPa)
#
#
# Indices 1 2 3 4 5 6 
#
# 1 -0.003869 -0.023867 0.034064 0.000000 -0.061160 0.000000
# 2 -0.023867 0.059823 -0.001480 0.000000 -0.015713 0.000000
# 3 0.034064 -0.001480 -0.037962 0.000000 0.113718 0.000000
# 4 0.000000 0.000000 0.000000 -0.800366 0.000000 -0.577244
# 5 -0.061160 -0.015713 0.113718 0.000000 -0.171659 0.000000
# 6 0.000000 0.000000 0.000000 -0.577244 0.000000 -0.339098
#
#
# Mechanical properties :
#
#
# Convention : Reuss Voigt Hill
#
# Bulk Modulus (GPa) = 28.22686 37.33436 32.78061
# Shear Modulus (GPa) = -3.84984 11.67554 3.91285
#
# Velocity S-wave (km/s) = -1.51019 2.62996 1.52250
# Velocity P-wave (km/s) = 3.69878 5.59817 4.74450
#
# Compressibility (1/GPa) = 0.03542725
#
# Stress axis : x y z
#
# Youngs Moduli (GPa) = -258.49449 16.71595 -26.34208
#
# Poissons Ratio (x) = 0.39896 0.89732
# Poissons Ratio (y) = -6.16954 -0.03898
# Poissons Ratio (z) = 8.80540 0.02473
#
# Static dielectric constant tensor:
#      x y z
#    x 1.589040 0.000000 -0.009810 
#    y 0.000000 1.563320 0.000000 
#    z -0.009810 0.000000 1.545960 
# 
# From -- ./inp_files/93587.got.cif
#   From: 2010.05.17/outbox.cif.g08.bks.cpg/sg10_47_cif.got.tgz:93587.got - 2010.06.03 11:33:40.
