data_PCOD9142415
_publ_section_title
;
Structure prediction by ZEFSAII (Michael W. Deem and Ramdas Pophale) SiO2 
 PCOD9142415
Probable space group: P 2/M
;
_chemical_formula_sum "Si O2"
_cell_formula_units_Z 32
_cell_length_a 20.761255
_cell_length_b 9.115741
_cell_length_c 25.867724
_cell_angle_alpha 90.000000
_cell_angle_beta 22.681329
_cell_angle_gamma 90.000000
_cell_volume 1887.760519
_symmetry_space_group_name_H-M "P 2/M"
_symmetry_group_IT_number 10
_symmetry_cell_setting 'monoclinic'
loop_
_space_group_symop_operation_xyz
x,y,z
-x,y,-z
-x,-y,-z
x,-y,z
loop_
_atom_site_type_symbol
_atom_site_label
_atom_site_fract_x
_atom_site_fract_y
_atom_site_fract_z
Si Si1 0.338784 0.324006 0.865996
Si Si2 0.136152 0.175797 0.636442
Si Si3 0.025655 0.323442 0.823594
Si Si4 0.047220 0.822687 0.588039
Si Si5 0.470532 0.824398 0.664495
Si Si6 0.825698 0.830771 0.661563
Si Si7 0.347786 0.675522 0.652117
Si Si8 0.658771 0.325619 0.695327
O O1 0.340210 0.500000 0.856114
O O2 0.395245 0.244256 0.772095
O O3 0.475629 0.292340 0.808944
O O4 0.154016 0.280820 0.020795
O O5 0.060864 0.253268 0.742021
O O6 0.047334 0.215643 0.648182
O O7 0.332482 0.213746 0.485528
O O8 0.125199 0.000000 0.650762
O O9 0.029027 0.500000 0.815859
O O10 0.175733 0.282971 0.751324
O O11 0.207011 0.749390 0.442416
O O12 0.883946 0.782021 0.675386
O O13 0.065385 0.000000 0.570084
O O14 0.379755 0.759506 0.681505
O O15 0.457108 0.000000 0.675810
O O16 0.697100 0.735646 0.723985
O O17 0.000000 0.826777 0.500000
O O18 0.770472 0.000000 0.703998
O O19 0.500000 0.706268 0.500000
O O20 0.346489 0.500000 0.662732
O O21 0.684000 0.500000 0.675877
#
# Coordination Sequence:
#
# PCOD9142415 Si02
#       8
#     4   4   4   4   4   4   4   4
#     4  10  22  38  54  76 108 144 178 214 259 313
#     4  10  20  34  54  80 107 135 172 219 264 306
#     4  10  22  39  57  77 104 140 179 216 260 315
#     4   9  17  31  49  73 105 137 171 210 258 311
#     4  11  22  35  57  83 107 137 173 218 264 310
#     4   8  15  27  45  69 101 138 170 207 256 308
#     4  10  20  36  58  80 104 137 176 217 261 314
#     4  10  18  28  47  74 104 135 171 215 257 302
#
# _framework density 16.951302999999999
#
# number of rings (size 3 to 8) (size 9 to 14) (size 15 to 20)
#    0.000    2.250    2.500    1.500    0.000    5.500 
#    0.000    2.500    0.000    0.750    0.000    5.250 
#    0.000    0.000    0.000    0.000    0.000    0.000 
#
# Total GULP energy -178490.232885 kJ/mol
# GULP energy per Si atom -5577.819778 kJ/mol
# Density = 1.691272 g / cm^3
# Si number density = 16.951303 Si / 1000 Ang^3
#
#
#
# Elastic Constant Matrix: (Units=GPa)
#
#
# Indices 1 2 3 4 5 6 
#
# 1 176.2883 55.8133 73.3429 0.0000 -9.2816 0.0000
# 2 55.8133 31.7111 43.1335 0.0000 -3.7763 0.0000
# 3 73.3429 43.1335 104.8909 0.0000 -1.9455 0.0000
# 4 0.0000 0.0000 0.0000 13.1567 0.0000 3.5358
# 5 -9.2816 -3.7763 -1.9455 0.0000 21.3416 0.0000
# 6 0.0000 0.0000 0.0000 3.5358 0.0000 33.5648
#
#
#
# Elastic Compliance Matrix: (Units=1/GPa)
#
#
# Indices 1 2 3 4 5 6 
#
# 1 0.012884 -0.023326 0.000612 0.000000 0.001532 0.000000
# 2 -0.023326 0.115989 -0.031248 0.000000 0.007531 0.000000
# 3 0.000612 -0.031248 0.021895 0.000000 -0.003267 0.000000
# 4 0.000000 0.000000 0.000000 0.078222 0.000000 -0.008240
# 5 0.001532 0.007531 -0.003267 0.000000 0.048558 0.000000
# 6 0.000000 0.000000 0.000000 -0.008240 0.000000 0.030661
#
#
# Mechanical properties :
#
#
# Convention : Reuss Voigt Hill
#
# Bulk Modulus (GPa) = 23.34011 73.05220 48.19616
# Shear Modulus (GPa) = 11.61678 22.98599 17.30139
#
# Velocity S-wave (km/s) = 2.62067 3.68639 3.19823
# Velocity P-wave (km/s) = 4.79124 7.82995 6.49092
#
# Compressibility (1/GPa) = 0.04284469
#
# Stress axis : x y z
#
# Youngs Moduli (GPa) = 77.61826 8.62152 45.67259
#
# Poissons Ratio (x) = 0.20110 -0.02795
# Poissons Ratio (y) = 1.81050 1.42716
# Poissons Ratio (z) = -0.04749 0.26940
#
# Static dielectric constant tensor:
#      x y z
#    x 1.582310 0.000000 -0.019400 
#    y 0.000000 1.566780 0.000000 
#    z -0.019400 0.000000 1.546270 
# 
# From -- ./inp_files/86912.got.cif
#   From: 2010.05.17/outbox.cif.g08.bks.cpg/sg10_44_cif.got.tgz:86912.got - 2010.06.03 11:33:40.
