data_PCOD9142664
_publ_section_title
;
Structure prediction by ZEFSAII (Michael W. Deem and Ramdas Pophale) SiO2 
 PCOD9142664
Probable space group: P 2/M
;
_chemical_formula_sum "Si O2"
_cell_formula_units_Z 32
_cell_length_a 31.427518
_cell_length_b 8.791978
_cell_length_c 21.788362
_cell_angle_alpha 90.000000
_cell_angle_beta 19.566099
_cell_angle_gamma 90.000000
_cell_volume 2016.177524
_symmetry_space_group_name_H-M "P 2/M"
_symmetry_group_IT_number 10
_symmetry_cell_setting 'monoclinic'
loop_
_space_group_symop_operation_xyz
x,y,z
-x,y,-z
-x,-y,-z
x,-y,z
loop_
_atom_site_type_symbol
_atom_site_label
_atom_site_fract_x
_atom_site_fract_y
_atom_site_fract_z
Si Si1 0.978648 0.815857 0.928736
Si Si2 0.492859 0.183578 0.321728
Si Si3 0.053372 0.180329 0.281894
Si Si4 0.601036 0.182973 0.309969
Si Si5 0.722102 0.682834 0.939554
Si Si6 0.797715 0.815425 0.286074
Si Si7 0.883165 0.324380 0.610004
Si Si8 0.882218 0.319005 0.934556
O O1 0.953178 0.741494 0.898307
O O2 0.110483 0.771119 0.782631
O O3 0.976379 0.000000 0.926039
O O4 0.867539 0.771605 0.127910
O O5 0.544671 0.219422 0.319534
O O6 0.586101 0.258747 0.145866
O O7 0.347263 0.235428 0.513392
O O8 0.497543 0.000000 0.308922
O O9 0.056172 0.251250 0.210770
O O10 0.929922 0.226514 0.489291
O O11 0.066276 0.000000 0.260801
O O12 0.174511 0.247078 0.154210
O O13 0.500000 0.224414 0.500000
O O14 0.619683 0.000000 0.287726
O O15 0.736502 0.261246 0.134788
O O16 0.730650 0.500000 0.931682
O O17 0.764536 0.726652 0.812788
O O18 0.796165 0.000000 0.287811
O O19 0.866248 0.500000 0.613990
O O20 0.000000 0.321848 0.500000
O O21 0.884329 0.500000 0.929160
#
# Coordination Sequence:
#
# PCOD9142664 Si02
#       8
#     4   4   4   4   4   4   4   4
#     4   9  17  34  56  73  93 125 169 211 251 292
#     4  10  18  29  48  73  99 128 164 203 242 288
#     4  11  20  31  48  70  95 127 166 204 241 285
#     4  10  20  33  49  69  96 131 167 200 239 290
#     4  10  19  31  46  68 100 134 161 193 240 294
#     4   8  16  32  55  77  94 122 165 213 253 288
#     4   8  16  30  46  65  94 129 160 192 238 290
#     4  12  23  33  47  70 102 133 164 201 247 294
#
# _framework density 15.871618
#
# number of rings (size 3 to 8) (size 9 to 14) (size 15 to 20)
#    0.000    2.250    1.250    4.875    0.000    5.000 
#    0.000    3.750    0.000    0.000    0.000    0.875 
#    0.000    7.000    0.000    0.000    0.000    0.000 
#
# Total GULP energy -178490.576474 kJ/mol
# GULP energy per Si atom -5577.830515 kJ/mol
# Density = 1.583549 g / cm^3
# Si number density = 15.871618 Si / 1000 Ang^3
#
#
#
# Elastic Constant Matrix: (Units=GPa)
#
#
# Indices 1 2 3 4 5 6 
#
# 1 104.5937 43.2843 60.2277 0.0000 15.7944 0.0000
# 2 43.2843 51.7835 32.1150 0.0000 9.4663 0.0000
# 3 60.2277 32.1150 92.9160 0.0000 18.9122 0.0000
# 4 0.0000 0.0000 0.0000 29.9613 0.0000 28.6884
# 5 15.7944 9.4663 18.9122 0.0000 22.4201 0.0000
# 6 0.0000 0.0000 0.0000 28.6884 0.0000 33.7521
#
#
#
# Elastic Compliance Matrix: (Units=1/GPa)
#
#
# Indices 1 2 3 4 5 6 
#
# 1 0.018887 -0.010288 -0.008285 0.000000 -0.001973 0.000000
# 2 -0.010288 0.030467 -0.003282 0.000000 -0.002847 0.000000
# 3 -0.008285 -0.003282 0.019071 0.000000 -0.008865 0.000000
# 4 0.000000 0.000000 0.000000 0.179313 0.000000 -0.152411
# 5 -0.001973 -0.002847 -0.008865 0.000000 0.054673 0.000000
# 6 0.000000 0.000000 0.000000 -0.152411 0.000000 0.159174
#
#
# Mechanical properties :
#
#
# Convention : Reuss Voigt Hill
#
# Bulk Modulus (GPa) = 40.46150 57.83857 49.15003
# Shear Modulus (GPa) = 9.73646 24.80445 17.27045
#
# Velocity S-wave (km/s) = 2.47948 3.95754 3.30227
# Velocity P-wave (km/s) = 5.80908 7.57651 6.75088
#
# Compressibility (1/GPa) = 0.02471486
#
# Stress axis : x y z
#
# Youngs Moduli (GPa) = 52.94629 32.82257 52.43428
#
# Poissons Ratio (x) = 0.33769 0.43442
# Poissons Ratio (y) = 0.54473 0.17209
# Poissons Ratio (z) = 0.43866 0.10772
#
# Static dielectric constant tensor:
#      x y z
#    x 1.510480 0.000000 0.013070 
#    y 0.000000 1.530880 0.000000 
#    z 0.013070 0.000000 1.541600 
# 
# From -- ./inp_files/87179.got.cif
#   From: 2010.05.17/outbox.cif.g08.bks.cpg/sg10_44_cif.got.tgz:87179.got - 2010.06.03 11:33:40.
