data_PCOD9142260
_publ_section_title
;
Structure prediction by ZEFSAII (Michael W. Deem and Ramdas Pophale) SiO2 
 PCOD9142260
Probable space group: P 2/M
;
_chemical_formula_sum "Si O2"
_cell_formula_units_Z 26
_cell_length_a 8.150589
_cell_length_b 10.999980
_cell_length_c 26.727313
_cell_angle_alpha 90.000000
_cell_angle_beta 35.266229
_cell_angle_gamma 90.000000
_cell_volume 1383.551335
_symmetry_space_group_name_H-M "P 2/M"
_symmetry_group_IT_number 10
_symmetry_cell_setting 'monoclinic'
loop_
_space_group_symop_operation_xyz
x,y,z
-x,y,-z
-x,-y,-z
x,-y,z
loop_
_atom_site_type_symbol
_atom_site_label
_atom_site_fract_x
_atom_site_fract_y
_atom_site_fract_z
Si Si1 0.532913 0.144701 0.699478
Si Si2 0.258859 0.230854 0.209269
Si Si3 0.165735 0.142692 0.882250
Si Si4 0.543438 0.143929 0.048476
Si Si5 0.864293 0.368628 0.666528
Si Si6 0.632536 0.862135 0.373731
Si Si7 0.500000 0.300696 0.500000
O O1 0.248223 0.162815 0.803676
O O2 0.744325 0.248141 0.668317
O O3 0.474928 0.164996 0.655530
O O4 0.615849 0.000000 0.685919
O O5 0.551921 0.177774 0.158433
O O6 0.325180 0.225894 0.134054
O O7 0.203361 0.348161 0.257624
O O8 0.974314 0.153111 0.289216
O O9 0.125299 0.000000 0.898227
O O10 0.865562 0.192882 0.975230
O O11 0.511248 0.000000 0.071826
O O12 0.500000 0.145974 0.000000
O O13 0.746651 0.500000 0.679272
O O14 0.202033 0.369245 0.575457
O O15 0.503663 0.778915 0.448669
O O16 0.556199 0.000000 0.404099
#
# Coordination Sequence:
#
# PCOD9142260 Si02
#       7
#     4   4   4   4   4   4   2
#     4   9  19  35  56  82 111 143 179 221 269 321
#     4  10  19  31  51  75 105 144 183 219 265 317
#     4   9  16  27  46  74 107 142 180 218 258 307
#     4  10  18  27  45  77 115 149 181 220 265 314
#     4  10  22  41  60  78 105 140 182 227 274 326
#     4  10  19  33  53  81 115 144 175 221 275 326
#     4  10  22  36  56  82 105 140 181 222 269 328
#
# _framework density 18.792218999999999
#
# number of rings (size 3 to 8) (size 9 to 14) (size 15 to 20)
#    0.000    2.308    0.000    3.231    0.000    9.231 
#    0.000    6.154    0.000    7.846    0.000    0.000 
#    0.000    0.000    0.000    0.000    0.000    0.000 
#
# Total GULP energy -144742.299018 kJ/mol
# GULP energy per Si atom -5567.011501 kJ/mol
# Density = 1.874945 g / cm^3
# Si number density = 18.792219 Si / 1000 Ang^3
#
#
#
# Elastic Constant Matrix: (Units=GPa)
#
#
# Indices 1 2 3 4 5 6 
#
# 1 67.0091 38.1433 25.4699 0.0000 11.0326 0.0000
# 2 38.1433 86.6141 39.6240 0.0000 6.8183 0.0000
# 3 25.4699 39.6240 117.4010 0.0000 7.7011 0.0000
# 4 0.0000 0.0000 0.0000 -15.4657 0.0000 -9.5450
# 5 11.0326 6.8183 7.7011 0.0000 31.5647 0.0000
# 6 0.0000 0.0000 0.0000 -9.5450 0.0000 2.9218
#
#
#
# Elastic Compliance Matrix: (Units=1/GPa)
#
#
# Indices 1 2 3 4 5 6 
#
# 1 0.020982 -0.008164 -0.001454 0.000000 -0.005215 0.000000
# 2 -0.008164 0.016938 -0.003956 0.000000 0.000160 0.000000
# 3 -0.001454 -0.003956 0.010243 0.000000 -0.001136 0.000000
# 4 0.000000 0.000000 0.000000 -0.021438 0.000000 -0.070032
# 5 -0.005215 0.000160 -0.001136 0.000000 0.033746 0.000000
# 6 0.000000 0.000000 0.000000 -0.070032 0.000000 0.113472
#
#
# Mechanical properties :
#
#
# Convention : Reuss Voigt Hill
#
# Bulk Modulus (GPa) = 47.58761 53.05541 50.32151
# Shear Modulus (GPa) = 24.02710 14.98998 19.50854
#
# Velocity S-wave (km/s) = 3.57958 2.82737 3.22548
# Velocity P-wave (km/s) = 6.51633 6.24120 6.38025
#
# Compressibility (1/GPa) = 0.02101387
#
# Stress axis : x y z
#
# Youngs Moduli (GPa) = 47.65962 59.03865 97.62693
#
# Poissons Ratio (x) = 0.48201 0.14199
# Poissons Ratio (y) = 0.38910 0.38622
# Poissons Ratio (z) = 0.06932 0.23356
#
# Static dielectric constant tensor:
#      x y z
#    x 1.721260 0.000000 0.019740 
#    y 0.000000 1.647190 0.000000 
#    z 0.019740 0.000000 1.674040 
# 
# From -- ./inp_files/92269.got.cif
#   From: 2010.05.17/outbox.cif.g08.bks.cpg/sg10_47_cif.got.tgz:92269.got - 2010.06.03 11:33:40.
