data_PCOD9142227
_publ_section_title
;
Structure prediction by ZEFSAII (Michael W. Deem and Ramdas Pophale) SiO2 
 PCOD9142227
Probable space group: P 2/M
;
_chemical_formula_sum "Si O2"
_cell_formula_units_Z 32
_cell_length_a 11.764882
_cell_length_b 7.544517
_cell_length_c 18.197973
_cell_angle_alpha 90.000000
_cell_angle_beta 97.931766
_cell_angle_gamma 90.000000
_cell_volume 1599.805492
_symmetry_space_group_name_H-M "P 2/M"
_symmetry_group_IT_number 10
_symmetry_cell_setting 'monoclinic'
loop_
_space_group_symop_operation_xyz
x,y,z
-x,y,-z
-x,-y,-z
x,-y,z
loop_
_atom_site_type_symbol
_atom_site_label
_atom_site_fract_x
_atom_site_fract_y
_atom_site_fract_z
Si Si1 0.659899 0.784782 0.456389
Si Si2 0.726999 0.284959 0.885591
Si Si3 0.803496 0.708127 0.160330
Si Si4 0.374435 0.714851 0.968595
Si Si5 0.541526 0.296267 0.756053
Si Si6 0.394249 0.213355 0.393993
Si Si7 0.282803 0.796293 0.693152
Si Si8 0.019279 0.717062 0.086868
O O1 0.679880 0.725664 0.542183
O O2 0.526488 0.746045 0.426862
O O3 0.726044 0.717661 0.390090
O O4 0.669302 0.000000 0.458088
O O5 0.724344 0.500000 0.877881
O O6 0.620501 0.219293 0.827452
O O7 0.854240 0.224769 0.876412
O O8 0.705976 0.246688 0.969100
O O9 0.804856 0.500000 0.143139
O O10 0.689090 0.780384 0.109978
O O11 0.790301 0.723050 0.246151
O O12 0.917484 0.779528 0.131156
O O13 0.386053 0.500000 0.963560
O O14 0.500000 0.783306 0.000000
O O15 0.513880 0.500000 0.772136
O O16 0.617596 0.289134 0.688394
O O17 0.417961 0.212382 0.727868
O O18 0.384380 0.000000 0.387526
O O19 0.250142 0.000000 0.684123
O O20 0.020273 0.500000 0.087242
O O21 0.000000 0.768587 0.000000
#
# Coordination Sequence:
#
# PCOD9142227 Si02
#       8
#     4   4   4   4   4   4   4   4
#     4   7  12  24  42  60  80 116 154 176 202 258
#     4   9  16  26  41  64  92 118 144 181 224 261
#     4  10  18  28  46  69  88 109 147 193 226 254
#     4   9  15  23  38  62  89 114 140 172 212 257
#     4  10  18  27  42  67  96 119 145 180 221 262
#     4   8  13  25  43  61  85 116 149 177 211 259
#     4  10  19  31  45  62  91 124 150 176 218 270
#     4   9  15  27  46  68  87 109 149 194 225 256
#
# _framework density 20.002431000000001
#
# number of rings (size 3 to 8) (size 9 to 14) (size 15 to 20)
#    0.000    3.000    1.250    3.000    0.000    2.000 
#    0.000    5.625    0.000    6.000    0.000    0.875 
#    0.000    7.000    0.000    0.000    0.000    0.000 
#
# Total GULP energy -178229.620718 kJ/mol
# GULP energy per Si atom -5569.675647 kJ/mol
# Density = 1.995690 g / cm^3
# Si number density = 20.002431 Si / 1000 Ang^3
#
#
#
# Elastic Constant Matrix: (Units=GPa)
#
#
# Indices 1 2 3 4 5 6 
#
# 1 57.9827 -2.0433 0.3067 0.0000 -25.4075 0.0000
# 2 -2.0433 41.2815 -8.0626 0.0000 0.6240 0.0000
# 3 0.3067 -8.0626 61.1344 0.0000 -27.3102 0.0000
# 4 0.0000 0.0000 0.0000 14.2379 0.0000 -9.6930
# 5 -25.4075 0.6240 -27.3102 0.0000 25.8318 0.0000
# 6 0.0000 0.0000 0.0000 -9.6930 0.0000 -19.9701
#
#
#
# Elastic Compliance Matrix: (Units=1/GPa)
#
#
# Indices 1 2 3 4 5 6 
#
# 1 0.103049 0.019593 0.089318 0.000000 0.195313 0.000000
# 2 0.019593 0.028998 0.022781 0.000000 0.042655 0.000000
# 3 0.089318 0.022781 0.109744 0.000000 0.203325 0.000000
# 4 0.000000 0.000000 0.000000 0.052791 0.000000 -0.025623
# 5 0.195313 0.042655 0.203325 0.000000 0.444748 0.000000
# 6 0.000000 0.000000 0.000000 -0.025623 0.000000 -0.037638
#
#
# Mechanical properties :
#
#
# Convention : Reuss Voigt Hill
#
# Bulk Modulus (GPa) = 1.97951 15.64446 8.81199
# Shear Modulus (GPa) = 8.24130 15.36645 11.80387
#
# Velocity S-wave (km/s) = 2.03202 2.77470 2.43188
# Velocity P-wave (km/s) = 2.54897 4.25483 3.50719
#
# Compressibility (1/GPa) = 0.50517483
#
# Stress axis : x y z
#
# Youngs Moduli (GPa) = 9.70411 34.48483 9.11212
#
# Poissons Ratio (x) = -0.67565 -0.81388
# Poissons Ratio (y) = -0.19013 -0.20759
# Poissons Ratio (z) = -0.86675 -0.78561
#
# Static dielectric constant tensor:
#      x y z
#    x 1.700470 0.000000 -0.030100 
#    y 0.000000 1.757380 0.000000 
#    z -0.030100 0.000000 1.764430 
# 
# From -- ./inp_files/75977.got.cif
#   From: 2010.05.17/outbox.cif.g08.bks.cpg/sg10_38_cif.got.tgz:75977.got - 2010.06.03 11:33:40.
