data_PCOD9142852
_publ_section_title
;
Structure prediction by ZEFSAII (Michael W. Deem and Ramdas Pophale) SiO2 
 PCOD9142852
Probable space group: P 2/M
;
_chemical_formula_sum "Si O2"
_cell_formula_units_Z 32
_cell_length_a 20.868297
_cell_length_b 14.171358
_cell_length_c 24.688681
_cell_angle_alpha 90.000000
_cell_angle_beta 16.376721
_cell_angle_gamma 90.000000
_cell_volume 2058.595581
_symmetry_space_group_name_H-M "P 2/M"
_symmetry_group_IT_number 10
_symmetry_cell_setting 'monoclinic'
loop_
_space_group_symop_operation_xyz
x,y,z
-x,y,-z
-x,-y,-z
x,-y,z
loop_
_atom_site_type_symbol
_atom_site_label
_atom_site_fract_x
_atom_site_fract_y
_atom_site_fract_z
Si Si1 0.704096 0.610078 0.905695
Si Si2 0.225613 0.887803 0.352646
Si Si3 0.524266 0.885454 0.306928
Si Si4 0.101521 0.113142 0.576635
Si Si5 0.876460 0.886468 0.930101
Si Si6 0.300120 0.795888 0.037029
Si Si7 0.404780 0.885532 0.519997
Si Si8 0.164529 0.389203 0.318914
O O1 0.760266 0.500000 0.870073
O O2 0.832412 0.643931 0.746367
O O3 0.745230 0.684855 0.919554
O O4 0.430949 0.614437 0.118176
O O5 0.440845 0.825703 0.161109
O O6 0.000000 0.874786 0.500000
O O7 0.171127 0.863927 0.459113
O O8 0.286031 0.000000 0.300981
O O9 0.734502 0.860579 0.098504
O O10 0.533165 0.852791 0.361631
O O11 0.294326 0.854573 0.462795
O O12 0.516004 0.000000 0.315020
O O13 0.090626 0.000000 0.589040
O O14 0.861781 0.153912 0.788327
O O15 0.770513 0.835828 0.964080
O O16 0.856091 0.000000 0.937979
O O17 0.139994 0.864334 0.725348
O O18 0.500000 0.850299 0.500000
O O19 0.422672 0.000000 0.507022
O O20 0.102610 0.500000 0.364857
O O21 0.000000 0.349530 0.500000
#
# Coordination Sequence:
#
# PCOD9142852 Si02
#       8
#     4   4   4   4   4   4   4   4
#     4   9  20  33  46  70  94 112 149 201 244 290
#     4  10  22  36  47  66  95 122 160 211 244 268
#     4   9  16  28  46  65  90 122 156 190 222 267
#     4  10  19  32  49  67  88 120 162 199 232 276
#     4  10  18  30  48  68  92 127 163 187 221 276
#     4  12  21  31  51  68  88 127 164 192 239 292
#     4   9  17  28  44  69  98 124 153 189 224 265
#     4   8  15  33  54  64  80 112 144 188 252 302
#
# _framework density 15.544579000000001
#
# number of rings (size 3 to 8) (size 9 to 14) (size 15 to 20)
#    0.000    2.375    2.500    1.875    0.000    4.500 
#    0.000    4.375    0.000    0.000    0.000    0.000 
#    0.000    0.500    0.000    1.250    0.000    0.250 
#
# Total GULP energy -178283.731884 kJ/mol
# GULP energy per Si atom -5571.366621 kJ/mol
# Density = 1.550920 g / cm^3
# Si number density = 15.544579 Si / 1000 Ang^3
#
#
#
# Elastic Constant Matrix: (Units=GPa)
#
#
# Indices 1 2 3 4 5 6 
#
# 1 78.9267 31.2421 24.8659 0.0000 10.3801 0.0000
# 2 31.2421 34.9559 27.3913 0.0000 10.1868 0.0000
# 3 24.8659 27.3913 77.3922 0.0000 24.5820 0.0000
# 4 0.0000 0.0000 0.0000 5.1578 0.0000 1.4774
# 5 10.3801 10.1868 24.5820 0.0000 21.4674 0.0000
# 6 0.0000 0.0000 0.0000 1.4774 0.0000 7.4397
#
#
#
# Elastic Compliance Matrix: (Units=1/GPa)
#
#
# Indices 1 2 3 4 5 6 
#
# 1 0.019646 -0.017354 0.000364 0.000000 -0.001681 0.000000
# 2 -0.017354 0.055170 -0.013045 0.000000 -0.002851 0.000000
# 3 0.000364 -0.013045 0.024377 0.000000 -0.021900 0.000000
# 4 0.000000 0.000000 0.000000 0.205575 0.000000 -0.040823
# 5 -0.001681 -0.002851 -0.021900 0.000000 0.073825 0.000000
# 6 0.000000 0.000000 0.000000 -0.040823 0.000000 0.142520
#
#
# Mechanical properties :
#
#
# Convention : Reuss Voigt Hill
#
# Bulk Modulus (GPa) = 25.56008 39.80812 32.68410
# Shear Modulus (GPa) = 8.41432 13.99801 11.20617
#
# Velocity S-wave (km/s) = 2.32912 3.00410 2.68788
# Velocity P-wave (km/s) = 4.86948 6.13982 5.54118
#
# Compressibility (1/GPa) = 0.03912351
#
# Stress axis : x y z
#
# Youngs Moduli (GPa) = 50.90181 18.12566 41.02172
#
# Poissons Ratio (x) = 0.31455 -0.01492
# Poissons Ratio (y) = 0.88333 0.53513
# Poissons Ratio (z) = -0.01852 0.23645
#
# Static dielectric constant tensor:
#      x y z
#    x 1.527740 0.000000 0.016890 
#    y 0.000000 1.516550 0.000000 
#    z 0.016890 0.000000 1.541080 
# 
# From -- ./inp_files/79712.got.cif
#   From: 2010.05.17/outbox.cif.g08.bks.cpg/sg10_40_cif.got.tgz:79712.got - 2010.06.03 11:33:40.
