data_PCOD9142195
_publ_section_title
;
Structure prediction by ZEFSAII (Michael W. Deem and Ramdas Pophale) SiO2 
 PCOD9142195
Probable space group: P 2/M
;
_chemical_formula_sum "Si O2"
_cell_formula_units_Z 32
_cell_length_a 16.809951
_cell_length_b 9.188846
_cell_length_c 22.804004
_cell_angle_alpha 90.000000
_cell_angle_beta 142.032276
_cell_angle_gamma 90.000000
_cell_volume 2167.041313
_symmetry_space_group_name_H-M "P 2/M"
_symmetry_group_IT_number 10
_symmetry_cell_setting 'monoclinic'
loop_
_space_group_symop_operation_xyz
x,y,z
-x,y,-z
-x,-y,-z
x,-y,z
loop_
_atom_site_type_symbol
_atom_site_label
_atom_site_fract_x
_atom_site_fract_y
_atom_site_fract_z
Si Si1 0.079213 0.325649 0.805593
Si Si2 0.739988 0.674091 0.978335
Si Si3 0.291716 0.829494 0.859262
Si Si4 0.523934 0.830583 0.918532
Si Si5 0.152478 0.674978 0.086465
Si Si6 0.441533 0.667721 0.532119
Si Si7 0.196192 0.827315 0.344712
Si Si8 0.688041 0.827610 0.718471
O O1 0.066786 0.500000 0.795819
O O2 0.155459 0.287340 0.910383
O O3 0.168756 0.265955 0.804951
O O4 0.940813 0.249199 0.725393
O O5 0.727896 0.500000 0.972666
O O6 0.602779 0.743185 0.915879
O O7 0.791001 0.716988 0.944171
O O8 0.382308 0.780614 0.857782
O O9 0.257722 0.000000 0.831468
O O10 0.385331 0.823111 0.970729
O O11 0.514143 0.000000 0.896509
O O12 0.167019 0.500000 0.101997
O O13 0.227602 0.756080 0.181581
O O14 0.000000 0.707505 0.000000
O O15 0.500000 0.666830 0.500000
O O16 0.424067 0.500000 0.539983
O O17 0.307127 0.753349 0.448697
O O18 0.548968 0.749797 0.632790
O O19 0.240575 0.806415 0.302758
O O20 0.189024 0.000000 0.351316
O O21 0.672472 0.000000 0.718165
#
# Coordination Sequence:
#
# PCOD9142195 Si02
#       8
#     4   4   4   4   4   4   4   4
#     4  10  18  27  41  62  87 115 146 177 212 256
#     4   9  18  29  41  59  83 113 149 186 218 249
#     4   8  14  25  39  57  81 109 139 171 212 257
#     4   8  14  25  41  57  77 108 142 175 212 256
#     4  10  20  33  46  60  84 118 152 185 219 252
#     4   9  17  30  48  66  83 107 139 174 214 260
#     4  10  19  30  44  63  88 114 140 175 217 258
#     4  10  20  32  46  64  85 111 145 183 219 254
#
# _framework density 14.766678000000001
#
# number of rings (size 3 to 8) (size 9 to 14) (size 15 to 20)
#    0.000    2.750    0.000    3.000    0.000    5.750 
#    0.000    2.500    0.000    0.000    0.000    0.000 
#    0.000    1.000    0.000   10.500    0.000    6.250 
#
# Total GULP energy -178268.066670 kJ/mol
# GULP energy per Si atom -5570.877083 kJ/mol
# Density = 1.473307 g / cm^3
# Si number density = 14.766678 Si / 1000 Ang^3
#
#
#
# Elastic Constant Matrix: (Units=GPa)
#
#
# Indices 1 2 3 4 5 6 
#
# 1 104.1398 60.8661 56.5439 0.0000 20.3511 0.0000
# 2 60.8661 76.0141 62.3965 0.0000 19.4622 0.0000
# 3 56.5439 62.3965 102.6501 0.0000 18.8947 0.0000
# 4 0.0000 0.0000 0.0000 23.1278 0.0000 4.6659
# 5 20.3511 19.4622 18.8947 0.0000 20.5244 0.0000
# 6 0.0000 0.0000 0.0000 4.6659 0.0000 25.1620
#
#
#
# Elastic Compliance Matrix: (Units=1/GPa)
#
#
# Indices 1 2 3 4 5 6 
#
# 1 0.018760 -0.011928 -0.002096 0.000000 -0.005361 0.000000
# 2 -0.011928 0.036694 -0.013854 0.000000 -0.010213 0.000000
# 3 -0.002096 -0.013854 0.019887 0.000000 -0.003092 0.000000
# 4 0.000000 0.000000 0.000000 0.044918 0.000000 -0.008330
# 5 -0.005361 -0.010213 -0.003092 0.000000 0.066569 0.000000
# 6 0.000000 0.000000 0.000000 -0.008330 0.000000 0.041287
#
#
# Mechanical properties :
#
#
# Convention : Reuss Voigt Hill
#
# Bulk Modulus (GPa) = 51.06328 71.37966 61.22147
# Shear Modulus (GPa) = 17.21762 20.62934 18.92348
#
# Velocity S-wave (km/s) = 3.41835 3.74173 3.58369
# Velocity P-wave (km/s) = 7.08768 8.19211 7.65983
#
# Compressibility (1/GPa) = 0.01958354
#
# Stress axis : x y z
#
# Youngs Moduli (GPa) = 53.30519 27.25278 50.28396
#
# Poissons Ratio (x) = 0.32507 0.10542
# Poissons Ratio (y) = 0.63582 0.69663
# Poissons Ratio (z) = 0.11175 0.37756
#
# Static dielectric constant tensor:
#      x y z
#    x 1.490810 0.000000 0.007080 
#    y 0.000000 1.491770 0.000000 
#    z 0.007080 0.000000 1.464230 
# 
# From -- ./inp_files/55221.got.cif
#   From: 2010.05.17/outbox.cif.g08.bks.cpg/sg10_28_cif.got.tgz:55221.got - 2010.06.03 11:33:40.
