data_PCOD9142708
_publ_section_title
;
Structure prediction by ZEFSAII (Michael W. Deem and Ramdas Pophale) SiO2 
 PCOD9142708
Probable space group: P 2/M
;
_chemical_formula_sum "Si O2"
_cell_formula_units_Z 20
_cell_length_a 9.163996
_cell_length_b 13.843633
_cell_length_c 16.041358
_cell_angle_alpha 90.000000
_cell_angle_beta 155.312485
_cell_angle_gamma 90.000000
_cell_volume 849.979481
_symmetry_space_group_name_H-M "P 2/M"
_symmetry_group_IT_number 10
_symmetry_cell_setting 'monoclinic'
loop_
_space_group_symop_operation_xyz
x,y,z
-x,y,-z
-x,-y,-z
x,-y,z
loop_
_atom_site_type_symbol
_atom_site_label
_atom_site_fract_x
_atom_site_fract_y
_atom_site_fract_z
Si Si1 0.080776 0.303580 0.796647
Si Si2 0.761623 0.500000 0.058136
Si Si3 0.410877 0.500000 0.212049
Si Si4 0.420457 0.894661 0.706790
Si Si5 0.205640 0.894721 0.920209
Si Si6 0.721451 0.698255 0.431087
O O1 0.020318 0.400857 0.818743
O O2 0.988984 0.202322 0.792159
O O3 0.900865 0.305459 0.613820
O O4 0.500000 0.301194 0.000000
O O5 0.500000 0.500000 0.000000
O O6 0.517031 0.500000 0.849688
O O7 0.535658 0.597325 0.318955
O O8 0.000000 0.500000 0.000000
O O9 0.493207 0.797832 0.692657
O O10 0.000000 0.899049 0.500000
O O11 0.528059 0.000000 0.727656
O O12 0.598096 0.885656 0.889451
O O13 0.028222 0.000000 0.824389
O O14 0.500000 0.897036 0.000000
O O15 0.000000 0.701908 0.500000
#
# Coordination Sequence:
#
# PCOD9142708 Si02
#       6
#     4   2   2   4   4   4
#     4  10  18  29  49  78 106 138 180 227 274 327
#     4  10  19  36  58  77 104 141 183 229 279 334
#     4  12  26  42  59  83 117 151 191 243 294 342
#     4   9  16  26  45  77 112 144 184 236 284 329
#     4   9  15  23  37  64 105 144 172 211 275 332
#     4  11  20  34  57  83 111 149 196 236 284 345
#
# _framework density 23.529980999999999
#
# number of rings (size 3 to 8) (size 9 to 14) (size 15 to 20)
#    0.000    2.000    0.000    9.300    0.000    2.400 
#    0.000    2.000    0.000    0.600    0.000    0.000 
#    0.000    6.400    0.000    0.000    0.000    0.000 
#
# Total GULP energy -111773.369401 kJ/mol
# GULP energy per Si atom -5588.668470 kJ/mol
# Density = 2.347643 g / cm^3
# Si number density = 23.529981 Si / 1000 Ang^3
#
#
#
# Elastic Constant Matrix: (Units=GPa)
#
#
# Indices 1 2 3 4 5 6 
#
# 1 79.0283 38.5087 35.0691 0.0000 -12.7445 0.0000
# 2 38.5087 328.5157 103.1944 0.0000 -41.2763 0.0000
# 3 35.0691 103.1944 129.3647 0.0000 -54.2575 0.0000
# 4 0.0000 0.0000 0.0000 30.8060 0.0000 -40.1050
# 5 -12.7445 -41.2763 -54.2575 0.0000 34.7950 0.0000
# 6 0.0000 0.0000 0.0000 -40.1050 0.0000 -49.0946
#
#
#
# Elastic Compliance Matrix: (Units=1/GPa)
#
#
# Indices 1 2 3 4 5 6 
#
# 1 0.014540 -0.000604 -0.004413 0.000000 -0.002271 0.000000
# 2 -0.000604 0.004092 -0.003345 0.000000 -0.000583 0.000000
# 3 -0.004413 -0.003345 0.026743 0.000000 0.036116 0.000000
# 4 0.000000 0.000000 0.000000 0.015731 0.000000 -0.012851
# 5 -0.002271 -0.000583 0.036116 0.000000 0.083534 0.000000
# 6 0.000000 0.000000 0.000000 -0.012851 0.000000 -0.009871
#
#
# Mechanical properties :
#
#
# Convention : Reuss Voigt Hill
#
# Bulk Modulus (GPa) = 34.90257 98.93925 66.92091
# Shear Modulus (GPa) = 31.04774 27.31038 29.17906
#
# Velocity S-wave (km/s) = 3.63643 3.41055 3.52530
# Velocity P-wave (km/s) = 5.70061 7.59266 6.71362
#
# Compressibility (1/GPa) = 0.02865118
#
# Stress axis : x y z
#
# Youngs Moduli (GPa) = 68.77734 244.35788 37.39348
#
# Poissons Ratio (x) = 0.14750 0.16501
# Poissons Ratio (y) = 0.04151 0.12510
# Poissons Ratio (z) = 0.30349 0.81748
#
# Static dielectric constant tensor:
#      x y z
#    x 1.802310 0.000000 0.043120 
#    y 0.000000 1.707330 0.000000 
#    z 0.043120 0.000000 1.821160 
# 
# From -- ./inp_files/53962.got.cif
#   From: 2010.05.17/outbox.cif.g08.bks.cpg/sg10_27_cif.got.tgz:53962.got - 2010.06.03 11:33:40.
