data_PCOD9142165
_publ_section_title
;
Structure prediction by ZEFSAII (Michael W. Deem and Ramdas Pophale) SiO2 
 PCOD9142165
Probable space group: P 2/M
;
_chemical_formula_sum "Si O2"
_cell_formula_units_Z 32
_cell_length_a 12.556902
_cell_length_b 7.537186
_cell_length_c 22.921598
_cell_angle_alpha 90.000000
_cell_angle_beta 46.633823
_cell_angle_gamma 90.000000
_cell_volume 1577.099814
_symmetry_space_group_name_H-M "P 2/M"
_symmetry_group_IT_number 10
_symmetry_cell_setting 'monoclinic'
loop_
_space_group_symop_operation_xyz
x,y,z
-x,y,-z
-x,-y,-z
x,-y,z
loop_
_atom_site_type_symbol
_atom_site_label
_atom_site_fract_x
_atom_site_fract_y
_atom_site_fract_z
Si Si1 0.326850 0.206725 0.557902
Si Si2 0.945201 0.713139 0.778975
Si Si3 0.238483 0.793439 0.714318
Si Si4 0.605531 0.284188 0.779405
Si Si5 0.493815 0.288442 0.303608
Si Si6 0.942812 0.716378 0.646224
Si Si7 0.787802 0.699853 0.521749
Si Si8 0.389329 0.717028 0.091518
O O1 0.500000 0.206000 0.500000
O O2 0.271881 0.290220 0.638783
O O3 0.279211 0.307028 0.518241
O O4 0.280892 0.000000 0.567570
O O5 0.944003 0.500000 0.777591
O O6 0.981276 0.773073 0.698499
O O7 0.779465 0.771459 0.854501
O O8 0.064050 0.768618 0.782542
O O9 0.354614 0.738368 0.719142
O O10 0.268967 0.000000 0.695345
O O11 0.602730 0.500000 0.782304
O O12 0.505987 0.224721 0.763131
O O13 0.773659 0.234478 0.701767
O O14 0.568980 0.225303 0.858553
O O15 0.473352 0.500000 0.310750
O O16 0.345629 0.217518 0.390985
O O17 0.950774 0.500000 0.642492
O O18 0.053145 0.780117 0.554168
O O19 0.814056 0.500000 0.535073
O O20 0.390636 0.500000 0.090608
O O21 0.500000 0.777255 0.000000
#
# Coordination Sequence:
#
# PCOD9142165 Si02
#       8
#     4   4   4   4   4   4   4   4
#     4  10  19  30  41  57  84 121 162 203 238 263
#     4   9  16  28  48  73  98 118 146 191 234 273
#     4  11  21  31  45  64  91 127 162 196 233 273
#     4   8  15  28  44  66  97 124 149 185 229 278
#     4  10  20  30  43  65  92 127 164 194 225 267
#     4   8  14  25  42  64  90 118 148 191 237 267
#     4  10  18  26  41  64  88 119 159 197 232 271
#     4   8  14  27  52  82 103 118 139 178 235 286
#
# _framework density 20.290409
#
# number of rings (size 3 to 8) (size 9 to 14) (size 15 to 20)
#    0.000    2.750    2.500    1.875    0.000    1.250 
#    0.000    2.500    0.000    4.875    0.000    7.000 
#    0.000    0.000    0.000    0.000    0.000    0.000 
#
# Total GULP energy -178316.810254 kJ/mol
# GULP energy per Si atom -5572.400320 kJ/mol
# Density = 2.024423 g / cm^3
# Si number density = 20.290409 Si / 1000 Ang^3
#
#
#
# Elastic Constant Matrix: (Units=GPa)
#
#
# Indices 1 2 3 4 5 6 
#
# 1 122.6784 -3.2182 73.9528 0.0000 15.2952 0.0000
# 2 -3.2182 52.5521 3.5588 0.0000 1.9738 0.0000
# 3 73.9528 3.5588 126.1807 0.0000 4.1505 0.0000
# 4 0.0000 0.0000 0.0000 2.1308 0.0000 -18.9407
# 5 15.2952 1.9738 4.1505 0.0000 17.7162 0.0000
# 6 0.0000 0.0000 0.0000 -18.9407 0.0000 33.6700
#
#
#
# Elastic Compliance Matrix: (Units=1/GPa)
#
#
# Indices 1 2 3 4 5 6 
#
# 1 0.014477 0.001846 -0.008182 0.000000 -0.010787 0.000000
# 2 0.001846 0.019372 -0.001516 0.000000 -0.003397 0.000000
# 3 -0.008182 -0.001516 0.012623 0.000000 0.004276 0.000000
# 4 0.000000 0.000000 0.000000 -0.117315 0.000000 -0.065994
# 5 -0.010787 -0.003397 0.004276 0.000000 0.065135 0.000000
# 6 0.000000 0.000000 0.000000 -0.065994 0.000000 -0.007424
#
#
# Mechanical properties :
#
#
# Convention : Reuss Voigt Hill
#
# Bulk Modulus (GPa) = 32.50304 49.99979 41.25142
# Shear Modulus (GPa) = 389.74596 25.84458 207.79527
#
# Velocity S-wave (km/s) = 13.87447 3.57281 10.13079
# Velocity P-wave (km/s) = 16.51428 6.45876 12.53868
#
# Compressibility (1/GPa) = 0.03076635
#
# Stress axis : x y z
#
# Youngs Moduli (GPa) = 69.07506 51.62084 79.22283
#
# Poissons Ratio (x) = -0.09528 0.64820
# Poissons Ratio (y) = -0.12750 0.12014
# Poissons Ratio (z) = 0.56517 0.07828
#
# Static dielectric constant tensor:
#      x y z
#    x 1.762260 0.000000 -0.019860 
#    y 0.000000 1.764780 0.000000 
#    z -0.019860 0.000000 1.739120 
# 
# From -- ./inp_files/88542.got.cif
#   From: 2010.05.17/outbox.cif.g08.bks.cpg/sg10_45_cif.got.tgz:88542.got - 2010.06.03 11:33:40.
