data_PCOD9142608
_publ_section_title
;
Structure prediction by ZEFSAII (Michael W. Deem and Ramdas Pophale) SiO2 
 PCOD9142608
Probable space group: P 2/M
;
_chemical_formula_sum "Si O2"
_cell_formula_units_Z 24
_cell_length_a 11.634431
_cell_length_b 7.769503
_cell_length_c 21.320082
_cell_angle_alpha 90.000000
_cell_angle_beta 47.432610
_cell_angle_gamma 90.000000
_cell_volume 1419.350060
_symmetry_space_group_name_H-M "P 2/M"
_symmetry_group_IT_number 10
_symmetry_cell_setting 'monoclinic'
loop_
_space_group_symop_operation_xyz
x,y,z
-x,y,-z
-x,-y,-z
x,-y,z
loop_
_atom_site_type_symbol
_atom_site_label
_atom_site_fract_x
_atom_site_fract_y
_atom_site_fract_z
Si Si1 0.882660 0.709589 0.454851
Si Si2 0.257137 0.500000 0.922273
Si Si3 0.026133 0.500000 0.886682
Si Si4 0.224551 0.708750 0.368648
Si Si5 0.788204 0.195947 0.236345
Si Si6 0.325759 0.290953 0.584379
Si Si7 0.436120 0.195429 0.798725
O O1 0.881589 0.500000 0.455367
O O2 0.794718 0.761724 0.551338
O O3 0.794174 0.766415 0.425344
O O4 0.063322 0.761416 0.394530
O O5 0.136386 0.500000 0.908003
O O6 0.364102 0.332706 0.873098
O O7 0.149970 0.500000 0.023327
O O8 0.077187 0.332590 0.828887
O O9 0.233277 0.500000 0.364191
O O10 0.380764 0.779060 0.280334
O O11 0.721488 0.223420 0.330247
O O12 0.650947 0.225913 0.235914
O O13 0.842191 0.000000 0.208692
O O14 0.500000 0.239887 0.500000
O O15 0.322485 0.500000 0.588609
O O16 0.402805 0.000000 0.830160
#
# Coordination Sequence:
#
# PCOD9142608 Si02
#       7
#     4   2   2   4   4   4   4
#     4   8  16  27  45  71  96 132 171 202 237 278
#     4   9  18  32  52  72  97 127 154 195 249 294
#     4   9  18  34  51  71  97 128 160 192 241 302
#     4   9  15  29  48  67  98 131 164 204 243 281
#     4  10  20  32  48  72 101 131 162 198 238 283
#     4  10  18  29  47  71 100 134 170 201 233 280
#     4  10  19  30  48  75 100 125 161 199 240 291
#
# _framework density 16.909147999999998
#
# number of rings (size 3 to 8) (size 9 to 14) (size 15 to 20)
#    0.000    2.667    1.667    2.000    0.000    2.333 
#    0.000    6.667    0.000    0.000    0.000    2.333 
#    0.000    2.667    0.000    0.000    0.000    0.000 
#
# Total GULP energy -133847.303752 kJ/mol
# GULP energy per Si atom -5576.970990 kJ/mol
# Density = 1.687066 g / cm^3
# Si number density = 16.909148 Si / 1000 Ang^3
#
#
#
# Elastic Constant Matrix: (Units=GPa)
#
#
# Indices 1 2 3 4 5 6 
#
# 1 56.0845 31.1569 42.5170 0.0000 -4.5491 0.0000
# 2 31.1569 74.8364 59.1846 0.0000 -6.8153 0.0000
# 3 42.5170 59.1846 144.3210 0.0000 -15.8893 0.0000
# 4 0.0000 0.0000 0.0000 -4.9608 0.0000 3.1810
# 5 -4.5491 -6.8153 -15.8893 0.0000 20.5578 0.0000
# 6 0.0000 0.0000 0.0000 3.1810 0.0000 9.6554
#
#
#
# Elastic Compliance Matrix: (Units=1/GPa)
#
#
# Indices 1 2 3 4 5 6 
#
# 1 0.025105 -0.006814 -0.004633 0.000000 -0.000284 0.000000
# 2 -0.006814 0.021628 -0.006819 0.000000 0.000392 0.000000
# 3 -0.004633 -0.006819 0.011726 0.000000 0.005778 0.000000
# 4 0.000000 0.000000 0.000000 -0.166423 0.000000 0.054829
# 5 -0.000284 0.000392 0.005778 0.000000 0.053176 0.000000
# 6 0.000000 0.000000 0.000000 0.054829 0.000000 0.085505
#
#
# Mechanical properties :
#
#
# Convention : Reuss Voigt Hill
#
# Bulk Modulus (GPa) = 45.60476 60.10651 52.85564
# Shear Modulus (GPa) = 67.06264 14.54272 40.80268
#
# Velocity S-wave (km/s) = 6.30450 2.93584 4.91761
# Velocity P-wave (km/s) = 8.94565 6.86412 7.97310
#
# Compressibility (1/GPa) = 0.02192753
#
# Stress axis : x y z
#
# Youngs Moduli (GPa) = 39.83334 46.23706 85.27899
#
# Poissons Ratio (x) = 0.31505 0.39508
# Poissons Ratio (y) = 0.27142 0.58150
# Poissons Ratio (z) = 0.18454 0.31528
#
# Static dielectric constant tensor:
#      x y z
#    x 1.561430 0.000000 -0.004940 
#    y 0.000000 1.613320 0.000000 
#    z -0.004940 0.000000 1.534330 
# 
# From -- ./inp_files/48901.got.cif
#   From: 2010.05.17/outbox.cif.g08.bks.cpg/sg10_25_cif.got.tgz:48901.got - 2010.06.03 11:33:40.
