data_PCOD9142878
_publ_section_title
;
Structure prediction by ZEFSAII (Michael W. Deem and Ramdas Pophale) SiO2 
 PCOD9142878
Probable space group: P 2/M
;
_chemical_formula_sum "Si O2"
_cell_formula_units_Z 32
_cell_length_a 24.500715
_cell_length_b 9.000202
_cell_length_c 18.041181
_cell_angle_alpha 90.000000
_cell_angle_beta 149.121384
_cell_angle_gamma 90.000000
_cell_volume 2041.739687
_symmetry_space_group_name_H-M "P 2/M"
_symmetry_group_IT_number 10
_symmetry_cell_setting 'monoclinic'
loop_
_space_group_symop_operation_xyz
x,y,z
-x,y,-z
-x,-y,-z
x,-y,z
loop_
_atom_site_type_symbol
_atom_site_label
_atom_site_fract_x
_atom_site_fract_y
_atom_site_fract_z
Si Si1 0.799064 0.678073 0.607686
Si Si2 0.408108 0.819223 0.229988
Si Si3 0.625262 0.328903 0.123924
Si Si4 0.978070 0.321316 0.059679
Si Si5 0.679992 0.823074 0.336235
Si Si6 0.754316 0.178807 0.834865
Si Si7 0.434533 0.821864 0.093036
Si Si8 0.354144 0.821094 0.448338
O O1 0.790244 0.500000 0.595645
O O2 0.762833 0.746169 0.487579
O O3 0.720142 0.742738 0.578057
O O4 0.918799 0.717652 0.771512
O O5 0.313505 0.769627 0.173270
O O6 0.401544 0.772318 0.136718
O O7 0.523439 0.776808 0.396727
O O8 0.406604 0.000000 0.228207
O O9 0.659188 0.500000 0.161990
O O10 0.683289 0.239832 0.256824
O O11 0.500000 0.325224 0.000000
O O12 0.628820 0.255236 0.047322
O O13 0.966803 0.500000 0.046606
O O14 0.870032 0.249501 0.962623
O O15 0.000000 0.275054 0.000000
O O16 0.560614 0.791226 0.228388
O O17 0.693461 0.000000 0.352204
O O18 0.688130 0.213007 0.682973
O O19 0.764527 0.000000 0.850351
O O20 0.422085 0.000000 0.072630
O O21 0.347423 0.000000 0.451370
#
# Coordination Sequence:
#
# PCOD9142878 Si02
#       8
#     4   4   4   4   4   4   4   4
#     4  11  21  32  49  70  95 130 166 203 247 290
#     4   9  17  31  48  72 102 131 161 199 247 290
#     4   9  17  28  43  67  99 130 160 195 232 280
#     4  10  21  37  51  65  94 132 165 204 254 295
#     4  10  18  30  48  71  97 127 161 198 241 292
#     4  10  20  32  52  74  94 125 170 213 242 283
#     4   9  16  28  46  67  97 133 161 188 235 293
#     4  10  18  31  49  71  98 129 163 201 245 291
#
# _framework density 15.672909000000001
#
# number of rings (size 3 to 8) (size 9 to 14) (size 15 to 20)
#    0.000    2.250    2.500    1.500    0.000    4.750 
#    0.000    1.250    0.000    1.500    0.000    0.875 
#    0.000    7.000    0.000    0.000    0.000    0.000 
#
# Total GULP energy -178469.672910 kJ/mol
# GULP energy per Si atom -5577.177278 kJ/mol
# Density = 1.563724 g / cm^3
# Si number density = 15.672909 Si / 1000 Ang^3
#
#
#
# Elastic Constant Matrix: (Units=GPa)
#
#
# Indices 1 2 3 4 5 6 
#
# 1 117.8301 39.9603 95.0634 0.0000 -6.7502 0.0000
# 2 39.9603 33.3752 48.9187 0.0000 -9.6325 0.0000
# 3 95.0634 48.9187 121.7371 0.0000 -17.8822 0.0000
# 4 0.0000 0.0000 0.0000 20.2845 0.0000 -9.9259
# 5 -6.7502 -9.6325 -17.8822 0.0000 28.2502 0.0000
# 6 0.0000 0.0000 0.0000 -9.9259 0.0000 8.6453
#
#
#
# Elastic Compliance Matrix: (Units=1/GPa)
#
#
# Indices 1 2 3 4 5 6 
#
# 1 0.024319 -0.004417 -0.018283 0.000000 -0.007268 0.000000
# 2 -0.004417 0.074964 -0.025440 0.000000 0.008402 0.000000
# 3 -0.018283 -0.025440 0.033956 0.000000 0.008451 0.000000
# 4 0.000000 0.000000 0.000000 0.112508 0.000000 0.129174
# 5 -0.007268 0.008402 0.008451 0.000000 0.041875 0.000000
# 6 0.000000 0.000000 0.000000 0.129174 0.000000 0.263978
#
#
# Mechanical properties :
#
#
# Convention : Reuss Voigt Hill
#
# Bulk Modulus (GPa) = 27.05771 71.20302 49.13037
# Shear Modulus (GPa) = 7.57347 17.36935 12.47141
#
# Velocity S-wave (km/s) = 2.20061 3.33264 2.82393
# Velocity P-wave (km/s) = 4.87426 7.76775 6.48445
#
# Compressibility (1/GPa) = 0.03695804
#
# Stress axis : x y z
#
# Youngs Moduli (GPa) = 41.12022 13.33981 29.44998
#
# Poissons Ratio (x) = 0.05892 0.53844
# Poissons Ratio (y) = 0.18162 0.74921
# Poissons Ratio (z) = 0.75181 0.33937
#
# Static dielectric constant tensor:
#      x y z
#    x 1.510280 0.000000 -0.015770 
#    y 0.000000 1.524050 0.000000 
#    z -0.015770 0.000000 1.506630 
# 
# From -- ./inp_files/55178.got.cif
#   From: 2010.05.17/outbox.cif.g08.bks.cpg/sg10_28_cif.got.tgz:55178.got - 2010.06.03 11:33:40.
