data_PCOD9142942
_publ_section_title
;
Structure prediction by ZEFSAII (Michael W. Deem and Ramdas Pophale) SiO2 
 PCOD9142942
Probable space group: P 2/M
;
_chemical_formula_sum "Si O2"
_cell_formula_units_Z 20
_cell_length_a 20.251522
_cell_length_b 13.881239
_cell_length_c 14.503819
_cell_angle_alpha 90.000000
_cell_angle_beta 164.842331
_cell_angle_gamma 90.000000
_cell_volume 1066.105867
_symmetry_space_group_name_H-M "P 2/M"
_symmetry_group_IT_number 10
_symmetry_cell_setting 'monoclinic'
loop_
_space_group_symop_operation_xyz
x,y,z
-x,y,-z
-x,-y,-z
x,-y,z
loop_
_atom_site_type_symbol
_atom_site_label
_atom_site_fract_x
_atom_site_fract_y
_atom_site_fract_z
Si Si1 0.624768 0.107044 0.268904
Si Si2 0.442219 0.610279 0.314204
Si Si3 0.724316 0.716795 0.172481
Si Si4 0.720178 0.390162 0.512395
Si Si5 0.031109 0.732523 0.305321
O O1 0.897953 0.157144 0.622016
O O2 0.634223 0.000000 0.322911
O O3 0.500000 0.097932 0.000000
O O4 0.443382 0.186741 0.071826
O O5 0.500000 0.610842 0.500000
O O6 0.352380 0.500000 0.170675
O O7 0.677800 0.627899 0.563679
O O8 0.238131 0.694434 0.024422
O O9 0.777740 0.706193 0.353646
O O10 0.000000 0.724907 0.500000
O O11 0.557033 0.631179 0.905293
O O12 0.797005 0.500000 0.603191
O O13 0.903926 0.325024 0.700000
#
# Coordination Sequence:
#
# PCOD9142942 Si02
#       5
#     4   4   4   4   4
#     4   8  16  30  49  74 102 130 159 198 246 299
#     4  10  21  35  51  73  99 131 173 210 240 284
#     4  10  18  30  49  76 105 131 163 200 244 300
#     4  10  20  32  49  73 101 134 166 198 246 297
#     4  10  19  33  52  71 104 132 162 205 245 295
#
# _framework density 18.759862999999999
#
# number of rings (size 3 to 8) (size 9 to 14) (size 15 to 20)
#    0.000    2.400    2.000    2.400    0.000    4.000 
#    0.000    3.000    0.000    0.600    0.000    5.600 
#    0.000    0.000    0.000    0.000    0.000    0.000 
#
# Total GULP energy -111345.842708 kJ/mol
# GULP energy per Si atom -5567.292135 kJ/mol
# Density = 1.871717 g / cm^3
# Si number density = 18.759863 Si / 1000 Ang^3
#
#
#
# Elastic Constant Matrix: (Units=GPa)
#
#
# Indices 1 2 3 4 5 6 
#
# 1 79.0611 18.1364 -2.6460 0.0000 -6.4092 0.0000
# 2 18.1364 76.6536 8.6434 0.0000 0.1659 0.0000
# 3 -2.6460 8.6434 21.2589 0.0000 1.3709 0.0000
# 4 0.0000 0.0000 0.0000 9.6903 0.0000 4.3144
# 5 -6.4092 0.1659 1.3709 0.0000 33.3442 0.0000
# 6 0.0000 0.0000 0.0000 4.3144 0.0000 12.1334
#
#
#
# Elastic Compliance Matrix: (Units=1/GPa)
#
#
# Indices 1 2 3 4 5 6 
#
# 1 0.013783 -0.003607 0.003018 0.000000 0.002543 0.000000
# 2 -0.003607 0.014617 -0.006359 0.000000 -0.000505 0.000000
# 3 0.003018 -0.006359 0.050094 0.000000 -0.001448 0.000000
# 4 0.000000 0.000000 0.000000 0.122606 0.000000 -0.043596
# 5 0.002543 -0.000505 -0.001448 0.000000 0.030541 0.000000
# 6 0.000000 0.000000 0.000000 -0.043596 0.000000 0.097919
#
#
# Mechanical properties :
#
#
# Convention : Reuss Voigt Hill
#
# Bulk Modulus (GPa) = 15.48052 25.02683 20.25368
# Shear Modulus (GPa) = 13.69905 21.22290 17.46097
#
# Velocity S-wave (km/s) = 2.70521 3.36712 3.05415
# Velocity P-wave (km/s) = 4.24587 5.33725 4.82253
#
# Compressibility (1/GPa) = 0.06459729
#
# Stress axis : x y z
#
# Youngs Moduli (GPa) = 72.55303 68.41220 19.96257
#
# Poissons Ratio (x) = 0.24676 -0.06025
# Poissons Ratio (y) = 0.26169 0.12695
# Poissons Ratio (z) = -0.21896 0.43506
#
# Static dielectric constant tensor:
#      x y z
#    x 1.696480 0.000000 0.011080 
#    y 0.000000 1.649040 0.000000 
#    z 0.011080 0.000000 1.684110 
# 
# From -- ./inp_files/24457.got.cif
#   From: 2010.05.17/outbox.cif.g08.bks.cpg/sg10_13_cif.got.tgz:24457.got - 2010.06.03 11:33:40.
