data_PCOD9142199
_publ_section_title
;
Structure prediction by ZEFSAII (Michael W. Deem and Ramdas Pophale) SiO2 
 PCOD9142199
Probable space group: P 2/M
;
_chemical_formula_sum "Si O2"
_cell_formula_units_Z 28
_cell_length_a 30.029725
_cell_length_b 8.803244
_cell_length_c 14.713073
_cell_angle_alpha 90.000000
_cell_angle_beta 151.743359
_cell_angle_gamma 90.000000
_cell_volume 1841.389681
_symmetry_space_group_name_H-M "P 2/M"
_symmetry_group_IT_number 10
_symmetry_cell_setting 'monoclinic'
loop_
_space_group_symop_operation_xyz
x,y,z
-x,y,-z
-x,-y,-z
x,-y,z
loop_
_atom_site_type_symbol
_atom_site_label
_atom_site_fract_x
_atom_site_fract_y
_atom_site_fract_z
Si Si1 0.552616 0.175294 0.692677
Si Si2 0.210945 0.683625 0.280155
Si Si3 0.070762 0.818183 0.708271
Si Si4 0.970969 0.316141 0.172019
Si Si5 0.274814 0.319938 0.083197
Si Si6 0.092898 0.678422 0.230915
Si Si7 0.360265 0.817438 0.422138
O O1 0.500000 0.177303 0.500000
O O2 0.645485 0.273817 0.846414
O O3 0.470492 0.226126 0.613565
O O4 0.578425 0.000000 0.757456
O O5 0.219599 0.500000 0.297899
O O6 0.176259 0.739272 0.317117
O O7 0.304590 0.757324 0.409013
O O8 0.125767 0.718056 0.056470
O O9 0.000000 0.777241 0.500000
O O10 0.033451 0.756276 0.737373
O O11 0.078759 0.000000 0.726928
O O12 0.173686 0.748053 0.878099
O O13 0.975796 0.500000 0.187605
O O14 0.057371 0.260574 0.263695
O O15 0.268733 0.500000 0.081666
O O16 0.308618 0.250683 0.240462
O O17 0.113314 0.500000 0.281683
O O18 0.000000 0.684751 0.000000
O O19 0.355924 0.000000 0.408531
#
# Coordination Sequence:
#
# PCOD9142199 Si02
#       7
#     4   4   4   4   4   4   4
#     4   8  16  29  42  58  83 115 143 170 210 257
#     4   9  15  24  41  64  88 116 145 173 208 252
#     4  11  23  35  46  61  84 115 148 183 222 260
#     4   9  16  28  45  62  82 112 146 181 216 250
#     4  11  20  30  45  62  81 109 145 185 220 251
#     4   7  12  23  39  60  85 111 140 171 210 256
#     4  10  18  27  41  62  90 119 144 172 209 255
#
# _framework density 15.205906000000001
#
# number of rings (size 3 to 8) (size 9 to 14) (size 15 to 20)
#    0.000    2.714    1.429    4.714    0.000    4.286 
#    0.000    0.714    0.000    2.571    0.000    0.000 
#    0.000    1.143    0.000   12.857    0.000    5.714 
#
# Total GULP energy -155888.221419 kJ/mol
# GULP energy per Si atom -5567.436479 kJ/mol
# Density = 1.517130 g / cm^3
# Si number density = 15.205906 Si / 1000 Ang^3
#
#
#
# Elastic Constant Matrix: (Units=GPa)
#
#
# Indices 1 2 3 4 5 6 
#
# 1 148.1449 39.4656 53.8602 0.0000 32.7200 0.0000
# 2 39.4656 35.2741 27.5962 0.0000 5.0754 0.0000
# 3 53.8602 27.5962 54.7402 0.0000 11.0407 0.0000
# 4 0.0000 0.0000 0.0000 1.9902 0.0000 7.3481
# 5 32.7200 5.0754 11.0407 0.0000 21.1125 0.0000
# 6 0.0000 0.0000 0.0000 7.3481 0.0000 1.7207
#
#
#
# Elastic Compliance Matrix: (Units=1/GPa)
#
#
# Indices 1 2 3 4 5 6 
#
# 1 0.016107 -0.009718 -0.007138 0.000000 -0.018894 0.000000
# 2 -0.009718 0.052703 -0.019552 0.000000 0.012616 0.000000
# 3 -0.007138 -0.019552 0.035739 0.000000 -0.002926 0.000000
# 4 0.000000 0.000000 0.000000 -0.034026 0.000000 0.145306
# 5 -0.018894 0.012616 -0.002926 0.000000 0.075144 0.000000
# 6 0.000000 0.000000 0.000000 0.145306 0.000000 -0.039356
#
#
# Mechanical properties :
#
#
# Convention : Reuss Voigt Hill
#
# Bulk Modulus (GPa) = 31.51366 53.33367 42.42367
# Shear Modulus (GPa) = 26.35668 12.78050 19.56859
#
# Velocity S-wave (km/s) = 4.16783 2.90228 3.59124
# Velocity P-wave (km/s) = 6.62802 6.81039 6.71982
#
# Compressibility (1/GPa) = 0.03173227
#
# Stress axis : x y z
#
# Youngs Moduli (GPa) = 62.08379 18.97414 27.98091
#
# Poissons Ratio (x) = 0.18439 0.19974
# Poissons Ratio (y) = 0.60334 0.54708
# Poissons Ratio (z) = 0.44318 0.37098
#
# Static dielectric constant tensor:
#      x y z
#    x 1.553050 0.000000 0.031040 
#    y 0.000000 1.508840 0.000000 
#    z 0.031040 0.000000 1.473890 
# 
# From -- ./inp_files/72477.got.cif
#   From: 2010.05.17/outbox.cif.g08.bks.cpg/sg10_37_cif.got.tgz:72477.got - 2010.06.03 11:33:40.
