data_PCOD9142409
_publ_section_title
;
Structure prediction by ZEFSAII (Michael W. Deem and Ramdas Pophale) SiO2 
 PCOD9142409
Probable space group: P 2/M
;
_chemical_formula_sum "Si O2"
_cell_formula_units_Z 28
_cell_length_a 15.354790
_cell_length_b 10.888345
_cell_length_c 16.387947
_cell_angle_alpha 90.000000
_cell_angle_beta 145.551690
_cell_angle_gamma 90.000000
_cell_volume 1549.842989
_symmetry_space_group_name_H-M "P 2/M"
_symmetry_group_IT_number 10
_symmetry_cell_setting 'monoclinic'
loop_
_space_group_symop_operation_xyz
x,y,z
-x,y,-z
-x,-y,-z
x,-y,z
loop_
_atom_site_type_symbol
_atom_site_label
_atom_site_fract_x
_atom_site_fract_y
_atom_site_fract_z
Si Si1 0.285833 0.856091 0.902703
Si Si2 0.531242 0.148191 0.224460
Si Si3 0.854182 0.365665 0.948152
Si Si4 0.426934 0.763443 0.320797
Si Si5 0.938069 0.139641 0.125205
Si Si6 0.823472 0.850093 0.356221
Si Si7 0.298723 0.862514 0.378697
O O1 0.132172 0.850332 0.838873
O O2 0.251788 0.805740 0.787004
O O3 0.324147 0.000000 0.919829
O O4 0.421632 0.807140 0.065547
O O5 0.468884 0.193213 0.262602
O O6 0.706724 0.183095 0.338754
O O7 0.522565 0.000000 0.218947
O O8 0.861104 0.500000 0.993866
O O9 0.689168 0.350593 0.776475
O O10 0.868983 0.248292 0.017901
O O11 0.000000 0.358608 0.000000
O O12 0.328549 0.852227 0.304918
O O13 0.591429 0.762936 0.493767
O O14 0.121345 0.152604 0.263033
O O15 0.899096 0.000000 0.066234
O O16 0.000000 0.809010 0.500000
O O17 0.827367 0.000000 0.356568
O O18 0.345317 0.000000 0.442353
#
# Coordination Sequence:
#
# PCOD9142409 Si02
#       7
#     4   4   4   4   4   4   4
#     4   9  17  29  46  72 105 139 180 220 268 327
#     4  10  18  28  47  71 103 143 182 222 271 328
#     4  11  23  40  57  79 111 150 190 232 275 331
#     4  11  20  34  51  75 105 147 186 224 274 322
#     4  10  20  34  56  84 110 146 184 228 277 330
#     4   9  18  29  42  68 107 147 177 216 274 335
#     4  10  21  33  50  80 119 146 179 229 278 330
#
# _framework density 18.066345999999999
#
# number of rings (size 3 to 8) (size 9 to 14) (size 15 to 20)
#    0.000    2.000    2.857    2.143    2.000    3.143 
#    0.000    2.143    0.000    0.000    0.000    2.000 
#    0.000    1.143    0.000    0.000    0.000    0.000 
#
# Total GULP energy -155886.218223 kJ/mol
# GULP energy per Si atom -5567.364937 kJ/mol
# Density = 1.802523 g / cm^3
# Si number density = 18.066346 Si / 1000 Ang^3
#
#
#
# Elastic Constant Matrix: (Units=GPa)
#
#
# Indices 1 2 3 4 5 6 
#
# 1 122.0232 16.7070 53.2130 0.0000 19.2288 0.0000
# 2 16.7070 60.1391 18.3579 0.0000 -0.2458 0.0000
# 3 53.2130 18.3579 77.4725 0.0000 8.0658 0.0000
# 4 0.0000 0.0000 0.0000 3.0575 0.0000 0.8354
# 5 19.2288 -0.2458 8.0658 0.0000 31.3352 0.0000
# 6 0.0000 0.0000 0.0000 0.8354 0.0000 2.4699
#
#
#
# Elastic Compliance Matrix: (Units=1/GPa)
#
#
# Indices 1 2 3 4 5 6 
#
# 1 0.012680 -0.001154 -0.007834 0.000000 -0.005773 0.000000
# 2 -0.001154 0.018079 -0.003678 0.000000 0.001797 0.000000
# 3 -0.007834 -0.003678 0.019177 0.000000 -0.000157 0.000000
# 4 0.000000 0.000000 0.000000 0.360361 0.000000 -0.121880
# 5 -0.005773 0.001797 -0.000157 0.000000 0.035510 0.000000
# 6 0.000000 0.000000 0.000000 -0.121880 0.000000 0.446096
#
#
# Mechanical properties :
#
#
# Convention : Reuss Voigt Hill
#
# Bulk Modulus (GPa) = 40.64823 48.46561 44.55692
# Shear Modulus (GPa) = 5.40285 18.79633 12.09959
#
# Velocity S-wave (km/s) = 1.73120 3.22903 2.59072
# Velocity P-wave (km/s) = 5.15212 6.38646 5.80221
#
# Compressibility (1/GPa) = 0.02460132
#
# Stress axis : x y z
#
# Youngs Moduli (GPa) = 78.86738 55.31290 52.14585
#
# Poissons Ratio (x) = 0.06386 0.40853
# Poissons Ratio (y) = 0.09105 0.19180
# Poissons Ratio (z) = 0.61788 0.20345
#
# Static dielectric constant tensor:
#      x y z
#    x 1.631110 0.000000 0.006450 
#    y 0.000000 1.602550 0.000000 
#    z 0.006450 0.000000 1.683340 
# 
# From -- ./inp_files/67136.got.cif
#   From: 2010.05.17/outbox.cif.g08.bks.cpg/sg10_34_cif.got.tgz:67136.got - 2010.06.03 11:33:40.
