data_PCOD9142973
_publ_section_title
;
Structure prediction by ZEFSAII (Michael W. Deem and Ramdas Pophale) SiO2 
 PCOD9142973
Probable space group: P 2/M
;
_chemical_formula_sum "Si O2"
_cell_formula_units_Z 28
_cell_length_a 15.377245
_cell_length_b 7.747540
_cell_length_c 17.484331
_cell_angle_alpha 90.000000
_cell_angle_beta 45.977064
_cell_angle_gamma 90.000000
_cell_volume 1497.812727
_symmetry_space_group_name_H-M "P 2/M"
_symmetry_group_IT_number 10
_symmetry_cell_setting 'monoclinic'
loop_
_space_group_symop_operation_xyz
x,y,z
-x,y,-z
-x,-y,-z
x,-y,z
loop_
_atom_site_type_symbol
_atom_site_label
_atom_site_fract_x
_atom_site_fract_y
_atom_site_fract_z
Si Si1 0.828503 0.299717 0.056390
Si Si2 0.745515 0.707969 0.860498
Si Si3 0.085188 0.198845 0.837331
Si Si4 0.603105 0.710921 0.096412
Si Si5 0.974846 0.792493 0.289381
Si Si6 0.900342 0.793759 0.500685
Si Si7 0.329988 0.291238 0.262068
O O1 0.842706 0.500000 0.025327
O O2 0.839989 0.286962 0.140718
O O3 0.702922 0.236230 0.097816
O O4 0.944783 0.205668 0.949956
O O5 0.738774 0.500000 0.862995
O O6 0.712636 0.770939 0.795817
O O7 0.882060 0.756241 0.798318
O O8 0.653629 0.766209 0.982670
O O9 0.085902 0.274227 0.751476
O O10 0.123850 0.000000 0.811763
O O11 0.600308 0.500000 0.098154
O O12 0.466502 0.769269 0.193669
O O13 0.922436 0.725720 0.401703
O O14 0.960366 0.000000 0.296155
O O15 0.768600 0.761136 0.615386
O O16 0.000000 0.724690 0.500000
O O17 0.918886 0.000000 0.485106
O O18 0.331317 0.500000 0.258947
#
# Coordination Sequence:
#
# PCOD9142973 Si02
#       7
#     4   4   4   4   4   4   4
#     4  10  18  30  50  73 100 130 160 194 244 299
#     4  10  18  30  50  74 101 132 163 196 240 294
#     4  10  19  31  48  72 100 127 161 203 245 286
#     4   9  18  32  49  73 104 134 160 197 245 294
#     4  10  20  33  50  71 100 133 162 201 248 289
#     4  10  20  35  52  69  97 133 167 205 248 287
#     4  10  20  33  51  74 100 131 169 204 239 288
#
# _framework density 18.693926999999999
#
# number of rings (size 3 to 8) (size 9 to 14) (size 15 to 20)
#    0.000    2.143    2.857    2.143    0.000    3.143 
#    0.000    2.143    0.000    2.571    0.000    6.000 
#    0.000    0.000    0.000    0.000    0.000    0.000 
#
# Total GULP energy -156255.133555 kJ/mol
# GULP energy per Si atom -5580.540484 kJ/mol
# Density = 1.865138 g / cm^3
# Si number density = 18.693927 Si / 1000 Ang^3
#
#
#
# Elastic Constant Matrix: (Units=GPa)
#
#
# Indices 1 2 3 4 5 6 
#
# 1 81.0953 -5.2616 46.6358 0.0000 21.4931 0.0000
# 2 -5.2616 27.1106 -8.6254 0.0000 5.2015 0.0000
# 3 46.6358 -8.6254 125.4515 0.0000 12.9409 0.0000
# 4 0.0000 0.0000 0.0000 18.0534 0.0000 -9.2586
# 5 21.4931 5.2015 12.9409 0.0000 27.8298 0.0000
# 6 0.0000 0.0000 0.0000 -9.2586 0.0000 6.6175
#
#
#
# Elastic Compliance Matrix: (Units=1/GPa)
#
#
# Indices 1 2 3 4 5 6 
#
# 1 0.019278 0.004521 -0.005496 0.000000 -0.013178 0.000000
# 2 0.004521 0.040874 0.002393 0.000000 -0.012244 0.000000
# 3 -0.005496 0.002393 0.010280 0.000000 -0.000983 0.000000
# 4 0.000000 0.000000 0.000000 0.196093 0.000000 0.274357
# 5 -0.013178 -0.012244 -0.000983 0.000000 0.048855 0.000000
# 6 0.000000 0.000000 0.000000 0.274357 0.000000 0.534972
#
#
# Mechanical properties :
#
#
# Convention : Reuss Voigt Hill
#
# Bulk Modulus (GPa) = 13.64879 33.23944 23.44412
# Shear Modulus (GPa) = 5.73435 23.89404 14.81420
#
# Velocity S-wave (km/s) = 1.75333 3.57903 2.81812
# Velocity P-wave (km/s) = 3.37874 5.90752 4.81221
#
# Compressibility (1/GPa) = 0.07326656
#
# Stress axis : x y z
#
# Youngs Moduli (GPa) = 51.87336 24.46559 97.27372
#
# Poissons Ratio (x) = -0.11061 0.53464
# Poissons Ratio (y) = -0.23452 -0.23274
# Poissons Ratio (z) = 0.28511 -0.05854
#
# Static dielectric constant tensor:
#      x y z
#    x 1.660490 0.000000 0.030710 
#    y 0.000000 1.684040 0.000000 
#    z 0.030710 0.000000 1.621830 
# 
# From -- ./inp_files/55016.got.cif
#   From: 2010.05.17/outbox.cif.g08.bks.cpg/sg10_28_cif.got.tgz:55016.got - 2010.06.03 11:33:40.
