data_PCOD9142089
_publ_section_title
;
Structure prediction by ZEFSAII (Michael W. Deem and Ramdas Pophale) SiO2 
 PCOD9142089
Probable space group: P 2/M
;
_chemical_formula_sum "Si O2"
_cell_formula_units_Z 24
_cell_length_a 17.524519
_cell_length_b 7.615876
_cell_length_c 18.926001
_cell_angle_alpha 90.000000
_cell_angle_beta 148.993504
_cell_angle_gamma 90.000000
_cell_volume 1301.206135
_symmetry_space_group_name_H-M "P 2/M"
_symmetry_group_IT_number 10
_symmetry_cell_setting 'monoclinic'
loop_
_space_group_symop_operation_xyz
x,y,z
-x,y,-z
-x,-y,-z
x,-y,z
loop_
_atom_site_type_symbol
_atom_site_label
_atom_site_fract_x
_atom_site_fract_y
_atom_site_fract_z
Si Si1 0.322609 0.788677 0.606244
Si Si2 0.657884 0.795225 0.895200
Si Si3 0.167184 0.500000 0.222403
Si Si4 0.189121 0.500000 0.076012
Si Si5 0.019190 0.295595 0.437555
Si Si6 0.105774 0.287333 0.807360
Si Si7 0.800490 0.796893 0.641261
O O1 0.486059 0.741510 0.761244
O O2 0.189013 0.714598 0.546738
O O3 0.295835 0.738264 0.503162
O O4 0.307717 0.000000 0.596928
O O5 0.741925 0.669958 0.907042
O O6 0.665021 0.000000 0.880099
O O7 0.742549 0.771352 0.036478
O O8 0.220018 0.500000 0.183855
O O9 0.216620 0.669598 0.306164
O O10 0.987623 0.500000 0.076635
O O11 0.975458 0.500000 0.408207
O O12 0.000000 0.216075 0.500000
O O13 0.924585 0.223628 0.296478
O O14 0.098037 0.500000 0.802640
O O15 0.969443 0.219379 0.746864
O O16 0.769004 0.000000 0.632571
#
# Coordination Sequence:
#
# PCOD9142089 Si02
#       7
#     4   4   2   2   4   4   4
#     4   9  21  35  55  82 108 144 186 224 267 323
#     4  11  21  37  56  81 111 145 187 223 269 327
#     4  11  22  37  55  85 110 137 186 226 274 336
#     4  11  24  37  55  83 114 142 176 230 282 319
#     4   9  19  34  56  86 113 142 181 225 272 320
#     4  10  17  32  56  79 108 145 187 224 264 323
#     4  10  18  34  56  79 106 142 185 228 268 315
#
# _framework density 18.444424999999999
#
# number of rings (size 3 to 8) (size 9 to 14) (size 15 to 20)
#    0.000    2.000    3.333    0.500    2.333    1.667 
#    0.000    4.167    0.000    8.000    0.000    0.000 
#    0.000    0.000    0.000    0.000    0.000    0.000 
#
# Total GULP energy -133930.835787 kJ/mol
# GULP energy per Si atom -5580.451491 kJ/mol
# Density = 1.840244 g / cm^3
# Si number density = 18.444425 Si / 1000 Ang^3
#
#
#
# Elastic Constant Matrix: (Units=GPa)
#
#
# Indices 1 2 3 4 5 6 
#
# 1 96.5825 33.7468 62.7297 0.0000 -34.7674 0.0000
# 2 33.7468 80.8672 20.9431 0.0000 -13.1851 0.0000
# 3 62.7297 20.9431 156.5847 0.0000 -13.5431 0.0000
# 4 0.0000 0.0000 0.0000 22.9453 0.0000 2.3978
# 5 -34.7674 -13.1851 -13.5431 0.0000 28.3517 0.0000
# 6 0.0000 0.0000 0.0000 2.3978 0.0000 5.8204
#
#
#
# Elastic Compliance Matrix: (Units=1/GPa)
#
#
# Indices 1 2 3 4 5 6 
#
# 1 0.026707 -0.004765 -0.007741 0.000000 0.026837 0.000000
# 2 -0.004765 0.014491 0.000050 0.000000 0.000920 0.000000
# 3 -0.007741 0.000050 0.009035 0.000000 -0.005153 0.000000
# 4 0.000000 0.000000 0.000000 0.045543 0.000000 -0.018762
# 5 0.026837 0.000920 -0.005153 0.000000 0.066147 0.000000
# 6 0.000000 0.000000 0.000000 -0.018762 0.000000 0.179539
#
#
# Mechanical properties :
#
#
# Convention : Reuss Voigt Hill
#
# Bulk Modulus (GPa) = 39.49017 63.20819 51.34918
# Shear Modulus (GPa) = 13.33997 25.86448 19.60222
#
# Velocity S-wave (km/s) = 2.69225 3.74878 3.26356
# Velocity P-wave (km/s) = 5.57863 7.28572 6.48856
#
# Compressibility (1/GPa) = 0.02532276
#
# Stress axis : x y z
#
# Youngs Moduli (GPa) = 37.44366 69.00655 110.68185
#
# Poissons Ratio (x) = 0.32880 0.85675
# Poissons Ratio (y) = 0.17841 -0.00555
# Poissons Ratio (z) = 0.28984 -0.00346
#
# Static dielectric constant tensor:
#      x y z
#    x 1.604500 0.000000 -0.023550 
#    y 0.000000 1.667280 0.000000 
#    z -0.023550 0.000000 1.653750 
# 
# From -- ./inp_files/78677.got.cif
#   From: 2010.05.17/outbox.cif.g08.bks.cpg/sg10_40_cif.got.tgz:78677.got - 2010.06.03 11:33:40.
