data_PCOD9142887
_publ_section_title
;
Structure prediction by ZEFSAII (Michael W. Deem and Ramdas Pophale) SiO2 
 PCOD9142887
Probable space group: P 2/M
;
_chemical_formula_sum "Si O2"
_cell_formula_units_Z 32
_cell_length_a 22.348981
_cell_length_b 7.467457
_cell_length_c 29.153387
_cell_angle_alpha 90.000000
_cell_angle_beta 161.339510
_cell_angle_gamma 90.000000
_cell_volume 1556.735418
_symmetry_space_group_name_H-M "P 2/M"
_symmetry_group_IT_number 10
_symmetry_cell_setting 'monoclinic'
loop_
_space_group_symop_operation_xyz
x,y,z
-x,y,-z
-x,-y,-z
x,-y,z
loop_
_atom_site_type_symbol
_atom_site_label
_atom_site_fract_x
_atom_site_fract_y
_atom_site_fract_z
Si Si1 0.502525 0.780835 0.949337
Si Si2 0.418901 0.280924 0.334393
Si Si3 0.198258 0.204915 0.657447
Si Si4 0.203519 0.786535 0.911679
Si Si5 0.511349 0.705689 0.207461
Si Si6 0.670156 0.719257 0.833238
Si Si7 0.910732 0.718831 0.836497
Si Si8 0.193757 0.712640 0.341076
O O1 0.324132 0.717844 0.789986
O O2 0.499225 0.000000 0.946857
O O3 0.500000 0.722183 0.000000
O O4 0.686450 0.727390 0.054050
O O5 0.420271 0.500000 0.335079
O O6 0.390252 0.224242 0.261180
O O7 0.245438 0.226829 0.240257
O O8 0.614374 0.218386 0.497970
O O9 0.334074 0.203383 0.711992
O O10 0.000000 0.288484 0.500000
O O11 0.158086 0.000000 0.642280
O O12 0.986889 0.740822 0.758339
O O13 0.222593 0.000000 0.928458
O O14 0.317869 0.710665 0.038096
O O15 0.570869 0.500000 0.255164
O O16 0.465736 0.779281 0.224466
O O17 0.669014 0.500000 0.833556
O O18 0.881794 0.775557 0.998399
O O19 0.913015 0.500000 0.837493
O O20 0.855423 0.781710 0.745427
O O21 0.219838 0.500000 0.354691
#
# Coordination Sequence:
#
# PCOD9142887 Si02
#       8
#     4   4   4   4   4   4   4   4
#     4   8  15  30  51  71  91 119 158 200 234 273
#     4   9  17  27  43  70 102 129 157 202 250 288
#     4   9  18  33  52  75 100 128 164 200 236 284
#     4  10  19  32  52  74  96 128 167 199 238 290
#     4  10  18  31  52  75 100 129 165 203 243 286
#     4   9  16  27  44  70 100 128 160 201 246 288
#     4   9  15  26  46  70  95 126 165 202 241 289
#     4  10  18  30  48  73 100 126 159 202 247 287
#
# _framework density 20.555837
#
# number of rings (size 3 to 8) (size 9 to 14) (size 15 to 20)
#    0.000    2.750    1.250    2.250    0.000    3.250 
#    2.250    0.000    0.000   11.625    0.000    0.875 
#    0.000    0.000    0.000    0.000    0.000    0.000 
#
# Total GULP energy -178597.669452 kJ/mol
# GULP energy per Si atom -5581.177170 kJ/mol
# Density = 2.050905 g / cm^3
# Si number density = 20.555837 Si / 1000 Ang^3
#
#
#
# Elastic Constant Matrix: (Units=GPa)
#
#
# Indices 1 2 3 4 5 6 
#
# 1 156.5477 -4.3057 75.9539 0.0000 -23.3523 0.0000
# 2 -4.3057 57.3957 -1.5881 0.0000 -6.8880 0.0000
# 3 75.9539 -1.5881 131.4219 0.0000 -10.2507 0.0000
# 4 0.0000 0.0000 0.0000 2.8541 0.0000 12.5549
# 5 -23.3523 -6.8880 -10.2507 0.0000 26.4428 0.0000
# 6 0.0000 0.0000 0.0000 12.5549 0.0000 4.8343
#
#
#
# Elastic Compliance Matrix: (Units=1/GPa)
#
#
# Indices 1 2 3 4 5 6 
#
# 1 0.010039 0.001476 -0.005221 0.000000 0.007227 0.000000
# 2 0.001476 0.018248 -0.000165 0.000000 0.005993 0.000000
# 3 -0.005221 -0.000165 0.010581 0.000000 -0.000552 0.000000
# 4 0.000000 0.000000 0.000000 -0.033611 0.000000 0.087291
# 5 0.007227 0.005993 -0.000552 0.000000 0.045547 0.000000
# 6 0.000000 0.000000 0.000000 0.087291 0.000000 -0.019844
#
#
# Mechanical properties :
#
#
# Convention : Reuss Voigt Hill
#
# Bulk Modulus (GPa) = 32.20670 53.94282 43.07476
# Shear Modulus (GPa) = 101.77045 25.17990 63.47518
#
# Velocity S-wave (km/s) = 7.04392 3.50373 5.56295
# Velocity P-wave (km/s) = 9.04752 6.53201 7.89065
#
# Compressibility (1/GPa) = 0.03104944
#
# Stress axis : x y z
#
# Youngs Moduli (GPa) = 99.60747 54.79970 94.50639
#
# Poissons Ratio (x) = -0.08088 0.49339
# Poissons Ratio (y) = -0.14702 0.01560
# Poissons Ratio (z) = 0.52002 0.00905
#
# Static dielectric constant tensor:
#      x y z
#    x 1.705490 0.000000 0.000350 
#    y 0.000000 1.800940 0.000000 
#    z 0.000350 0.000000 1.707780 
# 
# From -- ./inp_files/93786.got.cif
#   From: 2010.05.17/outbox.cif.g08.bks.cpg/sg10_47_cif.got.tgz:93786.got - 2010.06.03 11:33:40.
