data_PCOD9142376
_publ_section_title
;
Structure prediction by ZEFSAII (Michael W. Deem and Ramdas Pophale) SiO2 
 PCOD9142376
Probable space group: P 2/M
;
_chemical_formula_sum "Si O2"
_cell_formula_units_Z 30
_cell_length_a 16.002735
_cell_length_b 23.830908
_cell_length_c 16.796836
_cell_angle_alpha 90.000000
_cell_angle_beta 162.231284
_cell_angle_gamma 90.000000
_cell_volume 1954.842586
_symmetry_space_group_name_H-M "P 2/M"
_symmetry_group_IT_number 10
_symmetry_cell_setting 'monoclinic'
loop_
_space_group_symop_operation_xyz
x,y,z
-x,y,-z
-x,-y,-z
x,-y,z
loop_
_atom_site_type_symbol
_atom_site_label
_atom_site_fract_x
_atom_site_fract_y
_atom_site_fract_z
Si Si1 0.690621 0.939885 0.250916
Si Si2 0.188907 0.500000 0.248653
Si Si3 0.158282 0.678825 0.384152
Si Si4 0.190079 0.624190 0.249771
Si Si5 0.554270 0.714380 0.871990
Si Si6 0.463822 0.595938 0.872817
Si Si7 0.936843 0.438689 0.619073
Si Si8 0.688903 0.183785 0.249545
O O1 0.660898 0.878583 0.262603
O O2 0.000000 0.940782 0.500000
O O3 0.640075 0.000000 0.247554
O O4 0.500000 0.939589 0.000000
O O5 0.500000 0.500000 0.500000
O O6 0.135682 0.561422 0.236809
O O7 0.000000 0.500000 0.000000
O O8 0.154490 0.669891 0.286348
O O9 0.418754 0.707024 0.662091
O O10 0.162237 0.615514 0.423048
O O11 0.882205 0.710046 0.162294
O O12 0.500000 0.625028 0.500000
O O13 0.000000 0.631846 0.000000
O O14 0.424565 0.768693 0.795252
O O15 0.470574 0.660677 0.850294
O O16 0.735629 0.566477 0.085064
O O17 0.500000 0.592543 0.000000
O O18 0.196606 0.569064 0.589897
O O19 0.853650 0.500000 0.574031
O O20 0.000000 0.192581 0.500000
O O21 0.500000 0.185108 0.000000
#
# Coordination Sequence:
#
# PCOD9142376 Si02
#       8
#     4   2   4   4   4   4   4   4
#     4   8  14  24  38  60  88 115 148 188 223 248
#     4   8  16  28  44  68  86  96 120 158 198 250
#     4  10  21  34  48  63  88 111 132 175 214 263
#     4  10  19  33  51  70  86 105 134 163 208 266
#     4  10  20  33  44  64  87 113 148 175 219 253
#     4  10  20  32  45  59  77 102 137 180 210 242
#     4  10  21  33  45  61  78 103 131 163 218 263
#     4  10  18  28  46  66  87 121 159 193 217 245
#
# _framework density 15.346503999999999
#
# number of rings (size 3 to 8) (size 9 to 14) (size 15 to 20)
#    0.000    2.400    0.000    2.800    0.933    3.733 
#    0.000    0.000    0.000    0.000    0.000    0.000 
#    0.000    0.000    0.000    0.000    0.000   13.333 
#
# Total GULP energy -167048.220582 kJ/mol
# GULP energy per Si atom -5568.274019 kJ/mol
# Density = 1.531157 g / cm^3
# Si number density = 15.346504 Si / 1000 Ang^3
#
#
#
# Elastic Constant Matrix: (Units=GPa)
#
#
# Indices 1 2 3 4 5 6 
#
# 1 33.5172 18.1893 8.4710 0.0000 -14.0520 0.0000
# 2 18.1893 93.1665 17.2096 0.0000 -1.1108 0.0000
# 3 8.4710 17.2096 99.3368 0.0000 -6.4333 0.0000
# 4 0.0000 0.0000 0.0000 6.9867 0.0000 6.7653
# 5 -14.0520 -1.1108 -6.4333 0.0000 17.6786 0.0000
# 6 0.0000 0.0000 0.0000 6.7653 0.0000 6.4921
#
#
#
# Elastic Compliance Matrix: (Units=1/GPa)
#
#
# Indices 1 2 3 4 5 6 
#
# 1 0.052274 -0.009694 -0.000130 0.000000 0.040894 0.000000
# 2 -0.009694 0.012886 -0.001897 0.000000 -0.007586 0.000000
# 3 -0.000130 -0.001897 0.010643 0.000000 0.003651 0.000000
# 4 0.000000 0.000000 0.000000-15.810047 0.000000 16.475268
# 5 0.040894 -0.007586 0.003651 0.000000 0.089923 0.000000
# 6 0.000000 0.000000 0.000000 16.475268 0.000000-17.014446
#
#
# Mechanical properties :
#
#
# Convention : Reuss Voigt Hill
#
# Bulk Modulus (GPa) = 19.09816 34.86225 26.98021
# Shear Modulus (GPa) = -0.15329 18.37484 9.11078
#
# Velocity S-wave (km/s) = -0.31639 3.46400 2.43918
# Velocity P-wave (km/s) = 3.51257 6.22616 5.05486
#
# Compressibility (1/GPa) = 0.05236106
#
# Stress axis : x y z
#
# Youngs Moduli (GPa) = 19.12992 77.60314 93.95924
#
# Poissons Ratio (x) = 0.75230 0.01220
# Poissons Ratio (y) = 0.18545 0.17825
# Poissons Ratio (z) = 0.00248 0.14722
#
# Static dielectric constant tensor:
#      x y z
#    x 1.496330 0.000000 -0.005580 
#    y 0.000000 1.557110 0.000000 
#    z -0.005580 0.000000 1.510630 
# 
# From -- ./inp_files/68017.got.cif
#   From: 2010.05.17/outbox.cif.g08.bks.cpg/sg10_35_cif.got.tgz:68017.got - 2010.06.03 11:33:40.
