data_PCOD9142642
_publ_section_title
;
Structure prediction by ZEFSAII (Michael W. Deem and Ramdas Pophale) SiO2 
 PCOD9142642
Probable space group: P 2/M
;
_chemical_formula_sum "Si O2"
_cell_formula_units_Z 32
_cell_length_a 23.748405
_cell_length_b 17.115664
_cell_length_c 25.977392
_cell_angle_alpha 90.000000
_cell_angle_beta 169.536368
_cell_angle_gamma 90.000000
_cell_volume 1917.638748
_symmetry_space_group_name_H-M "P 2/M"
_symmetry_group_IT_number 10
_symmetry_cell_setting 'monoclinic'
loop_
_space_group_symop_operation_xyz
x,y,z
-x,y,-z
-x,-y,-z
x,-y,z
loop_
_atom_site_type_symbol
_atom_site_label
_atom_site_fract_x
_atom_site_fract_y
_atom_site_fract_z
Si Si1 0.087510 0.593032 0.735622
Si Si2 0.491857 0.088007 0.549919
Si Si3 0.817864 0.593329 0.385983
Si Si4 0.870865 0.233799 0.059142
Si Si5 0.208591 0.679159 0.271052
Si Si6 0.240718 0.088466 0.100916
Si Si7 0.731867 0.321307 0.505174
Si Si8 0.404583 0.409726 0.302998
O O1 0.025832 0.500000 0.686891
O O2 0.926263 0.623087 0.538712
O O3 0.959770 0.637762 0.670201
O O4 0.451755 0.602949 0.053694
O O5 0.500000 0.123560 0.500000
O O6 0.649019 0.120245 0.743529
O O7 0.630070 0.000000 0.669174
O O8 0.128614 0.080880 0.232511
O O9 0.884406 0.500000 0.447201
O O10 0.000000 0.624758 0.500000
O O11 0.717224 0.150661 0.906965
O O12 0.579965 0.291566 0.802328
O O13 0.076698 0.259081 0.194142
O O14 0.095239 0.251053 0.308773
O O15 0.500000 0.709085 0.500000
O O16 0.368067 0.608226 0.445503
O O17 0.901029 0.644663 0.967948
O O18 0.372865 0.000000 0.214004
O O19 0.602075 0.381811 0.431096
O O20 0.318684 0.500000 0.222785
#
# Coordination Sequence:
#
# PCOD9142642 Si02
#       8
#     4   4   4   4   4   4   4   4
#     4  10  18  29  48  69  92 128 169 199 223 262
#     4   9  17  29  45  67  90 106 130 173 217 265
#     4   9  17  28  43  68 100 129 160 198 230 254
#     4  10  21  35  48  64  90 117 146 191 235 280
#     4  10  21  34  47  63  84 111 139 177 238 294
#     4  10  19  32  50  68  86 113 147 177 219 280
#     4  10  20  34  48  66  91 120 155 190 233 270
#     4  10  20  33  49  66  84 107 143 193 232 268
#
# _framework density 16.687189
#
# number of rings (size 3 to 8) (size 9 to 14) (size 15 to 20)
#    0.000    2.250    0.000    3.375    0.000    5.000 
#    0.000    7.500    0.000    0.000    0.000    0.000 
#    0.000    0.000    0.000    0.000    0.000   43.750 
#
# Total GULP energy -178281.681843 kJ/mol
# GULP energy per Si atom -5571.302558 kJ/mol
# Density = 1.664921 g / cm^3
# Si number density = 16.687189 Si / 1000 Ang^3
#
#
#
# Elastic Constant Matrix: (Units=GPa)
#
#
# Indices 1 2 3 4 5 6 
#
# 1 95.1727 25.0569 19.5785 0.0000 -1.0608 0.0000
# 2 25.0569 53.7932 3.2470 0.0000 4.4161 0.0000
# 3 19.5785 3.2470 35.1176 0.0000 -13.0071 0.0000
# 4 0.0000 0.0000 0.0000 11.7856 0.0000 -3.8411
# 5 -1.0608 4.4161 -13.0071 0.0000 35.2559 0.0000
# 6 0.0000 0.0000 0.0000 -3.8411 0.0000 13.7589
#
#
#
# Elastic Compliance Matrix: (Units=1/GPa)
#
#
# Indices 1 2 3 4 5 6 
#
# 1 0.013571 -0.005719 -0.007669 0.000000 -0.001705 0.000000
# 2 -0.005719 0.021473 0.000165 0.000000 -0.002801 0.000000
# 3 -0.007669 0.000165 0.037809 0.000000 0.013698 0.000000
# 4 0.000000 0.000000 0.000000 0.093343 0.000000 0.026059
# 5 -0.001705 -0.002801 0.013698 0.000000 0.033717 0.000000
# 6 0.000000 0.000000 0.000000 0.026059 0.000000 0.079955
#
#
# Mechanical properties :
#
#
# Convention : Reuss Voigt Hill
#
# Bulk Modulus (GPa) = 21.54711 31.09428 26.32070
# Shear Modulus (GPa) = 15.53840 21.24015 18.38928
#
# Velocity S-wave (km/s) = 3.05480 3.57156 3.32324
# Velocity P-wave (km/s) = 5.03813 5.97345 5.52562
#
# Compressibility (1/GPa) = 0.04640993
#
# Stress axis : x y z
#
# Youngs Moduli (GPa) = 73.68412 46.56914 26.44846
#
# Poissons Ratio (x) = 0.26632 0.20283
# Poissons Ratio (y) = 0.42138 -0.00438
# Poissons Ratio (z) = 0.56507 -0.00770
#
# Static dielectric constant tensor:
#      x y z
#    x 1.577350 0.000000 -0.019360 
#    y 0.000000 1.625300 0.000000 
#    z -0.019360 0.000000 1.566590 
# 
# From -- ./inp_files/93952.got.cif
#   From: 2010.05.17/outbox.cif.g08.bks.cpg/sg10_47_cif.got.tgz:93952.got - 2010.06.03 11:33:40.
