data_PCOD9142522
_publ_section_title
;
Structure prediction by ZEFSAII (Michael W. Deem and Ramdas Pophale) SiO2 
 PCOD9142522
Probable space group: P 2/M
;
_chemical_formula_sum "Si O2"
_cell_formula_units_Z 24
_cell_length_a 25.743568
_cell_length_b 10.658327
_cell_length_c 5.294388
_cell_angle_alpha 90.000000
_cell_angle_beta 70.351783
_cell_angle_gamma 90.000000
_cell_volume 1368.108749
_symmetry_space_group_name_H-M "P 2/M"
_symmetry_group_IT_number 10
_symmetry_cell_setting 'monoclinic'
loop_
_space_group_symop_operation_xyz
x,y,z
-x,y,-z
-x,-y,-z
x,-y,z
loop_
_atom_site_type_symbol
_atom_site_label
_atom_site_fract_x
_atom_site_fract_y
_atom_site_fract_z
Si Si1 0.032800 0.846940 0.696589
Si Si2 0.652358 0.264158 0.281213
Si Si3 0.551044 0.859253 0.230696
Si Si4 0.773451 0.152000 0.135201
Si Si5 0.398009 0.360826 0.123625
Si Si6 0.159688 0.847634 0.474952
O O1 0.096312 0.804950 0.590678
O O2 0.000000 0.808088 0.500000
O O3 0.033569 0.000000 0.696095
O O4 0.000000 0.807437 0.000000
O O5 0.607427 0.154647 0.301103
O O6 0.713140 0.211460 0.216306
O O7 0.631592 0.335434 0.563544
O O8 0.644919 0.346696 0.039879
O O9 0.500000 0.835374 0.500000
O O10 0.547017 0.000000 0.134293
O O11 0.559249 0.750883 0.009651
O O12 0.805139 0.190064 0.338262
O O13 0.768156 0.000000 0.144452
O O14 0.809765 0.188290 0.832692
O O15 0.422393 0.500000 0.079792
O O16 0.158081 0.000000 0.480132
#
# Coordination Sequence:
#
# PCOD9142522 Si02
#       6
#     4   4   4   4   4   4
#     4   9  15  23  35  52  80 122 171 214 249 293
#     4  10  21  36  56  77 103 137 178 217 274 317
#     4   9  21  39  59  84 112 140 177 226 273 321
#     4  10  18  29  45  68  96 127 168 217 266 312
#     4  10  22  39  59  80 107 140 179 220 268 329
#     4   9  17  26  39  61  91 126 169 218 260 304
#
# _framework density 17.542466000000001
#
# number of rings (size 3 to 8) (size 9 to 14) (size 15 to 20)
#    1.000    1.500    0.000    3.000    0.000    6.333 
#    0.000    2.500    0.000    0.000    0.000    0.000 
#    0.000    0.000    0.000    0.000    0.000  210.000 
#
# Total GULP energy -133677.943278 kJ/mol
# GULP energy per Si atom -5569.914303 kJ/mol
# Density = 1.750254 g / cm^3
# Si number density = 17.542466 Si / 1000 Ang^3
#
#
#
# Elastic Constant Matrix: (Units=GPa)
#
#
# Indices 1 2 3 4 5 6 
#
# 1 120.7027 11.6068 44.7086 0.0000 -4.6223 0.0000
# 2 11.6068 58.3402 29.7946 0.0000 -3.9247 0.0000
# 3 44.7086 29.7946 101.3899 0.0000 12.1185 0.0000
# 4 0.0000 0.0000 0.0000 13.3713 0.0000 -4.4507
# 5 -4.6223 -3.9247 12.1185 0.0000 36.5233 0.0000
# 6 0.0000 0.0000 0.0000 -4.4507 0.0000 -1.6919
#
#
#
# Elastic Compliance Matrix: (Units=1/GPa)
#
#
# Indices 1 2 3 4 5 6 
#
# 1 0.010217 0.000779 -0.005101 0.000000 0.003069 0.000000
# 2 0.000779 0.020898 -0.007044 0.000000 0.004682 0.000000
# 3 -0.005101 -0.007044 0.014942 0.000000 -0.006360 0.000000
# 4 0.000000 0.000000 0.000000 0.039873 0.000000 -0.104892
# 5 0.003069 0.004682 -0.006360 0.000000 0.030382 0.000000
# 6 0.000000 0.000000 0.000000 -0.104892 0.000000 -0.315130
#
#
# Mechanical properties :
#
#
# Convention : Reuss Voigt Hill
#
# Bulk Modulus (GPa) = 42.87222 50.29477 46.58349
# Shear Modulus (GPa) = -29.70713 22.59539 -3.55587
#
# Velocity S-wave (km/s) = -4.11961 3.59282 -1.42527
# Velocity P-wave (km/s) = 1.36526 6.77818 4.88915
#
# Compressibility (1/GPa) = 0.02332513
#
# Stress axis : x y z
#
# Youngs Moduli (GPa) = 97.87745 47.85061 66.92327
#
# Poissons Ratio (x) = -0.03727 0.34137
# Poissons Ratio (y) = -0.07624 0.47143
# Poissons Ratio (z) = 0.49927 0.33707
#
# Static dielectric constant tensor:
#      x y z
#    x 1.593140 0.000000 0.021120 
#    y 0.000000 1.583400 0.000000 
#    z 0.021120 0.000000 1.587600 
# 
# From -- ./inp_files/13441.got.cif
#   From: 2010.05.17/outbox.cif.g08.bks.cpg/sg10_7_cif.got.tgz:13441.got - 2010.06.03 11:33:40.
