data_PCOD9142581
_publ_section_title
;
Structure prediction by ZEFSAII (Michael W. Deem and Ramdas Pophale) SiO2 
 PCOD9142581
Probable space group: P 2/M
;
_chemical_formula_sum "Si O2"
_cell_formula_units_Z 30
_cell_length_a 14.416578
_cell_length_b 7.381498
_cell_length_c 18.010410
_cell_angle_alpha 90.000000
_cell_angle_beta 128.374994
_cell_angle_gamma 90.000000
_cell_volume 1502.542188
_symmetry_space_group_name_H-M "P 2/M"
_symmetry_group_IT_number 10
_symmetry_cell_setting 'monoclinic'
loop_
_space_group_symop_operation_xyz
x,y,z
-x,y,-z
-x,-y,-z
x,-y,z
loop_
_atom_site_type_symbol
_atom_site_label
_atom_site_fract_x
_atom_site_fract_y
_atom_site_fract_z
Si Si1 0.755098 0.209761 0.325741
Si Si2 0.057633 0.277637 0.364624
Si Si3 0.449912 0.721244 0.359852
Si Si4 0.000000 0.253911 0.500000
Si Si5 0.594997 0.721696 0.984457
Si Si6 0.484818 0.713608 0.216017
Si Si7 0.811577 0.717521 0.184936
Si Si8 0.684973 0.720105 0.562743
O O1 0.865610 0.317205 0.414483
O O2 0.626620 0.264867 0.289746
O O3 0.757311 0.230780 0.237912
O O4 0.777491 0.000000 0.355711
O O5 0.055629 0.500000 0.374145
O O6 0.185530 0.223324 0.398670
O O7 0.028093 0.192394 0.429736
O O8 0.948925 0.228673 0.256428
O O9 0.449835 0.500000 0.358885
O O10 0.432997 0.785548 0.267498
O O11 0.579079 0.775683 0.455106
O O12 0.354735 0.776799 0.374438
O O13 0.591971 0.500000 0.981648
O O14 0.724100 0.780400 0.077036
O O15 0.500000 0.776113 0.000000
O O16 0.560348 0.786650 0.885244
O O17 0.458814 0.500000 0.201623
O O18 0.810265 0.500000 0.181583
O O19 0.685924 0.500000 0.562879
#
# Coordination Sequence:
#
# PCOD9142581 Si02
#       8
#     4   4   4   2   4   4   4   4
#     4  11  21  31  42  61  89 119 143 174 216 259
#     4   9  16  25  42  65  88 113 146 184 211 246
#     4   8  14  23  39  62  86 111 140 176 218 260
#     4  10  20  30  40  58  87 122 147 166 207 266
#     4   9  15  26  44  63  85 113 143 180 220 256
#     4  10  18  29  47  66  84 112 150 183 211 255
#     4   9  17  30  45  62  84 115 149 177 211 257
#     4   8  13  23  37  60  91 113 134 176 225 252
#
# _framework density 19.966163000000002
#
# number of rings (size 3 to 8) (size 9 to 14) (size 15 to 20)
#    0.000    2.800    1.333    2.400    0.000    2.667 
#    0.000    1.333    0.000    0.800    0.000   16.800 
#    0.000    0.000    0.000    6.000    0.000    5.067 
#
# Total GULP energy -167124.058730 kJ/mol
# GULP energy per Si atom -5570.801958 kJ/mol
# Density = 1.992072 g / cm^3
# Si number density = 19.966163 Si / 1000 Ang^3
#
#
#
# Elastic Constant Matrix: (Units=GPa)
#
#
# Indices 1 2 3 4 5 6 
#
# 1 141.5632 4.3974 84.5319 0.0000 -2.4438 0.0000
# 2 4.3974 76.2496 15.4691 0.0000 -2.3002 0.0000
# 3 84.5319 15.4691 168.0930 0.0000 -10.4675 0.0000
# 4 0.0000 0.0000 0.0000 -2.5974 0.0000 -19.8172
# 5 -2.4438 -2.3002 -10.4675 0.0000 30.7719 0.0000
# 6 0.0000 0.0000 0.0000 -19.8172 0.0000 8.8364
#
#
#
# Elastic Compliance Matrix: (Units=1/GPa)
#
#
# Indices 1 2 3 4 5 6 
#
# 1 0.010137 0.000442 -0.005196 0.000000 -0.000930 0.000000
# 2 0.000442 0.013394 -0.001420 0.000000 0.000553 0.000000
# 3 -0.005196 -0.001420 0.008848 0.000000 0.002491 0.000000
# 4 0.000000 0.000000 0.000000 -0.021258 0.000000 -0.047675
# 5 -0.000930 0.000553 0.002491 0.000000 0.033312 0.000000
# 6 0.000000 0.000000 0.000000 -0.047675 0.000000 0.006249
#
#
# Mechanical properties :
#
#
# Convention : Reuss Voigt Hill
#
# Bulk Modulus (GPa) = 49.92681 66.07806 58.00243
# Shear Modulus (GPa) = 71.72736 26.16935 48.94835
#
# Velocity S-wave (km/s) = 6.00020 3.62427 4.95670
# Velocity P-wave (km/s) = 8.54770 7.11903 7.86587
#
# Compressibility (1/GPa) = 0.02002932
#
# Stress axis : x y z
#
# Youngs Moduli (GPa) = 98.64729 74.65934 113.01885
#
# Poissons Ratio (x) = -0.03297 0.58729
# Poissons Ratio (y) = -0.04356 0.16051
# Poissons Ratio (z) = 0.51261 0.10603
#
# Static dielectric constant tensor:
#      x y z
#    x 1.667610 0.000000 0.001080 
#    y 0.000000 1.806030 0.000000 
#    z 0.001080 0.000000 1.705070 
# 
# From -- ./inp_files/77559.got.cif
#   From: 2010.05.17/outbox.cif.g08.bks.cpg/sg10_39_cif.got.tgz:77559.got - 2010.06.03 11:33:40.
