data_PCOD9142418
_publ_section_title
;
Structure prediction by ZEFSAII (Michael W. Deem and Ramdas Pophale) SiO2 
 PCOD9142418
Probable space group: P 2/M
;
_chemical_formula_sum "Si O2"
_cell_formula_units_Z 32
_cell_length_a 21.555674
_cell_length_b 9.061942
_cell_length_c 28.493493
_cell_angle_alpha 90.000000
_cell_angle_beta 19.105678
_cell_angle_gamma 90.000000
_cell_volume 1821.754693
_symmetry_space_group_name_H-M "P 2/M"
_symmetry_group_IT_number 10
_symmetry_cell_setting 'monoclinic'
loop_
_space_group_symop_operation_xyz
x,y,z
-x,y,-z
-x,-y,-z
x,-y,z
loop_
_atom_site_type_symbol
_atom_site_label
_atom_site_fract_x
_atom_site_fract_y
_atom_site_fract_z
Si Si1 0.164530 0.179756 0.917678
Si Si2 0.099819 0.825705 0.563227
Si Si3 0.834578 0.323823 0.582768
Si Si4 0.158793 0.675244 0.670657
Si Si5 0.447647 0.174299 0.889431
Si Si6 0.150500 0.175729 0.174800
Si Si7 0.912244 0.822975 0.920804
Si Si8 0.419964 0.822976 0.413204
O O1 0.371719 0.224983 0.751683
O O2 0.166124 0.000000 0.916879
O O3 0.122487 0.224976 0.001059
O O4 0.000000 0.228076 0.000000
O O5 0.122824 0.736375 0.499488
O O6 0.271345 0.793889 0.477079
O O7 0.906472 0.797113 0.730766
O O8 0.108546 0.000000 0.546213
O O9 0.830166 0.500000 0.584977
O O10 0.633563 0.263619 0.744278
O O11 0.000000 0.275109 0.500000
O O12 0.170590 0.500000 0.664765
O O13 0.344890 0.744279 0.513701
O O14 0.992892 0.727670 0.753552
O O15 0.089065 0.744291 0.769466
O O16 0.489498 0.000000 0.855873
O O17 0.357338 0.202897 0.005485
O O18 0.277903 0.206131 0.973799
O O19 0.109485 0.000000 0.195291
O O20 0.941931 0.000000 0.898199
O O21 0.418584 0.000000 0.421667
#
# Coordination Sequence:
#
# PCOD9142418 Si02
#       8
#     4   4   4   4   4   4   4   4
#     4   9  17  30  51  77 100 127 168 212 250 291
#     4   9  17  32  55  77  96 125 163 202 246 293
#     4  11  24  37  47  67 102 137 166 200 242 287
#     4  10  18  28  47  76 103 129 165 201 239 294
#     4   9  17  32  55  77  96 125 163 202 246 293
#     4   8  16  32  53  78 103 123 153 203 255 292
#     4   9  17  32  53  76 102 128 159 205 253 291
#     4   9  17  32  53  76 102 128 159 205 253 291
#
# _framework density 17.565481999999999
#
# number of rings (size 3 to 8) (size 9 to 14) (size 15 to 20)
#    0.000    2.750    0.000    3.750    0.000    7.000 
#    0.000    1.875    0.000    9.000    0.000    0.000 
#    0.000    0.000    0.000    0.000    0.000    0.000 
#
# Total GULP energy -178336.688899 kJ/mol
# GULP energy per Si atom -5573.021528 kJ/mol
# Density = 1.752550 g / cm^3
# Si number density = 17.565482 Si / 1000 Ang^3
#
#
#
# Elastic Constant Matrix: (Units=GPa)
#
#
# Indices 1 2 3 4 5 6 
#
# 1 67.6009 41.5425 99.8963 0.0000 13.9816 0.0000
# 2 41.5425 40.2473 61.1154 0.0000 13.4720 0.0000
# 3 99.8963 61.1154 156.4871 0.0000 47.2632 0.0000
# 4 0.0000 0.0000 0.0000 2.5374 0.0000 -2.2304
# 5 13.9816 13.4720 47.2632 0.0000 17.3527 0.0000
# 6 0.0000 0.0000 0.0000 -2.2304 0.0000 5.7582
#
#
#
# Elastic Compliance Matrix: (Units=1/GPa)
#
#
# Indices 1 2 3 4 5 6 
#
# 1 -0.006712 -0.019163 0.031808 0.000000 -0.066349 0.000000
# 2 -0.019163 0.065758 -0.015181 0.000000 0.005736 0.000000
# 3 0.031808 -0.015181 -0.021452 0.000000 0.044585 0.000000
# 4 0.000000 0.000000 0.000000 0.597548 0.000000 0.231452
# 5 -0.066349 0.005736 0.044585 0.000000 -0.014802 0.000000
# 6 0.000000 0.000000 0.000000 0.231452 0.000000 0.263315
#
#
# Mechanical properties :
#
#
# Convention : Reuss Voigt Hill
#
# Bulk Modulus (GPa) = 30.74837 74.38265 52.56551
# Shear Modulus (GPa) = 5.55821 9.24841 7.40331
#
# Velocity S-wave (km/s) = 1.78077 2.29707 2.05520
# Velocity P-wave (km/s) = 4.66596 7.03372 5.96844
#
# Compressibility (1/GPa) = 0.03252205
#
# Stress axis : x y z
#
# Youngs Moduli (GPa) = -148.98998 15.20716 -46.61605
#
# Poissons Ratio (x) = 0.29142 1.48275
# Poissons Ratio (y) = -2.85513 -0.70767
# Poissons Ratio (z) = 4.73904 0.23086
#
# Static dielectric constant tensor:
#      x y z
#    x 1.584610 0.000000 0.019500 
#    y 0.000000 1.578950 0.000000 
#    z 0.019500 0.000000 1.612580 
# 
# From -- ./inp_files/93605.got.cif
#   From: 2010.05.17/outbox.cif.g08.bks.cpg/sg10_47_cif.got.tgz:93605.got - 2010.06.03 11:33:40.
