data_PCOD9142294
_publ_section_title
;
Structure prediction by ZEFSAII (Michael W. Deem and Ramdas Pophale) SiO2 
 PCOD9142294
Probable space group: P 2/M
;
_chemical_formula_sum "Si O2"
_cell_formula_units_Z 32
_cell_length_a 14.667062
_cell_length_b 7.671022
_cell_length_c 15.416250
_cell_angle_alpha 90.000000
_cell_angle_beta 88.777844
_cell_angle_gamma 90.000000
_cell_volume 1734.108599
_symmetry_space_group_name_H-M "P 2/M"
_symmetry_group_IT_number 10
_symmetry_cell_setting 'monoclinic'
loop_
_space_group_symop_operation_xyz
x,y,z
-x,y,-z
-x,-y,-z
x,-y,z
loop_
_atom_site_type_symbol
_atom_site_label
_atom_site_fract_x
_atom_site_fract_y
_atom_site_fract_z
Si Si1 0.390572 0.293433 0.756110
Si Si2 0.306333 0.705998 0.007995
Si Si3 0.824305 0.210718 0.828428
Si Si4 0.514285 0.708755 0.596460
Si Si5 0.466631 0.297614 0.117381
Si Si6 0.335689 0.791284 0.278403
Si Si7 0.791262 0.802009 0.164017
Si Si8 0.014176 0.213885 0.899021
O O1 0.408641 0.500000 0.757375
O O2 0.440850 0.223844 0.669137
O O3 0.442255 0.220976 0.841174
O O4 0.282799 0.271810 0.767666
O O5 0.314955 0.500000 0.987902
O O6 0.236899 0.728467 0.089362
O O7 0.404750 0.773573 0.040033
O O8 0.259985 0.794827 0.927417
O O9 0.767619 0.261996 0.743488
O O10 0.927114 0.269046 0.843997
O O11 0.825919 0.000000 0.830911
O O12 0.500000 0.778317 0.500000
O O13 0.502413 0.500000 0.592854
O O14 0.614732 0.743014 0.633560
O O15 0.482983 0.500000 0.095856
O O16 0.398377 0.289680 0.201505
O O17 0.341313 0.000000 0.269275
O O18 0.890468 0.722225 0.143115
O O19 0.806703 0.000000 0.190449
O O20 0.017577 0.000000 0.900567
O O21 0.000000 0.266993 0.000000
#
# Coordination Sequence:
#
# PCOD9142294 Si02
#       8
#     4   4   4   4   4   4   4   4
#     4   9  18  33  48  64  89 116 146 185 223 265
#     4  10  18  28  43  63  86 117 158 198 231 262
#     4   9  16  29  46  64  89 122 158 194 233 272
#     4   9  18  34  55  74  94 123 150 170 211 283
#     4   8  16  30  45  59  84 124 158 182 219 274
#     4   9  16  25  44  73  98 116 142 188 233 264
#     4  11  21  31  44  62  87 121 159 194 231 271
#     4   9  16  29  47  62  83 122 166 199 228 268
#
# _framework density 18.453284
#
# number of rings (size 3 to 8) (size 9 to 14) (size 15 to 20)
#    0.000    2.750    1.250    1.875    0.000    3.750 
#    0.000    4.375    0.000    0.000    0.000    0.875 
#    0.000    7.000    0.000    0.000    0.000    0.000 
#
# Total GULP energy -178290.854415 kJ/mol
# GULP energy per Si atom -5571.589200 kJ/mol
# Density = 1.841128 g / cm^3
# Si number density = 18.453284 Si / 1000 Ang^3
#
#
#
# Elastic Constant Matrix: (Units=GPa)
#
#
# Indices 1 2 3 4 5 6 
#
# 1 154.9963 3.2653 50.9151 0.0000 12.2719 0.0000
# 2 3.2653 31.3762 5.2268 0.0000 -3.1472 0.0000
# 3 50.9151 5.2268 101.3132 0.0000 13.5373 0.0000
# 4 0.0000 0.0000 0.0000 14.7163 0.0000 1.3174
# 5 12.2719 -3.1472 13.5373 0.0000 19.4569 0.0000
# 6 0.0000 0.0000 0.0000 1.3174 0.0000 14.3070
#
#
#
# Elastic Compliance Matrix: (Units=1/GPa)
#
#
# Indices 1 2 3 4 5 6 
#
# 1 0.007837 -0.000474 -0.003576 0.000000 -0.002532 0.000000
# 2 -0.000474 0.033066 -0.002450 0.000000 0.007352 0.000000
# 3 -0.003576 -0.002450 0.012729 0.000000 -0.006997 0.000000
# 4 0.000000 0.000000 0.000000 0.068517 0.000000 -0.006309
# 5 -0.002532 0.007352 -0.006997 0.000000 0.059050 0.000000
# 6 0.000000 0.000000 0.000000 -0.006309 0.000000 0.070477
#
#
# Mechanical properties :
#
#
# Convention : Reuss Voigt Hill
#
# Bulk Modulus (GPa) = 24.61093 45.16669 34.88881
# Shear Modulus (GPa) = 17.97151 24.91462 21.44306
#
# Velocity S-wave (km/s) = 3.12411 3.67842 3.41254
# Velocity P-wave (km/s) = 5.13607 6.52460 5.87153
#
# Compressibility (1/GPa) = 0.04063236
#
# Stress axis : x y z
#
# Youngs Moduli (GPa) = 127.60358 30.24235 78.56273
#
# Poissons Ratio (x) = 0.01433 0.28091
# Poissons Ratio (y) = 0.06047 0.19249
# Poissons Ratio (z) = 0.45627 0.07410
#
# Static dielectric constant tensor:
#      x y z
#    x 1.690360 0.000000 0.016000 
#    y 0.000000 1.708360 0.000000 
#    z 0.016000 0.000000 1.643100 
# 
# From -- ./inp_files/66167.got.cif
#   From: 2010.05.17/outbox.cif.g08.bks.cpg/sg10_34_cif.got.tgz:66167.got - 2010.06.03 11:33:40.
