data_PCOD9142432
_publ_section_title
;
Structure prediction by ZEFSAII (Michael W. Deem and Ramdas Pophale) SiO2 
 PCOD9142432
Probable space group: P 2/M
;
_chemical_formula_sum "Si O2"
_cell_formula_units_Z 28
_cell_length_a 7.955945
_cell_length_b 15.436926
_cell_length_c 14.107327
_cell_angle_alpha 90.000000
_cell_angle_beta 50.059250
_cell_angle_gamma 90.000000
_cell_volume 1328.396566
_symmetry_space_group_name_H-M "P 2/M"
_symmetry_group_IT_number 10
_symmetry_cell_setting 'monoclinic'
loop_
_space_group_symop_operation_xyz
x,y,z
-x,y,-z
-x,-y,-z
x,-y,z
loop_
_atom_site_type_symbol
_atom_site_label
_atom_site_fract_x
_atom_site_fract_y
_atom_site_fract_z
Si Si1 0.895619 0.176505 0.686062
Si Si2 0.312145 0.764098 0.806309
Si Si3 0.065317 0.688993 0.167796
Si Si4 0.740361 0.403096 0.064788
Si Si5 0.717345 0.769454 0.547094
Si Si6 0.759993 0.404012 0.423548
Si Si7 0.486017 0.097615 0.894514
O O1 0.805588 0.211055 0.619260
O O2 0.739729 0.098082 0.768821
O O3 0.850506 0.249101 0.780789
O O4 0.155081 0.168468 0.572977
O O5 0.064617 0.750777 0.859450
O O6 0.458909 0.778560 0.658752
O O7 0.360652 0.836453 0.868683
O O8 0.369874 0.669901 0.830227
O O9 0.890775 0.624916 0.281711
O O10 0.244017 0.634278 0.046812
O O11 0.650209 0.500000 0.105307
O O12 0.000000 0.407444 0.000000
O O13 0.783058 0.673664 0.489590
O O14 0.500000 0.407193 0.500000
O O15 0.832953 0.500000 0.426596
O O16 0.395449 0.000000 0.921929
O O17 0.500000 0.123984 0.000000
#
# Coordination Sequence:
#
# PCOD9142432 Si02
#       7
#     4   4   4   4   4   4   4
#     4   9  19  34  55  75 107 141 177 219 277 331
#     4  10  19  33  55  78 109 142 182 228 272 320
#     4  10  18  32  52  78 107 145 184 227 275 317
#     4   9  18  30  48  76 108 142 181 222 264 316
#     4   9  18  34  49  77 104 145 184 218 265 325
#     4  10  18  28  48  76 107 145 190 231 264 310
#     4  10  21  39  61  83 106 139 179 222 277 342
#
# _framework density 21.078043999999998
#
# number of rings (size 3 to 8) (size 9 to 14) (size 15 to 20)
#    0.000    2.429    1.429    1.286    0.000    1.143 
#    0.000   12.857    0.000   17.143    0.000   14.000 
#    0.000    0.000    0.000    0.000    0.000    0.000 
#
# Total GULP energy -156009.240740 kJ/mol
# GULP energy per Si atom -5571.758598 kJ/mol
# Density = 2.103007 g / cm^3
# Si number density = 21.078044 Si / 1000 Ang^3
#
#
#
# Elastic Constant Matrix: (Units=GPa)
#
#
# Indices 1 2 3 4 5 6 
#
# 1 26.1858 17.3078 13.8586 0.0000 6.9475 0.0000
# 2 17.3078 79.0989 22.7387 0.0000 6.2975 0.0000
# 3 13.8586 22.7387 86.8911 0.0000 8.3072 0.0000
# 4 0.0000 0.0000 0.0000 3.5834 0.0000 -14.7104
# 5 6.9475 6.2975 8.3072 0.0000 28.5071 0.0000
# 6 0.0000 0.0000 0.0000 -14.7104 0.0000 10.3340
#
#
#
# Elastic Compliance Matrix: (Units=1/GPa)
#
#
# Indices 1 2 3 4 5 6 
#
# 1 0.048638 -0.008613 -0.004683 0.000000 -0.008586 0.000000
# 2 -0.008613 0.015312 -0.002582 0.000000 -0.000531 0.000000
# 3 -0.004683 -0.002582 0.013134 0.000000 -0.002116 0.000000
# 4 0.000000 0.000000 0.000000 -0.057615 0.000000 -0.082014
# 5 -0.008586 -0.000531 -0.002116 0.000000 0.037905 0.000000
# 6 0.000000 0.000000 0.000000 -0.082014 0.000000 -0.019978
#
#
# Mechanical properties :
#
#
# Convention : Reuss Voigt Hill
#
# Bulk Modulus (GPa) = 22.06189 33.33178 27.69684
# Shear Modulus (GPa) = 59.34038 17.70295 38.52166
#
# Velocity S-wave (km/s) = 5.31167 2.90121 4.27965
# Velocity P-wave (km/s) = 6.93599 5.20293 6.13100
#
# Compressibility (1/GPa) = 0.04532702
#
# Stress axis : x y z
#
# Youngs Moduli (GPa) = 20.56024 65.30979 76.14070
#
# Poissons Ratio (x) = 0.56250 0.35654
# Poissons Ratio (y) = 0.17708 0.19663
# Poissons Ratio (z) = 0.09628 0.16866
#
# Static dielectric constant tensor:
#      x y z
#    x 1.845620 0.000000 -0.072240 
#    y 0.000000 1.756180 0.000000 
#    z -0.072240 0.000000 1.849570 
# 
# From -- ./inp_files/29431.got.cif
#   From: 2010.05.17/outbox.cif.g08.bks.cpg/sg10_15_cif.got.tgz:29431.got - 2010.06.03 11:33:40.
