data_PCOD9142288
_publ_section_title
;
Structure prediction by ZEFSAII (Michael W. Deem and Ramdas Pophale) SiO2 
 PCOD9142288
Probable space group: P 2/M
;
_chemical_formula_sum "Si O2"
_cell_formula_units_Z 32
_cell_length_a 21.919178
_cell_length_b 7.738600
_cell_length_c 12.817118
_cell_angle_alpha 90.000000
_cell_angle_beta 53.267527
_cell_angle_gamma 90.000000
_cell_volume 1742.393844
_symmetry_space_group_name_H-M "P 2/M"
_symmetry_group_IT_number 10
_symmetry_cell_setting 'monoclinic'
loop_
_space_group_symop_operation_xyz
x,y,z
-x,y,-z
-x,-y,-z
x,-y,z
loop_
_atom_site_type_symbol
_atom_site_label
_atom_site_fract_x
_atom_site_fract_y
_atom_site_fract_z
Si Si1 0.605721 0.299993 0.972156
Si Si2 0.440333 0.199308 0.204252
Si Si3 0.839591 0.201931 0.300062
Si Si4 0.325738 0.212148 0.499788
Si Si5 0.686007 0.294488 0.090706
Si Si6 0.414911 0.791231 0.613896
Si Si7 0.168403 0.703750 0.933249
Si Si8 0.003492 0.791153 0.118582
O O1 0.624196 0.500000 0.932306
O O2 0.520762 0.292715 0.108045
O O3 0.662074 0.225764 0.002021
O O4 0.600347 0.207304 0.866698
O O5 0.384391 0.267462 0.350524
O O6 0.458379 0.000000 0.211145
O O7 0.760769 0.275410 0.424345
O O8 0.833248 0.212356 0.180077
O O9 0.922734 0.273312 0.246027
O O10 0.841102 0.000000 0.326859
O O11 0.358388 0.264013 0.579034
O O12 0.324180 0.000000 0.499694
O O13 0.696168 0.500000 0.066873
O O14 0.617772 0.267388 0.242407
O O15 0.762547 0.226576 0.067259
O O16 0.500000 0.731724 0.500000
O O17 0.416061 0.000000 0.613949
O O18 0.180505 0.500000 0.903550
O O19 0.085867 0.728772 0.070762
O O20 0.003916 0.000000 0.123023
O O21 0.000000 0.740834 0.000000
#
# Coordination Sequence:
#
# PCOD9142288 Si02
#       8
#     4   4   4   4   4   4   4   4
#     4  10  20  35  50  65  90 122 155 191 234 272
#     4  10  19  33  52  72  90 112 153 199 234 267
#     4   9  16  29  45  63  90 124 152 177 220 277
#     4   9  17  29  46  68  94 120 146 185 231 270
#     4  10  21  33  45  65  93 125 155 186 225 271
#     4  10  19  30  46  67  91 121 154 184 222 273
#     4  10  18  28  42  64  92 120 152 188 223 259
#     4   8  15  26  42  62  86 119 154 180 216 271
#
# _framework density 18.365538000000001
#
# number of rings (size 3 to 8) (size 9 to 14) (size 15 to 20)
#    0.000    2.500    1.250    3.375    0.000    5.000 
#    0.000    2.500    0.000    0.000    0.000    0.875 
#    0.000    7.000    0.000    0.000    0.000    0.000 
#
# Total GULP energy -178388.195826 kJ/mol
# GULP energy per Si atom -5574.631120 kJ/mol
# Density = 1.832374 g / cm^3
# Si number density = 18.365538 Si / 1000 Ang^3
#
#
#
# Elastic Constant Matrix: (Units=GPa)
#
#
# Indices 1 2 3 4 5 6 
#
# 1 68.8211 -9.9373 -0.5702 0.0000 -4.1912 0.0000
# 2 -9.9373 26.7972 -7.5495 0.0000 -2.1032 0.0000
# 3 -0.5702 -7.5495 25.1836 0.0000 2.3889 0.0000
# 4 0.0000 0.0000 0.0000 20.3251 0.0000 14.7519
# 5 -4.1912 -2.1032 2.3889 0.0000 25.2428 0.0000
# 6 0.0000 0.0000 0.0000 14.7519 0.0000 -11.5071
#
#
#
# Elastic Compliance Matrix: (Units=1/GPa)
#
#
# Indices 1 2 3 4 5 6 
#
# 1 0.015685 0.006630 0.002062 0.000000 0.002962 0.000000
# 2 0.006630 0.043690 0.012914 0.000000 0.003519 0.000000
# 3 0.002062 0.012914 0.043886 0.000000 -0.002735 0.000000
# 4 0.000000 0.000000 0.000000 0.025486 0.000000 0.032673
# 5 0.002962 0.003519 -0.002735 0.000000 0.040659 0.000000
# 6 0.000000 0.000000 0.000000 0.032673 0.000000 -0.045017
#
#
# Mechanical properties :
#
#
# Convention : Reuss Voigt Hill
#
# Bulk Modulus (GPa) = 6.82725 9.40977 8.11851
# Shear Modulus (GPa) = 38.46059 16.06941 27.26500
#
# Velocity S-wave (km/s) = 4.58118 2.96121 3.85720
# Velocity P-wave (km/s) = 5.63102 4.10200 4.92620
#
# Compressibility (1/GPa) = 0.14647177
#
# Stress axis : x y z
#
# Youngs Moduli (GPa) = 63.75448 22.88841 22.78643
#
# Poissons Ratio (x) = -0.15175 -0.04698
# Poissons Ratio (y) = -0.42268 -0.29426
# Poissons Ratio (z) = -0.13144 -0.29557
#
# Static dielectric constant tensor:
#      x y z
#    x 1.675290 0.000000 -0.032320 
#    y 0.000000 1.664850 0.000000 
#    z -0.032320 0.000000 1.617620 
# 
# From -- ./inp_files/54782.got.cif
#   From: 2010.05.17/outbox.cif.g08.bks.cpg/sg10_28_cif.got.tgz:54782.got - 2010.06.03 11:33:40.
