data_PCOD9142702
_publ_section_title
;
Structure prediction by ZEFSAII (Michael W. Deem and Ramdas Pophale) SiO2 
 PCOD9142702
Probable space group: P 2/M
;
_chemical_formula_sum "Si O2"
_cell_formula_units_Z 28
_cell_length_a 28.194956
_cell_length_b 9.312902
_cell_length_c 9.806822
_cell_angle_alpha 90.000000
_cell_angle_beta 143.769375
_cell_angle_gamma 90.000000
_cell_volume 1521.946371
_symmetry_space_group_name_H-M "P 2/M"
_symmetry_group_IT_number 10
_symmetry_cell_setting 'monoclinic'
loop_
_space_group_symop_operation_xyz
x,y,z
-x,y,-z
-x,-y,-z
x,-y,z
loop_
_atom_site_type_symbol
_atom_site_label
_atom_site_fract_x
_atom_site_fract_y
_atom_site_fract_z
Si Si1 0.801484 0.669920 0.544359
Si Si2 0.134914 0.166759 0.807897
Si Si3 0.926738 0.168429 0.644057
Si Si4 0.083889 0.669285 0.951078
Si Si5 0.358982 0.329016 0.969292
Si Si6 0.683379 0.828084 0.847574
Si Si7 0.514893 0.834798 0.370218
O O1 0.812610 0.500000 0.539828
O O2 0.857250 0.760514 0.572464
O O3 0.708583 0.703142 0.300407
O O4 0.835569 0.694596 0.774275
O O5 0.098075 0.182918 0.572276
O O6 0.095082 0.267172 0.827137
O O7 0.123947 0.000000 0.823806
O O8 0.229754 0.197438 0.014391
O O9 0.010659 0.249955 0.854478
O O10 0.934408 0.000000 0.693113
O O11 0.067574 0.500000 0.909675
O O12 0.365408 0.500000 0.000955
O O13 0.327061 0.258179 0.036010
O O14 0.446464 0.262347 0.145885
O O15 0.608054 0.791557 0.575565
O O16 0.677242 0.000000 0.863031
O O17 0.500000 0.829735 0.500000
O O18 0.504988 0.000000 0.304212
#
# Coordination Sequence:
#
# PCOD9142702 Si02
#       7
#     4   4   4   4   4   4   4
#     4  10  22  38  54  76 108 143 176 215 260 311
#     4  10  21  37  56  79 107 136 174 220 261 308
#     4  11  22  37  59  82 103 132 176 224 266 310
#     4  11  24  39  54  75 107 143 177 214 263 316
#     4  10  18  29  49  76 105 134 171 214 255 301
#     4   9  17  32  51  74 105 138 168 208 261 309
#     4   8  15  27  46  72 104 136 166 205 258 309
#
# _framework density 18.397494999999999
#
# number of rings (size 3 to 8) (size 9 to 14) (size 15 to 20)
#    0.000    2.143    1.429    3.000    0.000    9.429 
#    0.000    0.000    0.000    0.857    0.000    6.000 
#    0.000    0.000    0.000    0.000    0.000    0.000 
#
# Total GULP energy -156260.722843 kJ/mol
# GULP energy per Si atom -5580.740102 kJ/mol
# Density = 1.835562 g / cm^3
# Si number density = 18.397495 Si / 1000 Ang^3
#
#
#
# Elastic Constant Matrix: (Units=GPa)
#
#
# Indices 1 2 3 4 5 6 
#
# 1 16.5764 11.8622 11.0734 0.0000 4.8776 0.0000
# 2 11.8622 44.8269 34.1297 0.0000 2.5078 0.0000
# 3 11.0734 34.1297 82.8993 0.0000 22.3129 0.0000
# 4 0.0000 0.0000 0.0000 29.2398 0.0000 11.3238
# 5 4.8776 2.5078 22.3129 0.0000 28.8074 0.0000
# 6 0.0000 0.0000 0.0000 11.3238 0.0000 18.4889
#
#
#
# Elastic Compliance Matrix: (Units=1/GPa)
#
#
# Indices 1 2 3 4 5 6 
#
# 1 0.078147 -0.021310 0.001765 0.000000 -0.012743 0.000000
# 2 -0.021310 0.040510 -0.017502 0.000000 0.013638 0.000000
# 3 0.001765 -0.017502 0.023629 0.000000 -0.017077 0.000000
# 4 0.000000 0.000000 0.000000 0.044834 0.000000 -0.027459
# 5 -0.012743 0.013638 -0.017077 0.000000 0.048911 0.000000
# 6 0.000000 0.000000 0.000000 -0.027459 0.000000 0.070904
#
#
# Mechanical properties :
#
#
# Convention : Reuss Voigt Hill
#
# Bulk Modulus (GPa) = 14.66467 28.71481 21.68974
# Shear Modulus (GPa) = 12.38353 21.12303 16.75328
#
# Velocity S-wave (km/s) = 2.59725 3.39211 3.02094
# Velocity P-wave (km/s) = 4.12099 5.56630 4.89726
#
# Compressibility (1/GPa) = 0.06819111
#
# Stress axis : x y z
#
# Youngs Moduli (GPa) = 12.79633 24.68533 42.32046
#
# Poissons Ratio (x) = 0.52605 -0.07469
# Poissons Ratio (y) = 0.27270 0.74070
# Poissons Ratio (z) = -0.02258 0.43205
#
# Static dielectric constant tensor:
#      x y z
#    x 1.600100 0.000000 0.023110 
#    y 0.000000 1.615060 0.000000 
#    z 0.023110 0.000000 1.673890 
# 
# From -- ./inp_files/37257.got.cif
#   From: 2010.05.17/outbox.cif.g08.bks.cpg/sg10_19_cif.got.tgz:37257.got - 2010.06.03 11:33:40.
