data_PCOD9142210
_publ_section_title
;
Structure prediction by ZEFSAII (Michael W. Deem and Ramdas Pophale) SiO2 
 PCOD9142210
Probable space group: P 2/M
;
_chemical_formula_sum "Si O2"
_cell_formula_units_Z 32
_cell_length_a 31.344542
_cell_length_b 9.026552
_cell_length_c 16.600181
_cell_angle_alpha 90.000000
_cell_angle_beta 29.469472
_cell_angle_gamma 90.000000
_cell_volume 2310.607690
_symmetry_space_group_name_H-M "P 2/M"
_symmetry_group_IT_number 10
_symmetry_cell_setting 'monoclinic'
loop_
_space_group_symop_operation_xyz
x,y,z
-x,y,-z
-x,-y,-z
x,-y,z
loop_
_atom_site_type_symbol
_atom_site_label
_atom_site_fract_x
_atom_site_fract_y
_atom_site_fract_z
Si Si1 0.809602 0.678379 0.396402
Si Si2 0.522394 0.178405 0.272970
Si Si3 0.177491 0.177171 0.800858
Si Si4 0.640989 0.820685 0.745389
Si Si5 0.664178 0.822465 0.344050
Si Si6 0.474535 0.820361 0.914797
Si Si7 0.596520 0.328950 0.302066
Si Si8 0.001589 0.670048 0.095224
O O1 0.806544 0.500000 0.395965
O O2 0.804928 0.746434 0.314225
O O3 0.730484 0.742741 0.577297
O O4 0.904248 0.718148 0.277328
O O5 0.423818 0.215172 0.462171
O O6 0.536864 0.230694 0.157824
O O7 0.586550 0.247639 0.233250
O O8 0.530042 0.000000 0.263031
O O9 0.252275 0.219366 0.741015
O O10 0.179304 0.000000 0.787198
O O11 0.082609 0.229571 0.985749
O O12 0.567596 0.779314 0.799900
O O13 0.650738 0.000000 0.727154
O O14 0.599586 0.777882 0.899579
O O15 0.657468 0.747648 0.267868
O O16 0.664378 0.000000 0.333410
O O17 0.474563 0.000000 0.913236
O O18 0.500000 0.321313 0.500000
O O19 0.619343 0.500000 0.253729
O O20 0.016053 0.500000 0.097126
O O21 0.000000 0.669929 0.000000
#
# Coordination Sequence:
#
# PCOD9142210 Si02
#       8
#     4   4   4   4   4   4   4   4
#     4  10  19  29  40  56  81 111 138 163 198 239
#     4   9  15  26  42  56  76 107 136 160 195 237
#     4  10  18  27  42  62  80 101 135 171 198 232
#     4   9  16  28  44  60  79 104 138 173 200 231
#     4   9  17  27  40  59  80 103 131 162 196 235
#     4   8  15  27  43  61  80 104 134 171 208 234
#     4   9  17  27  38  55  78 103 132 164 194 226
#     4   8  16  29  40  53  78 108 133 160 197 238
#
# _framework density 13.849170000000001
#
# number of rings (size 3 to 8) (size 9 to 14) (size 15 to 20)
#    0.000    3.000    0.000    3.375    0.000    7.250 
#    0.000    5.000    0.000    0.000    0.000    0.000 
#    0.000    1.000    0.000   11.250    0.000    5.625 
#
# Total GULP energy -178169.630936 kJ/mol
# GULP energy per Si atom -5567.800967 kJ/mol
# Density = 1.381765 g / cm^3
# Si number density = 13.849170 Si / 1000 Ang^3
#
#
#
# Elastic Constant Matrix: (Units=GPa)
#
#
# Indices 1 2 3 4 5 6 
#
# 1 107.8193 39.9497 50.2194 0.0000 3.0224 0.0000
# 2 39.9497 33.4105 30.2237 0.0000 -4.0121 0.0000
# 3 50.2194 30.2237 88.8735 0.0000 -5.1834 0.0000
# 4 0.0000 0.0000 0.0000 16.6723 0.0000 -6.1724
# 5 3.0224 -4.0121 -5.1834 0.0000 22.8699 0.0000
# 6 0.0000 0.0000 0.0000 -6.1724 0.0000 -0.0767
#
#
#
# Elastic Compliance Matrix: (Units=1/GPa)
#
#
# Indices 1 2 3 4 5 6 
#
# 1 0.018574 -0.019025 -0.004422 0.000000 -0.006795 0.000000
# 2 -0.019025 0.063140 -0.010062 0.000000 0.011311 0.000000
# 3 -0.004422 -0.010062 0.017333 0.000000 0.002748 0.000000
# 4 0.000000 0.000000 0.000000 0.001947 0.000000 -0.156751
# 5 -0.006795 0.011311 0.002748 0.000000 0.047231 0.000000
# 6 0.000000 0.000000 0.000000 -0.156751 0.000000 -0.423399
#
#
# Mechanical properties :
#
#
# Convention : Reuss Voigt Hill
#
# Bulk Modulus (GPa) = 31.22229 52.32098 41.77164
# Shear Modulus (GPa) = -25.31915 15.20715 -5.05600
#
# Velocity S-wave (km/s) = -4.28039 3.31729 -1.91277
# Velocity P-wave (km/s) = 1.35482 7.24801 5.03479
#
# Compressibility (1/GPa) = 0.03202840
#
# Stress axis : x y z
#
# Youngs Moduli (GPa) = 53.83811 15.83773 57.69434
#
# Poissons Ratio (x) = 0.30132 0.25512
# Poissons Ratio (y) = 1.02429 0.58053
# Poissons Ratio (z) = 0.23806 0.15936
#
# Static dielectric constant tensor:
#      x y z
#    x 1.445850 0.000000 -0.004640 
#    y 0.000000 1.461860 0.000000 
#    z -0.004640 0.000000 1.453290 
# 
# From -- ./inp_files/72527.got.cif
#   From: 2010.05.17/outbox.cif.g08.bks.cpg/sg10_37_cif.got.tgz:72527.got - 2010.06.03 11:33:40.
