data_PCOD9142959
_publ_section_title
;
Structure prediction by ZEFSAII (Michael W. Deem and Ramdas Pophale) SiO2 
 PCOD9142959
Probable space group: P 2/M
;
_chemical_formula_sum "Si O2"
_cell_formula_units_Z 28
_cell_length_a 16.868968
_cell_length_b 7.425689
_cell_length_c 19.430623
_cell_angle_alpha 90.000000
_cell_angle_beta 29.873397
_cell_angle_gamma 90.000000
_cell_volume 1212.315377
_symmetry_space_group_name_H-M "P 2/M"
_symmetry_group_IT_number 10
_symmetry_cell_setting 'monoclinic'
loop_
_space_group_symop_operation_xyz
x,y,z
-x,y,-z
-x,-y,-z
x,-y,z
loop_
_atom_site_type_symbol
_atom_site_label
_atom_site_fract_x
_atom_site_fract_y
_atom_site_fract_z
Si Si1 0.839736 0.211193 0.906129
Si Si2 0.148815 0.780123 0.433157
Si Si3 0.501736 0.292823 0.316648
Si Si4 0.995600 0.282919 0.082379
Si Si5 0.148254 0.217864 0.593638
Si Si6 0.648312 0.719967 0.343887
Si Si7 0.495552 0.204509 0.164427
O O1 0.872122 0.223798 0.963351
O O2 0.996898 0.284889 0.750555
O O3 0.833354 0.000000 0.893279
O O4 0.666530 0.287846 0.017438
O O5 0.127400 0.731565 0.529171
O O6 0.323002 0.715080 0.277246
O O7 0.000000 0.720847 0.500000
O O8 0.153703 0.000000 0.427240
O O9 0.543259 0.500000 0.270717
O O10 0.322994 0.286601 0.482540
O O11 0.619190 0.223840 0.286906
O O12 0.496115 0.197461 0.247624
O O13 0.003179 0.500000 0.075441
O O14 0.820974 0.225288 0.240335
O O15 0.000000 0.222489 0.000000
O O16 0.154914 0.000000 0.593261
O O17 0.500000 0.782821 0.500000
O O18 0.645389 0.500000 0.345556
O O19 0.494716 0.000000 0.138245
#
# Coordination Sequence:
#
# PCOD9142959 Si02
#       7
#     4   4   4   4   4   4   4
#     4  10  20  33  48  69  99 132 162 194 239 291
#     4   8  14  28  51  74  95 123 158 193 232 281
#     4  10  18  30  50  71  90 120 163 202 239 286
#     4  10  20  33  48  66  91 125 164 206 245 277
#     4   9  18  32  49  71 100 129 157 195 240 285
#     4   9  17  28  42  62  87 114 149 196 241 274
#     4   9  18  32  49  69  96 126 154 190 235 282
#
# _framework density 23.096301
#
# number of rings (size 3 to 8) (size 9 to 14) (size 15 to 20)
#    0.000    2.714    0.000    3.000    0.000    3.714 
#    0.000    2.143    0.000   15.000    0.000    0.000 
#    0.000   10.286    0.000    0.000    0.000    0.000 
#
# Total GULP energy -156359.717605 kJ/mol
# GULP energy per Si atom -5584.275629 kJ/mol
# Density = 2.304373 g / cm^3
# Si number density = 23.096301 Si / 1000 Ang^3
#
#
#
# Elastic Constant Matrix: (Units=GPa)
#
#
# Indices 1 2 3 4 5 6 
#
# 1 82.6549 -6.2054 21.0801 0.0000 -39.9494 0.0000
# 2 -6.2054 76.7005 -5.9406 0.0000 -0.7204 0.0000
# 3 21.0801 -5.9406 120.4086 0.0000 -33.4759 0.0000
# 4 0.0000 0.0000 0.0000 -0.3682 0.0000 1.1696
# 5 -39.9494 -0.7204 -33.4759 0.0000 41.8657 0.0000
# 6 0.0000 0.0000 0.0000 1.1696 0.0000 12.9385
#
#
#
# Elastic Compliance Matrix: (Units=1/GPa)
#
#
# Indices 1 2 3 4 5 6 
#
# 1 0.023526 0.002360 0.002894 0.000000 0.024803 0.000000
# 2 0.002360 0.013354 0.001203 0.000000 0.003444 0.000000
# 3 0.002894 0.001203 0.011098 0.000000 0.011656 0.000000
# 4 0.000000 0.000000 0.000000 -2.110073 0.000000 0.190747
# 5 0.024803 0.003444 0.011656 0.000000 0.056933 0.000000
# 6 0.000000 0.000000 0.000000 0.190747 0.000000 0.060046
#
#
# Mechanical properties :
#
#
# Convention : Reuss Voigt Hill
#
# Bulk Modulus (GPa) = 16.42232 33.07026 24.74629
# Shear Modulus (GPa) = -2.58034 28.94251 13.18109
#
# Velocity S-wave (km/s) = -1.05813 3.54379 2.39153
# Velocity P-wave (km/s) = 2.37339 5.57621 4.28527
#
# Compressibility (1/GPa) = 0.06089275
#
# Stress axis : x y z
#
# Youngs Moduli (GPa) = 42.50644 74.88264 90.10254
#
# Poissons Ratio (x) = -0.17675 -0.26071
# Poissons Ratio (y) = -0.10033 -0.10841
# Poissons Ratio (z) = -0.12299 -0.09010
#
# Static dielectric constant tensor:
#      x y z
#    x 1.808730 0.000000 -0.011810 
#    y 0.000000 1.879400 0.000000 
#    z -0.011810 0.000000 1.923280 
# 
# From -- ./inp_files/37939.got.cif
#   From: 2010.05.17/outbox.cif.g08.bks.cpg/sg10_19_cif.got.tgz:37939.got - 2010.06.03 11:33:40.
