data_PCOD9142594
_publ_section_title
;
Structure prediction by ZEFSAII (Michael W. Deem and Ramdas Pophale) SiO2 
 PCOD9142594
Probable space group: P 2/M
;
_chemical_formula_sum "Si O2"
_cell_formula_units_Z 32
_cell_length_a 27.640777
_cell_length_b 9.080704
_cell_length_c 22.342901
_cell_angle_alpha 90.000000
_cell_angle_beta 160.867595
_cell_angle_gamma 90.000000
_cell_volume 1838.040413
_symmetry_space_group_name_H-M "P 2/M"
_symmetry_group_IT_number 10
_symmetry_cell_setting 'monoclinic'
loop_
_space_group_symop_operation_xyz
x,y,z
-x,y,-z
-x,-y,-z
x,-y,z
loop_
_atom_site_type_symbol
_atom_site_label
_atom_site_fract_x
_atom_site_fract_y
_atom_site_fract_z
Si Si1 0.819339 0.328272 0.168433
Si Si2 0.820190 0.168716 0.290881
Si Si3 0.059927 0.823329 0.134937
Si Si4 0.655492 0.323742 0.475139
Si Si5 0.823388 0.672790 0.415949
Si Si6 0.084859 0.175523 0.911519
Si Si7 0.199302 0.322898 0.478285
Si Si8 0.653655 0.175867 0.865918
O O1 0.780153 0.500000 0.115949
O O2 0.774943 0.268136 0.181780
O O3 0.997422 0.316269 0.371077
O O4 0.742379 0.232822 0.027528
O O5 0.774277 0.235372 0.300981
O O6 0.000000 0.169727 0.500000
O O7 0.772402 0.000000 0.227847
O O8 0.208632 0.741368 0.328269
O O9 0.943075 0.792162 0.051457
O O10 0.086501 0.000000 0.165533
O O11 0.000000 0.780241 0.000000
O O12 0.652523 0.500000 0.476245
O O13 0.687597 0.285014 0.442706
O O14 0.503417 0.253747 0.318279
O O15 0.788554 0.500000 0.366252
O O16 0.763800 0.723527 0.410922
O O17 0.956864 0.255859 0.724614
O O18 0.065370 0.000000 0.880357
O O19 0.243672 0.214691 0.070812
O O20 0.184566 0.500000 0.462592
O O21 0.636064 0.000000 0.847770
#
# Coordination Sequence:
#
# PCOD9142594 Si02
#       8
#     4   4   4   4   4   4   4   4
#     4  10  18  29  47  69  97 132 169 208 257 306
#     4   9  17  27  40  64  98 131 166 208 254 302
#     4   9  18  36  60  82 105 134 168 206 249 297
#     4  10  21  35  53  77 106 137 171 207 250 300
#     4   9  16  27  45  69  96 126 165 210 257 304
#     4   9  18  31  51  78 103 131 168 208 250 297
#     4   9  17  31  50  73  99 130 168 213 257 301
#     4  11  21  33  50  74 106 137 169 209 254 302
#
# _framework density 17.409846000000002
#
# number of rings (size 3 to 8) (size 9 to 14) (size 15 to 20)
#    0.000    2.500    1.250    1.500    0.000    3.750 
#    0.000    0.625    0.000    4.500    0.000    5.250 
#    0.000    0.000    0.000    0.000    0.000    0.000 
#
# Total GULP energy -178444.636475 kJ/mol
# GULP energy per Si atom -5576.394890 kJ/mol
# Density = 1.737022 g / cm^3
# Si number density = 17.409846 Si / 1000 Ang^3
#
#
#
# Elastic Constant Matrix: (Units=GPa)
#
#
# Indices 1 2 3 4 5 6 
#
# 1 122.8899 38.5798 44.8951 0.0000 -2.1322 0.0000
# 2 38.5798 43.2251 22.6205 0.0000 5.2477 0.0000
# 3 44.8951 22.6205 40.0975 0.0000 9.0059 0.0000
# 4 0.0000 0.0000 0.0000 12.1650 0.0000 -8.8742
# 5 -2.1322 5.2477 9.0059 0.0000 27.1873 0.0000
# 6 0.0000 0.0000 0.0000 -8.8742 0.0000 20.1660
#
#
#
# Elastic Compliance Matrix: (Units=1/GPa)
#
#
# Indices 1 2 3 4 5 6 
#
# 1 0.016432 -0.007192 -0.016143 0.000000 0.008024 0.000000
# 2 -0.007192 0.035975 -0.011404 0.000000 -0.003730 0.000000
# 3 -0.016143 -0.011404 0.053194 0.000000 -0.016686 0.000000
# 4 0.000000 0.000000 0.000000 0.121067 0.000000 0.053276
# 5 0.008024 -0.003730 -0.016686 0.000000 0.043658 0.000000
# 6 0.000000 0.000000 0.000000 0.053276 0.000000 0.073033
#
#
# Mechanical properties :
#
#
# Convention : Reuss Voigt Hill
#
# Bulk Modulus (GPa) = 27.68321 46.48927 37.08624
# Shear Modulus (GPa) = 11.76806 18.57815 15.17311
#
# Velocity S-wave (km/s) = 2.60271 3.27020 2.95536
# Velocity P-wave (km/s) = 4.99675 6.40467 5.74401
#
# Compressibility (1/GPa) = 0.03612298
#
# Stress axis : x y z
#
# Youngs Moduli (GPa) = 60.85703 27.79707 18.79896
#
# Poissons Ratio (x) = 0.19993 0.30347
# Poissons Ratio (y) = 0.43771 0.21438
# Poissons Ratio (z) = 0.98240 0.31700
#
# Static dielectric constant tensor:
#      x y z
#    x 1.613480 0.000000 0.009410 
#    y 0.000000 1.578010 0.000000 
#    z 0.009410 0.000000 1.557590 
# 
# From -- ./inp_files/86145.got.cif
#   From: 2010.05.17/outbox.cif.g08.bks.cpg/sg10_44_cif.got.tgz:86145.got - 2010.06.03 11:33:40.
