data_PCOD9142270
_publ_section_title
;
Structure prediction by ZEFSAII (Michael W. Deem and Ramdas Pophale) SiO2 
 PCOD9142270
Probable space group: P 2/M
;
_chemical_formula_sum "Si O2"
_cell_formula_units_Z 32
_cell_length_a 16.691137
_cell_length_b 8.869409
_cell_length_c 18.680361
_cell_angle_alpha 90.000000
_cell_angle_beta 55.831971
_cell_angle_gamma 90.000000
_cell_volume 2288.117285
_symmetry_space_group_name_H-M "P 2/M"
_symmetry_group_IT_number 10
_symmetry_cell_setting 'monoclinic'
loop_
_space_group_symop_operation_xyz
x,y,z
-x,y,-z
-x,-y,-z
x,-y,z
loop_
_atom_site_type_symbol
_atom_site_label
_atom_site_fract_x
_atom_site_fract_y
_atom_site_fract_z
Si Si1 0.891997 0.683397 0.971245
Si Si2 0.478913 0.821081 0.839638
Si Si3 0.595437 0.326367 0.901262
Si Si4 0.702022 0.316833 0.984387
Si Si5 0.512760 0.320272 0.320630
Si Si6 0.401916 0.826353 0.501309
Si Si7 0.703594 0.318545 0.318244
Si Si8 0.110489 0.683694 0.862590
O O1 0.892399 0.500000 0.970497
O O2 0.806133 0.731220 0.962029
O O3 0.001330 0.731761 0.897858
O O4 0.871381 0.728626 0.063885
O O5 0.567038 0.770863 0.847132
O O6 0.492067 0.758118 0.753522
O O7 0.470012 0.000000 0.843645
O O8 0.382080 0.749073 0.922953
O O9 0.612672 0.500000 0.871119
O O10 0.678971 0.273798 0.913795
O O11 0.500000 0.325952 0.000000
O O12 0.695041 0.500000 0.990964
O O13 0.508344 0.500000 0.314422
O O14 0.429152 0.264013 0.416301
O O15 0.615291 0.283520 0.307981
O O16 0.500000 0.821985 0.500000
O O17 0.321458 0.754097 0.592974
O O18 0.380380 0.000000 0.495687
O O19 0.705209 0.500000 0.325299
O O20 0.803985 0.266552 0.232508
O O21 0.111685 0.500000 0.861351
#
# Coordination Sequence:
#
# PCOD9142270 Si02
#       8
#     4   4   4   4   4   4   4   4
#     4   8  13  22  37  58  81 104 132 168 201 223
#     4  11  20  27  38  57  80 104 131 163 199 237
#     4   8  15  27  40  54  74 101 132 164 195 230
#     4   9  16  27  42  57  76 105 138 166 195 231
#     4  10  18  28  42  58  78 104 134 164 193 230
#     4   9  17  28  40  56  79 104 130 162 197 231
#     4   9  16  26  41  59  78 105 137 164 193 230
#     4   8  13  21  36  59  83 103 130 168 200 224
#
# _framework density 13.985296999999999
#
# number of rings (size 3 to 8) (size 9 to 14) (size 15 to 20)
#    0.000    3.000    0.000    4.125    0.000    6.250 
#    0.000    0.000    0.000    0.750    0.000    2.625 
#    0.000    1.000    0.000   11.750    0.000    2.250 
#
# Total GULP energy -178159.729076 kJ/mol
# GULP energy per Si atom -5567.491534 kJ/mol
# Density = 1.395347 g / cm^3
# Si number density = 13.985297 Si / 1000 Ang^3
#
#
#
# Elastic Constant Matrix: (Units=GPa)
#
#
# Indices 1 2 3 4 5 6 
#
# 1 100.4236 26.2232 48.5293 0.0000 2.2138 0.0000
# 2 26.2232 33.5213 31.6183 0.0000 7.5173 0.0000
# 3 48.5293 31.6183 101.3041 0.0000 -3.5322 0.0000
# 4 0.0000 0.0000 0.0000 3.0035 0.0000 1.9915
# 5 2.2138 7.5173 -3.5322 0.0000 20.3063 0.0000
# 6 0.0000 0.0000 0.0000 1.9915 0.0000 6.8907
#
#
#
# Elastic Compliance Matrix: (Units=1/GPa)
#
#
# Indices 1 2 3 4 5 6 
#
# 1 0.013891 -0.006544 -0.004608 0.000000 0.000107 0.000000
# 2 -0.006544 0.053154 -0.014203 0.000000 -0.021435 0.000000
# 3 -0.004608 -0.014203 0.016815 0.000000 0.008685 0.000000
# 4 0.000000 0.000000 0.000000 0.411878 0.000000 -0.119038
# 5 0.000107 -0.021435 0.008685 0.000000 0.058680 0.000000
# 6 0.000000 0.000000 0.000000 -0.119038 0.000000 0.179526
#
#
# Mechanical properties :
#
#
# Convention : Reuss Voigt Hill
#
# Bulk Modulus (GPa) = 30.16593 49.77675 39.97134
# Shear Modulus (GPa) = 6.28374 14.63198 10.45786
#
# Velocity S-wave (km/s) = 2.12199 3.23807 2.73752
# Velocity P-wave (km/s) = 5.25551 7.04625 6.21571
#
# Compressibility (1/GPa) = 0.03314998
#
# Stress axis : x y z
#
# Youngs Moduli (GPa) = 71.98767 18.81318 59.47244
#
# Poissons Ratio (x) = 0.12311 0.27407
# Poissons Ratio (y) = 0.47109 0.84466
# Poissons Ratio (z) = 0.33174 0.26720
#
# Static dielectric constant tensor:
#      x y z
#    x 1.470520 0.000000 -0.000540 
#    y 0.000000 1.464140 0.000000 
#    z -0.000540 0.000000 1.443440 
# 
# From -- ./inp_files/78524.got.cif
#   From: 2010.05.17/outbox.cif.g08.bks.cpg/sg10_40_cif.got.tgz:78524.got - 2010.06.03 11:33:40.
