data_PCOD9142605
_publ_section_title
;
Structure prediction by ZEFSAII (Michael W. Deem and Ramdas Pophale) SiO2 
 PCOD9142605
Probable space group: P 2/M
;
_chemical_formula_sum "Si O2"
_cell_formula_units_Z 32
_cell_length_a 24.213546
_cell_length_b 9.199324
_cell_length_c 17.950373
_cell_angle_alpha 90.000000
_cell_angle_beta 148.921671
_cell_angle_gamma 90.000000
_cell_volume 2064.019129
_symmetry_space_group_name_H-M "P 2/M"
_symmetry_group_IT_number 10
_symmetry_cell_setting 'monoclinic'
loop_
_space_group_symop_operation_xyz
x,y,z
-x,y,-z
-x,-y,-z
x,-y,z
loop_
_atom_site_type_symbol
_atom_site_label
_atom_site_fract_x
_atom_site_fract_y
_atom_site_fract_z
Si Si1 0.145734 0.674325 0.552307
Si Si2 0.303335 0.825105 0.617254
Si Si3 0.472155 0.825529 0.053452
Si Si4 0.908791 0.325006 0.221938
Si Si5 0.932949 0.827188 0.093270
Si Si6 0.821574 0.827169 0.672572
Si Si7 0.750735 0.325179 0.170848
Si Si8 0.125176 0.332721 0.120047
O O1 0.156904 0.500000 0.557441
O O2 0.224996 0.751788 0.586414
O O3 0.179704 0.712866 0.675487
O O4 0.023569 0.711122 0.391546
O O5 0.425017 0.786907 0.777786
O O6 0.263961 0.785322 0.489131
O O7 0.292666 0.000000 0.611823
O O8 0.457722 0.000000 0.039150
O O9 0.500000 0.786369 0.000000
O O10 0.364187 0.748571 0.954177
O O11 0.906026 0.500000 0.208277
O O12 0.901840 0.246347 0.134849
O O13 0.815530 0.283881 0.171680
O O14 0.059933 0.800678 0.225052
O O15 0.917091 0.000000 0.076890
O O16 0.871111 0.756610 0.952151
O O17 0.813748 0.741270 0.740689
O O18 0.814267 0.000000 0.678549
O O19 0.738647 0.500000 0.156653
O O20 0.156421 0.500000 0.145397
O O21 0.000000 0.330428 0.000000
#
# Coordination Sequence:
#
# PCOD9142605 Si02
#       8
#     4   4   4   4   4   4   4   4
#     4  10  19  31  49  70  95 128 165 202 243 290
#     4  10  19  32  49  71  98 129 162 201 248 287
#     4  10  20  34  52  70  94 127 165 208 249 288
#     4  10  20  33  48  69  99 131 164 202 244 289
#     4  10  18  29  47  70  97 129 162 194 235 288
#     4   9  17  29  45  67  97 127 159 196 237 286
#     4  10  21  35  50  69  95 129 168 208 246 287
#     4   9  17  28  44  67  97 129 159 191 233 285
#
# _framework density 15.503731999999999
#
# number of rings (size 3 to 8) (size 9 to 14) (size 15 to 20)
#    0.000    2.250    2.500    1.125    0.000    5.250 
#    0.000    0.000    0.000    2.250    0.000    0.875 
#    0.000    7.000    0.000    0.000    0.000    0.000 
#
# Total GULP energy -178472.012438 kJ/mol
# GULP energy per Si atom -5577.250389 kJ/mol
# Density = 1.546845 g / cm^3
# Si number density = 15.503732 Si / 1000 Ang^3
#
#
#
# Elastic Constant Matrix: (Units=GPa)
#
#
# Indices 1 2 3 4 5 6 
#
# 1 126.9568 59.5080 91.5040 0.0000 -13.2747 0.0000
# 2 59.5080 41.6940 50.3852 0.0000 -10.2561 0.0000
# 3 91.5040 50.3852 109.6825 0.0000 -23.4674 0.0000
# 4 0.0000 0.0000 0.0000 19.4439 0.0000 -6.4489
# 5 -13.2747 -10.2561 -23.4674 0.0000 29.5528 0.0000
# 6 0.0000 0.0000 0.0000 -6.4489 0.0000 23.2010
#
#
#
# Elastic Compliance Matrix: (Units=1/GPa)
#
#
# Indices 1 2 3 4 5 6 
#
# 1 0.030506 -0.028534 -0.013889 0.000000 -0.007229 0.000000
# 2 -0.028534 0.080635 -0.012037 0.000000 0.005609 0.000000
# 3 -0.013889 -0.012037 0.028918 0.000000 0.012547 0.000000
# 4 0.000000 0.000000 0.000000 0.056653 0.000000 0.015747
# 5 -0.007229 0.005609 0.012547 0.000000 0.042501 0.000000
# 6 0.000000 0.000000 0.000000 0.015747 0.000000 0.047479
#
#
# Mechanical properties :
#
#
# Convention : Reuss Voigt Hill
#
# Bulk Modulus (GPa) = 32.11306 75.68086 53.89696
# Shear Modulus (GPa) = 12.31561 19.56862 15.94211
#
# Velocity S-wave (km/s) = 2.82150 3.55658 3.21015
# Velocity P-wave (km/s) = 5.60112 8.11087 6.96990
#
# Compressibility (1/GPa) = 0.03113998
#
# Stress axis : x y z
#
# Youngs Moduli (GPa) = 32.78085 12.40163 34.58045
#
# Poissons Ratio (x) = 0.35386 0.48028
# Poissons Ratio (y) = 0.93536 0.41624
# Poissons Ratio (z) = 0.45528 0.14928
#
# Static dielectric constant tensor:
#      x y z
#    x 1.486040 0.000000 -0.015390 
#    y 0.000000 1.516870 0.000000 
#    z -0.015390 0.000000 1.509680 
# 
# From -- ./inp_files/49909.got.cif
#   From: 2010.05.17/outbox.cif.g08.bks.cpg/sg10_25_cif.got.tgz:49909.got - 2010.06.03 11:33:40.
