data_PCOD9142619
_publ_section_title
;
Structure prediction by ZEFSAII (Michael W. Deem and Ramdas Pophale) SiO2 
 PCOD9142619
Probable space group: P 2/M
;
_chemical_formula_sum "Si O2"
_cell_formula_units_Z 28
_cell_length_a 29.096789
_cell_length_b 8.022813
_cell_length_c 9.938636
_cell_angle_alpha 90.000000
_cell_angle_beta 39.519697
_cell_angle_gamma 90.000000
_cell_volume 1476.352614
_symmetry_space_group_name_H-M "P 2/M"
_symmetry_group_IT_number 10
_symmetry_cell_setting 'monoclinic'
loop_
_space_group_symop_operation_xyz
x,y,z
-x,y,-z
-x,-y,-z
x,-y,z
loop_
_atom_site_type_symbol
_atom_site_label
_atom_site_fract_x
_atom_site_fract_y
_atom_site_fract_z
Si Si1 0.957546 0.694321 0.796849
Si Si2 0.100763 0.804701 0.356167
Si Si3 0.579683 0.198050 0.794265
Si Si4 0.692292 0.798213 0.324338
Si Si5 0.298549 0.697603 0.280674
Si Si6 0.816795 0.700678 0.247708
Si Si7 0.261066 0.201423 0.070002
O O1 0.970940 0.500000 0.794626
O O2 0.920953 0.710849 0.731594
O O3 0.034573 0.782192 0.608609
O O4 0.897507 0.763001 0.035393
O O5 0.177272 0.747925 0.241227
O O6 0.106773 0.000000 0.306929
O O7 0.624216 0.264572 0.564862
O O8 0.632459 0.223982 0.801686
O O9 0.571748 0.000000 0.789923
O O10 0.500000 0.268424 0.000000
O O11 0.764155 0.746489 0.242864
O O12 0.690806 0.000000 0.328001
O O13 0.697743 0.742796 0.158071
O O14 0.303157 0.500000 0.292306
O O15 0.226445 0.758763 0.522447
O O16 0.292888 0.734096 0.136824
O O17 0.822202 0.500000 0.240578
O O18 0.262928 0.000000 0.070119
#
# Coordination Sequence:
#
# PCOD9142619 Si02
#       7
#     4   4   4   4   4   4   4
#     4  10  18  29  47  71  98 129 168 212 256 299
#     4  10  19  30  46  70 100 131 167 212 254 294
#     4   9  18  35  59  83 104 129 163 203 248 299
#     4   9  17  31  53  77 100 130 168 207 247 293
#     4  10  21  35  53  76 103 136 168 205 251 298
#     4   9  18  32  49  72  99 129 171 213 251 298
#     4  10  20  34  50  73 103 135 170 208 250 298
#
# _framework density 18.965658000000001
#
# number of rings (size 3 to 8) (size 9 to 14) (size 15 to 20)
#    0.000    2.429    1.429    2.143    0.000    3.143 
#    0.000    1.429    0.000    8.571    0.000    0.000 
#    0.000    0.000    0.000    0.000    0.000    0.000 
#
# Total GULP energy -156149.284614 kJ/mol
# GULP energy per Si atom -5576.760165 kJ/mol
# Density = 1.892249 g / cm^3
# Si number density = 18.965658 Si / 1000 Ang^3
#
#
#
# Elastic Constant Matrix: (Units=GPa)
#
#
# Indices 1 2 3 4 5 6 
#
# 1 58.6425 -10.6425 61.9305 0.0000 4.6583 0.0000
# 2 -10.6425 11.5928 0.1817 0.0000 -3.7691 0.0000
# 3 61.9305 0.1817 148.0472 0.0000 -9.8772 0.0000
# 4 0.0000 0.0000 0.0000 14.6997 0.0000 -2.1138
# 5 4.6583 -3.7691 -9.8772 0.0000 32.1904 0.0000
# 6 0.0000 0.0000 0.0000 -2.1138 0.0000 29.5871
#
#
#
# Elastic Compliance Matrix: (Units=1/GPa)
#
#
# Indices 1 2 3 4 5 6 
#
# 1 0.045676 0.039636 -0.019690 0.000000 -0.008011 0.000000
# 2 0.039636 0.124122 -0.016483 0.000000 0.003740 0.000000
# 3 -0.019690 -0.016483 0.015388 0.000000 0.005641 0.000000
# 4 0.000000 0.000000 0.000000 0.068734 0.000000 0.004910
# 5 -0.008011 0.003740 0.005641 0.000000 0.034393 0.000000
# 6 0.000000 0.000000 0.000000 0.004910 0.000000 0.034149
#
#
# Mechanical properties :
#
#
# Convention : Reuss Voigt Hill
#
# Bulk Modulus (GPa) = 5.20531 35.69132 20.44831
# Shear Modulus (GPa) = 13.17264 26.41630 19.79447
#
# Velocity S-wave (km/s) = 2.63829 3.73614 3.23414
# Velocity P-wave (km/s) = 3.46862 6.12139 4.97508
#
# Compressibility (1/GPa) = 0.19211163
#
# Stress axis : x y z
#
# Youngs Moduli (GPa) = 21.89329 8.05658 64.98624
#
# Poissons Ratio (x) = -0.31933 1.27959
# Poissons Ratio (y) = -0.86777 1.07119
# Poissons Ratio (z) = 0.43108 0.13280
#
# Static dielectric constant tensor:
#      x y z
#    x 1.609080 0.000000 -0.002840 
#    y 0.000000 1.675390 0.000000 
#    z -0.002840 0.000000 1.718760 
# 
# From -- ./inp_files/36987.got.cif
#   From: 2010.05.17/outbox.cif.g08.bks.cpg/sg10_19_cif.got.tgz:36987.got - 2010.06.03 11:33:40.
