data_PCOD9142599
_publ_section_title
;
Structure prediction by ZEFSAII (Michael W. Deem and Ramdas Pophale) SiO2 
 PCOD9142599
Probable space group: P 2/M
;
_chemical_formula_sum "Si O2"
_cell_formula_units_Z 32
_cell_length_a 28.664223
_cell_length_b 7.343424
_cell_length_c 20.406574
_cell_angle_alpha 90.000000
_cell_angle_beta 19.874538
_cell_angle_gamma 90.000000
_cell_volume 1460.289000
_symmetry_space_group_name_H-M "P 2/M"
_symmetry_group_IT_number 10
_symmetry_cell_setting 'monoclinic'
loop_
_space_group_symop_operation_xyz
x,y,z
-x,y,-z
-x,-y,-z
x,-y,z
loop_
_atom_site_type_symbol
_atom_site_label
_atom_site_fract_x
_atom_site_fract_y
_atom_site_fract_z
Si Si1 0.110433 0.720621 0.449074
Si Si2 0.272770 0.780656 0.782669
Si Si3 0.985895 0.289591 0.093078
Si Si4 0.545942 0.220166 0.342195
Si Si5 0.534495 0.293041 0.207488
Si Si6 0.352019 0.277719 0.225961
Si Si7 0.730800 0.277554 0.516783
Si Si8 0.826425 0.277920 0.784519
O O1 0.111149 0.500000 0.452445
O O2 0.227390 0.782946 0.343786
O O3 0.146464 0.767733 0.326766
O O4 0.952373 0.781305 0.664271
O O5 0.320505 0.722752 0.792399
O O6 0.405267 0.728689 0.564600
O O7 0.264843 0.000000 0.793191
O O8 0.131978 0.715489 0.936984
O O9 0.945023 0.500000 0.136497
O O10 0.870311 0.215000 0.295956
O O11 0.000000 0.211706 0.000000
O O12 0.536629 0.294389 0.282338
O O13 0.548157 0.000000 0.336498
O O14 0.537751 0.500000 0.177110
O O15 0.394855 0.217142 0.363235
O O16 0.677624 0.206605 0.998367
O O17 0.356134 0.500000 0.220736
O O18 0.311141 0.221529 0.353944
O O19 0.500000 0.220941 0.000000
O O20 0.739751 0.500000 0.507729
O O21 0.825651 0.500000 0.789543
#
# Coordination Sequence:
#
# PCOD9142599 Si02
#       8
#     4   4   4   4   4   4   4   4
#     4   8  13  22  35  55  87 122 154 190 235 279
#     4   9  19  36  54  70  91 122 160 197 234 280
#     4  10  20  33  49  71 102 134 158 190 239 285
#     4   9  19  35  52  70  93 120 152 196 243 281
#     4  10  18  29  47  70  95 123 156 192 235 286
#     4   9  15  23  37  56  85 128 164 189 230 285
#     4   9  18  29  41  64  98 129 159 197 236 281
#     4   8  14  23  37  60  89 118 150 193 236 276
#
# _framework density 21.91347
#
# number of rings (size 3 to 8) (size 9 to 14) (size 15 to 20)
#    0.000    3.000    0.000    3.000    0.000    6.250 
#    0.000    4.375    0.000    0.000    0.000    1.750 
#    0.000    9.000    0.000    0.000    0.000    0.000 
#
# Total GULP energy -178416.130951 kJ/mol
# GULP energy per Si atom -5575.504092 kJ/mol
# Density = 2.186359 g / cm^3
# Si number density = 21.913470 Si / 1000 Ang^3
#
#
#
# Elastic Constant Matrix: (Units=GPa)
#
#
# Indices 1 2 3 4 5 6 
#
# 1 156.8953 -3.0224 97.3892 0.0000 -18.4463 0.0000
# 2 -3.0224 78.5568 2.5171 0.0000 3.4636 0.0000
# 3 97.3892 2.5171 179.9689 0.0000 -17.5143 0.0000
# 4 0.0000 0.0000 0.0000 34.9032 0.0000 -24.7934
# 5 -18.4463 3.4636 -17.5143 0.0000 36.3103 0.0000
# 6 0.0000 0.0000 0.0000 -24.7934 0.0000 34.2476
#
#
#
# Elastic Compliance Matrix: (Units=1/GPa)
#
#
# Indices 1 2 3 4 5 6 
#
# 1 0.009831 0.000431 -0.005083 0.000000 0.002502 0.000000
# 2 0.000431 0.012819 -0.000535 0.000000 -0.001262 0.000000
# 3 -0.005083 -0.000535 0.008465 0.000000 0.001552 0.000000
# 4 0.000000 0.000000 0.000000 0.058982 0.000000 0.042700
# 5 0.002502 -0.001262 0.001552 0.000000 0.029680 0.000000
# 6 0.000000 0.000000 0.000000 0.042700 0.000000 0.060111
#
#
# Mechanical properties :
#
#
# Convention : Reuss Voigt Hill
#
# Bulk Modulus (GPa) = 48.21258 67.68764 57.95011
# Shear Modulus (GPa) = 25.35785 42.32804 33.84295
#
# Velocity S-wave (km/s) = 3.40543 4.39976 3.93414
# Velocity P-wave (km/s) = 6.12468 7.53434 6.86578
#
# Compressibility (1/GPa) = 0.02074147
#
# Stress axis : x y z
#
# Youngs Moduli (GPa) = 101.71933 78.00909 118.12703
#
# Poissons Ratio (x) = -0.03361 0.60039
# Poissons Ratio (y) = -0.04382 0.06323
# Poissons Ratio (z) = 0.51699 0.04175
#
# Static dielectric constant tensor:
#      x y z
#    x 1.765360 0.000000 0.008250 
#    y 0.000000 1.902000 0.000000 
#    z 0.008250 0.000000 1.797240 
# 
# From -- ./inp_files/86890.got.cif
#   From: 2010.05.17/outbox.cif.g08.bks.cpg/sg10_44_cif.got.tgz:86890.got - 2010.06.03 11:33:40.
