data_PCOD9142610
_publ_section_title
;
Structure prediction by ZEFSAII (Michael W. Deem and Ramdas Pophale) SiO2 
 PCOD9142610
Probable space group: P 2/M
;
_chemical_formula_sum "Si O2"
_cell_formula_units_Z 28
_cell_length_a 16.816882
_cell_length_b 7.565022
_cell_length_c 20.806165
_cell_angle_alpha 90.000000
_cell_angle_beta 28.517644
_cell_angle_gamma 90.000000
_cell_volume 1263.737400
_symmetry_space_group_name_H-M "P 2/M"
_symmetry_group_IT_number 10
_symmetry_cell_setting 'monoclinic'
loop_
_space_group_symop_operation_xyz
x,y,z
-x,y,-z
-x,-y,-z
x,-y,z
loop_
_atom_site_type_symbol
_atom_site_label
_atom_site_fract_x
_atom_site_fract_y
_atom_site_fract_z
Si Si1 0.576326 0.798829 0.355185
Si Si2 0.391766 0.203814 0.019561
Si Si3 0.024277 0.215874 0.249452
Si Si4 0.130679 0.786987 0.775295
Si Si5 0.527547 0.706738 0.173975
Si Si6 0.302487 0.213605 0.453242
Si Si7 0.800945 0.709992 0.078279
O O1 0.684977 0.720550 0.336379
O O2 0.417840 0.719396 0.430724
O O3 0.714790 0.801557 0.199779
O O4 0.529784 0.000000 0.405289
O O5 0.209092 0.280796 0.133981
O O6 0.359873 0.000000 0.060920
O O7 0.500000 0.284975 0.000000
O O8 0.490475 0.206376 0.882241
O O9 0.947509 0.276680 0.236017
O O10 0.887207 0.264422 0.399912
O O11 0.030304 0.000000 0.241157
O O12 0.143822 0.000000 0.762985
O O13 0.992825 0.741567 0.926854
O O14 0.548222 0.500000 0.147051
O O15 0.382560 0.730906 0.329165
O O16 0.694506 0.771739 0.091750
O O17 0.313034 0.000000 0.447883
O O18 0.773925 0.500000 0.105792
#
# Coordination Sequence:
#
# PCOD9142610 Si02
#       7
#     4   4   4   4   4   4   4
#     4   9  18  29  45  71 100 136 176 213 254 299
#     4  10  20  36  60  86 107 130 166 212 262 315
#     4   9  18  33  54  79 105 135 171 215 263 309
#     4  10  18  29  47  71 102 135 172 216 259 303
#     4  10  20  35  55  79 106 139 176 212 255 308
#     4   9  18  34  54  75 105 142 177 212 254 305
#     4  10  19  30  46  70 101 137 176 214 253 299
#
# _framework density 22.156503000000001
#
# number of rings (size 3 to 8) (size 9 to 14) (size 15 to 20)
#    0.000    2.429    1.429    1.286    0.000    4.286 
#    0.000    5.000    0.000    4.286    0.000    5.000 
#    0.000    0.000    0.000    0.000    0.000    0.000 
#
# Total GULP energy -156341.163171 kJ/mol
# GULP energy per Si atom -5583.612970 kJ/mol
# Density = 2.210607 g / cm^3
# Si number density = 22.156503 Si / 1000 Ang^3
#
#
#
# Elastic Constant Matrix: (Units=GPa)
#
#
# Indices 1 2 3 4 5 6 
#
# 1 150.2061 6.7424 54.5495 0.0000 -12.5876 0.0000
# 2 6.7424 60.4047 -1.2997 0.0000 -5.1038 0.0000
# 3 54.5495 -1.2997 118.4220 0.0000 -2.6620 0.0000
# 4 0.0000 0.0000 0.0000 244.2759 0.0000 156.6795
# 5 -12.5876 -5.1038 -2.6620 0.0000 20.2927 0.0000
# 6 0.0000 0.0000 0.0000 156.6795 0.0000 102.4586
#
#
#
# Elastic Compliance Matrix: (Units=1/GPa)
#
#
# Indices 1 2 3 4 5 6 
#
# 1 0.008449 -0.000638 -0.003796 0.000000 0.004582 0.000000
# 2 -0.000638 0.016972 0.000569 0.000000 0.003948 0.000000
# 3 -0.003796 0.000569 0.010179 0.000000 -0.000876 0.000000
# 4 0.000000 0.000000 0.000000 0.213589 0.000000 -0.326620
# 5 0.004582 0.003948 -0.000876 0.000000 0.052999 0.000000
# 6 0.000000 0.000000 0.000000 -0.326620 0.000000 0.509227
#
#
# Mechanical properties :
#
#
# Convention : Reuss Voigt Hill
#
# Bulk Modulus (GPa) = 35.87983 49.89079 42.88531
# Shear Modulus (GPa) = 6.03548 91.34147 48.68848
#
# Velocity S-wave (km/s) = 1.65225 6.42768 4.69281
# Velocity P-wave (km/s) = 4.45745 8.81210 6.98291
#
# Compressibility (1/GPa) = 0.02787081
#
# Stress axis : x y z
#
# Youngs Moduli (GPa) = 118.36236 58.92070 98.23780
#
# Poissons Ratio (x) = 0.03756 0.37288
# Poissons Ratio (y) = 0.07546 -0.05587
# Poissons Ratio (z) = 0.44927 -0.03351
#
# Static dielectric constant tensor:
#      x y z
#    x 1.842330 0.000000 -0.003470 
#    y 0.000000 1.811540 0.000000 
#    z -0.003470 0.000000 1.800390 
# 
# From -- ./inp_files/54659.got.cif
#   From: 2010.05.17/outbox.cif.g08.bks.cpg/sg10_28_cif.got.tgz:54659.got - 2010.06.03 11:33:40.
