data_PCOD9142671
_publ_section_title
;
Structure prediction by ZEFSAII (Michael W. Deem and Ramdas Pophale) SiO2 
 PCOD9142671
Probable space group: P 2/M
;
_chemical_formula_sum "Si O2"
_cell_formula_units_Z 32
_cell_length_a 27.713433
_cell_length_b 12.403866
_cell_length_c 5.168312
_cell_angle_alpha 90.000000
_cell_angle_beta 86.930465
_cell_angle_gamma 90.000000
_cell_volume 1774.077466
_symmetry_space_group_name_H-M "P 2/M"
_symmetry_group_IT_number 10
_symmetry_cell_setting 'monoclinic'
loop_
_space_group_symop_operation_xyz
x,y,z
-x,y,-z
-x,-y,-z
x,-y,z
loop_
_atom_site_type_symbol
_atom_site_label
_atom_site_fract_x
_atom_site_fract_y
_atom_site_fract_z
Si Si1 0.314356 0.128089 0.939189
Si Si2 0.443899 0.749969 0.551574
Si Si3 0.886461 0.130231 0.096003
Si Si4 0.213902 0.245896 0.994303
Si Si5 0.655544 0.740065 0.574833
Si Si6 0.053922 0.130701 0.421513
Si Si7 0.443022 0.117016 0.053759
Si Si8 0.756712 0.373214 0.520886
O O1 0.258271 0.161529 0.987387
O O2 0.332433 0.178483 0.664266
O O3 0.317940 0.000000 0.945315
O O4 0.342422 0.188544 0.164340
O O5 0.500000 0.711098 0.500000
O O6 0.396485 0.685205 0.468880
O O7 0.433701 0.790043 0.844665
O O8 0.438783 0.850390 0.354348
O O9 0.836006 0.186498 0.048892
O O10 0.908418 0.161996 0.366235
O O11 0.880283 0.000000 0.093536
O O12 0.925359 0.159615 0.863976
O O13 0.226661 0.328679 0.761044
O O14 0.214981 0.308567 0.264845
O O15 0.700048 0.657223 0.572914
O O16 0.000000 0.170183 0.500000
O O17 0.051671 0.000000 0.427882
O O18 0.420635 0.000000 0.003933
O O19 0.500000 0.105101 0.000000
O O20 0.763721 0.500000 0.540901
#
# Coordination Sequence:
#
# PCOD9142671 Si02
#       8
#     4   4   4   4   4   4   4   4
#     4  10  20  33  48  69 101 132 158 192 233 290
#     4  10  19  30  43  61  87 115 147 190 230 269
#     4  10  18  29  48  74 109 145 173 208 245 283
#     4  10  20  34  53  78 100 125 166 204 251 305
#     4  10  21  33  49  71  92 125 162 189 235 297
#     4   9  17  28  43  68 107 154 190 208 230 270
#     4   9  17  27  39  57  83 117 151 180 213 254
#     4  10  21  38  56  72  95 122 155 208 260 303
#
# _framework density 18.037545000000001
#
# number of rings (size 3 to 8) (size 9 to 14) (size 15 to 20)
#    0.000    2.250    0.000    3.375    0.000    6.000 
#    0.000    3.750    0.000    0.375    0.000    0.000 
#    0.000   44.000    0.000    0.000    0.000    1.500 
#
# Total GULP energy -178360.085445 kJ/mol
# GULP energy per Si atom -5573.752670 kJ/mol
# Density = 1.799649 g / cm^3
# Si number density = 18.037545 Si / 1000 Ang^3
#
#
#
# Elastic Constant Matrix: (Units=GPa)
#
#
# Indices 1 2 3 4 5 6 
#
# 1 71.2376 8.7394 -18.9449 0.0000 7.8402 0.0000
# 2 8.7394 32.3100 -3.1358 0.0000 2.3429 0.0000
# 3 -18.9449 -3.1358 70.4630 0.0000 3.8159 0.0000
# 4 0.0000 0.0000 0.0000 -619.5677 0.0000 424.5890
# 5 7.8402 2.3429 3.8159 0.0000 26.0719 0.0000
# 6 0.0000 0.0000 0.0000 424.5890 0.0000 -287.4627
#
#
#
# Elastic Compliance Matrix: (Units=1/GPa)
#
#
# Indices 1 2 3 4 5 6 
#
# 1 0.016246 -0.003580 0.004491 0.000000 -0.005221 0.000000
# 2 -0.003580 0.032111 0.000569 0.000000 -0.001892 0.000000
# 3 0.004491 0.000569 0.015624 0.000000 -0.003689 0.000000
# 4 0.000000 0.000000 0.000000 0.132277 0.000000 0.195376
# 5 -0.005221 -0.001892 -0.003689 0.000000 0.040635 0.000000
# 6 0.000000 0.000000 0.000000 0.195376 0.000000 0.285096
#
#
# Mechanical properties :
#
#
# Convention : Reuss Voigt Hill
#
# Bulk Modulus (GPa) = 14.93824 16.36977 15.65401
# Shear Modulus (GPa) = 9.23631 -163.70158 -77.23263
#
# Velocity S-wave (km/s) = 2.26533 -9.53693 -6.55062
# Velocity P-wave (km/s) = 3.89127 10.59130 6.96540
#
# Compressibility (1/GPa) = 0.06694229
#
# Stress axis : x y z
#
# Youngs Moduli (GPa) = 61.55466 31.14212 64.00213
#
# Poissons Ratio (x) = 0.11148 -0.28745
# Poissons Ratio (y) = 0.22035 -0.03642
# Poissons Ratio (z) = -0.27646 -0.01772
#
# Static dielectric constant tensor:
#      x y z
#    x 1.680650 0.000000 -0.005840 
#    y 0.000000 1.582020 0.000000 
#    z -0.005840 0.000000 1.621950 
# 
# From -- ./inp_files/13174.got.cif
#   From: 2010.05.17/outbox.cif.g08.bks.cpg/sg10_7_cif.got.tgz:13174.got - 2010.06.03 11:33:40.
