data_PCOD9142475
_publ_section_title
;
Structure prediction by ZEFSAII (Michael W. Deem and Ramdas Pophale) SiO2 
 PCOD9142475
Probable space group: P 2/M
;
_chemical_formula_sum "Si O2"
_cell_formula_units_Z 32
_cell_length_a 9.637711
_cell_length_b 13.726416
_cell_length_c 22.690295
_cell_angle_alpha 90.000000
_cell_angle_beta 140.328517
_cell_angle_gamma 90.000000
_cell_volume 1916.256908
_symmetry_space_group_name_H-M "P 2/M"
_symmetry_group_IT_number 10
_symmetry_cell_setting 'monoclinic'
loop_
_space_group_symop_operation_xyz
x,y,z
-x,y,-z
-x,-y,-z
x,-y,z
loop_
_atom_site_type_symbol
_atom_site_label
_atom_site_fract_x
_atom_site_fract_y
_atom_site_fract_z
Si Si1 0.297898 0.106271 0.478643
Si Si2 0.935260 0.383255 0.791215
Si Si3 0.563572 0.613955 0.377633
Si Si4 0.407228 0.287288 0.730272
Si Si5 0.144527 0.611857 0.744754
Si Si6 0.858308 0.385093 0.895362
Si Si7 0.257403 0.685886 0.447239
Si Si8 0.745657 0.113583 0.402057
O O1 0.500000 0.101655 0.500000
O O2 0.173255 0.202732 0.417512
O O3 0.365545 0.122234 0.569259
O O4 0.186809 0.000000 0.440737
O O5 0.926836 0.500000 0.779913
O O6 0.686396 0.347394 0.699878
O O7 0.987677 0.367090 0.876770
O O8 0.107196 0.349779 0.798926
O O9 0.554895 0.500000 0.385689
O O10 0.646041 0.635996 0.339353
O O11 0.717217 0.659793 0.476414
O O12 0.278491 0.317457 0.746366
O O13 0.657412 0.310925 0.827455
O O14 0.349771 0.185708 0.678707
O O15 0.227919 0.500000 0.771236
O O16 0.901668 0.614832 0.638501
O O17 0.783604 0.500000 0.868041
O O18 0.000000 0.374576 0.000000
O O19 0.500000 0.680917 0.500000
O O20 0.000000 0.134842 0.500000
O O21 0.729960 0.000000 0.379344
#
# Coordination Sequence:
#
# PCOD9142475 Si02
#       8
#     4   4   4   4   4   4   4   4
#     4   9  18  31  46  64  85 117 169 219 244 268
#     4   8  16  30  46  66  94 129 163 194 236 289
#     4  10  18  29  43  63  95 134 166 196 231 292
#     4  11  21  33  50  73  99 126 169 213 251 282
#     4  11  21  30  43  68 101 130 161 208 243 279
#     4   9  18  35  57  76  99 133 165 198 251 316
#     4  11  19  28  44  64  93 135 173 195 242 295
#     4  10  20  35  51  69  99 137 171 201 246 303
#
# _framework density 16.699221999999999
#
# number of rings (size 3 to 8) (size 9 to 14) (size 15 to 20)
#    0.000    2.125    2.500    3.000    0.000    0.500 
#    0.000    1.875    0.000    3.375    0.000    0.000 
#    0.000    1.000    0.000    0.000    0.000    0.000 
#
# Total GULP energy -178149.504875 kJ/mol
# GULP energy per Si atom -5567.172027 kJ/mol
# Density = 1.666121 g / cm^3
# Si number density = 16.699222 Si / 1000 Ang^3
#
#
#
# Elastic Constant Matrix: (Units=GPa)
#
#
# Indices 1 2 3 4 5 6 
#
# 1 127.8813 27.8896 34.7218 0.0000 -24.4517 0.0000
# 2 27.8896 86.9999 28.5020 0.0000 -1.9171 0.0000
# 3 34.7218 28.5020 62.4263 0.0000 -19.0869 0.0000
# 4 0.0000 0.0000 0.0000 14.5966 0.0000 -3.5072
# 5 -24.4517 -1.9171 -19.0869 0.0000 18.7984 0.0000
# 6 0.0000 0.0000 0.0000 -3.5072 0.0000 17.5951
#
#
#
# Elastic Compliance Matrix: (Units=1/GPa)
#
#
# Indices 1 2 3 4 5 6 
#
# 1 0.011297 -0.003095 -0.000688 0.000000 0.013681 0.000000
# 2 -0.003095 0.015048 -0.008572 0.000000 -0.011194 0.000000
# 3 -0.000688 -0.008572 0.028677 0.000000 0.027348 0.000000
# 4 0.000000 0.000000 0.000000 0.071955 0.000000 0.014343
# 5 0.013681 -0.011194 0.027348 0.000000 0.097618 0.000000
# 6 0.000000 0.000000 0.000000 0.014343 0.000000 0.059693
#
#
# Mechanical properties :
#
#
# Convention : Reuss Voigt Hill
#
# Bulk Modulus (GPa) = 32.98848 51.05937 42.02392
# Shear Modulus (GPa) = 15.66901 22.61094 19.13997
#
# Velocity S-wave (km/s) = 3.06650 3.68368 3.38917
# Velocity P-wave (km/s) = 5.68642 6.98104 6.36672
#
# Compressibility (1/GPa) = 0.03031362
#
# Stress axis : x y z
#
# Youngs Moduli (GPa) = 88.51678 66.45456 34.87144
#
# Poissons Ratio (x) = 0.20567 0.02398
# Poissons Ratio (y) = 0.27395 0.29891
# Poissons Ratio (z) = 0.06086 0.56963
#
# Static dielectric constant tensor:
#      x y z
#    x 1.663990 0.000000 -0.002190 
#    y 0.000000 1.589380 0.000000 
#    z -0.002190 0.000000 1.541190 
# 
# From -- ./inp_files/82849.got.cif
#   From: 2010.05.17/outbox.cif.g08.bks.cpg/sg10_42_cif.got.tgz:82849.got - 2010.06.03 11:33:40.
