data_PCOD9142576
_publ_section_title
;
Structure prediction by ZEFSAII (Michael W. Deem and Ramdas Pophale) SiO2 
 PCOD9142576
Probable space group: P 2/M
;
_chemical_formula_sum "Si O2"
_cell_formula_units_Z 16
_cell_length_a 5.386947
_cell_length_b 7.287948
_cell_length_c 22.275627
_cell_angle_alpha 90.000000
_cell_angle_beta 111.269023
_cell_angle_gamma 90.000000
_cell_volume 814.969552
_symmetry_space_group_name_H-M "P 2/M"
_symmetry_group_IT_number 10
_symmetry_cell_setting 'monoclinic'
loop_
_space_group_symop_operation_xyz
x,y,z
-x,y,-z
-x,-y,-z
x,-y,z
loop_
_atom_site_type_symbol
_atom_site_label
_atom_site_fract_x
_atom_site_fract_y
_atom_site_fract_z
Si Si1 0.288244 0.209624 0.025496
Si Si2 0.523038 0.000000 0.848692
Si Si3 0.725131 0.278664 0.650093
Si Si4 0.897544 0.000000 0.765029
Si Si5 0.110829 0.277511 0.573892
O O1 0.243763 0.000000 0.995842
O O2 0.402411 0.172088 0.101607
O O3 0.500000 0.296182 0.000000
O O4 0.000000 0.296182 0.000000
O O5 0.711186 0.000000 0.807355
O O6 0.210881 0.000000 0.807355
O O7 0.736061 0.500000 0.657378
O O8 0.417844 0.225172 0.611024
O O9 0.915203 0.225173 0.611021
O O10 0.826823 0.175585 0.717883
O O11 0.108428 0.500000 0.572291
O O12 0.000000 0.214567 0.500000
#
# Coordination Sequence:
#
# PCOD9142576 Si02
#       5
#     4   2   4   2   4
#     4   8  13  24  42  66  98 122 152 206 244 264
#     4  10  18  29  46  72 103 130 165 202 229 286
#     4  10  21  36  51  71 100 128 159 202 244 287
#     4  12  22  33  49  72 102 136 165 188 235 294
#     4   9  17  33  56  74  91 122 162 205 252 292
#
# _framework density 19.632636000000002
#
# number of rings (size 3 to 8) (size 9 to 14) (size 15 to 20)
#    0.750    1.750    0.000    3.750    0.000    3.000 
#    0.000    3.750    0.000    0.000    0.000    0.000 
#    0.000   80.000    0.000    0.000    0.000    0.000 
#
# Total GULP energy -89214.980162 kJ/mol
# GULP energy per Si atom -5575.936260 kJ/mol
# Density = 1.958795 g / cm^3
# Si number density = 19.632636 Si / 1000 Ang^3
#
#
#
# Elastic Constant Matrix: (Units=GPa)
#
#
# Indices 1 2 3 4 5 6 
#
# 1 268.1695 32.7786 134.4896 0.0000 1.0757 0.0000
# 2 32.7786 82.5328 33.8483 0.0000 -0.0390 0.0000
# 3 134.4896 33.8483 184.2655 0.0000 1.9727 0.0000
# 4 0.0000 0.0000 0.0000 -44.8875 0.0000 1.0827
# 5 1.0757 -0.0390 1.9727 0.0000 51.9957 0.0000
# 6 0.0000 0.0000 0.0000 1.0827 0.0000 -15.0988
#
#
#
# Elastic Compliance Matrix: (Units=1/GPa)
#
#
# Indices 1 2 3 4 5 6 
#
# 1 0.005912 -0.000625 -0.004200 0.000000 0.000037 0.000000
# 2 -0.000625 0.013170 -0.001964 0.000000 0.000097 0.000000
# 3 -0.004200 -0.001964 0.008856 0.000000 -0.000251 0.000000
# 4 0.000000 0.000000 0.000000 -0.022316 0.000000 -0.001600
# 5 0.000037 0.000097 -0.000251 0.000000 0.019241 0.000000
# 6 0.000000 0.000000 0.000000 -0.001600 0.000000 -0.066345
#
#
# Mechanical properties :
#
#
# Convention : Reuss Voigt Hill
#
# Bulk Modulus (GPa) = 69.64292 104.13342 86.88817
# Shear Modulus (GPa) = -216.29076 20.65863 -97.81607
#
# Velocity S-wave (km/s) = -10.50753 3.24737 -7.06621
# Velocity P-wave (km/s) = 10.56697 8.19858 4.71403
#
# Compressibility (1/GPa) = 0.01435896
#
# Stress axis : x y z
#
# Youngs Moduli (GPa) = 169.15354 75.92879 112.91623
#
# Poissons Ratio (x) = 0.04747 0.47429
# Poissons Ratio (y) = 0.10576 0.22176
# Poissons Ratio (z) = 0.71051 0.14912
#
# Static dielectric constant tensor:
#      x y z
#    x 0.508180 0.000000 -0.041300 
#    y 0.000000 1.717330 0.000000 
#    z -0.041300 0.000000 1.643870 
# 
# From -- ./inp_files/80848.got.cif
#   From: 2010.05.17/outbox.cif.g08.bks.cpg/sg10_41_cif.got.tgz:80848.got - 2010.06.03 11:33:40.
