data_PCOD9142531
_publ_section_title
;
Structure prediction by ZEFSAII (Michael W. Deem and Ramdas Pophale) SiO2 
 PCOD9142531
Probable space group: P 2/M
;
_chemical_formula_sum "Si O2"
_cell_formula_units_Z 32
_cell_length_a 16.407311
_cell_length_b 18.133865
_cell_length_c 18.706831
_cell_angle_alpha 90.000000
_cell_angle_beta 21.496985
_cell_angle_gamma 90.000000
_cell_volume 2039.601971
_symmetry_space_group_name_H-M "P 2/M"
_symmetry_group_IT_number 10
_symmetry_cell_setting 'monoclinic'
loop_
_space_group_symop_operation_xyz
x,y,z
-x,y,-z
-x,-y,-z
x,-y,z
loop_
_atom_site_type_symbol
_atom_site_label
_atom_site_fract_x
_atom_site_fract_y
_atom_site_fract_z
Si Si1 0.142383 0.672112 0.170403
Si Si2 0.232630 0.583791 0.233192
Si Si3 0.284687 0.583650 0.498838
Si Si4 0.488232 0.694961 0.430068
Si Si5 0.047992 0.794076 0.769405
Si Si6 0.408880 0.087718 0.493586
Si Si7 0.425708 0.415206 0.220755
Si Si8 0.208212 0.179220 0.877100
O O1 0.145820 0.647980 0.251571
O O2 0.954551 0.618896 0.290888
O O3 0.072401 0.753863 0.200129
O O4 0.379967 0.644273 0.948014
O O5 0.146371 0.500000 0.287405
O O6 0.237169 0.596518 0.314545
O O7 0.500000 0.581153 0.000000
O O8 0.290428 0.500000 0.517137
O O9 0.468010 0.631273 0.389192
O O10 0.329602 0.588656 0.377986
O O11 0.500000 0.665063 0.500000
O O12 0.260686 0.742376 0.612720
O O13 0.687425 0.749513 0.247208
O O14 0.176433 0.872748 0.662554
O O15 0.876770 0.799744 0.974945
O O16 0.500000 0.107803 0.500000
O O17 0.597220 0.118778 0.286400
O O18 0.389112 0.000000 0.507382
O O19 0.509545 0.500000 0.141417
O O20 0.000000 0.152719 0.000000
#
# Coordination Sequence:
#
# PCOD9142531 Si02
#       8
#     4   4   4   4   4   4   4   4
#     4  10  18  29  46  64  88 119 151 181 222 275
#     4   8  14  26  45  66  91 120 148 184 231 277
#     4  10  20  30  43  62  85 119 159 198 237 269
#     4  10  19  31  44  61  86 118 160 201 226 260
#     4  10  19  31  46  67  91 119 149 182 221 267
#     4  10  20  32  47  71  97 116 145 186 220 264
#     4   9  17  30  45  65  93 120 150 192 236 278
#     4  11  17  30  50  65  83 118 154 178 221 271
#
# _framework density 15.689337
#
# number of rings (size 3 to 8) (size 9 to 14) (size 15 to 20)
#    0.000    2.250    2.500    3.375    0.000    1.500 
#    0.000    1.875    0.000    0.375    0.000    0.000 
#    0.000    4.500    0.000   37.500    0.000    3.250 
#
# Total GULP energy -178161.663378 kJ/mol
# GULP energy per Si atom -5567.551981 kJ/mol
# Density = 1.565363 g / cm^3
# Si number density = 15.689337 Si / 1000 Ang^3
#
#
#
# Elastic Constant Matrix: (Units=GPa)
#
#
# Indices 1 2 3 4 5 6 
#
# 1 73.1473 37.9309 15.9311 0.0000 4.6634 0.0000
# 2 37.9309 80.6717 23.8096 0.0000 0.2690 0.0000
# 3 15.9311 23.8096 62.5339 0.0000 0.8266 0.0000
# 4 0.0000 0.0000 0.0000 10.0065 0.0000 -7.8004
# 5 4.6634 0.2690 0.8266 0.0000 21.5984 0.0000
# 6 0.0000 0.0000 0.0000 -7.8004 0.0000 22.9967
#
#
#
# Elastic Compliance Matrix: (Units=1/GPa)
#
#
# Indices 1 2 3 4 5 6 
#
# 1 0.018525 -0.008246 -0.001529 0.000000 -0.003839 0.000000
# 2 -0.008246 0.017636 -0.004637 0.000000 0.001738 0.000000
# 3 -0.001529 -0.004637 0.018150 0.000000 -0.000307 0.000000
# 4 0.000000 0.000000 0.000000 0.135859 0.000000 0.046083
# 5 -0.003839 0.001738 -0.000307 0.000000 0.047119 0.000000
# 6 0.000000 0.000000 0.000000 0.046083 0.000000 0.059116
#
#
# Mechanical properties :
#
#
# Convention : Reuss Voigt Hill
#
# Bulk Modulus (GPa) = 39.23568 41.29957 40.26762
# Shear Modulus (GPa) = 14.98242 20.16572 17.57407
#
# Velocity S-wave (km/s) = 3.09357 3.58902 3.35046
# Velocity P-wave (km/s) = 6.14999 6.59964 6.37878
#
# Compressibility (1/GPa) = 0.02548701
#
# Stress axis : x y z
#
# Youngs Moduli (GPa) = 53.98159 56.70243 55.09505
#
# Poissons Ratio (x) = 0.46757 0.08424
# Poissons Ratio (y) = 0.44514 0.25548
# Poissons Ratio (z) = 0.08254 0.26293
#
# Static dielectric constant tensor:
#      x y z
#    x 1.556080 0.000000 0.011780 
#    y 0.000000 1.521260 0.000000 
#    z 0.011780 0.000000 1.572000 
# 
# From -- ./inp_files/85993.got.cif
#   From: 2010.05.17/outbox.cif.g08.bks.cpg/sg10_43_cif.got.tgz:85993.got - 2010.06.03 11:33:40.
