data_PCOD9142856
_publ_section_title
;
Structure prediction by ZEFSAII (Michael W. Deem and Ramdas Pophale) SiO2 
 PCOD9142856
Probable space group: P 2/M
;
_chemical_formula_sum "Si O2"
_cell_formula_units_Z 32
_cell_length_a 19.456409
_cell_length_b 13.390007
_cell_length_c 23.016352
_cell_angle_alpha 90.000000
_cell_angle_beta 162.357681
_cell_angle_gamma 90.000000
_cell_volume 1817.307564
_symmetry_space_group_name_H-M "P 2/M"
_symmetry_group_IT_number 10
_symmetry_cell_setting 'monoclinic'
loop_
_space_group_symop_operation_xyz
x,y,z
-x,y,-z
-x,-y,-z
x,-y,z
loop_
_atom_site_type_symbol
_atom_site_label
_atom_site_fract_x
_atom_site_fract_y
_atom_site_fract_z
Si Si1 0.078857 0.621849 0.000130
Si Si2 0.071380 0.380975 0.241394
Si Si3 0.829577 0.117784 0.313546
Si Si4 0.595134 0.378583 0.389304
Si Si5 0.761691 0.378894 0.394774
Si Si6 0.303326 0.315192 0.978526
Si Si7 0.702520 0.116471 0.083759
Si Si8 0.748301 0.616552 0.189234
O O1 0.073918 0.500000 0.996812
O O2 0.336773 0.651033 0.193524
O O3 0.000000 0.655687 0.000000
O O4 0.923833 0.655334 0.821028
O O5 0.103159 0.500000 0.264806
O O6 0.248351 0.341952 0.431513
O O7 0.823769 0.359493 0.068524
O O8 0.824974 0.150719 0.242307
O O9 0.000000 0.157656 0.500000
O O10 0.884795 0.000000 0.352697
O O11 0.568339 0.122953 0.123539
O O12 0.601937 0.500000 0.394589
O O13 0.689422 0.348737 0.402189
O O14 0.748895 0.500000 0.380205
O O15 0.571547 0.333758 0.200027
O O16 0.022463 0.348893 0.594995
O O17 0.247432 0.198969 0.924263
O O18 0.216975 0.372956 0.851829
O O19 0.755167 0.000000 0.114083
O O20 0.731387 0.500000 0.191680
O O21 0.500000 0.662910 0.000000
#
# Coordination Sequence:
#
# PCOD9142856 Si02
#       8
#     4   4   4   4   4   4   4   4
#     4   9  17  28  44  69  98 125 158 197 230 270
#     4  10  18  30  48  68  94 131 165 191 229 284
#     4   8  15  33  55  67  83 114 148 194 258 310
#     4   9  16  28  46  65  91 125 161 194 228 278
#     4  10  19  33  51  70  92 128 170 203 241 289
#     4  12  21  31  52  70  93 129 168 197 244 300
#     4   9  20  34  48  71  96 117 153 205 251 297
#     4  10  22  36  48  68  98 123 161 216 252 278
#
# _framework density 17.608466
#
# number of rings (size 3 to 8) (size 9 to 14) (size 15 to 20)
#    0.000    2.375    2.500    1.875    1.750    2.000 
#    0.000    4.375    0.000    0.000    0.000    0.000 
#    0.000    0.500    0.000    1.250    0.000    0.250 
#
# Total GULP energy -178399.902308 kJ/mol
# GULP energy per Si atom -5574.996947 kJ/mol
# Density = 1.756839 g / cm^3
# Si number density = 17.608466 Si / 1000 Ang^3
#
#
#
# Elastic Constant Matrix: (Units=GPa)
#
#
# Indices 1 2 3 4 5 6 
#
# 1 38.0077 -10.0950 11.7188 0.0000 -10.9110 0.0000
# 2 -10.0950 33.0900 11.1435 0.0000 -4.6016 0.0000
# 3 11.7188 11.1435 106.7162 0.0000 -22.3804 0.0000
# 4 0.0000 0.0000 0.0000 13.7817 0.0000 -5.4855
# 5 -10.9110 -4.6016 -22.3804 0.0000 26.0963 0.0000
# 6 0.0000 0.0000 0.0000 -5.4855 0.0000 8.3550
#
#
#
# Elastic Compliance Matrix: (Units=1/GPa)
#
#
# Indices 1 2 3 4 5 6 
#
# 1 0.034874 0.013442 -0.002046 0.000000 0.015196 0.000000
# 2 0.013442 0.036740 -0.003384 0.000000 0.009196 0.000000
# 3 -0.002046 -0.003384 0.011759 0.000000 0.008632 0.000000
# 4 0.000000 0.000000 0.000000 0.098230 0.000000 0.064493
# 5 0.015196 0.009196 0.008632 0.000000 0.053698 0.000000
# 6 0.000000 0.000000 0.000000 0.064493 0.000000 0.162032
#
#
# Mechanical properties :
#
#
# Convention : Reuss Voigt Hill
#
# Bulk Modulus (GPa) = 10.06082 22.59429 16.32756
# Shear Modulus (GPa) = 12.06442 20.64969 16.35706
#
# Velocity S-wave (km/s) = 2.62037 3.42821 3.05114
# Velocity P-wave (km/s) = 3.85761 5.34130 4.65890
#
# Compressibility (1/GPa) = 0.09939544
#
# Stress axis : x y z
#
# Youngs Moduli (GPa) = 28.67474 27.21851 85.04055
#
# Poissons Ratio (x) = -0.36586 0.17402
# Poissons Ratio (y) = -0.38543 0.28777
# Poissons Ratio (z) = 0.05868 0.09210
#
# Static dielectric constant tensor:
#      x y z
#    x 1.619490 0.000000 -0.011270 
#    y 0.000000 1.621420 0.000000 
#    z -0.011270 0.000000 1.666290 
# 
# From -- ./inp_files/79715.got.cif
#   From: 2010.05.17/outbox.cif.g08.bks.cpg/sg10_40_cif.got.tgz:79715.got - 2010.06.03 11:33:40.
