data_PCOD9142847
_publ_section_title
;
Structure prediction by ZEFSAII (Michael W. Deem and Ramdas Pophale) SiO2 
 PCOD9142847
Probable space group: P 2/M
;
_chemical_formula_sum "Si O2"
_cell_formula_units_Z 28
_cell_length_a 28.259635
_cell_length_b 8.092670
_cell_length_c 13.968139
_cell_angle_alpha 90.000000
_cell_angle_beta 148.803026
_cell_angle_gamma 90.000000
_cell_volume 1654.670241
_symmetry_space_group_name_H-M "P 2/M"
_symmetry_group_IT_number 10
_symmetry_cell_setting 'monoclinic'
loop_
_space_group_symop_operation_xyz
x,y,z
-x,y,-z
-x,-y,-z
x,-y,z
loop_
_atom_site_type_symbol
_atom_site_label
_atom_site_fract_x
_atom_site_fract_y
_atom_site_fract_z
Si Si1 0.275556 0.308713 0.692252
Si Si2 0.387185 0.809717 0.710343
Si Si3 0.708063 0.696153 0.645161
Si Si4 0.565377 0.700684 0.910293
Si Si5 0.102811 0.696039 0.283246
Si Si6 0.097379 0.193763 0.054682
Si Si7 0.467854 0.298919 0.547565
O O1 0.257325 0.500000 0.684369
O O2 0.342954 0.297248 0.717543
O O3 0.179839 0.237133 0.488867
O O4 0.335892 0.238118 0.883407
O O5 0.325150 0.786455 0.508568
O O6 0.487738 0.757370 0.850646
O O7 0.386803 0.000000 0.740207
O O8 0.697297 0.500000 0.609581
O O9 0.813691 0.735478 0.843757
O O10 0.635975 0.744294 0.602663
O O11 0.565774 0.500000 0.912119
O O12 0.531817 0.754204 0.747132
O O13 0.118247 0.500000 0.296373
O O14 0.110987 0.775622 0.192281
O O15 0.999376 0.724442 0.138055
O O16 0.090617 0.000000 0.026126
O O17 0.500000 0.237668 0.500000
O O18 0.471943 0.500000 0.552385
#
# Coordination Sequence:
#
# PCOD9142847 Si02
#       7
#     4   4   4   4   4   4   4
#     4  10  19  30  44  62  88 124 157 184 219 266
#     4  11  20  28  41  63  91 122 155 189 220 259
#     4  10  18  30  48  67  91 122 154 187 228 277
#     4   9  18  31  46  64  89 120 152 184 224 275
#     4  10  19  30  45  62  88 125 161 190 223 264
#     4  11  20  30  44  65  92 120 155 193 229 263
#     4   8  15  29  50  73  92 112 145 190 234 274
#
# _framework density 16.921800000000001
#
# number of rings (size 3 to 8) (size 9 to 14) (size 15 to 20)
#    0.000    2.143    1.429    5.571    0.000    2.857 
#    0.000    0.000    0.000   10.714    0.000    1.000 
#    0.000    8.000    0.000    0.000    0.000    0.000 
#
# Total GULP energy -156131.559396 kJ/mol
# GULP energy per Si atom -5576.127121 kJ/mol
# Density = 1.688329 g / cm^3
# Si number density = 16.921800 Si / 1000 Ang^3
#
#
#
# Elastic Constant Matrix: (Units=GPa)
#
#
# Indices 1 2 3 4 5 6 
#
# 1 74.0799 -8.6306 46.6120 0.0000 6.3199 0.0000
# 2 -8.6306 25.8877 -4.8545 0.0000 -0.8909 0.0000
# 3 46.6120 -4.8545 141.6172 0.0000 20.1861 0.0000
# 4 0.0000 0.0000 0.0000 -2.3735 0.0000 6.5334
# 5 6.3199 -0.8909 20.1861 0.0000 14.0034 0.0000
# 6 0.0000 0.0000 0.0000 6.5334 0.0000 -11.1968
#
#
#
# Elastic Compliance Matrix: (Units=1/GPa)
#
#
# Indices 1 2 3 4 5 6 
#
# 1 0.017605 0.004818 -0.005715 0.000000 0.000599 0.000000
# 2 0.004818 0.040202 -0.000330 0.000000 0.000859 0.000000
# 3 -0.005715 -0.000330 0.010782 0.000000 -0.012984 0.000000
# 4 0.000000 0.000000 0.000000 0.695028 0.000000 0.405551
# 5 0.000599 0.000859 -0.012984 0.000000 0.089912 0.000000
# 6 0.000000 0.000000 0.000000 0.405551 0.000000 0.147329
#
#
# Mechanical properties :
#
#
# Convention : Reuss Voigt Hill
#
# Bulk Modulus (GPa) = 15.12052 34.20430 24.66241
# Shear Modulus (GPa) = 4.87635 13.98381 9.43008
#
# Velocity S-wave (km/s) = 1.69940 2.87780 2.36323
# Velocity P-wave (km/s) = 3.57848 5.59458 4.69600
#
# Compressibility (1/GPa) = 0.06613529
#
# Stress axis : x y z
#
# Youngs Moduli (GPa) = 56.80215 24.87421 92.75025
#
# Poissons Ratio (x) = -0.11985 0.53005
# Poissons Ratio (y) = -0.27368 0.03063
# Poissons Ratio (z) = 0.32461 0.00821
#
# Static dielectric constant tensor:
#      x y z
#    x 1.544890 0.000000 0.011090 
#    y 0.000000 1.589060 0.000000 
#    z 0.011090 0.000000 1.627490 
# 
# From -- ./inp_files/72479.got.cif
#   From: 2010.05.17/outbox.cif.g08.bks.cpg/sg10_37_cif.got.tgz:72479.got - 2010.06.03 11:33:40.
