data_PCOD9142295
_publ_section_title
;
Structure prediction by ZEFSAII (Michael W. Deem and Ramdas Pophale) SiO2 
 PCOD9142295
Probable space group: P 2/M
;
_chemical_formula_sum "Si O2"
_cell_formula_units_Z 32
_cell_length_a 16.324724
_cell_length_b 8.804615
_cell_length_c 16.470482
_cell_angle_alpha 90.000000
_cell_angle_beta 110.297121
_cell_angle_gamma 90.000000
_cell_volume 2220.352921
_symmetry_space_group_name_H-M "P 2/M"
_symmetry_group_IT_number 10
_symmetry_cell_setting 'monoclinic'
loop_
_space_group_symop_operation_xyz
x,y,z
-x,y,-z
-x,-y,-z
x,-y,z
loop_
_atom_site_type_symbol
_atom_site_label
_atom_site_fract_x
_atom_site_fract_y
_atom_site_fract_z
Si Si1 0.486015 0.825559 0.092890
Si Si2 0.831641 0.319121 0.322213
Si Si3 0.022402 0.318096 0.317247
Si Si4 0.866499 0.181810 0.976086
Si Si5 0.025046 0.317027 0.130257
Si Si6 0.693673 0.680011 0.988187
Si Si7 0.901604 0.825172 0.502822
Si Si8 0.320784 0.817575 0.836656
O O1 0.580728 0.776410 0.157877
O O2 0.468183 0.000000 0.110889
O O3 0.500000 0.825727 0.000000
O O4 0.401596 0.724097 0.079297
O O5 0.820628 0.500000 0.312416
O O6 0.843804 0.269330 0.419744
O O7 0.752301 0.235710 0.250995
O O8 0.922757 0.278050 0.308161
O O9 0.029740 0.500000 0.328829
O O10 0.037596 0.278480 0.228851
O O11 0.087527 0.240906 0.403453
O O12 0.770524 0.238411 0.965601
O O13 0.934192 0.248678 0.065818
O O14 0.871738 0.000000 0.977525
O O15 0.901030 0.248554 0.902780
O O16 0.022434 0.500000 0.121073
O O17 0.706397 0.500000 0.992035
O O18 0.696238 0.740651 0.081869
O O19 0.000000 0.818850 0.500000
O O20 0.873685 0.000000 0.494368
O O21 0.319325 0.000000 0.846919
#
# Coordination Sequence:
#
# PCOD9142295 Si02
#       8
#     4   4   4   4   4   4   4   4
#     4   8  16  30  44  60  84 112 140 174 214 254
#     4  10  18  28  43  63  88 116 146 176 210 253
#     4   9  18  30  44  61  83 113 144 177 216 255
#     4  11  21  32  45  62  86 115 147 181 218 256
#     4  10  19  32  47  64  87 112 144 184 221 255
#     4  11  20  30  45  63  84 113 148 181 215 254
#     4   9  17  28  42  60  83 111 143 178 212 249
#     4  10  19  30  44  63  88 115 144 177 214 256
#
# _framework density 14.412122999999999
#
# number of rings (size 3 to 8) (size 9 to 14) (size 15 to 20)
#    0.000    2.250    0.000    6.000    0.000    6.750 
#    0.000    0.000    0.000    0.000    0.000    0.000 
#    0.000    1.000    0.000   10.500    0.000    4.500 
#
# Total GULP energy -178435.420156 kJ/mol
# GULP energy per Si atom -5576.106880 kJ/mol
# Density = 1.437932 g / cm^3
# Si number density = 14.412123 Si / 1000 Ang^3
#
#
#
# Elastic Constant Matrix: (Units=GPa)
#
#
# Indices 1 2 3 4 5 6 
#
# 1 76.5436 37.3272 35.7579 0.0000 4.1166 0.0000
# 2 37.3272 77.4847 37.9387 0.0000 -0.4974 0.0000
# 3 35.7579 37.9387 88.6019 0.0000 0.0219 0.0000
# 4 0.0000 0.0000 0.0000 19.3896 0.0000 3.4588
# 5 4.1166 -0.4974 0.0219 0.0000 18.6620 0.0000
# 6 0.0000 0.0000 0.0000 3.4588 0.0000 18.2725
#
#
#
# Elastic Compliance Matrix: (Units=1/GPa)
#
#
# Indices 1 2 3 4 5 6 
#
# 1 0.018793 -0.006792 -0.004675 0.000000 -0.004321 0.000000
# 2 -0.006792 0.018788 -0.005304 0.000000 0.002005 0.000000
# 3 -0.004675 -0.005304 0.015444 0.000000 0.000872 0.000000
# 4 0.000000 0.000000 0.000000 0.053376 0.000000 -0.010104
# 5 -0.004321 0.002005 0.000872 0.000000 0.054591 0.000000
# 6 0.000000 0.000000 0.000000 -0.010104 0.000000 0.056640
#
#
# Mechanical properties :
#
#
# Convention : Reuss Voigt Hill
#
# Bulk Modulus (GPa) = 51.32835 51.63087 51.47961
# Shear Modulus (GPa) = 19.40482 20.03857 19.72169
#
# Velocity S-wave (km/s) = 3.67334 3.73285 3.70322
# Velocity P-wave (km/s) = 7.32689 7.38114 7.35407
#
# Compressibility (1/GPa) = 0.01948241
#
# Stress axis : x y z
#
# Youngs Moduli (GPa) = 53.21117 53.22654 64.74920
#
# Poissons Ratio (x) = 0.36151 0.30271
# Poissons Ratio (y) = 0.36141 0.34344
# Poissons Ratio (z) = 0.24877 0.28232
#
# Static dielectric constant tensor:
#      x y z
#    x 1.470830 0.000000 0.008250 
#    y 0.000000 1.481400 0.000000 
#    z 0.008250 0.000000 1.462880 
# 
# From -- ./inp_files/66191.got.cif
#   From: 2010.05.17/outbox.cif.g08.bks.cpg/sg10_34_cif.got.tgz:66191.got - 2010.06.03 11:33:40.
