data_PCOD9142699
_publ_section_title
;
Structure prediction by ZEFSAII (Michael W. Deem and Ramdas Pophale) SiO2 
 PCOD9142699
Probable space group: P 2/M
;
_chemical_formula_sum "Si O2"
_cell_formula_units_Z 32
_cell_length_a 26.766623
_cell_length_b 7.445635
_cell_length_c 21.799743
_cell_angle_alpha 90.000000
_cell_angle_beta 20.086827
_cell_angle_gamma 90.000000
_cell_volume 1492.115181
_symmetry_space_group_name_H-M "P 2/M"
_symmetry_group_IT_number 10
_symmetry_cell_setting 'monoclinic'
loop_
_space_group_symop_operation_xyz
x,y,z
-x,y,-z
-x,-y,-z
x,-y,z
loop_
_atom_site_type_symbol
_atom_site_label
_atom_site_fract_x
_atom_site_fract_y
_atom_site_fract_z
Si Si1 0.006680 0.719981 0.922014
Si Si2 0.809762 0.703986 0.043524
Si Si3 0.633288 0.780494 0.888827
Si Si4 0.078973 0.209445 0.650342
Si Si5 0.253808 0.784339 0.115843
Si Si6 0.927295 0.219128 0.482469
Si Si7 0.719899 0.716810 0.474870
Si Si8 0.397780 0.285516 0.819358
O O1 0.003918 0.500000 0.924073
O O2 0.872831 0.783497 0.033701
O O3 0.000000 0.776559 0.000000
O O4 0.155615 0.775153 0.716532
O O5 0.764947 0.500000 0.109879
O O6 0.685143 0.787798 0.144862
O O7 0.951024 0.698014 0.836157
O O8 0.639217 0.722821 0.953145
O O9 0.787951 0.724624 0.681825
O O10 0.627950 0.000000 0.894283
O O11 0.500000 0.719427 0.000000
O O12 0.092076 0.273964 0.566017
O O13 0.225022 0.227996 0.521429
O O14 0.038261 0.000000 0.694666
O O15 0.087879 0.721663 0.317699
O O16 0.249512 0.000000 0.124353
O O17 0.306350 0.740748 0.986985
O O18 0.927220 0.000000 0.484896
O O19 0.717380 0.500000 0.476959
O O20 0.560270 0.783730 0.642393
O O21 0.407323 0.500000 0.799623
#
# Coordination Sequence:
#
# PCOD9142699 Si02
#       8
#     4   4   4   4   4   4   4   4
#     4   8  14  28  51  74  96 126 165 201 233 279
#     4   9  17  31  50  72 100 131 161 193 238 290
#     4   9  18  30  46  69  96 124 157 202 252 295
#     4  10  18  29  49  75  99 123 161 206 241 284
#     4  10  19  32  51  71  95 127 163 203 246 289
#     4   9  17  29  45  70  97 121 154 198 248 291
#     4   9  19  33  48  70 102 134 161 194 243 290
#     4  10  20  33  49  71 103 134 162 197 243 296
#
# _framework density 21.446066999999999
#
# number of rings (size 3 to 8) (size 9 to 14) (size 15 to 20)
#    0.000    2.750    1.250    1.500    1.750    2.000 
#    0.000    0.625    0.000   13.125    0.000    0.000 
#    0.000    9.000    0.000    0.000    0.000    0.000 
#
# Total GULP energy -178585.313968 kJ/mol
# GULP energy per Si atom -5580.791061 kJ/mol
# Density = 2.139725 g / cm^3
# Si number density = 21.446067 Si / 1000 Ang^3
#
#
#
# Elastic Constant Matrix: (Units=GPa)
#
#
# Indices 1 2 3 4 5 6 
#
# 1 189.1748 1.1023 50.4974 0.0000 -21.8565 0.0000
# 2 1.1023 67.7285 -2.1210 0.0000 -1.7485 0.0000
# 3 50.4974 -2.1210 58.2101 0.0000 -25.7516 0.0000
# 4 0.0000 0.0000 0.0000 6.6216 0.0000 2.8625
# 5 -21.8565 -1.7485 -25.7516 0.0000 40.0455 0.0000
# 6 0.0000 0.0000 0.0000 2.8625 0.0000 10.1564
#
#
#
# Elastic Compliance Matrix: (Units=1/GPa)
#
#
# Indices 1 2 3 4 5 6 
#
# 1 0.006886 -0.000305 -0.006049 0.000000 -0.000145 0.000000
# 2 -0.000305 0.014850 0.001424 0.000000 0.001398 0.000000
# 3 -0.006049 0.001424 0.029413 0.000000 0.015675 0.000000
# 4 0.000000 0.000000 0.000000 0.171976 0.000000 -0.048471
# 5 -0.000145 0.001398 0.015675 0.000000 0.035034 0.000000
# 6 0.000000 0.000000 0.000000 -0.048471 0.000000 0.112121
#
#
# Mechanical properties :
#
#
# Convention : Reuss Voigt Hill
#
# Bulk Modulus (GPa) = 24.21907 46.00784 35.11346
# Shear Modulus (GPa) = 12.69351 29.07367 20.88359
#
# Velocity S-wave (km/s) = 2.43550 3.68593 3.12392
# Velocity P-wave (km/s) = 4.38479 6.29398 5.42405
#
# Compressibility (1/GPa) = 0.04128978
#
# Stress axis : x y z
#
# Youngs Moduli (GPa) = 145.22760 67.33782 33.99905
#
# Poissons Ratio (x) = 0.02055 0.20564
# Poissons Ratio (y) = 0.04433 -0.04842
# Poissons Ratio (z) = 0.87841 -0.09590
#
# Static dielectric constant tensor:
#      x y z
#    x 1.790870 0.000000 -0.028020 
#    y 0.000000 1.850650 0.000000 
#    z -0.028020 0.000000 1.732530 
# 
# From -- ./inp_files/86820.got.cif
#   From: 2010.05.17/outbox.cif.g08.bks.cpg/sg10_44_cif.got.tgz:86820.got - 2010.06.03 11:33:40.
