data_PCOD9142520
_publ_section_title
;
Structure prediction by ZEFSAII (Michael W. Deem and Ramdas Pophale) SiO2 
 PCOD9142520
Probable space group: P 2/M
;
_chemical_formula_sum "Si O2"
_cell_formula_units_Z 28
_cell_length_a 19.673449
_cell_length_b 9.159203
_cell_length_c 15.826119
_cell_angle_alpha 90.000000
_cell_angle_beta 36.265067
_cell_angle_gamma 90.000000
_cell_volume 1686.876527
_symmetry_space_group_name_H-M "P 2/M"
_symmetry_group_IT_number 10
_symmetry_cell_setting 'monoclinic'
loop_
_space_group_symop_operation_xyz
x,y,z
-x,y,-z
-x,-y,-z
x,-y,z
loop_
_atom_site_type_symbol
_atom_site_label
_atom_site_fract_x
_atom_site_fract_y
_atom_site_fract_z
Si Si1 0.359977 0.174691 0.966587
Si Si2 0.738455 0.331777 0.090432
Si Si3 0.863764 0.673700 0.135822
Si Si4 0.632265 0.175896 0.693506
Si Si5 0.517384 0.657320 0.581943
Si Si6 0.726450 0.828878 0.422812
Si Si7 0.639144 0.667150 0.860111
O O1 0.274461 0.236726 0.980912
O O2 0.496293 0.214045 0.813441
O O3 0.354795 0.000000 0.974574
O O4 0.328489 0.244494 0.088390
O O5 0.773755 0.500000 0.036547
O O6 0.811729 0.276279 0.097430
O O7 0.607509 0.335152 0.253698
O O8 0.839420 0.500000 0.164283
O O9 0.806489 0.747015 0.275245
O O10 0.000000 0.696426 0.000000
O O11 0.715374 0.217343 0.532209
O O12 0.669695 0.252316 0.742527
O O13 0.635093 0.000000 0.699256
O O14 0.500000 0.653710 0.500000
O O15 0.571184 0.500000 0.554195
O O16 0.597327 0.792286 0.522566
O O17 0.751474 0.000000 0.394628
O O18 0.680084 0.500000 0.821635
O O19 0.500000 0.663755 0.000000
#
# Coordination Sequence:
#
# PCOD9142520 Si02
#       7
#     4   4   4   4   4   4   4
#     4  10  18  29  45  68 101 136 164 195 241 296
#     4  10  19  31  49  72  97 128 167 209 245 289
#     4  10  22  40  56  70  94 131 173 213 254 297
#     4   9  18  30  43  66 100 135 164 194 239 292
#     4  10  18  30  47  69  98 130 164 202 247 294
#     4  11  21  32  49  74 103 131 165 205 248 299
#     4   9  17  28  43  66  96 132 169 201 233 279
#
# _framework density 16.598724000000001
#
# number of rings (size 3 to 8) (size 9 to 14) (size 15 to 20)
#    0.000    2.143    2.857    1.286    0.000    4.571 
#    0.000    0.000    0.000    0.000    0.000    1.000 
#    0.000    8.000    0.000    0.000    0.000    0.000 
#
# Total GULP energy -155916.173448 kJ/mol
# GULP energy per Si atom -5568.434766 kJ/mol
# Density = 1.656094 g / cm^3
# Si number density = 16.598724 Si / 1000 Ang^3
#
#
#
# Elastic Constant Matrix: (Units=GPa)
#
#
# Indices 1 2 3 4 5 6 
#
# 1 106.6613 55.1273 65.8433 0.0000 39.2660 0.0000
# 2 55.1273 50.8362 35.1194 0.0000 21.1438 0.0000
# 3 65.8433 35.1194 57.4992 0.0000 22.4355 0.0000
# 4 0.0000 0.0000 0.0000 29.5205 0.0000 13.5889
# 5 39.2660 21.1438 22.4355 0.0000 29.4696 0.0000
# 6 0.0000 0.0000 0.0000 13.5889 0.0000 20.1703
#
#
#
# Elastic Compliance Matrix: (Units=1/GPa)
#
#
# Indices 1 2 3 4 5 6 
#
# 1 0.053771 -0.020200 -0.038318 0.000000 -0.027980 0.000000
# 2 -0.020200 0.045023 -0.003223 0.000000 -0.002934 0.000000
# 3 -0.038318 -0.003223 0.060339 0.000000 0.007432 0.000000
# 4 0.000000 0.000000 0.000000 0.049102 0.000000 -0.033081
# 5 -0.027980 -0.002934 0.007432 0.000000 0.067662 0.000000
# 6 0.000000 0.000000 0.000000 -0.033081 0.000000 0.071865
#
#
# Mechanical properties :
#
#
# Convention : Reuss Voigt Hill
#
# Bulk Modulus (GPa) = 28.05017 58.57520 43.31269
# Shear Modulus (GPa) = 10.34922 19.75918 15.05420
#
# Velocity S-wave (km/s) = 2.49970 3.45397 3.01483
# Velocity P-wave (km/s) = 5.02663 7.16045 6.18624
#
# Compressibility (1/GPa) = 0.03565041
#
# Stress axis : x y z
#
# Youngs Moduli (GPa) = 18.59747 22.21072 16.57303
#
# Poissons Ratio (x) = 0.44867 0.63505
# Poissons Ratio (y) = 0.37568 0.05341
# Poissons Ratio (z) = 0.71262 0.07158
#
# Static dielectric constant tensor:
#      x y z
#    x 1.566850 0.000000 0.036130 
#    y 0.000000 1.592210 0.000000 
#    z 0.036130 0.000000 1.484830 
# 
# From -- ./inp_files/54647.got.cif
#   From: 2010.05.17/outbox.cif.g08.bks.cpg/sg10_28_cif.got.tgz:54647.got - 2010.06.03 11:33:40.
