data_PCOD9142524
_publ_section_title
;
Structure prediction by ZEFSAII (Michael W. Deem and Ramdas Pophale) SiO2 
 PCOD9142524
Probable space group: P 2/M
;
_chemical_formula_sum "Si O2"
_cell_formula_units_Z 28
_cell_length_a 21.297003
_cell_length_b 11.687608
_cell_length_c 9.625490
_cell_angle_alpha 90.000000
_cell_angle_beta 151.124276
_cell_angle_gamma 90.000000
_cell_volume 1157.002886
_symmetry_space_group_name_H-M "P 2/M"
_symmetry_group_IT_number 10
_symmetry_cell_setting 'monoclinic'
loop_
_space_group_symop_operation_xyz
x,y,z
-x,y,-z
-x,-y,-z
x,-y,z
loop_
_atom_site_type_symbol
_atom_site_label
_atom_site_fract_x
_atom_site_fract_y
_atom_site_fract_z
Si Si1 0.985912 0.370529 0.802081
Si Si2 0.290830 0.123166 0.459126
Si Si3 0.996914 0.121949 0.162248
Si Si4 0.468886 0.805123 0.585111
Si Si5 0.305004 0.626802 0.927979
Si Si6 0.657798 0.628353 0.313369
Si Si7 0.764335 0.372779 0.914103
O O1 0.940507 0.500000 0.677452
O O2 0.937917 0.241106 0.670635
O O3 0.120551 0.366034 0.973446
O O4 0.000000 0.370184 0.000000
O O5 0.158269 0.123541 0.111584
O O6 0.419671 0.120562 0.615849
O O7 0.297803 0.248858 0.541640
O O8 0.285244 0.000000 0.527795
O O9 0.049924 0.000000 0.317378
O O10 0.000000 0.119389 0.000000
O O11 0.500000 0.864278 0.500000
O O12 0.591279 0.726941 0.856987
O O13 0.349172 0.717153 0.331593
O O14 0.365743 0.500000 0.066659
O O15 0.202363 0.638660 0.855798
O O16 0.275136 0.626543 0.707227
O O17 0.687618 0.500000 0.432134
O O18 0.500000 0.632488 0.000000
O O19 0.708709 0.500000 0.791635
#
# Coordination Sequence:
#
# PCOD9142524 Si02
#       7
#     4   4   4   4   4   4   4
#     4   9  16  26  44  73 102 122 148 195 250 298
#     4  11  22  34  50  74 104 136 169 211 262 306
#     4   9  18  33  50  69  97 130 163 202 252 310
#     4  10  18  29  45  69 102 137 167 201 245 303
#     4   9  17  30  46  68  98 135 176 207 241 290
#     4  10  20  34  52  72  98 137 183 221 244 287
#     4   9  16  26  45  71 101 133 162 202 251 301
#
# _framework density 24.20046
#
# number of rings (size 3 to 8) (size 9 to 14) (size 15 to 20)
#    0.000    2.429    2.857    0.429    0.000    3.429 
#    0.000    0.000    0.000    0.857    0.000    4.000 
#    0.000   29.714    0.000    0.000    0.000    0.000 
#
# Total GULP energy -155880.430439 kJ/mol
# GULP energy per Si atom -5567.158230 kJ/mol
# Density = 2.414538 g / cm^3
# Si number density = 24.200460 Si / 1000 Ang^3
#
#
#
# Elastic Constant Matrix: (Units=GPa)
#
#
# Indices 1 2 3 4 5 6 
#
# 1 149.8647 40.6351 17.9065 0.0000 13.3932 0.0000
# 2 40.6351 256.1358 43.5643 0.0000 -1.0226 0.0000
# 3 17.9065 43.5643 32.8838 0.0000 13.2481 0.0000
# 4 0.0000 0.0000 0.0000 -91.4589 0.0000 -56.8914
# 5 13.3932 -1.0226 13.2481 0.0000 36.5365 0.0000
# 6 0.0000 0.0000 0.0000 -56.8914 0.0000 -17.1811
#
#
#
# Elastic Compliance Matrix: (Units=1/GPa)
#
#
# Indices 1 2 3 4 5 6 
#
# 1 0.007319 -0.000804 -0.002143 0.000000 -0.001928 0.000000
# 2 -0.000804 0.005426 -0.008115 0.000000 0.003389 0.000000
# 3 -0.002143 -0.008115 0.049306 0.000000 -0.017320 0.000000
# 4 0.000000 0.000000 0.000000 0.010317 0.000000 -0.034164
# 5 -0.001928 0.003389 -0.017320 0.000000 0.034452 0.000000
# 6 0.000000 0.000000 0.000000 -0.034164 0.000000 0.054922
#
#
# Mechanical properties :
#
#
# Convention : Reuss Voigt Hill
#
# Bulk Modulus (GPa) = 25.04674 71.45512 48.25093
# Shear Modulus (GPa) = 25.35816 8.03120 16.69468
#
# Velocity S-wave (km/s) = 3.24054 1.82368 2.62935
# Velocity P-wave (km/s) = 4.93697 5.83308 5.40364
#
# Compressibility (1/GPa) = 0.03992535
#
# Stress axis : x y z
#
# Youngs Moduli (GPa) = 136.62726 184.31204 20.28158
#
# Poissons Ratio (x) = 0.14826 0.04346
# Poissons Ratio (y) = 0.10990 0.16459
# Poissons Ratio (z) = 0.29279 1.49574
#
# Static dielectric constant tensor:
#      x y z
#    x 2.012440 0.000000 0.015600 
#    y 0.000000 1.936450 0.000000 
#    z 0.015600 0.000000 2.173160 
# 
# From -- ./inp_files/56868.got.cif
#   From: 2010.05.17/outbox.cif.g08.bks.cpg/sg10_29_cif.got.tgz:56868.got - 2010.06.03 11:33:40.
