data_PCOD9142655
_publ_section_title
;
Structure prediction by ZEFSAII (Michael W. Deem and Ramdas Pophale) SiO2 
 PCOD9142655
Probable space group: P 2/M
;
_chemical_formula_sum "Si O2"
_cell_formula_units_Z 32
_cell_length_a 12.990287
_cell_length_b 13.765103
_cell_length_c 11.858293
_cell_angle_alpha 90.000000
_cell_angle_beta 122.880314
_cell_angle_gamma 90.000000
_cell_volume 1780.736211
_symmetry_space_group_name_H-M "P 2/M"
_symmetry_group_IT_number 10
_symmetry_cell_setting 'monoclinic'
loop_
_space_group_symop_operation_xyz
x,y,z
-x,y,-z
-x,-y,-z
x,-y,z
loop_
_atom_site_type_symbol
_atom_site_label
_atom_site_fract_x
_atom_site_fract_y
_atom_site_fract_z
Si Si1 0.576179 0.208232 0.876813
Si Si2 0.912592 0.303904 0.592325
Si Si3 0.832019 0.385705 0.303736
Si Si4 0.461229 0.613969 0.288680
Si Si5 0.534959 0.115810 0.397458
Si Si6 0.692407 0.384736 0.575387
Si Si7 0.687282 0.203236 0.167127
Si Si8 0.197511 0.885960 0.552568
O O1 0.576880 0.320185 0.838374
O O2 0.563761 0.152071 0.752064
O O3 0.446792 0.187664 0.860468
O O4 0.678735 0.181686 0.029184
O O5 0.861159 0.362621 0.452336
O O6 0.818013 0.328121 0.634502
O O7 0.901268 0.190587 0.553277
O O8 0.048484 0.343972 0.689965
O O9 0.815149 0.500000 0.277448
O O10 0.721281 0.316303 0.203180
O O11 0.466043 0.500000 0.264565
O O12 0.369890 0.627610 0.340141
O O13 0.593768 0.643316 0.419579
O O14 0.500000 0.155123 0.500000
O O15 0.673883 0.136057 0.437305
O O16 0.527724 0.000000 0.397146
O O17 0.714023 0.500000 0.574053
O O18 0.776535 0.141912 0.301195
O O19 0.169259 0.000000 0.524034
#
# Coordination Sequence:
#
# PCOD9142655 Si02
#       8
#     4   4   4   4   4   4   4   4
#     4  10  19  31  50  68  99 132 166 198 243 289
#     4  10  18  29  48  72  94 127 166 196 246 299
#     4  10  19  32  49  70  98 128 165 211 243 279
#     4   9  18  27  41  68  97 123 155 196 242 292
#     4   9  18  30  48  76 102 125 158 199 249 296
#     4   9  16  27  43  67  96 123 153 194 244 295
#     4   9  20  34  46  70  95 134 170 199 236 297
#     4   9  18  32  49  72 102 128 156 202 246 292
#
# _framework density 17.970095000000001
#
# number of rings (size 3 to 8) (size 9 to 14) (size 15 to 20)
#    0.000    2.625    0.000    4.500    3.500    2.500 
#    0.000    8.750    0.000    0.750    0.000    2.625 
#    0.000    3.000    0.000    0.000    0.000    0.000 
#
# Total GULP energy -178375.893041 kJ/mol
# GULP energy per Si atom -5574.246658 kJ/mol
# Density = 1.792919 g / cm^3
# Si number density = 17.970095 Si / 1000 Ang^3
#
#
#
# Elastic Constant Matrix: (Units=GPa)
#
#
# Indices 1 2 3 4 5 6 
#
# 1 31.3395 5.3475 2.8527 0.0000 -6.8700 0.0000
# 2 5.3475 80.8446 0.2382 0.0000 -4.2089 0.0000
# 3 2.8527 0.2382 52.5289 0.0000 -17.6625 0.0000
# 4 0.0000 0.0000 0.0000 8.0029 0.0000 -5.9307
# 5 -6.8700 -4.2089 -17.6625 0.0000 16.6266 0.0000
# 6 0.0000 0.0000 0.0000 -5.9307 0.0000 20.7173
#
#
#
# Elastic Compliance Matrix: (Units=1/GPa)
#
#
# Indices 1 2 3 4 5 6 
#
# 1 0.035974 -0.001385 0.004562 0.000000 0.019360 0.000000
# 2 -0.001385 0.012672 0.001406 0.000000 0.004129 0.000000
# 3 0.004562 0.001406 0.030393 0.000000 0.034528 0.000000
# 4 0.000000 0.000000 0.000000 0.158601 0.000000 0.045402
# 5 0.019360 0.004129 0.034528 0.000000 0.105868 0.000000
# 6 0.000000 0.000000 0.000000 0.045402 0.000000 0.061266
#
#
# Mechanical properties :
#
#
# Convention : Reuss Voigt Hill
#
# Bulk Modulus (GPa) = 11.33716 20.17663 15.75690
# Shear Modulus (GPa) = 11.76447 19.48766 15.62607
#
# Velocity S-wave (km/s) = 2.56143 3.29667 2.95203
# Velocity P-wave (km/s) = 3.88207 5.07375 4.51738
#
# Compressibility (1/GPa) = 0.08820548
#
# Stress axis : x y z
#
# Youngs Moduli (GPa) = 27.79810 78.91504 32.90267
#
# Poissons Ratio (x) = 0.10930 -0.15012
# Poissons Ratio (y) = 0.03850 -0.04627
# Poissons Ratio (z) = -0.12683 -0.11097
#
# Static dielectric constant tensor:
#      x y z
#    x 1.661240 0.000000 -0.002190 
#    y 0.000000 1.639320 0.000000 
#    z -0.002190 0.000000 1.631670 
# 
# From -- ./inp_files/51285.got.cif
#   From: 2010.05.17/outbox.cif.g08.bks.cpg/sg10_26_cif.got.tgz:51285.got - 2010.06.03 11:33:40.
