data_PCOD9142318
_publ_section_title
;
Structure prediction by ZEFSAII (Michael W. Deem and Ramdas Pophale) SiO2 
 PCOD9142318
Probable space group: P 2/M
;
_chemical_formula_sum "Si O2"
_cell_formula_units_Z 32
_cell_length_a 17.131918
_cell_length_b 12.697056
_cell_length_c 17.569100
_cell_angle_alpha 90.000000
_cell_angle_beta 153.400112
_cell_angle_gamma 90.000000
_cell_volume 1711.201888
_symmetry_space_group_name_H-M "P 2/M"
_symmetry_group_IT_number 10
_symmetry_cell_setting 'monoclinic'
loop_
_space_group_symop_operation_xyz
x,y,z
-x,y,-z
-x,-y,-z
x,-y,z
loop_
_atom_site_type_symbol
_atom_site_label
_atom_site_fract_x
_atom_site_fract_y
_atom_site_fract_z
Si Si1 0.347986 0.623904 0.431165
Si Si2 0.235376 0.118144 0.193407
Si Si3 0.460520 0.192279 0.629604
Si Si4 0.176827 0.123677 0.587218
Si Si5 0.081364 0.877640 0.340944
Si Si6 0.695997 0.128107 0.145968
Si Si7 0.044308 0.219571 0.152147
Si Si8 0.582167 0.877302 0.887874
O O1 0.500000 0.639724 0.500000
O O2 0.333977 0.500000 0.432547
O O3 0.407187 0.692073 0.555573
O O4 0.158631 0.674057 0.245661
O O5 0.433603 0.138760 0.346073
O O6 0.179024 0.136177 0.230856
O O7 0.188415 0.000000 0.128253
O O8 0.124384 0.202843 0.047481
O O9 0.287300 0.128674 0.499644
O O10 0.579038 0.188291 0.808215
O O11 0.079284 0.164430 0.426392
O O12 0.177023 0.163880 0.674905
O O13 0.383463 0.127111 0.746341
O O14 0.130100 0.000000 0.548711
O O15 0.002140 0.811996 0.201944
O O16 0.025849 0.000000 0.291155
O O17 0.701071 0.000000 0.151257
O O18 0.500000 0.158997 0.000000
O O19 0.706046 0.156728 0.065638
O O20 0.617310 0.000000 0.899902
#
# Coordination Sequence:
#
# PCOD9142318 Si02
#       8
#     4   4   4   4   4   4   4   4
#     4  10  20  37  52  63  80 106 146 193 229 253
#     4  11  20  31  44  64  96 122 140 169 206 260
#     4  10  18  28  44  65  84 111 145 177 215 257
#     4   7  10  16  28  49  77 109 142 173 202 238
#     4   9  15  24  39  60  86 113 146 181 211 253
#     4   7   9  14  26  46  77 112 138 165 201 239
#     4  10  20  32  44  62  84 115 148 177 214 258
#     4   8  12  19  32  55  86 112 137 168 203 253
#
# _framework density 18.700306999999999
#
# number of rings (size 3 to 8) (size 9 to 14) (size 15 to 20)
#    0.000    3.000    1.250    4.875    0.000    0.000 
#    0.000    3.750    0.000    0.000    0.000    0.875 
#    0.000   29.500    0.000    0.375    0.000   46.250 
#
# Total GULP energy -178213.071923 kJ/mol
# GULP energy per Si atom -5569.158498 kJ/mol
# Density = 1.865774 g / cm^3
# Si number density = 18.700307 Si / 1000 Ang^3
#
#
#
# Elastic Constant Matrix: (Units=GPa)
#
#
# Indices 1 2 3 4 5 6 
#
# 1 95.7451 19.8406 23.8766 0.0000 -17.4840 0.0000
# 2 19.8406 77.0339 21.5819 0.0000 -8.3049 0.0000
# 3 23.8766 21.5819 98.9122 0.0000 -20.7887 0.0000
# 4 0.0000 0.0000 0.0000 5.5256 0.0000 4.8837
# 5 -17.4840 -8.3049 -20.7887 0.0000 41.5512 0.0000
# 6 0.0000 0.0000 0.0000 4.8837 0.0000 5.2888
#
#
#
# Elastic Compliance Matrix: (Units=1/GPa)
#
#
# Indices 1 2 3 4 5 6 
#
# 1 0.012002 -0.002230 -0.001612 0.000000 0.003798 0.000000
# 2 -0.002230 0.014314 -0.002437 0.000000 0.000703 0.000000
# 3 -0.001612 -0.002437 0.012053 0.000000 0.004865 0.000000
# 4 0.000000 0.000000 0.000000 0.984260 0.000000 -0.908861
# 5 0.003798 0.000703 0.004865 0.000000 0.028239 0.000000
# 6 0.000000 0.000000 0.000000 -0.908861 0.000000 1.028316
#
#
# Mechanical properties :
#
#
# Convention : Reuss Voigt Hill
#
# Bulk Modulus (GPa) = 38.74373 44.69883 41.72128
# Shear Modulus (GPa) = 2.38056 24.23258 13.30657
#
# Velocity S-wave (km/s) = 1.12950 3.60368 2.67042
# Velocity P-wave (km/s) = 4.73965 6.42417 5.64510
#
# Compressibility (1/GPa) = 0.02581063
#
# Stress axis : x y z
#
# Youngs Moduli (GPa) = 83.31842 69.86034 82.96374
#
# Poissons Ratio (x) = 0.15579 0.13377
# Poissons Ratio (y) = 0.18580 0.20219
# Poissons Ratio (z) = 0.13435 0.17026
#
# Static dielectric constant tensor:
#      x y z
#    x 1.751950 0.000000 0.008650 
#    y 0.000000 1.569110 0.000000 
#    z 0.008650 0.000000 1.779350 
# 
# From -- ./inp_files/78961.got.cif
#   From: 2010.05.17/outbox.cif.g08.bks.cpg/sg10_40_cif.got.tgz:78961.got - 2010.06.03 11:33:40.
