data_PCOD9142561
_publ_section_title
;
Structure prediction by ZEFSAII (Michael W. Deem and Ramdas Pophale) SiO2 
 PCOD9142561
Probable space group: P 2/M
;
_chemical_formula_sum "Si O2"
_cell_formula_units_Z 28
_cell_length_a 26.544945
_cell_length_b 12.350702
_cell_length_c 26.544653
_cell_angle_alpha 90.000000
_cell_angle_beta 11.451199
_cell_angle_gamma 90.000000
_cell_volume 1727.761206
_symmetry_space_group_name_H-M "P 2/M"
_symmetry_group_IT_number 10
_symmetry_cell_setting 'monoclinic'
loop_
_space_group_symop_operation_xyz
x,y,z
-x,y,-z
-x,-y,-z
x,-y,z
loop_
_atom_site_type_symbol
_atom_site_label
_atom_site_fract_x
_atom_site_fract_y
_atom_site_fract_z
Si Si1 0.162798 0.375791 0.162980
Si Si2 0.317625 0.260785 0.317409
Si Si3 0.886017 0.250332 0.885741
Si Si4 0.633750 0.127910 0.634078
Si Si5 0.939181 0.631473 0.939747
Si Si6 0.470932 0.369367 0.471487
Si Si7 0.732924 0.376192 0.732895
O O1 0.168847 0.500000 0.169339
O O2 0.925566 0.321802 0.422310
O O3 0.133033 0.352774 0.133083
O O4 0.422214 0.321901 0.925675
O O5 0.335953 0.155191 0.335503
O O6 0.287423 0.278394 0.287318
O O7 0.129297 0.182057 0.627850
O O8 0.913984 0.298516 0.913870
O O9 0.628240 0.181987 0.128907
O O10 0.630053 0.000000 0.630169
O O11 0.934290 0.500000 0.934841
O O12 0.203862 0.658665 0.707711
O O13 0.706791 0.658719 0.204682
O O14 0.500000 0.327220 0.500000
O O15 0.472691 0.500000 0.473010
O O16 0.721540 0.500000 0.721368
O O17 0.000000 0.369108 0.500000
O O18 0.500000 0.369153 0.000000
#
# Coordination Sequence:
#
# PCOD9142561 Si02
#       7
#     4   4   4   4   4   4   4
#     4  10  18  29  46  69  99 127 154 186 226 288
#     4  10  20  32  49  70  93 128 163 191 231 282
#     4  10  20  32  49  74  97 123 158 195 245 295
#     4  10  21  37  54  70  93 123 160 207 246 286
#     4  10  18  29  46  70 105 136 160 196 236 281
#     4   9  17  28  43  65  98 142 177 195 220 267
#     4  10  19  30  46  69  98 127 154 188 229 275
#
# _framework density 16.205943000000001
#
# number of rings (size 3 to 8) (size 9 to 14) (size 15 to 20)
#    0.000    2.143    0.000    4.286    0.000    2.857 
#    0.000    4.286    0.000    0.857    0.000    0.000 
#    0.000   40.000    0.000    0.000    0.000    0.000 
#
# Total GULP energy -155972.211506 kJ/mol
# GULP energy per Si atom -5570.436125 kJ/mol
# Density = 1.616906 g / cm^3
# Si number density = 16.205943 Si / 1000 Ang^3
#
#
#
# Elastic Constant Matrix: (Units=GPa)
#
#
# Indices 1 2 3 4 5 6 
#
# 1 119.4351 21.6196 48.1133 0.0000 3.1547 0.0000
# 2 21.6196 46.0867 22.5363 0.0000 -0.0758 0.0000
# 3 48.1133 22.5363 146.5039 0.0000 -5.5183 0.0000
# 4 0.0000 0.0000 0.0000 11.9728 0.0000 0.3729
# 5 3.1547 -0.0758 -5.5183 0.0000 18.6659 0.0000
# 6 0.0000 0.0000 0.0000 0.3729 0.0000 15.9659
#
#
#
# Elastic Compliance Matrix: (Units=1/GPa)
#
#
# Indices 1 2 3 4 5 6 
#
# 1 0.010237 -0.003368 -0.002942 0.000000 -0.002614 0.000000
# 2 -0.003368 0.024589 -0.002681 0.000000 -0.000124 0.000000
# 3 -0.002942 -0.002681 0.008315 0.000000 0.002945 0.000000
# 4 0.000000 0.000000 0.000000 0.083584 0.000000 -0.001952
# 5 -0.002614 -0.000124 0.002945 0.000000 0.054886 0.000000
# 6 0.000000 0.000000 0.000000 -0.001952 0.000000 0.062679
#
#
# Mechanical properties :
#
#
# Convention : Reuss Voigt Hill
#
# Bulk Modulus (GPa) = 39.74739 55.17379 47.46059
# Shear Modulus (GPa) = 18.47354 23.97135 21.22244
#
# Velocity S-wave (km/s) = 3.37994 3.85017 3.62269
# Velocity P-wave (km/s) = 6.30965 7.34060 6.84456
#
# Compressibility (1/GPa) = 0.02515889
#
# Stress axis : x y z
#
# Youngs Moduli (GPa) = 97.68853 40.66880 120.25945
#
# Poissons Ratio (x) = 0.13696 0.35383
# Poissons Ratio (y) = 0.32898 0.32243
# Poissons Ratio (z) = 0.28742 0.10904
#
# Static dielectric constant tensor:
#      x y z
#    x 1.574990 0.000000 0.003590 
#    y 0.000000 1.522100 0.000000 
#    z 0.003590 0.000000 1.534380 
# 
# From -- ./inp_files/12247.got.cif
#   From: 2010.05.17/outbox.cif.g08.bks.cpg/sg10_7_cif.got.tgz:12247.got - 2010.06.03 11:33:40.
