data_PCOD9142237
_publ_section_title
;
Structure prediction by ZEFSAII (Michael W. Deem and Ramdas Pophale) SiO2 
 PCOD9142237
Probable space group: P 2/M
;
_chemical_formula_sum "Si O2"
_cell_formula_units_Z 28
_cell_length_a 21.879169
_cell_length_b 9.596449
_cell_length_c 11.364614
_cell_angle_alpha 90.000000
_cell_angle_beta 130.717376
_cell_angle_gamma 90.000000
_cell_volume 1808.543325
_symmetry_space_group_name_H-M "P 2/M"
_symmetry_group_IT_number 10
_symmetry_cell_setting 'monoclinic'
loop_
_space_group_symop_operation_xyz
x,y,z
-x,y,-z
-x,-y,-z
x,-y,z
loop_
_atom_site_type_symbol
_atom_site_label
_atom_site_fract_x
_atom_site_fract_y
_atom_site_fract_z
Si Si1 0.397711 0.838961 0.495168
Si Si2 0.127407 0.164827 0.723920
Si Si3 0.923484 0.667426 0.822654
Si Si4 0.244916 0.334724 0.267688
Si Si5 0.423669 0.162021 0.244529
Si Si6 0.043457 0.164496 0.369975
Si Si7 0.731260 0.665922 0.980836
O O1 0.319899 0.745632 0.419535
O O2 0.483258 0.795803 0.659057
O O3 0.411501 0.834759 0.371026
O O4 0.382817 0.000000 0.507906
O O5 0.098770 0.189551 0.554157
O O6 0.048567 0.192907 0.705220
O O7 0.146821 0.000000 0.760408
O O8 0.200989 0.259720 0.856348
O O9 0.924009 0.500000 0.807159
O O10 0.840486 0.705903 0.783882
O O11 0.931820 0.743707 0.709179
O O12 0.000000 0.703675 0.000000
O O13 0.255784 0.500000 0.297317
O O14 0.246354 0.308872 0.128861
O O15 0.355421 0.261910 0.107463
O O16 0.413195 0.000000 0.195587
O O17 0.048700 0.000000 0.348577
O O18 0.728302 0.500000 0.995550
#
# Coordination Sequence:
#
# PCOD9142237 Si02
#       7
#     4   4   4   4   4   4   4
#     4   8  14  25  41  60  84 117 153 183 215 262
#     4   9  18  33  49  65  89 116 144 186 232 264
#     4  10  20  33  47  65  93 124 150 181 221 261
#     4   9  18  29  41  62  93 124 150 181 221 260
#     4   8  14  25  40  60  88 118 146 181 224 261
#     4   9  19  34  50  67  86 114 152 188 223 263
#     4  10  18  27  43  68  93 119 152 182 214 264
#
# _framework density 15.482073
#
# number of rings (size 3 to 8) (size 9 to 14) (size 15 to 20)
#    0.000    3.000    0.000    3.000    0.000    4.286 
#    0.000    4.286    0.000    0.000    0.000    1.000 
#    0.000    8.000    0.000    0.000    0.000    0.000 
#
# Total GULP energy -155956.918865 kJ/mol
# GULP energy per Si atom -5569.889959 kJ/mol
# Density = 1.544684 g / cm^3
# Si number density = 15.482073 Si / 1000 Ang^3
#
#
#
# Elastic Constant Matrix: (Units=GPa)
#
#
# Indices 1 2 3 4 5 6 
#
# 1 82.9846 46.2884 53.3680 0.0000 24.3287 0.0000
# 2 46.2884 57.1576 66.4523 0.0000 23.0451 0.0000
# 3 53.3680 66.4523 101.9938 0.0000 36.5670 0.0000
# 4 0.0000 0.0000 0.0000 27.3947 0.0000 3.2698
# 5 24.3287 23.0451 36.5670 0.0000 27.6819 0.0000
# 6 0.0000 0.0000 0.0000 3.2698 0.0000 25.7581
#
#
#
# Elastic Compliance Matrix: (Units=1/GPa)
#
#
# Indices 1 2 3 4 5 6 
#
# 1 0.023180 -0.019784 0.004103 0.000000 -0.009322 0.000000
# 2 -0.019784 0.089244 -0.052034 0.000000 0.011827 0.000000
# 3 0.004103 -0.052034 0.051903 0.000000 -0.028850 0.000000
# 4 0.000000 0.000000 0.000000 0.037065 0.000000 -0.004705
# 5 -0.009322 0.011827 -0.028850 0.000000 0.072582 0.000000
# 6 0.000000 0.000000 0.000000 -0.004705 0.000000 0.039420
#
#
# Mechanical properties :
#
#
# Convention : Reuss Voigt Hill
#
# Bulk Modulus (GPa) = 34.60480 63.81706 49.21093
# Shear Modulus (GPa) = 10.90618 21.23542 16.07080
#
# Velocity S-wave (km/s) = 2.65701 3.70755 3.22534
# Velocity P-wave (km/s) = 5.64030 7.72252 6.76204
#
# Compressibility (1/GPa) = 0.02889772
#
# Stress axis : x y z
#
# Youngs Moduli (GPa) = 43.14053 11.20519 19.26684
#
# Poissons Ratio (x) = 0.22168 -0.07906
# Poissons Ratio (y) = 0.85349 1.00253
# Poissons Ratio (z) = -0.17702 0.58305
#
# Static dielectric constant tensor:
#      x y z
#    x 1.505040 0.000000 0.014850 
#    y 0.000000 1.510420 0.000000 
#    z 0.014850 0.000000 1.505640 
# 
# From -- ./inp_files/54978.got.cif
#   From: 2010.05.17/outbox.cif.g08.bks.cpg/sg10_28_cif.got.tgz:54978.got - 2010.06.03 11:33:40.
