data_PCOD9142762
_publ_section_title
;
Structure prediction by ZEFSAII (Michael W. Deem and Ramdas Pophale) SiO2 
 PCOD9142762
Probable space group: P 2/M
;
_chemical_formula_sum "Si O2"
_cell_formula_units_Z 24
_cell_length_a 9.062222
_cell_length_b 12.252363
_cell_length_c 11.266845
_cell_angle_alpha 90.000000
_cell_angle_beta 93.731441
_cell_angle_gamma 90.000000
_cell_volume 1248.346691
_symmetry_space_group_name_H-M "P 2/M"
_symmetry_group_IT_number 10
_symmetry_cell_setting 'monoclinic'
loop_
_space_group_symop_operation_xyz
x,y,z
-x,y,-z
-x,-y,-z
x,-y,z
loop_
_atom_site_type_symbol
_atom_site_label
_atom_site_fract_x
_atom_site_fract_y
_atom_site_fract_z
Si Si1 0.239871 0.214362 0.751147
Si Si2 0.396061 0.000000 0.822359
Si Si3 0.568990 0.628836 0.374414
Si Si4 0.343928 0.623427 0.956061
Si Si5 0.731318 0.000000 0.917337
Si Si6 0.734060 0.379113 0.779733
Si Si7 0.055481 0.199948 0.137974
O O1 0.346806 0.110707 0.756606
O O2 0.292807 0.291871 0.645487
O O3 0.267958 0.299201 0.860086
O O4 0.080462 0.168250 0.782823
O O5 0.571560 0.000000 0.848328
O O6 0.310984 0.000000 0.945391
O O7 0.500000 0.647524 0.500000
O O8 0.608768 0.500000 0.367851
O O9 0.430724 0.648848 0.276082
O O10 0.367859 0.500000 0.910055
O O11 0.500000 0.674445 0.000000
O O12 0.267101 0.612798 0.077699
O O13 0.828913 0.104247 0.886687
O O14 0.768441 0.500000 0.732169
O O15 0.859139 0.288886 0.776091
O O16 0.000000 0.233089 0.000000
#
# Coordination Sequence:
#
# PCOD9142762 Si02
#       7
#     4   2   4   4   2   4   4
#     4  12  22  35  57  87 117 157 194 239 292 354
#     4  11  23  34  60  83 114 164 205 236 280 344
#     4  10  22  42  65  85 110 152 208 256 287 332
#     4  10  18  29  51  82 116 145 180 234 288 346
#     4  11  22  37  52  82 125 164 196 229 281 353
#     4  10  20  34  54  83 118 151 184 233 294 349
#     4  12  22  35  52  85 132 157 183 229 294 365
#
# _framework density 19.225427
#
# number of rings (size 3 to 8) (size 9 to 14) (size 15 to 20)
#    0.000    1.167    5.000    2.250    2.333    1.667 
#    0.000    1.250    0.000    3.000    0.000    3.500 
#    0.000    0.000    0.000    0.000    0.000    0.000 
#
# Total GULP energy -133636.081359 kJ/mol
# GULP energy per Si atom -5568.170057 kJ/mol
# Density = 1.918167 g / cm^3
# Si number density = 19.225427 Si / 1000 Ang^3
#
#
#
# Elastic Constant Matrix: (Units=GPa)
#
#
# Indices 1 2 3 4 5 6 
#
# 1 96.3631 39.4041 10.5192 0.0000 -17.3412 0.0000
# 2 39.4041 69.3755 13.4382 0.0000 -3.9280 0.0000
# 3 10.5192 13.4382 53.3611 0.0000 -22.7306 0.0000
# 4 0.0000 0.0000 0.0000 84.7952 0.0000 -206.3011
# 5 -17.3412 -3.9280 -22.7306 0.0000 22.6425 0.0000
# 6 0.0000 0.0000 0.0000 -206.3011 0.0000 656.9263
#
#
#
# Elastic Compliance Matrix: (Units=1/GPa)
#
#
# Indices 1 2 3 4 5 6 
#
# 1 0.016967 -0.009946 0.006919 0.000000 0.018215 0.000000
# 2 -0.009946 0.021041 -0.008785 0.000000 -0.012786 0.000000
# 3 0.006919 -0.008785 0.037034 0.000000 0.040953 0.000000
# 4 0.000000 0.000000 0.000000 0.049979 0.000000 0.015695
# 5 0.018215 -0.012786 0.040953 0.000000 0.097010 0.000000
# 6 0.000000 0.000000 0.000000 0.015695 0.000000 0.006451
#
#
# Mechanical properties :
#
#
# Convention : Reuss Voigt Hill
#
# Bulk Modulus (GPa) = 19.44809 38.42473 28.93641
# Shear Modulus (GPa) = 18.57051 163.25534 90.91292
#
# Velocity S-wave (km/s) = 3.11132 9.22500 6.88408
# Velocity P-wave (km/s) = 4.80051 11.55411 8.84710
#
# Compressibility (1/GPa) = 0.05141894
#
# Stress axis : x y z
#
# Youngs Moduli (GPa) = 58.93755 47.52589 27.00254
#
# Poissons Ratio (x) = 0.47269 -0.18684
# Poissons Ratio (y) = 0.58619 0.23721
# Poissons Ratio (z) = -0.40781 0.41751
#
# Static dielectric constant tensor:
#      x y z
#    x 1.727260 0.000000 -0.015240 
#    y 0.000000 1.723800 0.000000 
#    z -0.015240 0.000000 1.683690 
# 
# From -- ./inp_files/42046.got.cif
#   From: 2010.05.17/outbox.cif.g08.bks.cpg/sg10_22_cif.got.tgz:42046.got - 2010.06.03 11:33:40.
