data_PCOD9142154
_publ_section_title
;
Structure prediction by ZEFSAII (Michael W. Deem and Ramdas Pophale) SiO2 
 PCOD9142154
Probable space group: P 2/M
;
_chemical_formula_sum "Si O2"
_cell_formula_units_Z 32
_cell_length_a 17.889660
_cell_length_b 8.099987
_cell_length_c 13.981862
_cell_angle_alpha 90.000000
_cell_angle_beta 77.779285
_cell_angle_gamma 90.000000
_cell_volume 1980.144296
_symmetry_space_group_name_H-M "P 2/M"
_symmetry_group_IT_number 10
_symmetry_cell_setting 'monoclinic'
loop_
_space_group_symop_operation_xyz
x,y,z
-x,y,-z
-x,-y,-z
x,-y,z
loop_
_atom_site_type_symbol
_atom_site_label
_atom_site_fract_x
_atom_site_fract_y
_atom_site_fract_z
Si Si1 0.502266 0.806079 0.615060
Si Si2 0.827551 0.694622 0.263336
Si Si3 0.026169 0.299162 0.889601
Si Si4 0.093772 0.189624 0.568684
Si Si5 0.944648 0.700464 0.718014
Si Si6 0.812217 0.308855 0.630606
Si Si7 0.335018 0.196052 0.658355
Si Si8 0.666847 0.305050 0.561459
O O1 0.500000 0.793837 0.500000
O O2 0.418847 0.741365 0.668215
O O3 0.581102 0.721563 0.623355
O O4 0.507631 0.000000 0.637343
O O5 0.839573 0.500000 0.279055
O O6 0.853512 0.789329 0.351715
O O7 0.738520 0.726745 0.271308
O O8 0.887045 0.743652 0.164344
O O9 0.022589 0.500000 0.893178
O O10 0.972315 0.246120 0.815702
O O11 0.000000 0.237501 0.000000
O O12 0.130646 0.297497 0.475406
O O13 0.010019 0.242672 0.626218
O O14 0.093366 0.000000 0.537366
O O15 0.944292 0.500000 0.716919
O O16 0.862161 0.761567 0.704313
O O17 0.796704 0.500000 0.658329
O O18 0.732491 0.236190 0.613775
O O19 0.327954 0.228142 0.545992
O O20 0.334035 0.000000 0.672772
O O21 0.680686 0.500000 0.544582
#
# Coordination Sequence:
#
# PCOD9142154 Si02
#       8
#     4   4   4   4   4   4   4   4
#     4   8  16  28  39  53  78 110 142 174 208 243
#     4  10  18  28  44  64  84 109 140 174 211 251
#     4   8  15  29  48  66  82 103 135 173 212 255
#     4  11  20  28  40  58  82 111 142 175 206 238
#     4   9  18  31  45  59  80 109 138 171 210 249
#     4  10  19  29  40  57  83 113 142 171 204 243
#     4  10  18  28  41  58  82 111 142 175 208 244
#     4  10  18  26  39  57  80 112 147 175 203 241
#
# _framework density 16.160437999999999
#
# number of rings (size 3 to 8) (size 9 to 14) (size 15 to 20)
#    0.000    2.500    1.250    4.125    0.000    5.250 
#    0.000    0.000    0.000    9.375    0.000    0.000 
#    0.000    1.000    0.000   12.500    0.000    2.000 
#
# Total GULP energy -178261.643235 kJ/mol
# GULP energy per Si atom -5570.676351 kJ/mol
# Density = 1.612366 g / cm^3
# Si number density = 16.160438 Si / 1000 Ang^3
#
#
#
# Elastic Constant Matrix: (Units=GPa)
#
#
# Indices 1 2 3 4 5 6 
#
# 1 141.3826 2.3477 43.2635 0.0000 -7.5462 0.0000
# 2 2.3477 17.9657 -2.9975 0.0000 0.3787 0.0000
# 3 43.2635 -2.9975 56.5501 0.0000 -7.7616 0.0000
# 4 0.0000 0.0000 0.0000 -2.0162 0.0000 -7.0595
# 5 -7.5462 0.3787 -7.7616 0.0000 11.2872 0.0000
# 6 0.0000 0.0000 0.0000 -7.0595 0.0000 -1.5614
#
#
#
# Elastic Compliance Matrix: (Units=1/GPa)
#
#
# Indices 1 2 3 4 5 6 
#
# 1 0.009361 -0.002437 -0.007090 0.000000 0.001465 0.000000
# 2 -0.002437 0.056793 0.004847 0.000000 -0.000201 0.000000
# 3 -0.007090 0.004847 0.025056 0.000000 0.012327 0.000000
# 4 0.000000 0.000000 0.000000 0.033443 0.000000 -0.151205
# 5 0.001465 -0.000201 0.012327 0.000000 0.098059 0.000000
# 6 0.000000 0.000000 0.000000 -0.151205 0.000000 0.043185
#
#
# Mechanical properties :
#
#
# Convention : Reuss Voigt Hill
#
# Bulk Modulus (GPa) = 12.21733 33.45844 22.83788
# Shear Modulus (GPa) = 16.52673 13.09423 14.81048
#
# Velocity S-wave (km/s) = 3.20138 2.84960 3.03060
# Velocity P-wave (km/s) = 4.60886 5.61924 5.13894
#
# Compressibility (1/GPa) = 0.08185098
#
# Stress axis : x y z
#
# Youngs Moduli (GPa) = 106.82415 17.60782 39.90995
#
# Poissons Ratio (x) = 0.04291 0.28296
# Poissons Ratio (y) = 0.26033 -0.19345
# Poissons Ratio (z) = 0.75737 -0.08535
#
# Static dielectric constant tensor:
#      x y z
#    x 1.610440 0.000000 -0.003090 
#    y 0.000000 1.571550 0.000000 
#    z -0.003090 0.000000 1.509520 
# 
# From -- ./inp_files/68207.got.cif
#   From: 2010.05.17/outbox.cif.g08.bks.cpg/sg10_35_cif.got.tgz:68207.got - 2010.06.03 11:33:40.
