data_PCOD9142373
_publ_section_title
;
Structure prediction by ZEFSAII (Michael W. Deem and Ramdas Pophale) SiO2 
 PCOD9142373
Probable space group: P 2/M
;
_chemical_formula_sum "Si O2"
_cell_formula_units_Z 24
_cell_length_a 25.268224
_cell_length_b 10.811838
_cell_length_c 9.798195
_cell_angle_alpha 90.000000
_cell_angle_beta 152.058437
_cell_angle_gamma 90.000000
_cell_volume 1254.282992
_symmetry_space_group_name_H-M "P 2/M"
_symmetry_group_IT_number 10
_symmetry_cell_setting 'monoclinic'
loop_
_space_group_symop_operation_xyz
x,y,z
-x,y,-z
-x,-y,-z
x,-y,z
loop_
_atom_site_type_symbol
_atom_site_label
_atom_site_fract_x
_atom_site_fract_y
_atom_site_fract_z
Si Si1 0.497741 0.632707 0.158607
Si Si2 0.699050 0.785096 0.644687
Si Si3 0.170377 0.147631 0.589856
Si Si4 0.623561 0.858798 0.760863
Si Si5 0.949768 0.853616 0.232521
Si Si6 0.659020 0.141588 0.243752
O O1 0.456590 0.500000 0.119137
O O2 0.625942 0.660563 0.493548
O O3 0.500000 0.623586 0.000000
O O4 0.422613 0.755594 0.008764
O O5 0.658017 0.861721 0.681677
O O6 0.664921 0.839951 0.419532
O O7 0.833537 0.780058 0.955920
O O8 0.218451 0.161109 0.547007
O O9 0.047029 0.192529 0.351023
O O10 0.162458 0.000000 0.599175
O O11 0.270253 0.196976 0.915568
O O12 0.500000 0.799952 0.500000
O O13 0.613395 0.000000 0.789545
O O14 0.000000 0.846636 0.500000
O O15 0.923256 0.000000 0.146330
O O16 0.623520 0.000000 0.134651
#
# Coordination Sequence:
#
# PCOD9142373 Si02
#       6
#     4   4   4   4   4   4
#     4   9  20  37  55  77 109 145 176 215 272 331
#     4  11  20  31  53  77 102 141 186 221 259 313
#     4   9  18  31  46  73 114 147 172 213 270 320
#     4  10  18  28  45  72 104 139 175 214 261 314
#     4  10  18  30  49  76 111 147 180 216 261 319
#     4  10  20  33  54  84 112 136 173 228 274 312
#
# _framework density 19.134437999999999
#
# number of rings (size 3 to 8) (size 9 to 14) (size 15 to 20)
#    0.000    2.167    1.667    2.500    0.000    6.333 
#    0.000    2.500    0.000    6.000    0.000    4.667 
#    0.000    0.000    0.000    0.000    0.000    0.000 
#
# Total GULP energy -133667.392227 kJ/mol
# GULP energy per Si atom -5569.474676 kJ/mol
# Density = 1.909089 g / cm^3
# Si number density = 19.134438 Si / 1000 Ang^3
#
#
#
# Elastic Constant Matrix: (Units=GPa)
#
#
# Indices 1 2 3 4 5 6 
#
# 1 117.4004 14.2894 32.2016 0.0000 16.3803 0.0000
# 2 14.2894 71.8493 23.0171 0.0000 10.6805 0.0000
# 3 32.2016 23.0171 86.7184 0.0000 24.8382 0.0000
# 4 0.0000 0.0000 0.0000 150.1767 0.0000 72.9531
# 5 16.3803 10.6805 24.8382 0.0000 43.4670 0.0000
# 6 0.0000 0.0000 0.0000 72.9531 0.0000 30.7997
#
#
#
# Elastic Compliance Matrix: (Units=1/GPa)
#
#
# Indices 1 2 3 4 5 6 
#
# 1 0.009647 -0.000730 -0.002868 0.000000 -0.001817 0.000000
# 2 -0.000730 0.015374 -0.003356 0.000000 -0.001585 0.000000
# 3 -0.002868 -0.003356 0.015474 0.000000 -0.006937 0.000000
# 4 0.000000 0.000000 0.000000 -0.044204 0.000000 0.104703
# 5 -0.001817 -0.001585 -0.006937 0.000000 0.028044 0.000000
# 6 0.000000 0.000000 0.000000 0.104703 0.000000 -0.215535
#
#
# Mechanical properties :
#
#
# Convention : Reuss Voigt Hill
#
# Bulk Modulus (GPa) = 37.61070 46.10935 41.86002
# Shear Modulus (GPa) = -29.68588 58.65269 14.48340
#
# Velocity S-wave (km/s) = -3.94310 5.54252 2.75422
# Velocity P-wave (km/s) = 1.01589 8.06903 5.66026
#
# Compressibility (1/GPa) = 0.02658818
#
# Stress axis : x y z
#
# Youngs Moduli (GPa) = 103.66033 65.04600 64.62376
#
# Poissons Ratio (x) = 0.04746 0.18535
# Poissons Ratio (y) = 0.07564 0.21685
# Poissons Ratio (z) = 0.29731 0.21827
#
# Static dielectric constant tensor:
#      x y z
#    x 1.704140 0.000000 0.007130 
#    y 0.000000 1.688740 0.000000 
#    z 0.007130 0.000000 1.712190 
# 
# From -- ./inp_files/36185.got.cif
#   From: 2010.05.17/outbox.cif.g08.bks.cpg/sg10_19_cif.got.tgz:36185.got - 2010.06.03 11:33:40.
