data_PCOD9142598
_publ_section_title
;
Structure prediction by ZEFSAII (Michael W. Deem and Ramdas Pophale) SiO2 
 PCOD9142598
Probable space group: P 2/M
;
_chemical_formula_sum "Si O2"
_cell_formula_units_Z 32
_cell_length_a 21.730698
_cell_length_b 9.041661
_cell_length_c 31.315938
_cell_angle_alpha 90.000000
_cell_angle_beta 160.445811
_cell_angle_gamma 90.000000
_cell_volume 2059.400182
_symmetry_space_group_name_H-M "P 2/M"
_symmetry_group_IT_number 10
_symmetry_cell_setting 'monoclinic'
loop_
_space_group_symop_operation_xyz
x,y,z
-x,y,-z
-x,-y,-z
x,-y,z
loop_
_atom_site_type_symbol
_atom_site_label
_atom_site_fract_x
_atom_site_fract_y
_atom_site_fract_z
Si Si1 0.845123 0.322568 0.524947
Si Si2 0.803958 0.323804 0.963143
Si Si3 0.200079 0.821113 0.794730
Si Si4 0.121269 0.170750 0.122905
Si Si5 0.160613 0.177481 0.571550
Si Si6 0.557817 0.178222 0.872289
Si Si7 0.459060 0.179328 0.041061
Si Si8 0.430980 0.676655 0.275750
O O1 0.856067 0.500000 0.530996
O O2 0.861659 0.259040 0.487884
O O3 0.643767 0.281176 0.411248
O O4 0.008047 0.254761 0.659488
O O5 0.814543 0.500000 0.974102
O O6 0.714826 0.251607 0.946430
O O7 0.666767 0.289657 0.833630
O O8 0.001134 0.257930 0.078990
O O9 0.348161 0.778353 0.854924
O O10 0.181263 0.000000 0.781494
O O11 0.295507 0.778261 0.901910
O O12 0.314150 0.243079 0.235903
O O13 0.142090 0.000000 0.148550
O O14 0.000000 0.177052 0.000000
O O15 0.358885 0.212220 0.721662
O O16 0.000000 0.215655 0.500000
O O17 0.151290 0.000000 0.558245
O O18 0.560729 0.229262 0.923346
O O19 0.578614 0.000000 0.884947
O O20 0.460496 0.000000 0.042624
O O21 0.417050 0.500000 0.272750
#
# Coordination Sequence:
#
# PCOD9142598 Si02
#       8
#     4   4   4   4   4   4   4   4
#     4  11  21  32  46  69 100 130 159 194 237 283
#     4  10  18  30  45  64  95 131 159 185 230 287
#     4   9  17  33  54  71  90 122 165 206 246 286
#     4   9  17  28  45  68  91 118 157 198 232 268
#     4  10  20  32  47  67  93 127 164 197 234 283
#     4  10  18  29  47  70  95 122 159 202 239 277
#     4   8  16  32  53  72  91 120 161 209 250 283
#     4   9  18  31  44  62  94 131 159 185 228 284
#
# _framework density 15.538505000000001
#
# number of rings (size 3 to 8) (size 9 to 14) (size 15 to 20)
#    0.000    2.500    1.250    2.625    0.000    5.250 
#    0.000    3.750    0.000    0.000    0.000    0.875 
#    0.000    7.000    0.000    0.000    0.000    0.000 
#
# Total GULP energy -178422.841280 kJ/mol
# GULP energy per Si atom -5575.713790 kJ/mol
# Density = 1.550314 g / cm^3
# Si number density = 15.538505 Si / 1000 Ang^3
#
#
#
# Elastic Constant Matrix: (Units=GPa)
#
#
# Indices 1 2 3 4 5 6 
#
# 1 71.2012 27.1606 45.2329 0.0000 16.9190 0.0000
# 2 27.1606 26.8600 34.2948 0.0000 7.9138 0.0000
# 3 45.2329 34.2948 96.7686 0.0000 18.1861 0.0000
# 4 0.0000 0.0000 0.0000 21.1337 0.0000 7.6486
# 5 16.9190 7.9138 18.1861 0.0000 23.4260 0.0000
# 6 0.0000 0.0000 0.0000 7.6486 0.0000 10.3643
#
#
#
# Elastic Compliance Matrix: (Units=1/GPa)
#
#
# Indices 1 2 3 4 5 6 
#
# 1 0.025677 -0.018490 -0.003674 0.000000 -0.009446 0.000000
# 2 -0.018490 0.081817 -0.020686 0.000000 0.001774 0.000000
# 3 -0.003674 -0.020686 0.020572 0.000000 -0.006329 0.000000
# 4 0.000000 0.000000 0.000000 0.064561 0.000000 -0.047644
# 5 -0.009446 0.001774 -0.006329 0.000000 0.053823 0.000000
# 6 0.000000 0.000000 0.000000 -0.047644 0.000000 0.131645
#
#
# Mechanical properties :
#
#
# Convention : Reuss Voigt Hill
#
# Bulk Modulus (GPa) = 23.60472 45.35628 34.48050
# Shear Modulus (GPa) = 10.46207 16.86091 13.66149
#
# Velocity S-wave (km/s) = 2.59762 3.29767 2.96835
# Velocity P-wave (km/s) = 4.92147 6.61456 5.82981
#
# Compressibility (1/GPa) = 0.04236441
#
# Stress axis : x y z
#
# Youngs Moduli (GPa) = 38.94608 12.22245 48.60980
#
# Poissons Ratio (x) = 0.22599 0.17860
# Poissons Ratio (y) = 0.72011 1.00557
# Poissons Ratio (z) = 0.14309 0.25284
#
# Static dielectric constant tensor:
#      x y z
#    x 1.503490 0.000000 0.004220 
#    y 0.000000 1.517850 0.000000 
#    z 0.004220 0.000000 1.505420 
# 
# From -- ./inp_files/70046.got.cif
#   From: 2010.05.17/outbox.cif.g08.bks.cpg/sg10_36_cif.got.tgz:70046.got - 2010.06.03 11:33:40.
