data_PCOD9142033
_publ_section_title
;
Structure prediction by ZEFSAII (Michael W. Deem and Ramdas Pophale) SiO2 
 PCOD9142033
Probable space group: P 2/M
;
_chemical_formula_sum "Si O2"
_cell_formula_units_Z 20
_cell_length_a 22.072873
_cell_length_b 9.570394
_cell_length_c 14.027955
_cell_angle_alpha 90.000000
_cell_angle_beta 161.496427
_cell_angle_gamma 90.000000
_cell_volume 940.460209
_symmetry_space_group_name_H-M "P 2/M"
_symmetry_group_IT_number 10
_symmetry_cell_setting 'monoclinic'
loop_
_space_group_symop_operation_xyz
x,y,z
-x,y,-z
-x,-y,-z
x,-y,z
loop_
_atom_site_type_symbol
_atom_site_label
_atom_site_fract_x
_atom_site_fract_y
_atom_site_fract_z
Si Si1 0.149901 0.500000 0.865434
Si Si2 0.136643 0.500000 0.386954
Si Si3 0.376415 0.500000 0.019738
Si Si4 0.697866 0.000000 0.506338
Si Si5 0.446863 0.740651 0.818061
Si Si6 0.094734 0.000000 0.985712
Si Si7 0.737531 0.500000 0.698964
Si Si8 0.294119 0.748196 0.202457
O O1 0.964481 0.500000 0.659367
O O2 0.199437 0.500000 0.827532
O O3 0.250735 0.642930 0.051674
O O4 0.265978 0.637319 0.565350
O O5 0.969494 0.500000 0.056841
O O6 0.388151 0.637513 0.972890
O O7 0.583852 0.500000 0.384688
O O8 0.591543 0.140310 0.316111
O O9 0.755789 0.000000 0.703055
O O10 0.890476 0.000000 0.730318
O O11 0.500000 0.802493 0.000000
O O12 0.133964 0.137831 0.982958
O O13 0.692310 0.641228 0.689042
O O14 0.500000 0.818075 0.500000
#
# Coordination Sequence:
#
# PCOD9142033 Si02
#       8
#     2   2   2   2   4   2   2   4
#     4  10  19  34  59  90 118 156 177 223 292 344
#     4   9  20  36  61  88 116 148 187 234 290 343
#     4  11  20  36  61  92 116 144 195 234 280 347
#     4  11  23  40  58  81 114 147 193 241 284 337
#     4  11  24  42  59  78 110 158 204 241 279 326
#     4  11  23  34  56  93 115 142 185 234 286 353
#     4  10  17  31  56  88 120 146 176 220 294 344
#     4  10  17  31  50  82 126 153 168 205 283 363
#
# _framework density 21.266185
#
# number of rings (size 3 to 8) (size 9 to 14) (size 15 to 20)
#    0.000    1.800    2.000    6.000    0.000    3.200 
#    0.000    2.000    0.000    1.200    0.000    4.200 
#    0.000    0.000    0.000    0.000    0.000    0.000 
#
# Total GULP energy -111580.141018 kJ/mol
# GULP energy per Si atom -5579.007051 kJ/mol
# Density = 2.121778 g / cm^3
# Si number density = 21.266185 Si / 1000 Ang^3
#
#
#
# Elastic Constant Matrix: (Units=GPa)
#
#
# Indices 1 2 3 4 5 6 
#
# 1 93.9422 18.9101 9.0231 0.0000 14.3283 0.0000
# 2 18.9101 103.0686 2.3435 0.0000 7.8936 0.0000
# 3 9.0231 2.3435 62.9418 0.0000 4.0275 0.0000
# 4 0.0000 0.0000 0.0000 12.5348 0.0000 1.9821
# 5 14.3283 7.8936 4.0275 0.0000 29.7914 0.0000
# 6 0.0000 0.0000 0.0000 1.9821 0.0000 20.4300
#
#
#
# Elastic Compliance Matrix: (Units=1/GPa)
#
#
# Indices 1 2 3 4 5 6 
#
# 1 0.011901 -0.001765 -0.001315 0.000000 -0.005078 0.000000
# 2 -0.001765 0.010167 -0.000008 0.000000 -0.001844 0.000000
# 3 -0.001315 -0.000008 0.016176 0.000000 -0.001552 0.000000
# 4 0.000000 0.000000 0.000000 0.081021 0.000000 -0.007860
# 5 -0.005078 -0.001844 -0.001552 0.000000 0.036708 0.000000
# 6 0.000000 0.000000 0.000000 -0.007860 0.000000 0.049710
#
#
# Mechanical properties :
#
#
# Convention : Reuss Voigt Hill
#
# Bulk Modulus (GPa) = 31.18276 35.61178 33.39727
# Shear Modulus (GPa) = 22.46709 27.86298 25.16504
#
# Velocity S-wave (km/s) = 3.25387 3.62360 3.44370
# Velocity P-wave (km/s) = 5.36766 5.85571 5.61699
#
# Compressibility (1/GPa) = 0.03206900
#
# Stress axis : x y z
#
# Youngs Moduli (GPa) = 84.02672 98.35303 61.82050
#
# Poissons Ratio (x) = 0.17356 0.08132
# Poissons Ratio (y) = 0.14828 0.00047
# Poissons Ratio (z) = 0.11053 0.00075
#
# Static dielectric constant tensor:
#      x y z
#    x 1.783680 0.000000 0.002340 
#    y 0.000000 1.681610 0.000000 
#    z 0.002340 0.000000 1.813150 
# 
# From -- ./inp_files/71391.got.cif
#   From: 2010.05.17/outbox.cif.g08.bks.cpg/sg10_36_cif.got.tgz:71391.got - 2010.06.03 11:33:40.
