data_PCOD9142191
_publ_section_title
;
Structure prediction by ZEFSAII (Michael W. Deem and Ramdas Pophale) SiO2 
 PCOD9142191
Probable space group: P 2/M
;
_chemical_formula_sum "Si O2"
_cell_formula_units_Z 32
_cell_length_a 13.300249
_cell_length_b 8.335731
_cell_length_c 15.386496
_cell_angle_alpha 90.000000
_cell_angle_beta 83.654573
_cell_angle_gamma 90.000000
_cell_volume 1695.408528
_symmetry_space_group_name_H-M "P 2/M"
_symmetry_group_IT_number 10
_symmetry_cell_setting 'monoclinic'
loop_
_space_group_symop_operation_xyz
x,y,z
-x,y,-z
-x,-y,-z
x,-y,z
loop_
_atom_site_type_symbol
_atom_site_label
_atom_site_fract_x
_atom_site_fract_y
_atom_site_fract_z
Si Si1 0.692234 0.691817 0.978680
Si Si2 0.588160 0.191590 0.155030
Si Si3 0.270202 0.308670 0.587546
Si Si4 0.698410 0.684417 0.608510
Si Si5 0.895743 0.806107 0.051736
Si Si6 0.364600 0.305266 0.208366
Si Si7 0.513004 0.177521 0.396726
Si Si8 0.794545 0.193506 0.234451
O O1 0.691159 0.500000 0.977806
O O2 0.672410 0.749649 0.882767
O O3 0.607792 0.748469 0.055402
O O4 0.799320 0.750755 0.005501
O O5 0.482319 0.253541 0.202712
O O6 0.687100 0.243996 0.200628
O O7 0.587731 0.000000 0.153959
O O8 0.278557 0.500000 0.580650
O O9 0.261005 0.247374 0.487910
O O10 0.373656 0.239731 0.618593
O O11 0.191279 0.262017 0.670133
O O12 0.731908 0.500000 0.607869
O O13 0.706911 0.754808 0.705200
O O14 0.576128 0.698382 0.614183
O O15 0.876555 0.758132 0.153894
O O16 0.895890 0.000000 0.050730
O O17 0.000000 0.747887 0.000000
O O18 0.362028 0.500000 0.211344
O O19 0.500000 0.154850 0.500000
O O20 0.500500 0.000000 0.356547
O O21 0.792604 0.000000 0.241362
#
# Coordination Sequence:
#
# PCOD9142191 Si02
#       8
#     4   4   4   4   4   4   4   4
#     4  10  20  33  50  72  96 123 155 192 235 280
#     4  10  20  32  46  66  94 129 166 200 234 275
#     4  10  18  27  41  61  86 118 155 192 227 266
#     4   9  18  30  41  56  83 121 161 195 226 262
#     4   9  19  37  58  77  96 117 143 181 233 289
#     4  10  20  32  45  64  94 131 166 198 232 268
#     4   9  16  25  37  54  79 113 154 198 235 262
#     4   9  18  31  47  69  95 121 149 185 232 279
#
# _framework density 18.874507999999999
#
# number of rings (size 3 to 8) (size 9 to 14) (size 15 to 20)
#    0.000    2.500    0.000    3.375    0.000    9.750 
#    0.000    0.000    0.000    0.000    0.000    0.875 
#    0.000    7.000    0.000    0.000    0.000    0.000 
#
# Total GULP energy -178138.942881 kJ/mol
# GULP energy per Si atom -5566.841965 kJ/mol
# Density = 1.883155 g / cm^3
# Si number density = 18.874508 Si / 1000 Ang^3
#
#
#
# Elastic Constant Matrix: (Units=GPa)
#
#
# Indices 1 2 3 4 5 6 
#
# 1 32.5373 2.5734 32.6148 0.0000 -18.7585 0.0000
# 2 2.5734 15.3460 10.9829 0.0000 -6.4294 0.0000
# 3 32.6148 10.9829 196.5933 0.0000 -25.9796 0.0000
# 4 0.0000 0.0000 0.0000 55.3121 0.0000 -9.5236
# 5 -18.7585 -6.4294 -25.9796 0.0000 19.1887 0.0000
# 6 0.0000 0.0000 0.0000 -9.5236 0.0000 5.9267
#
#
#
# Elastic Compliance Matrix: (Units=1/GPa)
#
#
# Indices 1 2 3 4 5 6 
#
# 1 0.078300 0.022692 -0.003821 0.000000 0.078974 0.000000
# 2 0.022692 0.082567 -0.002180 0.000000 0.046897 0.000000
# 3 -0.003821 -0.002180 0.006397 0.000000 0.004194 0.000000
# 4 0.000000 0.000000 0.000000 0.024995 0.000000 0.040164
# 5 0.078974 0.046897 0.004194 0.000000 0.150709 0.000000
# 6 0.000000 0.000000 0.000000 0.040164 0.000000 0.233267
#
#
# Mechanical properties :
#
#
# Convention : Reuss Voigt Hill
#
# Bulk Modulus (GPa) = 4.98394 37.42432 21.20413
# Shear Modulus (GPa) = 8.20029 29.30587 18.75308
#
# Velocity S-wave (km/s) = 2.08664 3.94467 3.15551
# Velocity P-wave (km/s) = 2.90719 6.37324 4.95328
#
# Compressibility (1/GPa) = 0.20064436
#
# Stress axis : x y z
#
# Youngs Moduli (GPa) = 12.77143 12.11140 156.33133
#
# Poissons Ratio (x) = -0.27483 0.59740
# Poissons Ratio (y) = -0.28981 0.34079
# Poissons Ratio (z) = 0.04880 0.02640
#
# Static dielectric constant tensor:
#      x y z
#    x 1.643170 0.000000 -0.005790 
#    y 0.000000 1.674510 0.000000 
#    z -0.005790 0.000000 1.770440 
# 
# From -- ./inp_files/66041.got.cif
#   From: 2010.05.17/outbox.cif.g08.bks.cpg/sg10_34_cif.got.tgz:66041.got - 2010.06.03 11:33:40.
