data_PCOD9142251
_publ_section_title
;
Structure prediction by ZEFSAII (Michael W. Deem and Ramdas Pophale) SiO2 
 PCOD9142251
Probable space group: P 2/M
;
_chemical_formula_sum "Si O2"
_cell_formula_units_Z 32
_cell_length_a 22.168686
_cell_length_b 11.233818
_cell_length_c 11.767270
_cell_angle_alpha 90.000000
_cell_angle_beta 32.823201
_cell_angle_gamma 90.000000
_cell_volume 1588.478104
_symmetry_space_group_name_H-M "P 2/M"
_symmetry_group_IT_number 10
_symmetry_cell_setting 'monoclinic'
loop_
_space_group_symop_operation_xyz
x,y,z
-x,y,-z
-x,-y,-z
x,-y,z
loop_
_atom_site_type_symbol
_atom_site_label
_atom_site_fract_x
_atom_site_fract_y
_atom_site_fract_z
Si Si1 0.422037 0.862132 0.355852
Si Si2 0.957330 0.276799 0.685442
Si Si3 0.842896 0.135337 0.227868
Si Si4 0.607289 0.299058 0.384336
Si Si5 0.632777 0.136810 0.907549
Si Si6 0.156306 0.372695 0.918544
Si Si7 0.266402 0.864051 0.997286
Si Si8 0.139998 0.140998 0.542270
O O1 0.290813 0.862180 0.540029
O O2 0.436042 0.783720 0.445208
O O3 0.453265 0.000000 0.328805
O O4 0.506733 0.817947 0.124135
O O5 0.858960 0.185192 0.807670
O O6 0.000000 0.331924 0.500000
O O7 0.056632 0.208120 0.591614
O O8 0.904387 0.361878 0.864014
O O9 0.867446 0.249616 0.111064
O O10 0.894091 0.149645 0.271930
O O11 0.867909 0.000000 0.144541
O O12 0.500000 0.361077 0.500000
O O13 0.711101 0.371325 0.268729
O O14 0.662976 0.215215 0.200869
O O15 0.683363 0.140195 0.955696
O O16 0.733742 0.189413 0.674478
O O17 0.621655 0.000000 0.884814
O O18 0.125857 0.500000 0.912214
O O19 0.268046 0.000000 0.955067
O O20 0.141114 0.000000 0.511689
#
# Coordination Sequence:
#
# PCOD9142251 Si02
#       8
#     4   4   4   4   4   4   4   4
#     4   9  16  27  46  77 118 155 186 226 280 335
#     4  11  22  36  56  80 111 152 191 232 285 345
#     4   9  20  39  60  85 115 151 194 241 285 331
#     4  10  18  29  51  80 109 147 189 229 278 337
#     4   9  16  25  44  76 114 152 184 220 273 336
#     4  10  24  43  61  83 113 150 191 238 287 343
#     4  10  18  27  44  78 120 153 183 222 274 338
#     4  10  20  34  54  83 118 153 194 241 286 331
#
# _framework density 20.145068999999999
#
# number of rings (size 3 to 8) (size 9 to 14) (size 15 to 20)
#    0.000    2.250    2.500    0.750    0.000    6.000 
#    0.000    5.000    0.000    0.000    0.000    7.875 
#    0.000    0.000    0.000    0.000    0.000    0.000 
#
# Total GULP energy -178453.313430 kJ/mol
# GULP energy per Si atom -5576.666045 kJ/mol
# Density = 2.009922 g / cm^3
# Si number density = 20.145069 Si / 1000 Ang^3
#
#
#
# Elastic Constant Matrix: (Units=GPa)
#
#
# Indices 1 2 3 4 5 6 
#
# 1 62.5332 26.8864 26.4563 0.0000 0.7185 0.0000
# 2 26.8864 96.0565 39.6484 0.0000 9.9381 0.0000
# 3 26.4563 39.6484 102.0796 0.0000 -3.7451 0.0000
# 4 0.0000 0.0000 0.0000 -10.9171 0.0000 4.5782
# 5 0.7185 9.9381 -3.7451 0.0000 38.6712 0.0000
# 6 0.0000 0.0000 0.0000 4.5782 0.0000 -0.0948
#
#
#
# Elastic Compliance Matrix: (Units=1/GPa)
#
#
# Indices 1 2 3 4 5 6 
#
# 1 0.019141 -0.003990 -0.003399 0.000000 0.000341 0.000000
# 2 -0.003990 0.013770 -0.004457 0.000000 -0.003896 0.000000
# 3 -0.003399 -0.004457 0.012497 0.000000 0.002419 0.000000
# 4 0.000000 0.000000 0.000000 0.004757 0.000000 0.229772
# 5 0.000341 -0.003896 0.002419 0.000000 0.027088 0.000000
# 6 0.000000 0.000000 0.000000 0.229772 0.000000 0.547917
#
#
# Mechanical properties :
#
#
# Convention : Reuss Voigt Hill
#
# Bulk Modulus (GPa) = 46.04792 49.62795 47.83793
# Shear Modulus (GPa) = 7.62078 16.71040 12.16559
#
# Velocity S-wave (km/s) = 1.94709 2.88323 2.46010
# Velocity P-wave (km/s) = 5.28797 5.98104 5.64515
#
# Compressibility (1/GPa) = 0.02171651
#
# Stress axis : x y z
#
# Youngs Moduli (GPa) = 52.24391 72.62007 80.01863
#
# Poissons Ratio (x) = 0.28976 0.27195
# Poissons Ratio (y) = 0.20846 0.35667
# Poissons Ratio (z) = 0.17755 0.32369
#
# Static dielectric constant tensor:
#      x y z
#    x 1.744810 0.000000 -0.022890 
#    y 0.000000 1.681320 0.000000 
#    z -0.022890 0.000000 1.770120 
# 
# From -- ./inp_files/56962.got.cif
#   From: 2010.05.17/outbox.cif.g08.bks.cpg/sg10_29_cif.got.tgz:56962.got - 2010.06.03 11:33:40.
