data_PCOD9142113
_publ_section_title
;
Structure prediction by ZEFSAII (Michael W. Deem and Ramdas Pophale) SiO2 
 PCOD9142113
Probable space group: P 2/M
;
_chemical_formula_sum "Si O2"
_cell_formula_units_Z 30
_cell_length_a 5.376999
_cell_length_b 12.818458
_cell_length_c 26.060739
_cell_angle_alpha 90.000000
_cell_angle_beta 82.524242
_cell_angle_gamma 90.000000
_cell_volume 1780.964182
_symmetry_space_group_name_H-M "P 2/M"
_symmetry_group_IT_number 10
_symmetry_cell_setting 'monoclinic'
loop_
_space_group_symop_operation_xyz
x,y,z
-x,y,-z
-x,-y,-z
x,-y,z
loop_
_atom_site_type_symbol
_atom_site_label
_atom_site_fract_x
_atom_site_fract_y
_atom_site_fract_z
Si Si1 0.121204 0.873669 0.210647
Si Si2 0.584426 0.305831 0.556760
Si Si3 0.475175 0.381902 0.664495
Si Si4 0.000000 0.203094 0.500000
Si Si5 0.659672 0.126385 0.149014
Si Si6 0.245752 0.881149 0.589170
Si Si7 0.731140 0.872781 0.029844
Si Si8 0.968850 0.750911 0.682036
O O1 0.390969 0.843475 0.179674
O O2 0.080659 0.817901 0.265795
O O3 0.894301 0.844185 0.178425
O O4 0.117664 0.000000 0.216738
O O5 0.500000 0.323689 0.500000
O O6 0.499547 0.385228 0.601662
O O7 0.875624 0.283694 0.543112
O O8 0.481512 0.195803 0.581323
O O9 0.479223 0.500000 0.684492
O O10 0.719279 0.315881 0.675784
O O11 0.212865 0.323599 0.683066
O O12 0.841707 0.129432 0.467493
O O13 0.694008 0.162067 0.089482
O O14 0.659480 0.000000 0.147472
O O15 0.049761 0.830479 0.634323
O O16 0.299652 0.000000 0.601155
O O17 0.730823 0.000000 0.030145
O O18 0.500000 0.840255 0.000000
O O19 0.000000 0.840353 0.000000
#
# Coordination Sequence:
#
# PCOD9142113 Si02
#       8
#     4   4   4   2   4   4   4   4
#     4  10  19  32  50  72 102 136 171 213 253 294
#     4   9  20  35  52  74 103 123 159 195 238 303
#     4  11  23  41  59  76  96 124 159 206 257 305
#     4  10  17  34  49  72 100 126 157 194 241 296
#     4   9  17  28  43  67  98 137 181 216 249 287
#     4  10  20  32  50  73 102 133 159 194 242 298
#     4   9  15  23  37  59  91 133 181 225 248 267
#     4  11  22  39  55  78 100 126 168 209 249 305
#
# _framework density 16.844809999999999
#
# number of rings (size 3 to 8) (size 9 to 14) (size 15 to 20)
#    0.000    2.133    1.333    2.600    0.000    6.400 
#    0.000    1.667    0.000    0.000    0.000    0.000 
#    0.000    0.000    0.000    0.000    0.000  168.000 
#
# Total GULP energy -167063.816457 kJ/mol
# GULP energy per Si atom -5568.793882 kJ/mol
# Density = 1.680647 g / cm^3
# Si number density = 16.844810 Si / 1000 Ang^3
#
#
#
# Elastic Constant Matrix: (Units=GPa)
#
#
# Indices 1 2 3 4 5 6 
#
# 1 119.3947 27.5617 56.2395 0.0000 -10.2103 0.0000
# 2 27.5617 62.9295 22.4631 0.0000 -2.5173 0.0000
# 3 56.2395 22.4631 129.6948 0.0000 -8.8969 0.0000
# 4 0.0000 0.0000 0.0000 7.4934 0.0000 3.4708
# 5 -10.2103 -2.5173 -8.8969 0.0000 26.6886 0.0000
# 6 0.0000 0.0000 0.0000 3.4708 0.0000 6.4303
#
#
#
# Elastic Compliance Matrix: (Units=1/GPa)
#
#
# Indices 1 2 3 4 5 6 
#
# 1 0.011335 -0.003378 -0.004149 0.000000 0.002635 0.000000
# 2 -0.003378 0.017955 -0.001655 0.000000 -0.000151 0.000000
# 3 -0.004149 -0.001655 0.009903 0.000000 0.001558 0.000000
# 4 0.000000 0.000000 0.000000 0.177934 0.000000 -0.096041
# 5 0.002635 -0.000151 0.001558 0.000000 0.038982 0.000000
# 6 0.000000 0.000000 0.000000 -0.096041 0.000000 0.207354
#
#
# Mechanical properties :
#
#
# Convention : Reuss Voigt Hill
#
# Bulk Modulus (GPa) = 48.01227 58.28309 53.14768
# Shear Modulus (GPa) = 10.22972 21.83943 16.03457
#
# Velocity S-wave (km/s) = 2.46700 3.60461 3.08863
# Velocity P-wave (km/s) = 6.05635 7.21106 6.65878
#
# Compressibility (1/GPa) = 0.02082801
#
# Stress axis : x y z
#
# Youngs Moduli (GPa) = 88.22026 55.69426 100.97619
#
# Poissons Ratio (x) = 0.18814 0.41900
# Poissons Ratio (y) = 0.29801 0.16715
# Poissons Ratio (z) = 0.36607 0.09219
#
# Static dielectric constant tensor:
#      x y z
#    x 1.628050 0.000000 -0.001240 
#    y 0.000000 1.549550 0.000000 
#    z -0.001240 0.000000 1.576820 
# 
# From -- ./inp_files/13202.got.cif
#   From: 2010.05.17/outbox.cif.g08.bks.cpg/sg10_7_cif.got.tgz:13202.got - 2010.06.03 11:33:40.
