data_PCOD9142845
_publ_section_title
;
Structure prediction by ZEFSAII (Michael W. Deem and Ramdas Pophale) SiO2 
 PCOD9142845
Probable space group: P 2/M
;
_chemical_formula_sum "Si O2"
_cell_formula_units_Z 28
_cell_length_a 22.466850
_cell_length_b 7.388190
_cell_length_c 18.752001
_cell_angle_alpha 90.000000
_cell_angle_beta 154.310428
_cell_angle_gamma 90.000000
_cell_volume 1349.310905
_symmetry_space_group_name_H-M "P 2/M"
_symmetry_group_IT_number 10
_symmetry_cell_setting 'monoclinic'
loop_
_space_group_symop_operation_xyz
x,y,z
-x,y,-z
-x,-y,-z
x,-y,z
loop_
_atom_site_type_symbol
_atom_site_label
_atom_site_fract_x
_atom_site_fract_y
_atom_site_fract_z
Si Si1 0.157878 0.720912 0.162913
Si Si2 0.606871 0.286777 0.681763
Si Si3 0.634579 0.721786 0.486171
Si Si4 0.203086 0.281619 0.761579
Si Si5 0.265494 0.294979 0.557190
Si Si6 0.920347 0.278765 0.522373
Si Si7 0.494162 0.207757 0.913612
O O1 0.156220 0.500000 0.158545
O O2 0.247696 0.783312 0.191191
O O3 0.249624 0.770552 0.330709
O O4 0.000000 0.780084 0.000000
O O5 0.500000 0.273274 0.500000
O O6 0.628895 0.500000 0.719310
O O7 0.515509 0.215062 0.648630
O O8 0.627490 0.500000 0.477869
O O9 0.681210 0.786007 0.458884
O O10 0.206025 0.500000 0.764807
O O11 0.169437 0.224768 0.643768
O O12 0.075138 0.224542 0.671762
O O13 0.349903 0.214443 0.944391
O O14 0.222275 0.500000 0.492627
O O15 0.143405 0.212930 0.472648
O O16 0.391353 0.300642 0.748653
O O17 0.916346 0.500000 0.519128
O O18 0.448371 0.000000 0.869956
O O19 0.500000 0.286128 0.000000
#
# Coordination Sequence:
#
# PCOD9142845 Si02
#       7
#     4   4   4   4   4   4   4
#     4   8  12  19  33  54  82 115 144 173 211 253
#     4   7  10  18  31  48  76 109 138 167 201 247
#     4   8  14  23  36  57  83 114 148 176 211 264
#     4   9  16  30  49  66  85 112 149 186 227 273
#     4  10  18  30  48  67  90 120 153 190 231 270
#     4   8  15  27  46  68  87 111 144 185 227 270
#     4  11  22  33  45  66  91 115 151 195 231 271
#
# _framework density 20.751331
#
# number of rings (size 3 to 8) (size 9 to 14) (size 15 to 20)
#    0.000    3.286    1.429    3.000    0.000    0.571 
#    0.000    3.571    0.000    6.857    0.000    0.000 
#    0.000    5.714    0.000    0.000    0.000    1.857 
#
# Total GULP energy -156030.379401 kJ/mol
# GULP energy per Si atom -5572.513550 kJ/mol
# Density = 2.070410 g / cm^3
# Si number density = 20.751331 Si / 1000 Ang^3
#
#
#
# Elastic Constant Matrix: (Units=GPa)
#
#
# Indices 1 2 3 4 5 6 
#
# 1 217.1788 9.5808 58.1095 0.0000 31.4950 0.0000
# 2 9.5808 72.1754 -2.8124 0.0000 2.1473 0.0000
# 3 58.1095 -2.8124 68.0807 0.0000 33.0880 0.0000
# 4 0.0000 0.0000 0.0000 -83.9720 0.0000 8.2223
# 5 31.4950 2.1473 33.0880 0.0000 36.2574 0.0000
# 6 0.0000 0.0000 0.0000 8.2223 0.0000 -6.8646
#
#
#
# Elastic Compliance Matrix: (Units=1/GPa)
#
#
# Indices 1 2 3 4 5 6 
#
# 1 0.006052 -0.000967 -0.004813 0.000000 -0.000807 0.000000
# 2 -0.000967 0.014151 0.002532 0.000000 -0.002309 0.000000
# 3 -0.004813 0.002532 0.030446 0.000000 -0.023753 0.000000
# 4 0.000000 0.000000 0.000000 -0.013491 0.000000 -0.016159
# 5 -0.000807 -0.002309 -0.023753 0.000000 0.050095 0.000000
# 6 0.000000 0.000000 0.000000 -0.016159 0.000000 -0.165029
#
#
# Mechanical properties :
#
#
# Convention : Reuss Voigt Hill
#
# Bulk Modulus (GPa) = 22.64889 54.13229 38.39059
# Shear Modulus (GPa) = -88.39809 8.58796 -39.90506
#
# Velocity S-wave (km/s) = -6.53385 2.03654 -4.38997
# Velocity P-wave (km/s) = 6.78112 5.62786 2.67495
#
# Compressibility (1/GPa) = 0.04415228
#
# Stress axis : x y z
#
# Youngs Moduli (GPa) = 165.23201 70.66720 32.84536
#
# Poissons Ratio (x) = 0.06833 0.15809
# Poissons Ratio (y) = 0.15976 -0.08316
# Poissons Ratio (z) = 0.79530 -0.17893
#
# Static dielectric constant tensor:
#      x y z
#    x 1.788500 0.000000 0.039170 
#    y 0.000000 1.792320 0.000000 
#    z 0.039170 0.000000 1.699200 
# 
# From -- ./inp_files/79315.got.cif
#   From: 2010.05.17/outbox.cif.g08.bks.cpg/sg10_40_cif.got.tgz:79315.got - 2010.06.03 11:33:40.
