data_PCOD9142468
_publ_section_title
;
Structure prediction by ZEFSAII (Michael W. Deem and Ramdas Pophale) SiO2 
 PCOD9142468
Probable space group: P 2/M
;
_chemical_formula_sum "Si O2"
_cell_formula_units_Z 32
_cell_length_a 23.051259
_cell_length_b 7.580512
_cell_length_c 17.039526
_cell_angle_alpha 90.000000
_cell_angle_beta 148.220270
_cell_angle_gamma 90.000000
_cell_volume 1568.111662
_symmetry_space_group_name_H-M "P 2/M"
_symmetry_group_IT_number 10
_symmetry_cell_setting 'monoclinic'
loop_
_space_group_symop_operation_xyz
x,y,z
-x,y,-z
-x,-y,-z
x,-y,z
loop_
_atom_site_type_symbol
_atom_site_label
_atom_site_fract_x
_atom_site_fract_y
_atom_site_fract_z
Si Si1 0.110475 0.203785 0.176670
Si Si2 0.280597 0.714289 0.554680
Si Si3 0.203944 0.712475 0.012616
Si Si4 0.435271 0.792415 0.589967
Si Si5 0.364933 0.701948 0.071853
Si Si6 0.311203 0.212231 0.301178
Si Si7 0.954732 0.698423 0.730264
Si Si8 0.487416 0.716162 0.896061
O O1 0.205168 0.272952 0.229021
O O2 0.083334 0.308267 0.223217
O O3 0.136416 0.000000 0.227970
O O4 0.000000 0.200634 0.000000
O O5 0.276959 0.500000 0.549120
O O6 0.328935 0.770570 0.525039
O O7 0.157674 0.779762 0.434089
O O8 0.372579 0.768861 0.723458
O O9 0.197987 0.500000 0.001862
O O10 0.077553 0.778899 0.872327
O O11 0.264132 0.782346 0.003977
O O12 0.281794 0.746553 0.177731
O O13 0.533797 0.701168 0.749697
O O14 0.410729 0.728305 0.473033
O O15 0.461872 0.000000 0.616881
O O16 0.334708 0.500000 0.019051
O O17 0.415613 0.779377 0.050675
O O18 0.316929 0.000000 0.310572
O O19 0.965484 0.500000 0.710179
O O20 0.489496 0.500000 0.896995
O O21 0.500000 0.772440 0.000000
#
# Coordination Sequence:
#
# PCOD9142468 Si02
#       8
#     4   4   4   4   4   4   4   4
#     4  10  18  29  43  61  88 122 160 202 236 261
#     4   9  17  29  47  72  98 120 147 188 233 275
#     4  10  21  33  45  63  91 129 164 192 226 271
#     4  10  19  31  48  68  91 121 158 200 239 271
#     4   9  19  35  50  67  93 122 153 189 231 279
#     4  10  20  31  44  64  91 124 162 202 237 267
#     4  10  19  29  44  66  92 123 157 192 228 268
#     4   8  14  28  53  77  91 111 146 185 228 280
#
# _framework density 20.40671
#
# number of rings (size 3 to 8) (size 9 to 14) (size 15 to 20)
#    0.000    2.500    2.500    1.125    0.000    2.750 
#    0.000    2.500    0.000    6.750    0.000    5.250 
#    0.000    0.000    0.000   11.250    0.000   12.500 
#
# Total GULP energy -178308.974830 kJ/mol
# GULP energy per Si atom -5572.155463 kJ/mol
# Density = 2.036026 g / cm^3
# Si number density = 20.406710 Si / 1000 Ang^3
#
#
#
# Elastic Constant Matrix: (Units=GPa)
#
#
# Indices 1 2 3 4 5 6 
#
# 1 124.1334 -2.7096 49.2798 0.0000 -16.8836 0.0000
# 2 -2.7096 50.3099 -1.5939 0.0000 -2.9512 0.0000
# 3 49.2798 -1.5939 73.4814 0.0000 -21.6780 0.0000
# 4 0.0000 0.0000 0.0000 17.6616 0.0000 -17.5027
# 5 -16.8836 -2.9512 -21.6780 0.0000 21.3234 0.0000
# 6 0.0000 0.0000 0.0000 -17.5027 0.0000 25.2429
#
#
#
# Elastic Compliance Matrix: (Units=1/GPa)
#
#
# Indices 1 2 3 4 5 6 
#
# 1 0.011035 0.000486 -0.006846 0.000000 0.001845 0.000000
# 2 0.000486 0.020227 0.001503 0.000000 0.004712 0.000000
# 3 -0.006846 0.001503 0.023847 0.000000 0.019031 0.000000
# 4 0.000000 0.000000 0.000000 0.180970 0.000000 0.125479
# 5 0.001845 0.004712 0.019031 0.000000 0.068358 0.000000
# 6 0.000000 0.000000 0.000000 0.125479 0.000000 0.126619
#
#
# Mechanical properties :
#
#
# Convention : Reuss Voigt Hill
#
# Bulk Modulus (GPa) = 22.02868 37.54191 29.78530
# Shear Modulus (GPa) = 10.96730 26.37546 18.67138
#
# Velocity S-wave (km/s) = 2.32078 3.59902 3.02812
# Velocity P-wave (km/s) = 4.24260 5.97557 5.18204
#
# Compressibility (1/GPa) = 0.04539537
#
# Stress axis : x y z
#
# Youngs Moduli (GPa) = 90.61988 49.43884 41.93391
#
# Poissons Ratio (x) = -0.02401 0.28707
# Poissons Ratio (y) = -0.04401 -0.06303
# Poissons Ratio (z) = 0.62036 -0.07432
#
# Static dielectric constant tensor:
#      x y z
#    x 1.745070 0.000000 0.043180 
#    y 0.000000 1.799660 0.000000 
#    z 0.043180 0.000000 1.772990 
# 
# From -- ./inp_files/70056.got.cif
#   From: 2010.05.17/outbox.cif.g08.bks.cpg/sg10_36_cif.got.tgz:70056.got - 2010.06.03 11:33:40.
