data_PCOD9142988
_publ_section_title
;
Structure prediction by ZEFSAII (Michael W. Deem and Ramdas Pophale) SiO2 
 PCOD9142988
Probable space group: P 2/M
;
_chemical_formula_sum "Si O2"
_cell_formula_units_Z 28
_cell_length_a 29.375972
_cell_length_b 8.448159
_cell_length_c 9.945569
_cell_angle_alpha 90.000000
_cell_angle_beta 141.106347
_cell_angle_gamma 90.000000
_cell_volume 1549.738511
_symmetry_space_group_name_H-M "P 2/M"
_symmetry_group_IT_number 10
_symmetry_cell_setting 'monoclinic'
loop_
_space_group_symop_operation_xyz
x,y,z
-x,y,-z
-x,-y,-z
x,-y,z
loop_
_atom_site_type_symbol
_atom_site_label
_atom_site_fract_x
_atom_site_fract_y
_atom_site_fract_z
Si Si1 0.312789 0.308600 0.250595
Si Si2 0.798529 0.690718 0.231705
Si Si3 0.917487 0.809003 0.302789
Si Si4 0.542314 0.313345 0.292118
Si Si5 0.401580 0.814970 0.859759
Si Si6 0.192618 0.810707 0.177997
Si Si7 0.755381 0.310822 0.427077
O O1 0.310387 0.500000 0.257363
O O2 0.396381 0.261514 0.460899
O O3 0.264347 0.237633 0.259322
O O4 0.271861 0.263451 0.019412
O O5 0.802553 0.500000 0.238618
O O6 0.868460 0.755677 0.315201
O O7 0.789481 0.742400 0.364250
O O8 0.000000 0.751662 0.500000
O O9 0.918426 0.000000 0.303512
O O10 0.874635 0.757646 0.069655
O O11 0.528336 0.500000 0.275681
O O12 0.578871 0.282396 0.230078
O O13 0.466245 0.223206 0.112357
O O14 0.323472 0.765797 0.733655
O O15 0.402709 0.000000 0.827827
O O16 0.197114 0.735194 0.334690
O O17 0.190973 0.000000 0.187078
O O18 0.746378 0.500000 0.402435
#
# Coordination Sequence:
#
# PCOD9142988 Si02
#       7
#     4   4   4   4   4   4   4
#     4   9  17  32  53  75 100 132 174 220 262 307
#     4   9  20  36  55  79 105 137 175 214 258 307
#     4   9  19  37  59  83 109 136 167 206 255 311
#     4  10  18  30  50  74 101 134 174 219 271 313
#     4  11  21  31  47  72 104 137 176 221 263 308
#     4  10  19  31  53  80 104 134 173 212 253 306
#     4  11  21  35  52  74 107 141 175 216 261 310
#
# _framework density 18.067563
#
# number of rings (size 3 to 8) (size 9 to 14) (size 15 to 20)
#    0.000    2.143    1.429    3.429    0.000    2.571 
#    0.000    1.429    0.000    8.571    0.000    0.000 
#    0.000    0.000    0.000    0.000    0.000    0.000 
#
# Total GULP energy -156227.491619 kJ/mol
# GULP energy per Si atom -5579.553272 kJ/mol
# Density = 1.802644 g / cm^3
# Si number density = 18.067563 Si / 1000 Ang^3
#
#
#
# Elastic Constant Matrix: (Units=GPa)
#
#
# Indices 1 2 3 4 5 6 
#
# 1 84.5455 4.9422 68.4805 0.0000 -4.5297 0.0000
# 2 4.9422 16.2568 10.7382 0.0000 0.0166 0.0000
# 3 68.4805 10.7382 120.9322 0.0000 6.7907 0.0000
# 4 0.0000 0.0000 0.0000 24.7678 0.0000 0.7281
# 5 -4.5297 0.0166 6.7907 0.0000 33.9781 0.0000
# 6 0.0000 0.0000 0.0000 0.7281 0.0000 23.5039
#
#
#
# Elastic Compliance Matrix: (Units=1/GPa)
#
#
# Indices 1 2 3 4 5 6 
#
# 1 0.022951 0.001928 -0.013491 0.000000 0.005755 0.000000
# 2 0.001928 0.065551 -0.007004 0.000000 0.001625 0.000000
# 3 -0.013491 -0.007004 0.016820 0.000000 -0.005157 0.000000
# 4 0.000000 0.000000 0.000000 0.040412 0.000000 -0.001252
# 5 0.005755 0.001625 -0.005157 0.000000 0.031228 0.000000
# 6 0.000000 0.000000 0.000000 -0.001252 0.000000 0.042585
#
#
# Mechanical properties :
#
#
# Convention : Reuss Voigt Hill
#
# Bulk Modulus (GPa) = 14.66505 43.33957 29.00231
# Shear Modulus (GPa) = 17.89490 25.62154 21.75822
#
# Velocity S-wave (km/s) = 3.15055 3.76985 3.47402
# Velocity P-wave (km/s) = 4.62266 6.55657 5.67263
#
# Compressibility (1/GPa) = 0.06818935
#
# Stress axis : x y z
#
# Youngs Moduli (GPa) = 43.57125 15.25524 59.45302
#
# Poissons Ratio (x) = -0.02941 0.80207
# Poissons Ratio (y) = -0.08401 0.41639
# Poissons Ratio (z) = 0.58781 0.10684
#
# Static dielectric constant tensor:
#      x y z
#    x 1.580190 0.000000 -0.002190 
#    y 0.000000 1.615840 0.000000 
#    z -0.002190 0.000000 1.659610 
# 
# From -- ./inp_files/38043.got.cif
#   From: 2010.05.17/outbox.cif.g08.bks.cpg/sg10_20_cif.got.tgz:38043.got - 2010.06.03 11:33:40.
