data_PCOD9142616
_publ_section_title
;
Structure prediction by ZEFSAII (Michael W. Deem and Ramdas Pophale) SiO2 
 PCOD9142616
Probable space group: P 2/M
;
_chemical_formula_sum "Si O2"
_cell_formula_units_Z 28
_cell_length_a 14.818255
_cell_length_b 7.453938
_cell_length_c 15.087328
_cell_angle_alpha 90.000000
_cell_angle_beta 60.115342
_cell_angle_gamma 90.000000
_cell_volume 1444.872069
_symmetry_space_group_name_H-M "P 2/M"
_symmetry_group_IT_number 10
_symmetry_cell_setting 'monoclinic'
loop_
_space_group_symop_operation_xyz
x,y,z
-x,y,-z
-x,-y,-z
x,-y,z
loop_
_atom_site_type_symbol
_atom_site_label
_atom_site_fract_x
_atom_site_fract_y
_atom_site_fract_z
Si Si1 0.830557 0.281386 0.834491
Si Si2 0.887768 0.719349 0.096815
Si Si3 0.522239 0.207189 0.889582
Si Si4 0.741205 0.711000 0.698149
Si Si5 0.300011 0.716664 0.937749
Si Si6 0.935373 0.281853 0.265773
Si Si7 0.903226 0.280942 0.482802
O O1 0.827935 0.500000 0.834394
O O2 0.805882 0.214171 0.749270
O O3 0.944688 0.231512 0.808860
O O4 0.744265 0.223040 0.945644
O O5 0.889464 0.500000 0.093033
O O6 0.786507 0.776683 0.090661
O O7 0.877776 0.775380 0.204409
O O8 0.000000 0.774287 0.000000
O O9 0.621517 0.274690 0.785787
O O10 0.419302 0.225391 0.879992
O O11 0.545757 0.000000 0.893501
O O12 0.500000 0.286821 0.000000
O O13 0.763165 0.500000 0.684668
O O14 0.795182 0.777806 0.582147
O O15 0.300537 0.500000 0.934800
O O16 0.929246 0.500000 0.270444
O O17 0.908610 0.219556 0.378082
O O18 0.909271 0.500000 0.475116
O O19 0.000000 0.228440 0.500000
#
# Coordination Sequence:
#
# PCOD9142616 Si02
#       7
#     4   4   4   4   4   4   4
#     4   9  14  21  40  69  99 123 146 182 223 270
#     4   9  15  23  40  69 101 127 151 185 231 277
#     4  11  23  35  47  66  93 124 156 195 243 282
#     4  10  18  29  47  71  96 125 159 189 224 276
#     4  10  18  29  47  71  96 125 159 189 224 276
#     4   9  14  22  37  67 106 130 147 182 231 276
#     4   9  15  23  40  69 101 127 151 185 231 277
#
# _framework density 19.378876999999999
#
# number of rings (size 3 to 8) (size 9 to 14) (size 15 to 20)
#    0.000    2.429    4.286    0.429    0.000    0.571 
#    0.000    0.000    0.000    1.714    0.000    7.000 
#    0.000    0.000    0.000    0.000    0.000    0.000 
#
# Total GULP energy -156031.075899 kJ/mol
# GULP energy per Si atom -5572.538425 kJ/mol
# Density = 1.933477 g / cm^3
# Si number density = 19.378877 Si / 1000 Ang^3
#
#
#
# Elastic Constant Matrix: (Units=GPa)
#
#
# Indices 1 2 3 4 5 6 
#
# 1 95.3051 -7.9840 42.1492 0.0000 4.6513 0.0000
# 2 -7.9840 52.8692 -0.7954 0.0000 3.0068 0.0000
# 3 42.1492 -0.7954 116.8014 0.0000 5.9538 0.0000
# 4 0.0000 0.0000 0.0000 37.8539 0.0000 -50.8962
# 5 4.6513 3.0068 5.9538 0.0000 28.8647 0.0000
# 6 0.0000 0.0000 0.0000 -50.8962 0.0000 52.2468
#
#
#
# Elastic Compliance Matrix: (Units=1/GPa)
#
#
# Indices 1 2 3 4 5 6 
#
# 1 0.012712 0.001927 -0.004507 0.000000 -0.001320 0.000000
# 2 0.001927 0.019326 -0.000450 0.000000 -0.002231 0.000000
# 3 -0.004507 -0.000450 0.010253 0.000000 -0.001342 0.000000
# 4 0.000000 0.000000 0.000000 -0.085276 0.000000 -0.083072
# 5 -0.001320 -0.002231 -0.001342 0.000000 0.035366 0.000000
# 6 0.000000 0.000000 0.000000 -0.083072 0.000000 -0.061784
#
#
# Mechanical properties :
#
#
# Convention : Reuss Voigt Hill
#
# Bulk Modulus (GPa) = 27.60093 36.85727 32.22910
# Shear Modulus (GPa) = -97.52811 39.23345 -29.14733
#
# Velocity S-wave (km/s) = -7.10185 4.50438 -3.88245
# Velocity P-wave (km/s) = 7.27837 6.79067 1.85223
#
# Compressibility (1/GPa) = 0.03623066
#
# Stress axis : x y z
#
# Youngs Moduli (GPa) = 78.66847 51.74458 97.53059
#
# Poissons Ratio (x) = -0.09971 0.43955
# Poissons Ratio (y) = -0.15158 0.04389
# Poissons Ratio (z) = 0.35454 0.02329
#
# Static dielectric constant tensor:
#      x y z
#    x 1.661690 0.000000 0.009950 
#    y 0.000000 1.765350 0.000000 
#    z 0.009950 0.000000 1.696600 
# 
# From -- ./inp_files/65921.got.cif
#   From: 2010.05.17/outbox.cif.g08.bks.cpg/sg10_33_cif.got.tgz:65921.got - 2010.06.03 11:33:40.
