data_PCOD9142004
_publ_section_title
;
Structure prediction by ZEFSAII (Michael W. Deem and Ramdas Pophale) SiO2 
 PCOD9142004
Probable space group: P 2/M
;
_chemical_formula_sum "Si O2"
_cell_formula_units_Z 32
_cell_length_a 14.936481
_cell_length_b 7.445301
_cell_length_c 22.694036
_cell_angle_alpha 90.000000
_cell_angle_beta 150.559915
_cell_angle_gamma 90.000000
_cell_volume 1240.444763
_symmetry_space_group_name_H-M "P 2/M"
_symmetry_group_IT_number 10
_symmetry_cell_setting 'monoclinic'
loop_
_space_group_symop_operation_xyz
x,y,z
-x,y,-z
-x,-y,-z
x,-y,z
loop_
_atom_site_type_symbol
_atom_site_label
_atom_site_fract_x
_atom_site_fract_y
_atom_site_fract_z
Si Si1 0.587834 0.280031 0.397130
Si Si2 0.187572 0.717547 0.358957
Si Si3 0.215875 0.207076 0.749326
Si Si4 0.439269 0.703665 0.123359
Si Si5 0.885205 0.704576 0.486064
Si Si6 0.760584 0.207111 0.109525
Si Si7 0.891792 0.719323 0.996338
Si Si8 0.240092 0.718128 0.261618
O O1 0.588677 0.500000 0.394499
O O2 0.703976 0.226045 0.521178
O O3 0.383317 0.222375 0.294351
O O4 0.698371 0.216536 0.403550
O O5 0.183342 0.500000 0.357387
O O6 0.283143 0.772902 0.352676
O O7 0.979638 0.781090 0.237181
O O8 0.369079 0.216274 0.786853
O O9 0.031140 0.300751 0.622995
O O10 0.292728 0.276820 0.855793
O O11 0.168288 0.000000 0.732132
O O12 0.478802 0.500000 0.163514
O O13 0.319465 0.702406 0.994435
O O14 0.307593 0.782955 0.098302
O O15 0.846159 0.500000 0.444890
O O16 0.000000 0.794882 0.500000
O O17 0.699619 0.000000 0.069662
O O18 0.878911 0.500000 0.985864
O O19 0.034909 0.769773 0.129099
O O20 0.000000 0.776195 0.000000
O O21 0.245830 0.500000 0.263369
#
# Coordination Sequence:
#
# PCOD9142004 Si02
#       8
#     4   4   4   4   4   4   4   4
#     4   9  17  29  51  81 112 140 173 229 284 326
#     4  10  17  30  54  81 106 139 184 228 281 337
#     4  11  24  40  58  82 114 155 192 230 285 345
#     4  11  22  37  60  89 115 146 187 236 286 335
#     4  10  21  37  58  86 114 145 191 240 281 326
#     4  11  22  36  56  82 114 151 188 229 285 345
#     4   9  18  32  52  82 115 144 178 225 279 331
#     4   9  16  28  49  80 111 138 175 223 277 332
#
# _framework density 25.797197000000001
#
# number of rings (size 3 to 8) (size 9 to 14) (size 15 to 20)
#    0.000    2.000    2.500    1.875    0.000    5.750 
#    0.000    3.750    0.000    3.750    0.000    0.000 
#    0.000    0.000    0.000    0.000    0.000    0.000 
#
# Total GULP energy -178964.941168 kJ/mol
# GULP energy per Si atom -5592.654412 kJ/mol
# Density = 2.573848 g / cm^3
# Si number density = 25.797197 Si / 1000 Ang^3
#
#
#
# Elastic Constant Matrix: (Units=GPa)
#
#
# Indices 1 2 3 4 5 6 
#
# 1 189.8949 3.7047 21.1057 0.0000 35.7423 0.0000
# 2 3.7047 83.3362 -1.6135 0.0000 -0.5332 0.0000
# 3 21.1057 -1.6135 81.7892 0.0000 22.6269 0.0000
# 4 0.0000 0.0000 0.0000 240.7859 0.0000 98.8093
# 5 35.7423 -0.5332 22.6269 0.0000 47.9878 0.0000
# 6 0.0000 0.0000 0.0000 98.8093 0.0000 58.4038
#
#
#
# Elastic Compliance Matrix: (Units=1/GPa)
#
#
# Indices 1 2 3 4 5 6 
#
# 1 0.006142 -0.000308 -0.000373 0.000000 -0.004402 0.000000
# 2 -0.000308 0.012020 0.000249 0.000000 0.000246 0.000000
# 3 -0.000373 0.000249 0.014088 0.000000 -0.006362 0.000000
# 4 0.000000 0.000000 0.000000 0.013584 0.000000 -0.022981
# 5 -0.004402 0.000246 -0.006362 0.000000 0.027120 0.000000
# 6 0.000000 0.000000 0.000000 -0.022981 0.000000 0.056003
#
#
# Mechanical properties :
#
#
# Convention : Reuss Voigt Hill
#
# Bulk Modulus (GPa) = 31.86375 44.60159 38.23267
# Shear Modulus (GPa) = 35.64219 91.55706 63.59963
#
# Velocity S-wave (km/s) = 3.72106 5.96390 4.97064
# Velocity P-wave (km/s) = 5.55339 8.04680 6.91344
#
# Compressibility (1/GPa) = 0.03138363
#
# Stress axis : x y z
#
# Youngs Moduli (GPa) = 162.80895 83.19680 70.98360
#
# Poissons Ratio (x) = 0.02566 0.02649
# Poissons Ratio (y) = 0.05022 -0.01765
# Poissons Ratio (z) = 0.06076 -0.02069
#
# Static dielectric constant tensor:
#      x y z
#    x 2.068340 0.000000 -0.028960 
#    y 0.000000 1.973530 0.000000 
#    z -0.028960 0.000000 1.984440 
# 
# From -- ./inp_files/66526.got.cif
#   From: 2010.05.17/outbox.cif.g08.bks.cpg/sg10_34_cif.got.tgz:66526.got - 2010.06.03 11:33:40.
