data_PCOD9142236
_publ_section_title
;
Structure prediction by ZEFSAII (Michael W. Deem and Ramdas Pophale) SiO2 
 PCOD9142236
Probable space group: P 2/M
;
_chemical_formula_sum "Si O2"
_cell_formula_units_Z 32
_cell_length_a 22.372634
_cell_length_b 7.450210
_cell_length_c 12.257726
_cell_angle_alpha 90.000000
_cell_angle_beta 128.525531
_cell_angle_gamma 90.000000
_cell_volume 1598.401606
_symmetry_space_group_name_H-M "P 2/M"
_symmetry_group_IT_number 10
_symmetry_cell_setting 'monoclinic'
loop_
_space_group_symop_operation_xyz
x,y,z
-x,y,-z
-x,-y,-z
x,-y,z
loop_
_atom_site_type_symbol
_atom_site_label
_atom_site_fract_x
_atom_site_fract_y
_atom_site_fract_z
Si Si1 0.161076 0.701350 0.191203
Si Si2 0.915612 0.719813 0.686172
Si Si3 0.690736 0.792537 0.508638
Si Si4 0.215314 0.719100 0.839212
Si Si5 0.960024 0.718798 0.341326
Si Si6 0.268215 0.279530 0.130269
Si Si7 0.234824 0.715175 0.619023
Si Si8 0.583712 0.713029 0.569601
O O1 0.133705 0.500000 0.133697
O O2 0.101030 0.782232 0.209030
O O3 0.238994 0.691012 0.352960
O O4 0.194562 0.781348 0.117748
O O5 0.914664 0.500000 0.689458
O O6 0.844149 0.775899 0.528344
O O7 0.991618 0.775618 0.709273
O O8 0.698147 0.761660 0.388727
O O9 0.612659 0.741267 0.479086
O O10 0.705491 0.000000 0.547535
O O11 0.216481 0.500000 0.839300
O O12 0.127581 0.774086 0.756833
O O13 0.241840 0.780900 0.750276
O O14 0.262216 0.775240 0.998413
O O15 0.961257 0.500000 0.342640
O O16 0.000000 0.774551 0.500000
O O17 0.266509 0.500000 0.133569
O O18 0.346308 0.218488 0.276457
O O19 0.229655 0.500000 0.617865
O O20 0.500000 0.786638 0.500000
O O21 0.580743 0.500000 0.585966
#
# Coordination Sequence:
#
# PCOD9142236 Si02
#       8
#     4   4   4   4   4   4   4   4
#     4   8  14  26  42  58  83 117 147 180 218 257
#     4   8  12  19  33  53  78 110 146 179 210 250
#     4  10  18  27  43  68  92 110 138 181 216 247
#     4   9  15  22  37  61  88 117 144 178 219 255
#     4   9  13  18  29  53  87 116 144 178 217 258
#     4   8  14  25  40  61  86 109 141 178 211 253
#     4   9  15  25  41  60  84 116 149 176 210 251
#     4   9  17  31  51  70  89 114 139 168 211 259
#
# _framework density 20.02
#
# number of rings (size 3 to 8) (size 9 to 14) (size 15 to 20)
#    0.000    3.250    1.250    2.625    0.000    0.250 
#    0.000    0.625    0.000    7.500    0.000   12.250 
#    0.000   16.000    0.000    0.000    0.000    0.000 
#
# Total GULP energy -178323.667965 kJ/mol
# GULP energy per Si atom -5572.614624 kJ/mol
# Density = 1.997443 g / cm^3
# Si number density = 20.020000 Si / 1000 Ang^3
#
#
#
# Elastic Constant Matrix: (Units=GPa)
#
#
# Indices 1 2 3 4 5 6 
#
# 1 132.8535 -19.0437 47.4027 0.0000 -15.7557 0.0000
# 2 -19.0437 56.1826 -3.7666 0.0000 5.9808 0.0000
# 3 47.4027 -3.7666 75.7357 0.0000 -21.0705 0.0000
# 4 0.0000 0.0000 0.0000 -19.3434 0.0000 30.4320
# 5 -15.7557 5.9808 -21.0705 0.0000 24.1254 0.0000
# 6 0.0000 0.0000 0.0000 30.4320 0.0000 -155.1929
#
#
#
# Elastic Compliance Matrix: (Units=1/GPa)
#
#
# Indices 1 2 3 4 5 6 
#
# 1 0.010189 0.002981 -0.006055 0.000000 0.000627 0.000000
# 2 0.002981 0.019166 -0.002236 0.000000 -0.004758 0.000000
# 3 -0.006055 -0.002236 0.021051 0.000000 0.014986 0.000000
# 4 0.000000 0.000000 0.000000 -0.074761 0.000000 -0.014660
# 5 0.000627 -0.004758 0.014986 0.000000 0.056128 0.000000
# 6 0.000000 0.000000 0.000000 -0.014660 0.000000 -0.009318
#
#
# Mechanical properties :
#
#
# Convention : Reuss Voigt Hill
#
# Bulk Modulus (GPa) = 25.13376 34.88405 30.00890
# Shear Modulus (GPa) = 107.90592 -14.07022 46.91785
#
# Velocity S-wave (km/s) = 7.34956 -2.65393 4.84627
# Velocity P-wave (km/s) = 9.19799 2.84100 6.80714
#
# Compressibility (1/GPa) = 0.03978712
#
# Stress axis : x y z
#
# Youngs Moduli (GPa) = 98.14434 52.17546 47.50279
#
# Poissons Ratio (x) = -0.15554 0.28761
# Poissons Ratio (y) = -0.29257 0.10623
# Poissons Ratio (z) = 0.59422 0.11668
#
# Static dielectric constant tensor:
#      x y z
#    x 1.727990 0.000000 -0.036090 
#    y 0.000000 1.763710 0.000000 
#    z -0.036090 0.000000 1.693510 
# 
# From -- ./inp_files/54901.got.cif
#   From: 2010.05.17/outbox.cif.g08.bks.cpg/sg10_28_cif.got.tgz:54901.got - 2010.06.03 11:33:40.
