data_PCOD9142304
_publ_section_title
;
Structure prediction by ZEFSAII (Michael W. Deem and Ramdas Pophale) SiO2 
 PCOD9142304
Probable space group: P 2/M
;
_chemical_formula_sum "Si O2"
_cell_formula_units_Z 32
_cell_length_a 12.375818
_cell_length_b 19.811199
_cell_length_c 19.970741
_cell_angle_alpha 90.000000
_cell_angle_beta 162.830217
_cell_angle_gamma 90.000000
_cell_volume 1445.444424
_symmetry_space_group_name_H-M "P 2/M"
_symmetry_group_IT_number 10
_symmetry_cell_setting 'monoclinic'
loop_
_space_group_symop_operation_xyz
x,y,z
-x,y,-z
-x,-y,-z
x,-y,z
loop_
_atom_site_type_symbol
_atom_site_label
_atom_site_fract_x
_atom_site_fract_y
_atom_site_fract_z
Si Si1 0.038389 0.711690 0.869164
Si Si2 0.441611 0.075031 0.272463
Si Si3 0.889722 0.422802 0.542980
Si Si4 0.187160 0.787541 0.683449
Si Si5 0.058452 0.302010 0.729673
Si Si6 0.694530 0.155452 0.686264
Si Si7 0.530460 0.920683 0.863592
Si Si8 0.377675 0.421680 0.114281
O O1 0.916055 0.712784 0.719278
O O2 0.808672 0.768074 0.771721
O O3 0.442807 0.744431 0.107807
O O4 0.084816 0.636095 0.924067
O O5 0.523839 0.125021 0.380815
O O6 0.589279 0.085537 0.285386
O O7 0.543047 0.000000 0.354099
O O8 0.000000 0.077269 0.000000
O O9 0.860201 0.500000 0.547231
O O10 0.894108 0.371319 0.605755
O O11 0.279770 0.415541 0.734866
O O12 0.568858 0.409563 0.299358
O O13 0.997882 0.751798 0.634518
O O14 0.299099 0.864750 0.765960
O O15 0.000000 0.783131 0.500000
O O16 0.500000 0.308613 0.000000
O O17 0.500000 0.153555 0.500000
O O18 0.055334 0.108101 0.890267
O O19 0.509014 0.000000 0.869093
O O20 0.251101 0.500000 0.036879
#
# Coordination Sequence:
#
# PCOD9142304 Si02
#       8
#     4   4   4   4   4   4   4   4
#     4  10  20  32  46  70 101 135 165 195 237 287
#     4   8  15  31  54  76  94 112 149 209 261 291
#     4   9  16  26  45  72  99 129 165 202 236 274
#     4  10  19  31  49  69  99 137 164 188 231 287
#     4  10  18  28  43  67 105 139 163 190 227 281
#     4  10  20  33  52  73  98 123 158 204 253 293
#     4   9  19  35  54  75  96 120 158 204 249 293
#     4   9  16  28  47  70  97 128 166 203 236 278
#
# _framework density 22.138521000000001
#
# number of rings (size 3 to 8) (size 9 to 14) (size 15 to 20)
#    0.000    2.625    2.500    2.625    0.000    3.000 
#    0.000    2.500    0.000   10.500    0.000    0.000 
#    0.000   15.500    0.000    0.000    0.000    0.000 
#
# Total GULP energy -178716.861390 kJ/mol
# GULP energy per Si atom -5584.901918 kJ/mol
# Density = 2.208813 g / cm^3
# Si number density = 22.138521 Si / 1000 Ang^3
#
#
#
# Elastic Constant Matrix: (Units=GPa)
#
#
# Indices 1 2 3 4 5 6 
#
# 1 54.9328 59.0816 29.0760 0.0000 -7.7813 0.0000
# 2 59.0816 178.8207 63.5077 0.0000 -25.9683 0.0000
# 3 29.0760 63.5077 72.7629 0.0000 -16.4841 0.0000
# 4 0.0000 0.0000 0.0000 19.4207 0.0000 -9.3370
# 5 -7.7813 -25.9683 -16.4841 0.0000 24.0659 0.0000
# 6 0.0000 0.0000 0.0000 -9.3370 0.0000 4.8135
#
#
#
# Elastic Compliance Matrix: (Units=1/GPa)
#
#
# Indices 1 2 3 4 5 6 
#
# 1 0.029493 -0.008339 -0.005191 0.000000 -0.003018 0.000000
# 2 -0.008339 0.010920 -0.004900 0.000000 0.005730 0.000000
# 3 -0.005191 -0.004900 0.021917 0.000000 0.008046 0.000000
# 4 0.000000 0.000000 0.000000 0.763780 0.000000 1.481547
# 5 -0.003018 0.005730 0.008046 0.000000 0.052271 0.000000
# 6 0.000000 0.000000 0.000000 1.481547 0.000000 3.081590
#
#
# Mechanical properties :
#
#
# Convention : Reuss Voigt Hill
#
# Bulk Modulus (GPa) = 39.26200 67.76077 53.51139
# Shear Modulus (GPa) = 1.24834 19.98341 10.61588
#
# Velocity S-wave (km/s) = 0.75173 3.00768 2.19217
# Velocity P-wave (km/s) = 4.30426 6.53725 5.53454
#
# Compressibility (1/GPa) = 0.02546992
#
# Stress axis : x y z
#
# Youngs Moduli (GPa) = 33.90640 91.57548 45.62576
#
# Poissons Ratio (x) = 0.76366 0.23682
# Poissons Ratio (y) = 0.28275 0.22359
# Poissons Ratio (z) = 0.17599 0.44876
#
# Static dielectric constant tensor:
#      x y z
#    x 1.835820 0.000000 0.055770 
#    y 0.000000 1.812130 0.000000 
#    z 0.055770 0.000000 1.832350 
# 
# From -- ./inp_files/85502.got.cif
#   From: 2010.05.17/outbox.cif.g08.bks.cpg/sg10_43_cif.got.tgz:85502.got - 2010.06.03 11:33:40.
