data_PCOD9142342
_publ_section_title
;
Structure prediction by ZEFSAII (Michael W. Deem and Ramdas Pophale) SiO2 
 PCOD9142342
Probable space group: P 2/M
;
_chemical_formula_sum "Si O2"
_cell_formula_units_Z 28
_cell_length_a 19.423989
_cell_length_b 8.908177
_cell_length_c 11.998011
_cell_angle_alpha 90.000000
_cell_angle_beta 127.571860
_cell_angle_gamma 90.000000
_cell_volume 1645.449938
_symmetry_space_group_name_H-M "P 2/M"
_symmetry_group_IT_number 10
_symmetry_cell_setting 'monoclinic'
loop_
_space_group_symop_operation_xyz
x,y,z
-x,y,-z
-x,-y,-z
x,-y,z
loop_
_atom_site_type_symbol
_atom_site_label
_atom_site_fract_x
_atom_site_fract_y
_atom_site_fract_z
Si Si1 0.701811 0.327380 0.918572
Si Si2 0.755946 0.821016 0.629503
Si Si3 0.978953 0.682802 0.231685
Si Si4 0.595842 0.180550 0.627321
Si Si5 0.168554 0.318585 0.504488
Si Si6 0.182144 0.316634 0.773469
Si Si7 0.129014 0.327199 0.077104
O O1 0.673998 0.500000 0.903173
O O2 0.629821 0.237833 0.779842
O O3 0.789003 0.328248 0.927803
O O4 0.735851 0.267978 0.070785
O O5 0.668684 0.773105 0.608797
O O6 0.764169 0.747986 0.516923
O O7 0.837061 0.765914 0.785059
O O8 0.756915 0.000000 0.623005
O O9 0.977065 0.500000 0.226919
O O10 0.905512 0.730156 0.248259
O O11 0.073054 0.728664 0.367040
O O12 0.949805 0.729258 0.078296
O O13 0.500000 0.234153 0.500000
O O14 0.594977 0.000000 0.628356
O O15 0.171621 0.500000 0.504329
O O16 0.182399 0.270219 0.645571
O O17 0.182332 0.500000 0.776010
O O18 0.112779 0.500000 0.096009
#
# Coordination Sequence:
#
# PCOD9142342 Si02
#       7
#     4   4   4   4   4   4   4
#     4   8  14  26  46  71  93 111 137 178 223 259
#     4  10  20  32  44  62  90 117 142 178 226 272
#     4   8  14  25  44  68  88 113 155 196 217 237
#     4   9  18  33  52  70  86 108 141 180 221 268
#     4  10  18  28  45  66  90 122 155 183 212 251
#     4   8  14  26  45  68  92 118 151 187 215 243
#     4   8  14  27  45  63  86 115 148 184 218 255
#
# _framework density 17.016622000000002
#
# number of rings (size 3 to 8) (size 9 to 14) (size 15 to 20)
#    0.000    3.286    0.000    2.571    0.000    3.143 
#    0.000    4.286    0.000    4.286    0.000    6.000 
#    0.000    0.000    0.000    0.000    0.000    0.000 
#
# Total GULP energy -155969.088980 kJ/mol
# GULP energy per Si atom -5570.324606 kJ/mol
# Density = 1.697789 g / cm^3
# Si number density = 17.016622 Si / 1000 Ang^3
#
#
#
# Elastic Constant Matrix: (Units=GPa)
#
#
# Indices 1 2 3 4 5 6 
#
# 1 70.1424 18.7047 70.3850 0.0000 -6.6123 0.0000
# 2 18.7047 7.0148 21.9053 0.0000 -1.0648 0.0000
# 3 70.3850 21.9053 137.5996 0.0000 -0.6055 0.0000
# 4 0.0000 0.0000 0.0000 -37.9390 0.0000 4.1405
# 5 -6.6123 -1.0648 -0.6055 0.0000 29.2485 0.0000
# 6 0.0000 0.0000 0.0000 4.1405 0.0000 15.5075
#
#
#
# Elastic Compliance Matrix: (Units=1/GPa)
#
#
# Indices 1 2 3 4 5 6 
#
# 1 0.056905 -0.118694 -0.010176 0.000000 0.008333 0.000000
# 2 -0.118694 0.533658 -0.024277 0.000000 -0.007907 0.000000
# 3 -0.010176 -0.024277 0.016325 0.000000 -0.002846 0.000000
# 4 0.000000 0.000000 0.000000 -0.025612 0.000000 0.006838
# 5 0.008333 -0.007907 -0.002846 0.000000 0.035727 0.000000
# 6 0.000000 0.000000 0.000000 0.006838 0.000000 0.062659
#
#
# Mechanical properties :
#
#
# Convention : Reuss Voigt Hill
#
# Bulk Modulus (GPa) = 3.32674 48.52742 25.92708
# Shear Modulus (GPa) = 4.60341 8.28087 6.44214
#
# Velocity S-wave (km/s) = 1.64655 2.20837 1.94782
# Velocity P-wave (km/s) = 2.36094 5.92302 4.50867
#
# Compressibility (1/GPa) = 0.30059483
#
# Stress axis : x y z
#
# Youngs Moduli (GPa) = 17.57314 1.87386 61.25653
#
# Poissons Ratio (x) = 0.22242 0.62333
# Poissons Ratio (y) = 2.08583 1.48710
# Poissons Ratio (z) = 0.17882 0.04549
#
# Static dielectric constant tensor:
#      x y z
#    x 1.582820 0.000000 -0.003350 
#    y 0.000000 1.570860 0.000000 
#    z -0.003350 0.000000 1.591360 
# 
# From -- ./inp_files/54713.got.cif
#   From: 2010.05.17/outbox.cif.g08.bks.cpg/sg10_28_cif.got.tgz:54713.got - 2010.06.03 11:33:40.
