data_PCOD9142180
_publ_section_title
;
Structure prediction by ZEFSAII (Michael W. Deem and Ramdas Pophale) SiO2 
 PCOD9142180
Probable space group: P 2/M
;
_chemical_formula_sum "Si O2"
_cell_formula_units_Z 30
_cell_length_a 28.119026
_cell_length_b 10.064878
_cell_length_c 11.663976
_cell_angle_alpha 90.000000
_cell_angle_beta 37.201119
_cell_angle_gamma 90.000000
_cell_volume 1995.878441
_symmetry_space_group_name_H-M "P 2/M"
_symmetry_group_IT_number 10
_symmetry_cell_setting 'monoclinic'
loop_
_space_group_symop_operation_xyz
x,y,z
-x,y,-z
-x,-y,-z
x,-y,z
loop_
_atom_site_type_symbol
_atom_site_label
_atom_site_fract_x
_atom_site_fract_y
_atom_site_fract_z
Si Si1 0.735534 0.654394 0.660727
Si Si2 0.987026 0.846186 0.657011
Si Si3 0.417706 0.151870 0.306681
Si Si4 0.893377 0.345785 0.000087
Si Si5 0.878355 0.148192 0.417405
Si Si6 0.281103 0.347824 0.583962
Si Si7 0.403816 0.846823 0.055221
Si Si8 0.000000 0.752828 0.000000
O O1 0.737418 0.500000 0.693622
O O2 0.814141 0.736446 0.537179
O O3 0.727733 0.654685 0.537254
O O4 0.661893 0.739128 0.849779
O O5 0.000000 0.810651 0.500000
O O6 0.068503 0.840567 0.571259
O O7 0.959822 0.000000 0.714818
O O8 0.928169 0.749388 0.836310
O O9 0.352246 0.251090 0.479273
O O10 0.410005 0.154316 0.182470
O O11 0.403407 0.000000 0.370243
O O12 0.508592 0.185788 0.157567
O O13 0.895995 0.500000 0.961037
O O14 0.803691 0.309790 0.202854
O O15 0.947437 0.328302 0.009988
O O16 0.938801 0.164831 0.195029
O O17 0.842669 0.000000 0.479966
O O18 0.298203 0.500000 0.584055
O O19 0.384615 0.000000 0.060032
#
# Coordination Sequence:
#
# PCOD9142180 Si02
#       8
#     4   4   4   4   4   4   4   2
#     4  10  18  27  39  60  89 118 146 177 217 259
#     4   9  20  37  51  64  84 112 149 191 229 264
#     4   8  14  24  38  55  77 112 151 182 210 245
#     4  10  19  30  46  66  90 118 147 181 220 264
#     4  10  19  30  46  65  86 114 147 183 222 265
#     4   9  17  27  37  58  89 117 144 176 215 257
#     4   8  14  25  38  54  79 112 150 183 210 246
#     4  10  18  30  44  64  90 116 146 178 220 262
#
# _framework density 15.030976000000001
#
# number of rings (size 3 to 8) (size 9 to 14) (size 15 to 20)
#    0.000    2.800    1.333    1.600    0.000    4.533 
#    0.000    2.667    0.000    0.000    0.000    0.000 
#    0.000    1.067    0.000   12.000    0.000    6.533 
#
# Total GULP energy -167018.133157 kJ/mol
# GULP energy per Si atom -5567.271105 kJ/mol
# Density = 1.499676 g / cm^3
# Si number density = 15.030976 Si / 1000 Ang^3
#
#
#
# Elastic Constant Matrix: (Units=GPa)
#
#
# Indices 1 2 3 4 5 6 
#
# 1 39.8367 41.4681 44.6573 0.0000 -2.6378 0.0000
# 2 41.4681 117.4769 82.3118 0.0000 -23.5387 0.0000
# 3 44.6573 82.3118 102.9685 0.0000 -22.5951 0.0000
# 4 0.0000 0.0000 0.0000 25.0561 0.0000 -7.4864
# 5 -2.6378 -23.5387 -22.5951 0.0000 25.5009 0.0000
# 6 0.0000 0.0000 0.0000 -7.4864 0.0000 9.4989
#
#
#
# Elastic Compliance Matrix: (Units=1/GPa)
#
#
# Indices 1 2 3 4 5 6 
#
# 1 0.059531 -0.009103 -0.023628 0.000000 -0.023180 0.000000
# 2 -0.009103 0.021305 -0.011140 0.000000 0.008853 0.000000
# 3 -0.023628 -0.011140 0.032365 0.000000 0.015949 0.000000
# 4 0.000000 0.000000 0.000000 0.052203 0.000000 0.041144
# 5 -0.023180 0.008853 0.015949 0.000000 0.059120 0.000000
# 6 0.000000 0.000000 0.000000 0.041144 0.000000 0.137703
#
#
# Mechanical properties :
#
#
# Convention : Reuss Voigt Hill
#
# Bulk Modulus (GPa) = 39.28144 66.35071 52.81608
# Shear Modulus (GPa) = 10.90618 18.13418 14.52018
#
# Velocity S-wave (km/s) = 2.69658 3.47717 3.11145
# Velocity P-wave (km/s) = 5.99048 7.76913 6.93705
#
# Compressibility (1/GPa) = 0.02545731
#
# Stress axis : x y z
#
# Youngs Moduli (GPa) = 16.79806 46.93700 30.89791
#
# Poissons Ratio (x) = 0.42726 0.73006
# Poissons Ratio (y) = 0.15291 0.34422
# Poissons Ratio (z) = 0.39691 0.52290
#
# Static dielectric constant tensor:
#      x y z
#    x 1.478350 0.000000 -0.019810 
#    y 0.000000 1.511540 0.000000 
#    z -0.019810 0.000000 1.487100 
# 
# From -- ./inp_files/57279.got.cif
#   From: 2010.05.17/outbox.cif.g08.bks.cpg/sg10_29_cif.got.tgz:57279.got - 2010.06.03 11:33:40.
