data_PCOD9142666
_publ_section_title
;
Structure prediction by ZEFSAII (Michael W. Deem and Ramdas Pophale) SiO2 
 PCOD9142666
Probable space group: P 2/M
;
_chemical_formula_sum "Si O2"
_cell_formula_units_Z 24
_cell_length_a 16.931618
_cell_length_b 7.655070
_cell_length_c 17.119156
_cell_angle_alpha 90.000000
_cell_angle_beta 148.518072
_cell_angle_gamma 90.000000
_cell_volume 1158.754580
_symmetry_space_group_name_H-M "P 2/M"
_symmetry_group_IT_number 10
_symmetry_cell_setting 'monoclinic'
loop_
_space_group_symop_operation_xyz
x,y,z
-x,y,-z
-x,-y,-z
x,-y,z
loop_
_atom_site_type_symbol
_atom_site_label
_atom_site_fract_x
_atom_site_fract_y
_atom_site_fract_z
Si Si1 0.322422 0.201873 0.058322
Si Si2 0.440497 0.297792 0.868797
Si Si3 0.218250 0.787325 0.130990
Si Si4 0.876894 0.210288 0.788463
Si Si5 0.010461 0.704718 0.275982
Si Si6 0.122644 0.713669 0.538427
O O1 0.148455 0.209380 0.882503
O O2 0.369459 0.000000 0.100545
O O3 0.429889 0.292707 0.087005
O O4 0.322328 0.273632 0.147236
O O5 0.403336 0.500000 0.855782
O O6 0.286533 0.222128 0.703900
O O7 0.500000 0.217716 0.000000
O O8 0.232114 0.729849 0.232813
O O9 0.226508 0.000000 0.137851
O O10 0.047042 0.742760 0.960168
O O11 0.870547 0.274954 0.694675
O O12 0.868703 0.000000 0.778828
O O13 0.976024 0.500000 0.255632
O O14 0.073892 0.773006 0.411219
O O15 0.126465 0.500000 0.537691
O O16 0.000000 0.761783 0.500000
#
# Coordination Sequence:
#
# PCOD9142666 Si02
#       6
#     4   4   4   4   4   4
#     4  10  19  32  50  73 101 130 162 199 240 283
#     4  10  20  35  55  75  95 123 161 201 242 289
#     4   7  12  24  43  65  92 128 162 194 233 278
#     4   8  13  25  44  66  94 127 162 198 238 278
#     4  10  18  29  48  74 101 128 161 199 241 287
#     4   9  18  33  52  72  95 125 159 195 238 290
#
# _framework density 20.711891000000001
#
# number of rings (size 3 to 8) (size 9 to 14) (size 15 to 20)
#    0.000    3.000    0.000    4.000    0.000    3.000 
#    0.000    9.167    0.000    4.500    0.000    7.000 
#    0.000    0.000    0.000    0.000    0.000    0.000 
#
# Total GULP energy -133714.861083 kJ/mol
# GULP energy per Si atom -5571.452545 kJ/mol
# Density = 2.066475 g / cm^3
# Si number density = 20.711891 Si / 1000 Ang^3
#
#
#
# Elastic Constant Matrix: (Units=GPa)
#
#
# Indices 1 2 3 4 5 6 
#
# 1 171.8890 -10.4246 75.2166 0.0000 -37.2279 0.0000
# 2 -10.4246 37.0713 -4.9066 0.0000 -0.9909 0.0000
# 3 75.2166 -4.9066 83.6747 0.0000 -21.9162 0.0000
# 4 0.0000 0.0000 0.0000 -4.4863 0.0000 -22.8777
# 5 -37.2279 -0.9909 -21.9162 0.0000 31.7096 0.0000
# 6 0.0000 0.0000 0.0000 -22.8777 0.0000 -11.1875
#
#
#
# Elastic Compliance Matrix: (Units=1/GPa)
#
#
# Indices 1 2 3 4 5 6 
#
# 1 0.011003 0.002271 -0.007760 0.000000 0.007625 0.000000
# 2 0.002271 0.027803 0.000629 0.000000 0.003969 0.000000
# 3 -0.007760 0.000629 0.020248 0.000000 0.004903 0.000000
# 4 0.000000 0.000000 0.000000 0.023642 0.000000 -0.048347
# 5 0.007625 0.003969 0.004903 0.000000 0.044001 0.000000
# 6 0.000000 0.000000 0.000000 -0.048347 0.000000 0.009481
#
#
# Mechanical properties :
#
#
# Convention : Reuss Voigt Hill
#
# Bulk Modulus (GPa) = 20.27076 45.82288 33.04682
# Shear Modulus (GPa) = 30.79902 18.72380 24.76141
#
# Velocity S-wave (km/s) = 3.86038 3.00994 3.46138
# Velocity P-wave (km/s) = 5.44778 5.85249 5.65375
#
# Compressibility (1/GPa) = 0.04933215
#
# Stress axis : x y z
#
# Youngs Moduli (GPa) = 90.88810 35.96750 49.38773
#
# Poissons Ratio (x) = -0.08167 0.38325
# Poissons Ratio (y) = -0.20638 -0.03106
# Poissons Ratio (z) = 0.70530 -0.02262
#
# Static dielectric constant tensor:
#      x y z
#    x 1.771490 0.000000 -0.036990 
#    y 0.000000 1.773530 0.000000 
#    z -0.036990 0.000000 1.731290 
# 
# From -- ./inp_files/33726.got.cif
#   From: 2010.05.17/outbox.cif.g08.bks.cpg/sg10_17_cif.got.tgz:33726.got - 2010.06.03 11:33:40.
