data_PCOD9142090
_publ_section_title
;
Structure prediction by ZEFSAII (Michael W. Deem and Ramdas Pophale) SiO2 
 PCOD9142090
Probable space group: P 2/M
;
_chemical_formula_sum "Si O2"
_cell_formula_units_Z 24
_cell_length_a 10.478978
_cell_length_b 7.840346
_cell_length_c 18.710053
_cell_angle_alpha 90.000000
_cell_angle_beta 58.811018
_cell_angle_gamma 90.000000
_cell_volume 1315.015412
_symmetry_space_group_name_H-M "P 2/M"
_symmetry_group_IT_number 10
_symmetry_cell_setting 'monoclinic'
loop_
_space_group_symop_operation_xyz
x,y,z
-x,y,-z
-x,-y,-z
x,-y,z
loop_
_atom_site_type_symbol
_atom_site_label
_atom_site_fract_x
_atom_site_fract_y
_atom_site_fract_z
Si Si1 0.667882 0.706945 0.430959
Si Si2 0.039371 0.707827 0.568183
Si Si3 0.173648 0.806818 0.757014
Si Si4 0.815346 0.500000 0.979899
Si Si5 0.875686 0.294516 0.757804
Si Si6 0.172316 0.500000 0.862059
Si Si7 0.324769 0.808689 0.065815
O O1 0.500000 0.753457 0.500000
O O2 0.675729 0.500000 0.421926
O O3 0.795932 0.756665 0.451049
O O4 0.714663 0.785006 0.341858
O O5 0.036779 0.500000 0.567443
O O6 0.000000 0.768016 0.500000
O O7 0.922396 0.759916 0.664254
O O8 0.211212 0.667718 0.805691
O O9 0.012235 0.762864 0.769295
O O10 0.173344 0.000000 0.783764
O O11 0.764579 0.500000 0.076661
O O12 0.755939 0.665905 0.957025
O O13 0.993410 0.500000 0.922711
O O14 0.870113 0.500000 0.760636
O O15 0.726585 0.223325 0.837419
O O16 0.277867 0.000000 0.059736
O O17 0.500000 0.793190 0.000000
#
# Coordination Sequence:
#
# PCOD9142090 Si02
#       7
#     4   4   4   2   4   2   4
#     4   9  17  31  53  77 110 144 183 229 272 325
#     4   8  15  28  50  80 107 138 180 224 271 326
#     4  11  19  33  57  80 111 146 184 228 272 327
#     4  11  23  38  60  78 115 142 179 237 288 329
#     4  10  17  32  56  79 110 144 187 230 270 329
#     4  11  22  38  55  86 108 141 188 233 277 339
#     4  11  22  37  59  84 111 146 189 231 277 335
#
# _framework density 18.250736
#
# number of rings (size 3 to 8) (size 9 to 14) (size 15 to 20)
#    0.000    2.000    4.167    1.750    0.000    1.000 
#    0.000    3.333    0.000   12.500    0.000    0.000 
#    0.000    0.000    0.000    0.000    0.000    0.000 
#
# Total GULP energy -133898.907770 kJ/mol
# GULP energy per Si atom -5579.121157 kJ/mol
# Density = 1.820920 g / cm^3
# Si number density = 18.250736 Si / 1000 Ang^3
#
#
#
# Elastic Constant Matrix: (Units=GPa)
#
#
# Indices 1 2 3 4 5 6 
#
# 1 52.5471 29.2267 62.6884 0.0000 6.2863 0.0000
# 2 29.2267 105.9818 43.7990 0.0000 8.5712 0.0000
# 3 62.6884 43.7990 154.8025 0.0000 4.2423 0.0000
# 4 0.0000 0.0000 0.0000 14.9609 0.0000 -3.1068
# 5 6.2863 8.5712 4.2423 0.0000 38.3732 0.0000
# 6 0.0000 0.0000 0.0000 -3.1068 0.0000 -1.3194
#
#
#
# Elastic Compliance Matrix: (Units=1/GPa)
#
#
# Indices 1 2 3 4 5 6 
#
# 1 0.039379 -0.004533 -0.014559 0.000000 -0.003829 0.000000
# 2 -0.004533 0.011371 -0.001336 0.000000 -0.001650 0.000000
# 3 -0.014559 -0.001336 0.012699 0.000000 0.001280 0.000000
# 4 0.000000 0.000000 0.000000 0.044891 0.000000 -0.105703
# 5 -0.003829 -0.001650 0.001280 0.000000 0.026914 0.000000
# 6 0.000000 0.000000 0.000000 -0.105703 0.000000 -0.509012
#
#
# Mechanical properties :
#
#
# Convention : Reuss Voigt Hill
#
# Bulk Modulus (GPa) = 44.26417 64.97328 54.61872
# Shear Modulus (GPa) = -15.36712 22.24408 3.43848
#
# Velocity S-wave (km/s) = -2.90487 3.49493 1.37409
# Velocity P-wave (km/s) = 3.61317 7.20858 5.70169
#
# Compressibility (1/GPa) = 0.02259164
#
# Stress axis : x y z
#
# Youngs Moduli (GPa) = 25.39412 87.94005 78.74722
#
# Poissons Ratio (x) = 0.39863 1.14651
# Poissons Ratio (y) = 0.11511 0.10524
# Poissons Ratio (z) = 0.36972 0.11753
#
# Static dielectric constant tensor:
#      x y z
#    x 1.598940 0.000000 -0.007240 
#    y 0.000000 1.638950 0.000000 
#    z -0.007240 0.000000 1.654410 
# 
# From -- ./inp_files/75906.got.cif
#   From: 2010.05.17/outbox.cif.g08.bks.cpg/sg10_38_cif.got.tgz:75906.got - 2010.06.03 11:33:40.
