data_PCOD9142940
_publ_section_title
;
Structure prediction by ZEFSAII (Michael W. Deem and Ramdas Pophale) SiO2 
 PCOD9142940
Probable space group: P 2/M
;
_chemical_formula_sum "Si O2"
_cell_formula_units_Z 32
_cell_length_a 23.677483
_cell_length_b 12.843107
_cell_length_c 11.650912
_cell_angle_alpha 90.000000
_cell_angle_beta 31.682584
_cell_angle_gamma 90.000000
_cell_volume 1860.805713
_symmetry_space_group_name_H-M "P 2/M"
_symmetry_group_IT_number 10
_symmetry_cell_setting 'monoclinic'
loop_
_space_group_symop_operation_xyz
x,y,z
-x,y,-z
-x,-y,-z
x,-y,z
loop_
_atom_site_type_symbol
_atom_site_label
_atom_site_fract_x
_atom_site_fract_y
_atom_site_fract_z
Si Si1 0.194758 0.738244 0.391153
Si Si2 0.776048 0.376610 0.879284
Si Si3 0.866839 0.703042 0.961707
Si Si4 0.372323 0.379386 0.203503
Si Si5 0.316598 0.377328 0.563344
Si Si6 0.467477 0.374108 0.683729
Si Si7 0.980607 0.122718 0.397155
Si Si8 0.951320 0.386197 0.209902
O O1 0.166709 0.659630 0.335362
O O2 0.315425 0.706688 0.221282
O O3 0.139417 0.842728 0.437987
O O4 0.128432 0.704373 0.617454
O O5 0.777405 0.500000 0.885221
O O6 0.824674 0.331309 0.910933
O O7 0.652605 0.338188 0.083356
O O8 0.768939 0.694300 0.222046
O O9 0.932714 0.809745 0.825418
O O10 0.952629 0.622843 0.865601
O O11 0.359137 0.500000 0.181649
O O12 0.318654 0.373911 0.422506
O O13 0.500000 0.364124 0.000000
O O14 0.297929 0.500000 0.629046
O O15 0.436357 0.347039 0.397526
O O16 0.500000 0.340453 0.500000
O O17 0.462865 0.500000 0.691935
O O18 0.000000 0.145091 0.500000
O O19 0.995180 0.000000 0.355493
O O20 0.899045 0.500000 0.307041
O O21 0.000000 0.374048 0.000000
#
# Coordination Sequence:
#
# PCOD9142940 Si02
#       8
#     4   4   4   4   4   4   4   4
#     4  11  21  34  54  77 102 139 183 220 264 316
#     4  11  19  28  45  77 114 140 168 212 256 311
#     4  11  20  31  51  77  99 133 176 221 268 323
#     4  10  20  34  53  81 120 160 186 206 239 305
#     4  10  18  30  49  75 113 155 184 207 246 305
#     4   9  16  26  41  67 108 149 176 201 236 288
#     4  10  22  42  59  75  99 130 179 237 293 339
#     4  10  20  32  46  68 103 143 175 206 249 311
#
# _framework density 17.196850999999999
#
# number of rings (size 3 to 8) (size 9 to 14) (size 15 to 20)
#    0.000    1.750    2.500    3.750    0.000    4.000 
#    0.000    1.875    0.000   13.875    0.000    4.375 
#    0.000    0.000    0.000    0.000    0.000    0.000 
#
# Total GULP energy -178253.502152 kJ/mol
# GULP energy per Si atom -5570.421942 kJ/mol
# Density = 1.715771 g / cm^3
# Si number density = 17.196851 Si / 1000 Ang^3
#
#
#
# Elastic Constant Matrix: (Units=GPa)
#
#
# Indices 1 2 3 4 5 6 
#
# 1 92.0354 30.3075 30.1231 0.0000 -7.7908 0.0000
# 2 30.3075 70.2110 31.8731 0.0000 -1.6917 0.0000
# 3 30.1231 31.8731 60.8207 0.0000 -2.6323 0.0000
# 4 0.0000 0.0000 0.0000 10.1641 0.0000 -1.8077
# 5 -7.7908 -1.6917 -2.6323 0.0000 28.8987 0.0000
# 6 0.0000 0.0000 0.0000 -1.8077 0.0000 17.4477
#
#
#
# Elastic Compliance Matrix: (Units=1/GPa)
#
#
# Indices 1 2 3 4 5 6 
#
# 1 0.013937 -0.003764 -0.004796 0.000000 0.003100 0.000000
# 2 -0.003764 0.019707 -0.008490 0.000000 -0.000635 0.000000
# 3 -0.004796 -0.008490 0.023281 0.000000 0.000331 0.000000
# 4 0.000000 0.000000 0.000000 0.100233 0.000000 0.010385
# 5 0.003100 -0.000635 0.000331 0.000000 0.035432 0.000000
# 6 0.000000 0.000000 0.000000 0.010385 0.000000 0.058390
#
#
# Mechanical properties :
#
#
# Convention : Reuss Voigt Hill
#
# Bulk Modulus (GPa) = 43.81462 45.29717 44.55589
# Shear Modulus (GPa) = 17.08300 20.01966 18.55133
#
# Velocity S-wave (km/s) = 3.15521 3.41566 3.28802
# Velocity P-wave (km/s) = 6.22956 6.47713 6.35455
#
# Compressibility (1/GPa) = 0.02282343
#
# Stress axis : x y z
#
# Youngs Moduli (GPa) = 71.75106 50.74414 42.95395
#
# Poissons Ratio (x) = 0.19102 0.20600
# Poissons Ratio (y) = 0.27009 0.36470
# Poissons Ratio (z) = 0.34411 0.43084
#
# Static dielectric constant tensor:
#      x y z
#    x 1.622510 0.000000 -0.024630 
#    y 0.000000 1.542640 0.000000 
#    z -0.024630 0.000000 1.660880 
# 
# From -- ./inp_files/56956.got.cif
#   From: 2010.05.17/outbox.cif.g08.bks.cpg/sg10_29_cif.got.tgz:56956.got - 2010.06.03 11:33:40.
