data_PCOD9142087
_publ_section_title
;
Structure prediction by ZEFSAII (Michael W. Deem and Ramdas Pophale) SiO2 
 PCOD9142087
Probable space group: P 2/M
;
_chemical_formula_sum "Si O2"
_cell_formula_units_Z 20
_cell_length_a 7.223535
_cell_length_b 13.085670
_cell_length_c 11.771988
_cell_angle_alpha 90.000000
_cell_angle_beta 122.532853
_cell_angle_gamma 90.000000
_cell_volume 938.136435
_symmetry_space_group_name_H-M "P 2/M"
_symmetry_group_IT_number 10
_symmetry_cell_setting 'monoclinic'
loop_
_space_group_symop_operation_xyz
x,y,z
-x,y,-z
-x,-y,-z
x,-y,z
loop_
_atom_site_type_symbol
_atom_site_label
_atom_site_fract_x
_atom_site_fract_y
_atom_site_fract_z
Si Si1 0.698059 0.780245 0.136677
Si Si2 0.011199 0.388016 0.167996
Si Si3 0.194041 0.670320 0.468953
Si Si4 0.076873 0.888695 0.395003
Si Si5 0.488441 0.614956 0.237050
O O1 0.864012 0.858623 0.250193
O O2 0.594639 0.703443 0.196238
O O3 0.841976 0.704387 0.105955
O O4 0.500000 0.827213 0.000000
O O5 0.914481 0.500000 0.114102
O O6 0.101493 0.385019 0.327738
O O7 0.227709 0.374524 0.163838
O O8 0.403306 0.626046 0.602092
O O9 0.000000 0.667953 0.500000
O O10 0.228105 0.788249 0.442277
O O11 0.000000 0.895194 0.500000
O O12 0.165890 0.000000 0.390745
O O13 0.540192 0.500000 0.212453
#
# Coordination Sequence:
#
# PCOD9142087 Si02
#       5
#     4   4   4   4   4
#     4  11  23  38  56  82 114 149 186 230 278 324
#     4  10  21  34  53  81 114 152 189 226 270 326
#     4  10  17  32  55  86 110 143 181 231 279 326
#     4   9  17  35  62  86 106 138 185 231 282 337
#     4  11  21  34  54  81 116 154 188 223 271 325
#
# _framework density 21.318860000000001
#
# number of rings (size 3 to 8) (size 9 to 14) (size 15 to 20)
#    0.000    1.800    6.000    1.800    0.000    5.200 
#    0.000    2.000    0.000   14.400    0.000    7.000 
#    0.000    0.000    0.000    0.000    0.000    0.000 
#
# Total GULP energy -111731.244321 kJ/mol
# GULP energy per Si atom -5586.562216 kJ/mol
# Density = 2.127034 g / cm^3
# Si number density = 21.318860 Si / 1000 Ang^3
#
#
#
# Elastic Constant Matrix: (Units=GPa)
#
#
# Indices 1 2 3 4 5 6 
#
# 1 55.4174 7.5100 4.8294 0.0000 6.4138 0.0000
# 2 7.5100 100.6946 3.4059 0.0000 -3.2400 0.0000
# 3 4.8294 3.4059 96.9301 0.0000 5.4642 0.0000
# 4 0.0000 0.0000 0.0000 8.0004 0.0000 15.2175
# 5 6.4138 -3.2400 5.4642 0.0000 29.7640 0.0000
# 6 0.0000 0.0000 0.0000 15.2175 0.0000 -33.5388
#
#
#
# Elastic Compliance Matrix: (Units=1/GPa)
#
#
# Indices 1 2 3 4 5 6 
#
# 1 0.018780 -0.001510 -0.000652 0.000000 -0.004092 0.000000
# 2 -0.001510 0.010104 -0.000364 0.000000 0.001492 0.000000
# 3 -0.000652 -0.000364 0.010465 0.000000 -0.001820 0.000000
# 4 0.000000 0.000000 0.000000 0.067091 0.000000 0.030441
# 5 -0.004092 0.001492 -0.001820 0.000000 0.034976 0.000000
# 6 0.000000 0.000000 0.000000 0.030441 0.000000 -0.016004
#
#
# Mechanical properties :
#
#
# Convention : Reuss Voigt Hill
#
# Bulk Modulus (GPa) = 29.15766 31.61471 30.38619
# Shear Modulus (GPa) = 35.23709 16.66490 25.95100
#
# Velocity S-wave (km/s) = 4.06995 2.79892 3.49274
# Velocity P-wave (km/s) = 5.98269 5.03060 5.52718
#
# Compressibility (1/GPa) = 0.03429631
#
# Stress axis : x y z
#
# Youngs Moduli (GPa) = 53.24839 98.97091 95.56028
#
# Poissons Ratio (x) = 0.14947 0.06230
# Poissons Ratio (y) = 0.08042 0.03477
# Poissons Ratio (z) = 0.03472 0.03602
#
# Static dielectric constant tensor:
#      x y z
#    x 1.793750 0.000000 0.000330 
#    y 0.000000 1.753360 0.000000 
#    z 0.000330 0.000000 1.813620 
# 
# From -- ./inp_files/42322.got.cif
#   From: 2010.05.17/outbox.cif.g08.bks.cpg/sg10_22_cif.got.tgz:42322.got - 2010.06.03 11:33:40.
