data_PCOD9142645
_publ_section_title
;
Structure prediction by ZEFSAII (Michael W. Deem and Ramdas Pophale) SiO2 
 PCOD9142645
Probable space group: P 2/M
;
_chemical_formula_sum "Si O2"
_cell_formula_units_Z 32
_cell_length_a 22.709689
_cell_length_b 7.607955
_cell_length_c 17.509166
_cell_angle_alpha 90.000000
_cell_angle_beta 147.656092
_cell_angle_gamma 90.000000
_cell_volume 1618.446409
_symmetry_space_group_name_H-M "P 2/M"
_symmetry_group_IT_number 10
_symmetry_cell_setting 'monoclinic'
loop_
_space_group_symop_operation_xyz
x,y,z
-x,y,-z
-x,-y,-z
x,-y,z
loop_
_atom_site_type_symbol
_atom_site_label
_atom_site_fract_x
_atom_site_fract_y
_atom_site_fract_z
Si Si1 0.623916 0.785265 0.160902
Si Si2 0.071377 0.708006 0.764096
Si Si3 0.366273 0.795832 0.656931
Si Si4 0.245702 0.788649 0.841117
Si Si5 0.232326 0.200727 0.076182
Si Si6 0.593191 0.215519 0.843518
Si Si7 0.872326 0.706092 0.637835
Si Si8 0.035429 0.786676 0.955157
O O1 0.642817 0.720719 0.267514
O O2 0.711881 0.724381 0.194219
O O3 0.629263 0.000000 0.166326
O O4 0.500000 0.738880 0.000000
O O5 0.075383 0.500000 0.785227
O O6 0.126120 0.736000 0.741898
O O7 0.948295 0.768997 0.649816
O O8 0.151540 0.799394 0.913505
O O9 0.468765 0.724003 0.721012
O O10 0.247415 0.788141 0.488745
O O11 0.395723 0.000000 0.700562
O O12 0.247457 0.000000 0.841736
O O13 0.334950 0.733132 0.003316
O O14 0.343553 0.280137 0.163003
O O15 0.256285 0.000000 0.125168
O O16 0.154833 0.279508 0.056911
O O17 0.597226 0.000000 0.843786
O O18 0.853575 0.500000 0.607519
O O19 0.945827 0.736295 0.793369
O O20 0.040568 0.000000 0.961362
O O21 0.000000 0.726682 0.000000
#
# Coordination Sequence:
#
# PCOD9142645 Si02
#       8
#     4   4   4   4   4   4   4   4
#     4   9  15  26  46  71  95 119 155 202 246 284
#     4   9  17  29  44  62  87 121 158 195 233 273
#     4  10  18  29  48  70  93 124 160 197 237 281
#     4   9  15  26  46  69  91 116 152 200 247 284
#     4   8  14  26  46  72  97 118 146 186 231 278
#     4   8  13  23  43  69  92 118 152 190 232 275
#     4  10  21  35  48  66  96 130 161 191 228 279
#     4   9  17  31  54  81 102 119 146 189 235 278
#
# _framework density 19.772048000000002
#
# number of rings (size 3 to 8) (size 9 to 14) (size 15 to 20)
#    0.000    3.000    1.250    1.500    0.000    1.750 
#    0.000    3.750    0.000    5.250    0.000    5.250 
#    0.000    0.000    0.000    0.000    0.000    0.000 
#
# Total GULP energy -178231.089194 kJ/mol
# GULP energy per Si atom -5569.721537 kJ/mol
# Density = 1.972705 g / cm^3
# Si number density = 19.772048 Si / 1000 Ang^3
#
#
#
# Elastic Constant Matrix: (Units=GPa)
#
#
# Indices 1 2 3 4 5 6 
#
# 1 211.5240 4.4665 57.8057 0.0000 33.4838 0.0000
# 2 4.4665 43.1880 -4.7779 0.0000 2.2326 0.0000
# 3 57.8057 -4.7779 54.8928 0.0000 22.6390 0.0000
# 4 0.0000 0.0000 0.0000 -9.3551 0.0000 11.2914
# 5 33.4838 2.2326 22.6390 0.0000 27.7903 0.0000
# 6 0.0000 0.0000 0.0000 11.2914 0.0000 14.6620
#
#
#
# Elastic Compliance Matrix: (Units=1/GPa)
#
#
# Indices 1 2 3 4 5 6 
#
# 1 0.006928 -0.001210 -0.006022 0.000000 -0.003345 0.000000
# 2 -0.001210 0.024126 0.005380 0.000000 -0.004863 0.000000
# 3 -0.006022 0.005380 0.033452 0.000000 -0.020428 0.000000
# 4 0.000000 0.000000 0.000000 -0.055400 0.000000 0.042664
# 5 -0.003345 -0.004863 -0.020428 0.000000 0.057046 0.000000
# 6 0.000000 0.000000 0.000000 0.042664 0.000000 0.035348
#
#
# Mechanical properties :
#
#
# Convention : Reuss Voigt Hill
#
# Bulk Modulus (GPa) = 16.44671 47.17705 31.81188
# Shear Modulus (GPa) = 39.84965 23.42680 31.63822
#
# Velocity S-wave (km/s) = 4.49425 3.44589 4.00453
# Velocity P-wave (km/s) = 5.93863 6.30432 6.12421
#
# Compressibility (1/GPa) = 0.06080242
#
# Stress axis : x y z
#
# Youngs Moduli (GPa) = 144.33629 41.44870 29.89387
#
# Poissons Ratio (x) = 0.05014 0.18001
# Poissons Ratio (y) = 0.17462 -0.16082
# Poissons Ratio (z) = 0.86914 -0.22298
#
# Static dielectric constant tensor:
#      x y z
#    x 1.762840 0.000000 0.037920 
#    y 0.000000 1.729740 0.000000 
#    z 0.037920 0.000000 1.653960 
# 
# From -- ./inp_files/79986.got.cif
#   From: 2010.05.17/outbox.cif.g08.bks.cpg/sg10_40_cif.got.tgz:79986.got - 2010.06.03 11:33:40.
