data_PCOD9142245
_publ_section_title
;
Structure prediction by ZEFSAII (Michael W. Deem and Ramdas Pophale) SiO2 
 PCOD9142245
Probable space group: P 2/M
;
_chemical_formula_sum "Si O2"
_cell_formula_units_Z 24
_cell_length_a 17.346782
_cell_length_b 7.766045
_cell_length_c 12.653372
_cell_angle_alpha 90.000000
_cell_angle_beta 118.237207
_cell_angle_gamma 90.000000
_cell_volume 1501.755506
_symmetry_space_group_name_H-M "P 2/M"
_symmetry_group_IT_number 10
_symmetry_cell_setting 'monoclinic'
loop_
_space_group_symop_operation_xyz
x,y,z
-x,y,-z
-x,-y,-z
x,-y,z
loop_
_atom_site_type_symbol
_atom_site_label
_atom_site_fract_x
_atom_site_fract_y
_atom_site_fract_z
Si Si1 0.626216 0.500000 0.669183
Si Si2 0.687736 0.804773 0.420813
Si Si3 0.011699 0.290463 0.675276
Si Si4 0.250684 0.196862 0.299135
Si Si5 0.857399 0.291351 0.414465
Si Si6 0.950123 0.709228 0.862178
Si Si7 0.564477 0.500000 0.383239
O O1 0.687047 0.332460 0.718894
O O2 0.592047 0.500000 0.525317
O O3 0.540229 0.500000 0.685553
O O4 0.734480 0.774793 0.565293
O O5 0.762879 0.779099 0.382563
O O6 0.610387 0.667159 0.363382
O O7 0.655207 0.000000 0.398627
O O8 0.012421 0.500000 0.675584
O O9 0.097911 0.236793 0.666672
O O10 0.927324 0.239924 0.550561
O O11 0.999016 0.233101 0.786845
O O12 0.149609 0.228570 0.207317
O O13 0.274661 0.000000 0.291642
O O14 0.852171 0.500000 0.412896
O O15 0.947846 0.500000 0.859780
O O16 0.000000 0.764810 0.000000
#
# Coordination Sequence:
#
# PCOD9142245 Si02
#       7
#     2   4   4   4   4   4   2
#     4   9  18  32  47  63  87 120 154 186 226 278
#     4  10  18  27  44  68  92 119 152 184 223 277
#     4   8  15  24  41  64  86 120 160 187 220 260
#     4  10  19  30  46  65  89 121 155 190 224 267
#     4   9  14  25  43  61  87 122 153 186 220 264
#     4  10  18  29  46  66  92 125 160 194 223 259
#     4   9  18  30  46  64  90 121 145 187 234 268
#
# _framework density 15.981296
#
# number of rings (size 3 to 8) (size 9 to 14) (size 15 to 20)
#    0.000    2.667    3.333    1.000    0.000    1.000 
#    0.000    5.833    0.000    0.000    0.000    0.000 
#    0.000    2.667    0.000    3.000    0.000    0.333 
#
# Total GULP energy -133758.445351 kJ/mol
# GULP energy per Si atom -5573.268556 kJ/mol
# Density = 1.594492 g / cm^3
# Si number density = 15.981296 Si / 1000 Ang^3
#
#
#
# Elastic Constant Matrix: (Units=GPa)
#
#
# Indices 1 2 3 4 5 6 
#
# 1 156.3302 60.6020 41.8116 0.0000 -5.3380 0.0000
# 2 60.6020 71.3679 23.7840 0.0000 2.3147 0.0000
# 3 41.8116 23.7840 56.9258 0.0000 -8.7699 0.0000
# 4 0.0000 0.0000 0.0000 6.3811 0.0000 -0.2044
# 5 -5.3380 2.3147 -8.7699 0.0000 13.2901 0.0000
# 6 0.0000 0.0000 0.0000 -0.2044 0.0000 -5.0532
#
#
#
# Elastic Compliance Matrix: (Units=1/GPa)
#
#
# Indices 1 2 3 4 5 6 
#
# 1 0.010583 -0.007711 -0.004107 0.000000 0.002884 0.000000
# 2 -0.007711 0.022731 -0.005477 0.000000 -0.010671 0.000000
# 3 -0.004107 -0.005477 0.025341 0.000000 0.016026 0.000000
# 4 0.000000 0.000000 0.000000 0.156509 0.000000 -0.006331
# 5 0.002884 -0.010671 0.016026 0.000000 0.088836 0.000000
# 6 0.000000 0.000000 0.000000 -0.006331 0.000000 -0.197639
#
#
# Mechanical properties :
#
#
# Convention : Reuss Voigt Hill
#
# Bulk Modulus (GPa) = 41.55628 59.66878 50.61253
# Shear Modulus (GPa) = 33.56298 13.48536 23.52417
#
# Velocity S-wave (km/s) = 4.58770 2.90801 3.84080
# Velocity P-wave (km/s) = 7.35678 6.97804 7.16991
#
# Compressibility (1/GPa) = 0.02406375
#
# Stress axis : x y z
#
# Youngs Moduli (GPa) = 94.49148 43.99192 39.46217
#
# Poissons Ratio (x) = 0.33924 0.16207
# Poissons Ratio (y) = 0.72866 0.21615
# Poissons Ratio (z) = 0.38808 0.24096
#
# Static dielectric constant tensor:
#      x y z
#    x 1.527390 0.000000 -0.021160 
#    y 0.000000 1.571140 0.000000 
#    z -0.021160 0.000000 1.505250 
# 
# From -- ./inp_files/48918.got.cif
#   From: 2010.05.17/outbox.cif.g08.bks.cpg/sg10_25_cif.got.tgz:48918.got - 2010.06.03 11:33:40.
