data_PCOD9142011
_publ_section_title
;
Structure prediction by ZEFSAII (Michael W. Deem and Ramdas Pophale) SiO2 
 PCOD9142011
Probable space group: P 2/M
;
_chemical_formula_sum "Si O2"
_cell_formula_units_Z 30
_cell_length_a 9.771803
_cell_length_b 18.510012
_cell_length_c 10.888072
_cell_angle_alpha 90.000000
_cell_angle_beta 127.852131
_cell_angle_gamma 90.000000
_cell_volume 1555.026849
_symmetry_space_group_name_H-M "P 2/M"
_symmetry_group_IT_number 10
_symmetry_cell_setting 'monoclinic'
loop_
_space_group_symop_operation_xyz
x,y,z
-x,y,-z
-x,-y,-z
x,-y,z
loop_
_atom_site_type_symbol
_atom_site_label
_atom_site_fract_x
_atom_site_fract_y
_atom_site_fract_z
Si Si1 0.199974 0.223765 0.800789
Si Si2 0.000000 0.312300 0.500000
Si Si3 0.331776 0.634099 0.978320
Si Si4 0.200857 0.084803 0.654785
Si Si5 0.691431 0.919173 0.552559
Si Si6 0.947663 0.416624 0.684784
Si Si7 0.802002 0.652905 0.838142
Si Si8 0.105773 0.196099 0.180239
O O1 0.141626 0.262569 0.643274
O O2 0.321455 0.280376 0.938165
O O3 0.244254 0.141936 0.786144
O O4 0.032972 0.222918 0.796638
O O5 0.086807 0.363554 0.446902
O O6 0.149786 0.599469 0.832171
O O7 0.500000 0.604656 0.000000
O O8 0.322767 0.627697 0.121080
O O9 0.306666 0.103051 0.589173
O O10 0.000000 0.093203 0.500000
O O11 0.226945 0.000000 0.701763
O O12 0.500000 0.921732 0.500000
O O13 0.797661 0.868069 0.699933
O O14 0.768523 0.000000 0.595660
O O15 0.929597 0.500000 0.642851
O O16 0.823437 0.396099 0.730138
O O17 0.771234 0.736227 0.784692
O O18 0.000000 0.654479 0.000000
O O19 0.000000 0.174759 0.000000
#
# Coordination Sequence:
#
# PCOD9142011 Si02
#       8
#     4   2   4   4   4   4   4   4
#     4  11  18  33  57  80 108 141 185 231 274 322
#     4  10  17  30  55  84 104 132 184 226 269 326
#     4  10  21  35  54  81 110 142 181 230 278 333
#     4  10  19  32  54  79 105 144 190 227 266 331
#     4  10  22  37  53  80 115 146 182 232 288 336
#     4  10  20  34  56  81 109 141 177 228 276 332
#     4   9  17  34  53  77 105 140 183 225 268 332
#     4  11  18  34  59  80 106 144 190 234 269 330
#
# _framework density 19.292271
#
# number of rings (size 3 to 8) (size 9 to 14) (size 15 to 20)
#    0.000    1.867    7.333    0.200    0.000    4.000 
#    0.000    0.000    0.000    0.400    0.000    4.667 
#    0.000    0.000    0.000    0.000    0.000    0.000 
#
# Total GULP energy -167222.355130 kJ/mol
# GULP energy per Si atom -5574.078504 kJ/mol
# Density = 1.924836 g / cm^3
# Si number density = 19.292271 Si / 1000 Ang^3
#
#
#
# Elastic Constant Matrix: (Units=GPa)
#
#
# Indices 1 2 3 4 5 6 
#
# 1 115.1223 6.9260 20.0719 0.0000 -23.3687 0.0000
# 2 6.9260 73.6797 15.8000 0.0000 -11.0148 0.0000
# 3 20.0719 15.8000 26.7324 0.0000 -19.1725 0.0000
# 4 0.0000 0.0000 0.0000 11.6735 0.0000 -11.7005
# 5 -23.3687 -11.0148 -19.1725 0.0000 25.3321 0.0000
# 6 0.0000 0.0000 0.0000 -11.7005 0.0000 5.8898
#
#
#
# Elastic Compliance Matrix: (Units=1/GPa)
#
#
# Indices 1 2 3 4 5 6 
#
# 1 0.010781 0.000786 -0.002584 0.000000 0.008331 0.000000
# 2 0.000786 0.015602 -0.009681 0.000000 0.000182 0.000000
# 3 -0.002584 -0.009681 0.088237 0.000000 0.060188 0.000000
# 4 0.000000 0.000000 0.000000 -0.086426 0.000000 -0.171693
# 5 0.008331 0.000182 0.060188 0.000000 0.092793 0.000000
# 6 0.000000 0.000000 0.000000 -0.171693 0.000000 -0.171296
#
#
# Mechanical properties :
#
#
# Convention : Reuss Voigt Hill
#
# Bulk Modulus (GPa) = 10.90974 33.45891 22.18432
# Shear Modulus (GPa) = 1561.90765 20.09484 791.00125
#
# Velocity S-wave (km/s) = 28.48439 3.23088 20.27066
# Velocity P-wave (km/s) = 32.97698 5.59455 23.65143
#
# Compressibility (1/GPa) = 0.09166122
#
# Stress axis : x y z
#
# Youngs Moduli (GPa) = 92.75718 64.09621 11.33317
#
# Poissons Ratio (x) = -0.05039 0.02929
# Poissons Ratio (y) = -0.07293 0.10971
# Poissons Ratio (z) = 0.23971 0.62050
#
# Static dielectric constant tensor:
#      x y z
#    x 1.694310 0.000000 -0.005470 
#    y 0.000000 1.712610 0.000000 
#    z -0.005470 0.000000 1.705520 
# 
# From -- ./inp_files/43422.got.cif
#   From: 2010.05.17/outbox.cif.g08.bks.cpg/sg10_22_cif.got.tgz:43422.got - 2010.06.03 11:33:40.
