data_PCOD9142045
_publ_section_title
;
Structure prediction by ZEFSAII (Michael W. Deem and Ramdas Pophale) SiO2 
 PCOD9142045
Probable space group: P 2/M
;
_chemical_formula_sum "Si O2"
_cell_formula_units_Z 28
_cell_length_a 12.388434
_cell_length_b 7.762710
_cell_length_c 14.527836
_cell_angle_alpha 90.000000
_cell_angle_beta 108.581352
_cell_angle_gamma 90.000000
_cell_volume 1324.281997
_symmetry_space_group_name_H-M "P 2/M"
_symmetry_group_IT_number 10
_symmetry_cell_setting 'monoclinic'
loop_
_space_group_symop_operation_xyz
x,y,z
-x,y,-z
-x,-y,-z
x,-y,z
loop_
_atom_site_type_symbol
_atom_site_label
_atom_site_fract_x
_atom_site_fract_y
_atom_site_fract_z
Si Si1 0.328582 0.293386 0.688663
Si Si2 0.194040 0.803954 0.825149
Si Si3 0.465560 0.711255 0.385935
Si Si4 0.872808 0.703386 0.989365
Si Si5 0.755883 0.291057 0.784180
Si Si6 0.125766 0.290419 0.507308
Si Si7 0.049650 0.293490 0.295342
O O1 0.330135 0.500000 0.682391
O O2 0.295289 0.255947 0.785197
O O3 0.441845 0.235877 0.666349
O O4 0.224855 0.224107 0.598197
O O5 0.165243 0.718168 0.915099
O O6 0.075202 0.784901 0.737008
O O7 0.216143 0.000000 0.853103
O O8 0.500000 0.765822 0.500000
O O9 0.463762 0.500000 0.389765
O O10 0.345171 0.770481 0.309882
O O11 0.881330 0.500000 0.971798
O O12 0.773062 0.769249 0.893753
O O13 0.000000 0.774694 0.000000
O O14 0.742758 0.500000 0.779476
O O15 0.879044 0.250180 0.774714
O O16 0.127926 0.500000 0.515750
O O17 0.131581 0.246951 0.402054
O O18 0.000000 0.233339 0.500000
O O19 0.031952 0.500000 0.294442
#
# Coordination Sequence:
#
# PCOD9142045 Si02
#       7
#     4   4   4   4   4   4   4
#     4  10  19  34  55  79 111 149 182 220 273 328
#     4  12  24  35  50  77 112 145 182 229 276 320
#     4   9  17  31  55  89 118 137 171 226 276 319
#     4  10  19  35  58  82 107 142 181 223 275 329
#     4   9  17  30  53  82 109 137 175 221 271 325
#     4   9  15  24  46  76 103 133 175 214 254 317
#     4  10  17  31  53  78 109 142 177 218 272 331
#
# _framework density 21.143533999999999
#
# number of rings (size 3 to 8) (size 9 to 14) (size 15 to 20)
#    0.000    2.143    2.857    2.143    0.000    3.714 
#    0.000    2.143    0.000    6.429    0.000    0.000 
#    0.000    0.000    0.000    0.000    0.000    0.000 
#
# Total GULP energy -155996.399389 kJ/mol
# GULP energy per Si atom -5571.299978 kJ/mol
# Density = 2.109541 g / cm^3
# Si number density = 21.143534 Si / 1000 Ang^3
#
#
#
# Elastic Constant Matrix: (Units=GPa)
#
#
# Indices 1 2 3 4 5 6 
#
# 1 104.6387 3.6617 52.6576 0.0000 -6.5890 0.0000
# 2 3.6617 22.1904 2.7945 0.0000 5.5827 0.0000
# 3 52.6576 2.7945 127.9704 0.0000 -9.3480 0.0000
# 4 0.0000 0.0000 0.0000 -23.9487 0.0000 -1.8165
# 5 -6.5890 5.5827 -9.3480 0.0000 27.6449 0.0000
# 6 0.0000 0.0000 0.0000 -1.8165 0.0000 -32.8076
#
#
#
# Elastic Compliance Matrix: (Units=1/GPa)
#
#
# Indices 1 2 3 4 5 6 
#
# 1 0.012161 -0.001805 -0.004846 0.000000 0.001624 0.000000
# 2 -0.001805 0.048144 -0.001077 0.000000 -0.010517 0.000000
# 3 -0.004846 -0.001077 0.010011 0.000000 0.002447 0.000000
# 4 0.000000 0.000000 0.000000 -0.041932 0.000000 0.002322
# 5 0.001624 -0.010517 0.002447 0.000000 0.039512 0.000000
# 6 0.000000 0.000000 0.000000 0.002322 0.000000 -0.030609
#
#
# Mechanical properties :
#
#
# Convention : Reuss Voigt Hill
#
# Bulk Modulus (GPa) = 18.22833 41.44746 29.83790
# Shear Modulus (GPa) = 70.39559 7.22345 38.80952
#
# Velocity S-wave (km/s) = 5.77637 1.85035 4.28895
# Velocity P-wave (km/s) = 7.28893 4.92042 6.21848
#
# Compressibility (1/GPa) = 0.05485965
#
# Stress axis : x y z
#
# Youngs Moduli (GPa) = 82.23184 20.77113 99.89420
#
# Poissons Ratio (x) = 0.03749 0.48407
# Poissons Ratio (y) = 0.14843 0.10757
# Poissons Ratio (z) = 0.39848 0.02237
#
# Static dielectric constant tensor:
#      x y z
#    x 1.771500 0.000000 -0.037920 
#    y 0.000000 1.786880 0.000000 
#    z -0.037920 0.000000 1.834630 
# 
# From -- ./inp_files/63488.got.cif
#   From: 2010.05.17/outbox.cif.g08.bks.cpg/sg10_32_cif.got.tgz:63488.got - 2010.06.03 11:33:40.
