data_PCOD9142964
_publ_section_title
;
Structure prediction by ZEFSAII (Michael W. Deem and Ramdas Pophale) SiO2 
 PCOD9142964
Probable space group: P 2/M
;
_chemical_formula_sum "Si O2"
_cell_formula_units_Z 32
_cell_length_a 12.759893
_cell_length_b 14.713213
_cell_length_c 9.030308
_cell_angle_alpha 90.000000
_cell_angle_beta 67.365204
_cell_angle_gamma 90.000000
_cell_volume 1564.760368
_symmetry_space_group_name_H-M "P 2/M"
_symmetry_group_IT_number 10
_symmetry_cell_setting 'monoclinic'
loop_
_space_group_symop_operation_xyz
x,y,z
-x,y,-z
-x,-y,-z
x,-y,z
loop_
_atom_site_type_symbol
_atom_site_label
_atom_site_fract_x
_atom_site_fract_y
_atom_site_fract_z
Si Si1 0.302387 0.106496 0.871412
Si Si2 0.941682 0.396635 0.280476
Si Si3 0.802384 0.393504 0.871411
Si Si4 0.154159 0.728931 0.431092
Si Si5 0.706411 0.605988 0.230312
Si Si6 0.558320 0.103365 0.719523
Si Si7 0.793592 0.894012 0.769688
Si Si8 0.345841 0.771070 0.568908
O O1 0.433416 0.113650 0.855656
O O2 0.296677 0.164442 0.725395
O O3 0.282504 0.000000 0.850041
O O4 0.220111 0.132879 0.050773
O O5 0.935763 0.500000 0.343995
O O6 0.933205 0.324865 0.417441
O O7 0.833412 0.387251 0.232424
O O8 0.066587 0.386350 0.144347
O O9 0.782500 0.500000 0.850040
O O10 0.796673 0.335557 0.725395
O O11 0.720110 0.367121 0.050773
O O12 0.129126 0.823960 0.362627
O O13 0.249998 0.750003 0.500003
O O14 0.672818 0.500000 0.258488
O O15 0.629129 0.676039 0.362629
O O16 0.666591 0.112748 0.767573
O O17 0.566795 0.175136 0.582562
O O18 0.564237 0.000000 0.656004
O O19 0.827186 0.000000 0.741511
#
# Coordination Sequence:
#
# PCOD9142964 Si02
#       8
#     4   4   4   4   4   4   4   4
#     4  10  18  30  50  72  93 118 151 192 234 273
#     4   9  17  30  49  73  96 117 147 190 236 274
#     4  10  18  30  50  72  93 118 151 192 234 273
#     4  10  19  29  43  67  98 126 151 183 226 275
#     4   9  18  31  47  69  96 124 152 184 225 273
#     4   9  17  30  49  73  96 117 147 190 236 274
#     4   9  18  31  47  69  96 124 152 184 225 273
#     4  10  19  29  43  67  98 126 151 183 226 275
#
# _framework density 20.450416000000001
#
# number of rings (size 3 to 8) (size 9 to 14) (size 15 to 20)
#    0.000    2.500    0.000    3.000    0.000    6.000 
#    0.000    0.000    0.000    3.000    0.000    0.000 
#    0.000   46.000    0.000    0.000    0.000    0.000 
#
# Total GULP energy -178371.606789 kJ/mol
# GULP energy per Si atom -5574.112712 kJ/mol
# Density = 2.040387 g / cm^3
# Si number density = 20.450416 Si / 1000 Ang^3
#
#
#
# Elastic Constant Matrix: (Units=GPa)
#
#
# Indices 1 2 3 4 5 6 
#
# 1 26.4012 -3.8979 -0.7377 0.0000 5.8476 0.0000
# 2 -3.8979 96.0476 72.9497 0.0000 -4.2474 0.0000
# 3 -0.7377 72.9497 122.1564 0.0000 1.9298 0.0000
# 4 0.0000 0.0000 0.0000 37.0540 0.0000 11.3689
# 5 5.8476 -4.2474 1.9298 0.0000 22.2948 0.0000
# 6 0.0000 0.0000 0.0000 11.3689 0.0000 13.0489
#
#
#
# Elastic Compliance Matrix: (Units=1/GPa)
#
#
# Indices 1 2 3 4 5 6 
#
# 1 0.040365 0.001606 -0.000554 0.000000 -0.010233 0.000000
# 2 0.001606 0.019605 -0.011767 0.000000 0.004332 0.000000
# 3 -0.000554 -0.011767 0.015264 0.000000 -0.003418 0.000000
# 4 0.000000 0.000000 0.000000 0.036834 0.000000 -0.032092
# 5 -0.010233 0.004332 -0.003418 0.000000 0.048659 0.000000
# 6 0.000000 0.000000 0.000000 -0.032092 0.000000 0.104595
#
#
# Mechanical properties :
#
#
# Convention : Reuss Voigt Hill
#
# Bulk Modulus (GPa) = 18.58531 42.35926 30.47228
# Shear Modulus (GPa) = 16.41037 26.23228 21.32133
#
# Velocity S-wave (km/s) = 2.83582 3.58540 3.23241
# Velocity P-wave (km/s) = 4.45312 6.15616 5.37255
#
# Compressibility (1/GPa) = 0.05380594
#
# Stress axis : x y z
#
# Youngs Moduli (GPa) = 24.77371 51.00684 65.51486
#
# Poissons Ratio (x) = -0.08193 0.03628
# Poissons Ratio (y) = -0.03979 0.77089
# Poissons Ratio (z) = 0.01372 0.60018
#
# Static dielectric constant tensor:
#      x y z
#    x 1.742720 0.000000 0.002520 
#    y 0.000000 1.753750 0.000000 
#    z 0.002520 0.000000 1.703510 
# 
# From -- ./inp_files/29048.got.cif
#   From: 2010.05.17/outbox.cif.g08.bks.cpg/sg10_15_cif.got.tgz:29048.got - 2010.06.03 11:33:40.
