data_PCOD9142995
_publ_section_title
;
Structure prediction by ZEFSAII (Michael W. Deem and Ramdas Pophale) SiO2 
 PCOD9142995
Probable space group: P 2/M
;
_chemical_formula_sum "Si O2"
_cell_formula_units_Z 32
_cell_length_a 33.846938
_cell_length_b 7.409971
_cell_length_c 12.358100
_cell_angle_alpha 90.000000
_cell_angle_beta 25.937661
_cell_angle_gamma 90.000000
_cell_volume 1355.686929
_symmetry_space_group_name_H-M "P 2/M"
_symmetry_group_IT_number 10
_symmetry_cell_setting 'monoclinic'
loop_
_space_group_symop_operation_xyz
x,y,z
-x,y,-z
-x,-y,-z
x,-y,z
loop_
_atom_site_type_symbol
_atom_site_label
_atom_site_fract_x
_atom_site_fract_y
_atom_site_fract_z
Si Si1 0.502981 0.717836 0.170366
Si Si2 0.770779 0.789285 0.788594
Si Si3 0.912598 0.205620 0.276120
Si Si4 0.057014 0.719351 0.207200
Si Si5 0.137491 0.282484 0.226530
Si Si6 0.639873 0.719428 0.641087
Si Si7 0.829147 0.718598 0.266544
Si Si8 0.427954 0.210193 0.762120
O O1 0.502395 0.500000 0.176700
O O2 0.407658 0.777659 0.353159
O O3 0.531186 0.781538 0.218631
O O4 0.576502 0.769961 0.898481
O O5 0.859280 0.710578 0.509120
O O6 0.785426 0.777324 0.881303
O O7 0.772004 0.000000 0.754212
O O8 0.673631 0.712284 0.994008
O O9 0.838243 0.207256 0.363732
O O10 0.938738 0.000000 0.238694
O O11 0.000000 0.290286 0.000000
O O12 0.055735 0.500000 0.211366
O O13 0.129057 0.773950 0.122315
O O14 0.958061 0.778473 0.486532
O O15 0.086907 0.774623 0.014988
O O16 0.139735 0.500000 0.221073
O O17 0.640847 0.500000 0.635280
O O18 0.740002 0.777662 0.422861
O O19 0.827739 0.500000 0.277726
O O20 0.500000 0.289132 0.500000
O O21 0.416571 0.000000 0.759369
#
# Coordination Sequence:
#
# PCOD9142995 Si02
#       8
#     4   4   4   4   4   4   4   4
#     4   9  17  33  54  74  98 126 160 200 247 299
#     4  10  21  36  52  71  99 133 166 203 247 290
#     4  10  21  35  50  72 104 135 162 201 249 289
#     4   8  16  30  48  72 101 129 157 200 248 285
#     4   9  17  32  52  72  97 129 165 201 241 289
#     4   8  16  30  50  76 102 125 151 200 257 292
#     4  10  18  30  50  74  99 128 164 199 239 294
#     4  10  22  38  52  69  99 135 167 204 247 287
#
# _framework density 23.604272000000002
#
# number of rings (size 3 to 8) (size 9 to 14) (size 15 to 20)
#    0.000    2.750    0.000    3.000    0.000    2.500 
#    0.000    5.000    0.000    0.000    0.000    0.000 
#    0.000    0.000    0.000    0.000    0.000    0.000 
#
# Total GULP energy -178657.532621 kJ/mol
# GULP energy per Si atom -5583.047894 kJ/mol
# Density = 2.355055 g / cm^3
# Si number density = 23.604272 Si / 1000 Ang^3
#
#
#
# Elastic Constant Matrix: (Units=GPa)
#
#
# Indices 1 2 3 4 5 6 
#
# 1 147.3573 -6.3637 23.5558 0.0000 -6.8433 0.0000
# 2 -6.3637 81.5960 10.5694 0.0000 -1.1190 0.0000
# 3 23.5558 10.5694 58.7081 0.0000 -9.5178 0.0000
# 4 0.0000 0.0000 0.0000 3.6631 0.0000 -3.1648
# 5 -6.8433 -1.1190 -9.5178 0.0000 36.4897 0.0000
# 6 0.0000 0.0000 0.0000 -3.1648 0.0000 27.8982
#
#
#
# Elastic Compliance Matrix: (Units=1/GPa)
#
#
# Indices 1 2 3 4 5 6 
#
# 1 0.007340 0.000972 -0.003020 0.000000 0.000619 0.000000
# 2 0.000972 0.012678 -0.002694 0.000000 -0.000132 0.000000
# 3 -0.003020 -0.002694 0.019447 0.000000 0.004424 0.000000
# 4 0.000000 0.000000 0.000000 0.302654 0.000000 0.034333
# 5 0.000619 -0.000132 0.004424 0.000000 0.028671 0.000000
# 6 0.000000 0.000000 0.000000 0.034333 0.000000 0.039739
#
#
# Mechanical properties :
#
#
# Convention : Reuss Voigt Hill
#
# Bulk Modulus (GPa) = 33.35302 38.13161 35.74231
# Shear Modulus (GPa) = 11.62773 30.93687 21.28230
#
# Velocity S-wave (km/s) = 2.22189 3.62421 3.00597
# Velocity P-wave (km/s) = 4.55447 5.80541 5.21757
#
# Compressibility (1/GPa) = 0.02998230
#
# Stress axis : x y z
#
# Youngs Moduli (GPa) = 136.24655 78.87394 51.42138
#
# Poissons Ratio (x) = -0.07667 0.15527
# Poissons Ratio (y) = -0.13244 0.13852
# Poissons Ratio (z) = 0.41141 0.21248
#
# Static dielectric constant tensor:
#      x y z
#    x 1.854940 0.000000 -0.033520 
#    y 0.000000 1.896830 0.000000 
#    z -0.033520 0.000000 1.917950 
# 
# From -- ./inp_files/58137.got.cif
#   From: 2010.05.17/outbox.cif.g08.bks.cpg/sg10_30_cif.got.tgz:58137.got - 2010.06.03 11:33:40.
