data_PCOD9142297
_publ_section_title
;
Structure prediction by ZEFSAII (Michael W. Deem and Ramdas Pophale) SiO2 
 PCOD9142297
Probable space group: P 2/M
;
_chemical_formula_sum "Si O2"
_cell_formula_units_Z 32
_cell_length_a 13.816619
_cell_length_b 9.108840
_cell_length_c 29.620791
_cell_angle_alpha 90.000000
_cell_angle_beta 34.911944
_cell_angle_gamma 90.000000
_cell_volume 2133.526423
_symmetry_space_group_name_H-M "P 2/M"
_symmetry_group_IT_number 10
_symmetry_cell_setting 'monoclinic'
loop_
_space_group_symop_operation_xyz
x,y,z
-x,y,-z
-x,-y,-z
x,-y,z
loop_
_atom_site_type_symbol
_atom_site_label
_atom_site_fract_x
_atom_site_fract_y
_atom_site_fract_z
Si Si1 0.097723 0.825963 0.560422
Si Si2 0.116191 0.331006 0.000704
Si Si3 0.826208 0.824860 0.163395
Si Si4 0.621309 0.670758 0.318316
Si Si5 0.540570 0.823920 0.536002
Si Si6 0.247104 0.331871 0.420023
Si Si7 0.756628 0.325936 0.685583
Si Si8 0.597550 0.824651 0.162150
O O1 0.265124 0.787939 0.525310
O O2 0.145121 0.775924 0.491459
O O3 0.928555 0.742011 0.639381
O O4 0.071138 0.000000 0.572434
O O5 0.150019 0.500000 0.000042
O O6 0.002179 0.248580 0.081107
O O7 0.284203 0.245587 0.921596
O O8 0.000000 0.332097 0.000000
O O9 0.754719 0.757034 0.236709
O O10 0.691682 0.793787 0.174195
O O11 0.843078 0.000000 0.160006
O O12 0.667489 0.500000 0.305159
O O13 0.580628 0.743406 0.382009
O O14 0.442720 0.677947 0.359805
O O15 0.500000 0.785733 0.500000
O O16 0.521665 0.000000 0.548803
O O17 0.190193 0.500000 0.450680
O O18 0.234045 0.302218 0.372183
O O19 0.746444 0.500000 0.697322
O O20 0.586973 0.246789 0.766956
O O21 0.588635 0.000000 0.160728
#
# Coordination Sequence:
#
# PCOD9142297 Si02
#       8
#     4   4   4   4   4   4   4   4
#     4  10  20  31  45  65  85 110 148 188 225 267
#     4   9  17  28  42  59  84 119 156 190 226 265
#     4  10  18  28  43  63  89 119 154 192 226 262
#     4  10  18  29  46  68  91 117 152 189 226 269
#     4   9  19  36  53  67  88 117 147 185 235 282
#     4   9  18  30  42  58  85 119 150 181 220 263
#     4  11  20  30  43  60  88 122 153 184 221 265
#     4  10  19  29  42  61  87 120 158 193 224 259
#
# _framework density 14.998642
#
# number of rings (size 3 to 8) (size 9 to 14) (size 15 to 20)
#    0.000    2.250    1.250    2.625    0.000    6.250 
#    0.000    0.000    0.000    0.000    0.000    0.000 
#    0.000    1.000    0.000   10.750    0.000    4.750 
#
# Total GULP energy -178484.549565 kJ/mol
# GULP energy per Si atom -5577.642174 kJ/mol
# Density = 1.496450 g / cm^3
# Si number density = 14.998642 Si / 1000 Ang^3
#
#
#
# Elastic Constant Matrix: (Units=GPa)
#
#
# Indices 1 2 3 4 5 6 
#
# 1 47.0476 36.4512 49.7775 0.0000 5.9838 0.0000
# 2 36.4512 86.0382 82.4252 0.0000 -1.5737 0.0000
# 3 49.7775 82.4252 139.5821 0.0000 -4.2698 0.0000
# 4 0.0000 0.0000 0.0000 47.7363 0.0000 -7.2716
# 5 5.9838 -1.5737 -4.2698 0.0000 17.2669 0.0000
# 6 0.0000 0.0000 0.0000 -7.2716 0.0000 16.2909
#
#
#
# Elastic Compliance Matrix: (Units=1/GPa)
#
#
# Indices 1 2 3 4 5 6 
#
# 1 0.040281 -0.007170 -0.010658 0.000000 -0.017248 0.000000
# 2 -0.007170 0.028077 -0.013974 0.000000 0.001588 0.000000
# 3 -0.010658 -0.013974 0.019438 0.000000 0.007227 0.000000
# 4 0.000000 0.000000 0.000000 0.022477 0.000000 0.010033
# 5 -0.017248 0.001588 0.007227 0.000000 0.065823 0.000000
# 6 0.000000 0.000000 0.000000 0.010033 0.000000 0.065862
#
#
# Mechanical properties :
#
#
# Convention : Reuss Voigt Hill
#
# Bulk Modulus (GPa) = 41.33853 67.77508 54.55680
# Shear Modulus (GPa) = 15.94247 23.19309 19.56778
#
# Velocity S-wave (km/s) = 3.26379 3.93663 3.61589
# Velocity P-wave (km/s) = 6.46719 8.12085 7.34073
#
# Compressibility (1/GPa) = 0.02419051
#
# Stress axis : x y z
#
# Youngs Moduli (GPa) = 24.82558 35.61634 51.44477
#
# Poissons Ratio (x) = 0.25538 0.54832
# Poissons Ratio (y) = 0.17800 0.71890
# Poissons Ratio (z) = 0.26460 0.49771
#
# Static dielectric constant tensor:
#      x y z
#    x 1.474820 0.000000 -0.013170 
#    y 0.000000 1.501460 0.000000 
#    z -0.013170 0.000000 1.488780 
# 
# From -- ./inp_files/55327.got.cif
#   From: 2010.05.17/outbox.cif.g08.bks.cpg/sg10_28_cif.got.tgz:55327.got - 2010.06.03 11:33:40.
