data_PCOD9142031
_publ_section_title
;
Structure prediction by ZEFSAII (Michael W. Deem and Ramdas Pophale) SiO2 
 PCOD9142031
Probable space group: P 2/M
;
_chemical_formula_sum "Si O2"
_cell_formula_units_Z 28
_cell_length_a 17.067206
_cell_length_b 11.671025
_cell_length_c 8.575883
_cell_angle_alpha 90.000000
_cell_angle_beta 129.347431
_cell_angle_gamma 90.000000
_cell_volume 1321.012894
_symmetry_space_group_name_H-M "P 2/M"
_symmetry_group_IT_number 10
_symmetry_cell_setting 'monoclinic'
loop_
_space_group_symop_operation_xyz
x,y,z
-x,y,-z
-x,-y,-z
x,-y,z
loop_
_atom_site_type_symbol
_atom_site_label
_atom_site_fract_x
_atom_site_fract_y
_atom_site_fract_z
Si Si1 0.245848 0.704707 0.817571
Si Si2 0.865289 0.364876 0.998423
Si Si3 0.564498 0.132274 0.224959
Si Si4 0.549998 0.500000 0.399515
Si Si5 0.392545 0.500000 0.949963
Si Si6 0.061619 0.367998 0.414086
Si Si7 0.631398 0.867785 0.821473
Si Si8 0.312011 0.276313 0.413359
O O1 0.156579 0.710187 0.578312
O O2 0.196897 0.654034 0.917382
O O3 0.324867 0.612310 0.850253
O O4 0.301485 0.817796 0.950691
O O5 0.868444 0.500000 0.973142
O O6 0.019746 0.328123 0.817038
O O7 0.802553 0.307980 0.779080
O O8 0.484011 0.136330 0.265303
O O9 0.663597 0.196069 0.409109
O O10 0.586669 0.000000 0.215014
O O11 0.500000 0.182983 0.000000
O O12 0.500000 0.500000 0.500000
O O13 0.442211 0.500000 0.178959
O O14 0.621296 0.389579 0.469838
O O15 0.500000 0.500000 0.000000
O O16 0.093922 0.500000 0.419964
O O17 0.000000 0.374551 0.500000
O O18 0.648813 0.789099 0.693139
O O19 0.657155 0.000000 0.820527
#
# Coordination Sequence:
#
# PCOD9142031 Si02
#       8
#     4   4   4   2   2   4   4   4
#     4  10  17  31  50  73 110 142 172 216 268 319
#     4   9  15  28  50  79 105 136 179 213 255 324
#     4  10  21  37  53  69  95 139 188 224 257 307
#     4  12  22  32  47  72 102 142 169 202 261 321
#     4  12  24  34  48  78 112 138 170 214 269 319
#     4   8  13  24  48  76 103 133 175 215 253 318
#     4  10  21  34  52  75 100 138 184 223 259 306
#     4  11  20  32  52  75 107 131 167 216 266 314
#
# _framework density 21.195855999999999
#
# number of rings (size 3 to 8) (size 9 to 14) (size 15 to 20)
#    0.000    2.000    2.143    5.143    0.000    3.429 
#    0.000    0.000    0.000   11.571    0.000    5.000 
#    0.000    3.429    0.000    0.000    0.000    0.143 
#
# Total GULP energy -156290.742483 kJ/mol
# GULP energy per Si atom -5581.812232 kJ/mol
# Density = 2.114761 g / cm^3
# Si number density = 21.195856 Si / 1000 Ang^3
#
#
#
# Elastic Constant Matrix: (Units=GPa)
#
#
# Indices 1 2 3 4 5 6 
#
# 1 43.6394 11.6057 16.6440 0.0000 12.9702 0.0000
# 2 11.6057 86.4575 38.4567 0.0000 17.6122 0.0000
# 3 16.6440 38.4567 175.3628 0.0000 39.0566 0.0000
# 4 0.0000 0.0000 0.0000 28.6626 0.0000 -1.6597
# 5 12.9702 17.6122 39.0566 0.0000 35.1941 0.0000
# 6 0.0000 0.0000 0.0000 -1.6597 0.0000 11.6594
#
#
#
# Elastic Compliance Matrix: (Units=1/GPa)
#
#
# Indices 1 2 3 4 5 6 
#
# 1 0.025964 -0.001661 -0.000205 0.000000 -0.008511 0.000000
# 2 -0.001661 0.013451 -0.001899 0.000000 -0.004012 0.000000
# 3 -0.000205 -0.001899 0.007850 0.000000 -0.007686 0.000000
# 4 0.000000 0.000000 0.000000 0.035179 0.000000 0.005008
# 5 -0.008511 -0.004012 -0.007686 0.000000 0.042088 0.000000
# 6 0.000000 0.000000 0.000000 0.005008 0.000000 0.086481
#
#
# Mechanical properties :
#
#
# Convention : Reuss Voigt Hill
#
# Bulk Modulus (GPa) = 25.16500 48.76360 36.96430
# Shear Modulus (GPa) = 21.57158 31.02010 26.29584
#
# Velocity S-wave (km/s) = 3.19364 3.82972 3.52605
# Velocity P-wave (km/s) = 5.04951 6.52777 5.83564
#
# Compressibility (1/GPa) = 0.03973773
#
# Stress axis : x y z
#
# Youngs Moduli (GPa) = 38.51458 74.34311 127.38730
#
# Poissons Ratio (x) = 0.12346 0.02607
# Poissons Ratio (y) = 0.06396 0.24185
# Poissons Ratio (z) = 0.00788 0.14114
#
# Static dielectric constant tensor:
#      x y z
#    x 1.812540 0.000000 -0.014020 
#    y 0.000000 1.770060 0.000000 
#    z -0.014020 0.000000 1.772550 
# 
# From -- ./inp_files/28705.got.cif
#   From: 2010.05.17/outbox.cif.g08.bks.cpg/sg10_15_cif.got.tgz:28705.got - 2010.06.03 11:33:40.
