data_PCOD9142054
_publ_section_title
;
Structure prediction by ZEFSAII (Michael W. Deem and Ramdas Pophale) SiO2 
 PCOD9142054
Probable space group: P 2/M
;
_chemical_formula_sum "Si O2"
_cell_formula_units_Z 28
_cell_length_a 17.552654
_cell_length_b 7.752055
_cell_length_c 15.258570
_cell_angle_alpha 90.000000
_cell_angle_beta 45.887227
_cell_angle_gamma 90.000000
_cell_volume 1490.666388
_symmetry_space_group_name_H-M "P 2/M"
_symmetry_group_IT_number 10
_symmetry_cell_setting 'monoclinic'
loop_
_space_group_symop_operation_xyz
x,y,z
-x,y,-z
-x,-y,-z
x,-y,z
loop_
_atom_site_type_symbol
_atom_site_label
_atom_site_fract_x
_atom_site_fract_y
_atom_site_fract_z
Si Si1 0.152783 0.788976 0.940990
Si Si2 0.918935 0.208486 0.189963
Si Si3 0.241749 0.799582 0.330286
Si Si4 0.519680 0.211043 0.883569
Si Si5 0.904427 0.298007 0.396381
Si Si6 0.686812 0.799147 0.046651
Si Si7 0.857618 0.300435 0.769063
O O1 0.144835 0.736890 0.845878
O O2 0.153601 0.000000 0.941819
O O3 0.251845 0.725082 0.918315
O O4 0.041615 0.737891 0.075820
O O5 0.878850 0.275182 0.314708
O O6 0.917681 0.000000 0.193760
O O7 0.362634 0.735128 0.238822
O O8 0.179213 0.784240 0.470893
O O9 0.178569 0.709396 0.302434
O O10 0.247271 0.000000 0.299844
O O11 0.515630 0.000000 0.885323
O O12 0.500000 0.263055 0.000000
O O13 0.423940 0.275552 0.899138
O O14 0.907259 0.500000 0.416319
O O15 0.023911 0.227525 0.314850
O O16 0.770783 0.789723 0.899599
O O17 0.666755 0.000000 0.082677
O O18 0.859886 0.500000 0.795511
#
# Coordination Sequence:
#
# PCOD9142054 Si02
#       7
#     4   4   4   4   4   4   4
#     4   8  15  27  50  80 104 127 162 209 250 292
#     4   9  16  30  51  77 103 129 167 206 247 300
#     4  11  22  36  54  73  97 135 176 209 247 296
#     4   9  17  31  52  78 101 124 166 217 249 284
#     4  11  23  36  49  72 106 138 167 206 252 299
#     4  10  17  31  55  77 103 135 165 202 252 299
#     4  11  22  34  48  73 107 136 164 204 249 298
#
# _framework density 18.783546000000001
#
# number of rings (size 3 to 8) (size 9 to 14) (size 15 to 20)
#    0.000    2.143    2.857    2.571    0.000    3.429 
#    0.000    4.286    0.000    0.857    0.000    6.000 
#    0.000    0.000    0.000    0.000    0.000    0.000 
#
# Total GULP energy -156273.510168 kJ/mol
# GULP energy per Si atom -5581.196792 kJ/mol
# Density = 1.874079 g / cm^3
# Si number density = 18.783546 Si / 1000 Ang^3
#
#
#
# Elastic Constant Matrix: (Units=GPa)
#
#
# Indices 1 2 3 4 5 6 
#
# 1 160.5738 -0.9783 62.5665 0.0000 6.5019 0.0000
# 2 -0.9783 30.2443 -7.8436 0.0000 -5.9038 0.0000
# 3 62.5665 -7.8436 92.6761 0.0000 -3.4676 0.0000
# 4 0.0000 0.0000 0.0000 -11.0316 0.0000 -1.5827
# 5 6.5019 -5.9038 -3.4676 0.0000 20.6993 0.0000
# 6 0.0000 0.0000 0.0000 -1.5827 0.0000 9.5215
#
#
#
# Elastic Compliance Matrix: (Units=1/GPa)
#
#
# Indices 1 2 3 4 5 6 
#
# 1 0.008867 -0.002234 -0.006343 0.000000 -0.004485 0.000000
# 2 -0.002234 0.036646 0.005059 0.000000 0.012001 0.000000
# 3 -0.006343 0.005059 0.015728 0.000000 0.006070 0.000000
# 4 0.000000 0.000000 0.000000 -0.088538 0.000000 -0.014717
# 5 -0.004485 0.012001 0.006070 0.000000 0.054159 0.000000
# 6 0.000000 0.000000 0.000000 -0.014717 0.000000 0.102579
#
#
# Mechanical properties :
#
#
# Convention : Reuss Voigt Hill
#
# Bulk Modulus (GPa) = 18.44853 43.44260 30.94556
# Shear Modulus (GPa) = 32.35251 19.15450 25.75351
#
# Velocity S-wave (km/s) = 4.15467 3.19682 3.70681
# Velocity P-wave (km/s) = 5.73219 6.06666 5.90179
#
# Compressibility (1/GPa) = 0.05420487
#
# Stress axis : x y z
#
# Youngs Moduli (GPa) = 112.77432 27.28780 63.58128
#
# Poissons Ratio (x) = 0.06095 0.40331
# Poissons Ratio (y) = 0.25191 -0.32163
# Poissons Ratio (z) = 0.71535 -0.13804
#
# Static dielectric constant tensor:
#      x y z
#    x 1.672090 0.000000 -0.009190 
#    y 0.000000 1.690650 0.000000 
#    z -0.009190 0.000000 1.610570 
# 
# From -- ./inp_files/49170.got.cif
#   From: 2010.05.17/outbox.cif.g08.bks.cpg/sg10_25_cif.got.tgz:49170.got - 2010.06.03 11:33:40.
