data_PCOD9142746
_publ_section_title
;
Structure prediction by ZEFSAII (Michael W. Deem and Ramdas Pophale) SiO2 
 PCOD9142746
Probable space group: P 2/M
;
_chemical_formula_sum "Si O2"
_cell_formula_units_Z 28
_cell_length_a 14.160061
_cell_length_b 9.649904
_cell_length_c 15.066595
_cell_angle_alpha 90.000000
_cell_angle_beta 125.188406
_cell_angle_gamma 90.000000
_cell_volume 1682.535689
_symmetry_space_group_name_H-M "P 2/M"
_symmetry_group_IT_number 10
_symmetry_cell_setting 'monoclinic'
loop_
_space_group_symop_operation_xyz
x,y,z
-x,y,-z
-x,-y,-z
x,-y,z
loop_
_atom_site_type_symbol
_atom_site_label
_atom_site_fract_x
_atom_site_fract_y
_atom_site_fract_z
Si Si1 0.331793 0.836205 0.566507
Si Si2 0.064547 0.500000 0.174557
Si Si3 0.645107 0.254959 0.893623
Si Si4 0.378019 0.661531 0.765943
Si Si5 0.399599 0.845442 0.323307
Si Si6 0.639506 0.848307 0.081711
Si Si7 0.246852 0.341828 0.366396
Si Si8 0.176904 0.500000 0.040119
O O1 0.333675 0.755814 0.660868
O O2 0.462538 0.823813 0.597939
O O3 0.250793 0.755209 0.454062
O O4 0.307883 0.000000 0.563120
O O5 0.120100 0.369366 0.256512
O O6 0.122813 0.500000 0.108995
O O7 0.928773 0.500000 0.086388
O O8 0.518184 0.322789 0.840161
O O9 0.631467 0.163903 0.797811
O O10 0.741194 0.368730 0.927086
O O11 0.677839 0.177783 0.001947
O O12 0.348902 0.500000 0.740829
O O13 0.333513 0.727867 0.833820
O O14 0.329128 0.730290 0.338393
O O15 0.372822 0.000000 0.343038
O O16 0.677819 0.000000 0.134649
O O17 0.500000 0.852041 0.000000
O O18 0.288585 0.500000 0.408848
#
# Coordination Sequence:
#
# PCOD9142746 Si02
#       8
#     4   2   4   4   4   4   4   2
#     4  10  20  31  47  69 102 137 161 194 242 299
#     4   9  22  34  52  70  97 128 168 222 263 284
#     4  10  18  29  51  71 100 136 170 200 243 288
#     4  10  19  29  46  76 108 132 167 196 231 291
#     4  10  19  30  45  71 103 132 164 195 239 299
#     4   9  18  30  45  69 107 141 164 193 238 294
#     4  10  19  33  47  71  91 129 165 207 249 288
#     4  11  18  36  52  73  96 129 172 216 260 281
#
# _framework density 16.641549000000001
#
# number of rings (size 3 to 8) (size 9 to 14) (size 15 to 20)
#    0.429    1.714    2.143    2.143    1.000    7.143 
#    0.000    0.000    0.000    4.286    0.000    2.000 
#    0.000    2.286    0.000    0.000    0.000    0.000 
#
# Total GULP energy -155985.035073 kJ/mol
# GULP energy per Si atom -5570.894110 kJ/mol
# Density = 1.660367 g / cm^3
# Si number density = 16.641549 Si / 1000 Ang^3
#
#
#
# Elastic Constant Matrix: (Units=GPa)
#
#
# Indices 1 2 3 4 5 6 
#
# 1 18.0880 10.4330 20.1338 0.0000 -1.8755 0.0000
# 2 10.4330 117.4979 45.6172 0.0000 -4.0253 0.0000
# 3 20.1338 45.6172 104.7009 0.0000 -1.2146 0.0000
# 4 0.0000 0.0000 0.0000 26.6808 0.0000 -7.6899
# 5 -1.8755 -4.0253 -1.2146 0.0000 23.8035 0.0000
# 6 0.0000 0.0000 0.0000 -7.6899 0.0000 6.2017
#
#
#
# Elastic Compliance Matrix: (Units=1/GPa)
#
#
# Indices 1 2 3 4 5 6 
#
# 1 0.071012 -0.001038 -0.013148 0.000000 0.004749 0.000000
# 2 -0.001038 0.010313 -0.004277 0.000000 0.001444 0.000000
# 3 -0.013148 -0.004277 0.013931 0.000000 -0.001048 0.000000
# 4 0.000000 0.000000 0.000000 0.058324 0.000000 0.072320
# 5 0.004749 0.001444 -0.001048 0.000000 0.042575 0.000000
# 6 0.000000 0.000000 0.000000 0.072320 0.000000 0.250919
#
#
# Mechanical properties :
#
#
# Convention : Reuss Voigt Hill
#
# Bulk Modulus (GPa) = 17.14408 43.62830 30.38619
# Shear Modulus (GPa) = 9.93162 22.27739 16.10451
#
# Velocity S-wave (km/s) = 2.44559 3.66274 3.11421
# Velocity P-wave (km/s) = 4.27772 6.64537 5.58837
#
# Compressibility (1/GPa) = 0.05832917
#
# Stress axis : x y z
#
# Youngs Moduli (GPa) = 14.08219 96.96626 71.78443
#
# Poissons Ratio (x) = 0.10066 0.94383
# Poissons Ratio (y) = 0.01462 0.30701
# Poissons Ratio (z) = 0.18515 0.41471
#
# Static dielectric constant tensor:
#      x y z
#    x 1.530440 0.000000 -0.027300 
#    y 0.000000 1.566580 0.000000 
#    z -0.027300 0.000000 1.585110 
# 
# From -- ./inp_files/66262.got.cif
#   From: 2010.05.17/outbox.cif.g08.bks.cpg/sg10_34_cif.got.tgz:66262.got - 2010.06.03 11:33:40.
