data_PCOD9142271
_publ_section_title
;
Structure prediction by ZEFSAII (Michael W. Deem and Ramdas Pophale) SiO2 
 PCOD9142271
Probable space group: P 2/M
;
_chemical_formula_sum "Si O2"
_cell_formula_units_Z 32
_cell_length_a 17.881961
_cell_length_b 8.258260
_cell_length_c 14.012317
_cell_angle_alpha 90.000000
_cell_angle_beta 102.205627
_cell_angle_gamma 90.000000
_cell_volume 2022.478075
_symmetry_space_group_name_H-M "P 2/M"
_symmetry_group_IT_number 10
_symmetry_cell_setting 'monoclinic'
loop_
_space_group_symop_operation_xyz
x,y,z
-x,y,-z
-x,-y,-z
x,-y,z
loop_
_atom_site_type_symbol
_atom_site_label
_atom_site_fract_x
_atom_site_fract_y
_atom_site_fract_z
Si Si1 0.093616 0.187790 0.928978
Si Si2 0.054401 0.303420 0.218070
Si Si3 0.172879 0.691113 0.762475
Si Si4 0.329420 0.189522 0.851002
Si Si5 0.026827 0.696823 0.610010
Si Si6 0.661215 0.697100 0.926818
Si Si7 0.812992 0.309748 0.870029
Si Si8 0.506464 0.688084 0.117275
O O1 0.145508 0.214509 0.849209
O O2 0.009836 0.244599 0.873927
O O3 0.092438 0.000000 0.955965
O O4 0.131655 0.288305 0.023879
O O5 0.053693 0.500000 0.216388
O O6 0.137402 0.245145 0.205198
O O7 0.026407 0.251008 0.315396
O O8 0.161364 0.500000 0.778312
O O9 0.262094 0.725150 0.773881
O O10 0.114017 0.737690 0.662847
O O11 0.414985 0.223836 0.836859
O O12 0.314949 0.000000 0.847500
O O13 0.325901 0.251880 0.959783
O O14 0.022756 0.500000 0.606273
O O15 0.000000 0.757783 0.500000
O O16 0.660667 0.500000 0.926810
O O17 0.730806 0.757807 0.880054
O O18 0.576344 0.751217 0.871958
O O19 0.800757 0.500000 0.849208
O O20 0.514175 0.500000 0.146717
O O21 0.500000 0.693476 0.000000
#
# Coordination Sequence:
#
# PCOD9142271 Si02
#       8
#     4   4   4   4   4   4   4   4
#     4  11  20  28  39  58  83 111 141 175 209 237
#     4   9  18  30  44  61  80 108 141 170 206 252
#     4  10  18  29  45  62  82 110 141 173 210 254
#     4  11  19  26  39  60  84 109 140 176 209 241
#     4   8  15  29  48  66  82 102 134 176 215 251
#     4   9  17  28  41  55  78 114 148 174 203 241
#     4  10  18  28  42  58  81 113 145 171 199 243
#     4   8  15  27  40  54  75 109 146 174 204 242
#
# _framework density 15.822175
#
# number of rings (size 3 to 8) (size 9 to 14) (size 15 to 20)
#    0.000    2.500    1.250    4.500    0.000    4.250 
#    0.000    0.000    0.000    9.375    0.000    0.000 
#    0.000    1.000    0.000   12.750    0.000    1.250 
#
# Total GULP energy -178257.372653 kJ/mol
# GULP energy per Si atom -5570.542895 kJ/mol
# Density = 1.578616 g / cm^3
# Si number density = 15.822175 Si / 1000 Ang^3
#
#
#
# Elastic Constant Matrix: (Units=GPa)
#
#
# Indices 1 2 3 4 5 6 
#
# 1 145.2588 7.4011 40.5771 0.0000 8.2514 0.0000
# 2 7.4011 17.3094 -2.2861 0.0000 2.2157 0.0000
# 3 40.5771 -2.2861 52.5028 0.0000 8.0594 0.0000
# 4 0.0000 0.0000 0.0000 -6.5826 0.0000 -3.4032
# 5 8.2514 2.2157 8.0594 0.0000 11.3792 0.0000
# 6 0.0000 0.0000 0.0000 -3.4032 0.0000 5.8338
#
#
#
# Elastic Compliance Matrix: (Units=1/GPa)
#
#
# Indices 1 2 3 4 5 6 
#
# 1 0.009177 -0.004797 -0.007207 0.000000 -0.000616 0.000000
# 2 -0.004797 0.062892 0.008742 0.000000 -0.014960 0.000000
# 3 -0.007207 0.008742 0.027439 0.000000 -0.015911 0.000000
# 4 0.000000 0.000000 0.000000 -0.116715 0.000000 -0.068087
# 5 -0.000616 -0.014960 -0.015911 0.000000 0.102508 0.000000
# 6 0.000000 0.000000 0.000000 -0.068087 0.000000 0.131695
#
#
# Mechanical properties :
#
#
# Convention : Reuss Voigt Hill
#
# Bulk Modulus (GPa) = 10.75433 34.05059 22.40246
# Shear Modulus (GPa) = 19.64520 13.41801 16.53160
#
# Velocity S-wave (km/s) = 3.52749 2.91529 3.23590
# Velocity P-wave (km/s) = 4.83763 5.73580 5.30576
#
# Compressibility (1/GPa) = 0.09298583
#
# Stress axis : x y z
#
# Youngs Moduli (GPa) = 108.97069 15.90016 36.44417
#
# Poissons Ratio (x) = 0.07627 0.26264
# Poissons Ratio (y) = 0.52270 -0.31859
# Poissons Ratio (z) = 0.78531 -0.13900
#
# Static dielectric constant tensor:
#      x y z
#    x 1.598520 0.000000 -0.001240 
#    y 0.000000 1.538430 0.000000 
#    z -0.001240 0.000000 1.495470 
# 
# From -- ./inp_files/68227.got.cif
#   From: 2010.05.17/outbox.cif.g08.bks.cpg/sg10_35_cif.got.tgz:68227.got - 2010.06.03 11:33:40.
