data_PCOD9142413
_publ_section_title
;
Structure prediction by ZEFSAII (Michael W. Deem and Ramdas Pophale) SiO2 
 PCOD9142413
Probable space group: P 2/M
;
_chemical_formula_sum "Si O2"
_cell_formula_units_Z 32
_cell_length_a 17.288767
_cell_length_b 7.481601
_cell_length_c 18.288145
_cell_angle_alpha 90.000000
_cell_angle_beta 33.337128
_cell_angle_gamma 90.000000
_cell_volume 1300.010148
_symmetry_space_group_name_H-M "P 2/M"
_symmetry_group_IT_number 10
_symmetry_cell_setting 'monoclinic'
loop_
_space_group_symop_operation_xyz
x,y,z
-x,y,-z
-x,-y,-z
x,-y,z
loop_
_atom_site_type_symbol
_atom_site_label
_atom_site_fract_x
_atom_site_fract_y
_atom_site_fract_z
Si Si1 0.069473 0.281412 0.369126
Si Si2 0.332410 0.297009 0.086466
Si Si3 0.182910 0.213902 0.665026
Si Si4 0.880898 0.206530 0.866763
Si Si5 0.550059 0.292298 0.800879
Si Si6 0.839385 0.780649 0.151656
Si Si7 0.207574 0.714099 0.488707
Si Si8 0.341415 0.796024 0.835444
O O1 0.077914 0.500000 0.361947
O O2 0.228726 0.215721 0.229280
O O3 0.000000 0.229039 0.500000
O O4 0.952465 0.225918 0.401439
O O5 0.363858 0.500000 0.082649
O O6 0.220170 0.304873 0.108779
O O7 0.468632 0.216613 0.936995
O O8 0.202903 0.274543 0.732331
O O9 0.266916 0.246663 0.523255
O O10 0.031429 0.288480 0.761306
O O11 0.172215 0.000000 0.679111
O O12 0.888493 0.000000 0.836444
O O13 0.804648 0.199833 0.004688
O O14 0.574472 0.500000 0.799440
O O15 0.692709 0.214830 0.654845
O O16 0.447949 0.287470 0.809976
O O17 0.712959 0.719074 0.198014
O O18 0.839933 0.000000 0.147669
O O19 0.000000 0.727704 0.000000
O O20 0.207158 0.500000 0.482169
O O21 0.391463 0.000000 0.784816
#
# Coordination Sequence:
#
# PCOD9142413 Si02
#       8
#     4   4   4   4   4   4   4   4
#     4   9  17  30  51  77 100 122 152 193 238 284
#     4   9  16  29  49  71  94 123 158 192 228 277
#     4  10  18  28  47  73  97 123 159 202 243 284
#     4   9  15  24  43  71  96 118 150 195 239 277
#     4   9  19  33  49  69  96 130 164 198 236 281
#     4   9  15  26  45  71 100 126 157 204 253 287
#     4  10  20  35  51  69  97 130 160 194 241 289
#     4   9  16  28  48  71  95 125 162 201 243 285
#
# _framework density 24.615192
#
# number of rings (size 3 to 8) (size 9 to 14) (size 15 to 20)
#    0.000    2.750    2.500    0.000    0.000    0.500 
#    0.000    1.875    0.000    9.750    0.000    0.000 
#    0.000    5.000    0.000    0.000    0.000    0.000 
#
# Total GULP energy -178331.103100 kJ/mol
# GULP energy per Si atom -5572.846972 kJ/mol
# Density = 2.455917 g / cm^3
# Si number density = 24.615192 Si / 1000 Ang^3
#
#
#
# Elastic Constant Matrix: (Units=GPa)
#
#
# Indices 1 2 3 4 5 6 
#
# 1 116.6313 7.8058 43.4699 0.0000 28.6769 0.0000
# 2 7.8058 76.0800 8.3316 0.0000 3.7428 0.0000
# 3 43.4699 8.3316 177.4586 0.0000 20.9550 0.0000
# 4 0.0000 0.0000 0.0000 5.7101 0.0000 -1.7542
# 5 28.6769 3.7428 20.9550 0.0000 39.8094 0.0000
# 6 0.0000 0.0000 0.0000 -1.7542 0.0000 -16.4595
#
#
#
# Elastic Compliance Matrix: (Units=1/GPa)
#
#
# Indices 1 2 3 4 5 6 
#
# 1 0.010999 -0.000586 -0.001853 0.000000 -0.006892 0.000000
# 2 -0.000586 0.013279 -0.000408 0.000000 -0.000611 0.000000
# 3 -0.001853 -0.000408 0.006340 0.000000 -0.001964 0.000000
# 4 0.000000 0.000000 0.000000 0.169575 0.000000 -0.018073
# 5 -0.006892 -0.000611 -0.001964 0.000000 0.031176 0.000000
# 6 0.000000 0.000000 0.000000 -0.018073 0.000000 -0.058829
#
#
# Mechanical properties :
#
#
# Convention : Reuss Voigt Hill
#
# Bulk Modulus (GPa) = 40.12212 54.37606 47.24909
# Shear Modulus (GPa) = 26.80374 26.51618 26.65996
#
# Velocity S-wave (km/s) = 3.30344 3.28568 3.29457
# Velocity P-wave (km/s) = 5.55747 6.04422 5.80595
#
# Compressibility (1/GPa) = 0.02492391
#
# Stress axis : x y z
#
# Youngs Moduli (GPa) = 90.92135 75.30715 157.72735
#
# Poissons Ratio (x) = 0.04417 0.29223
# Poissons Ratio (y) = 0.05332 0.06429
# Poissons Ratio (z) = 0.16845 0.03069
#
# Static dielectric constant tensor:
#      x y z
#    x 1.990750 0.000000 0.035880 
#    y 0.000000 1.927740 0.000000 
#    z 0.035880 0.000000 2.052220 
# 
# From -- ./inp_files/78938.got.cif
#   From: 2010.05.17/outbox.cif.g08.bks.cpg/sg10_40_cif.got.tgz:78938.got - 2010.06.03 11:33:40.
