data_PCOD9142363
_publ_section_title
;
Structure prediction by ZEFSAII (Michael W. Deem and Ramdas Pophale) SiO2 
 PCOD9142363
Probable space group: P 2/M
;
_chemical_formula_sum "Si O2"
_cell_formula_units_Z 32
_cell_length_a 24.352895
_cell_length_b 14.551703
_cell_length_c 8.282934
_cell_angle_alpha 90.000000
_cell_angle_beta 145.176883
_cell_angle_gamma 90.000000
_cell_volume 1676.172928
_symmetry_space_group_name_H-M "P 2/M"
_symmetry_group_IT_number 10
_symmetry_cell_setting 'monoclinic'
loop_
_space_group_symop_operation_xyz
x,y,z
-x,y,-z
-x,-y,-z
x,-y,z
loop_
_atom_site_type_symbol
_atom_site_label
_atom_site_fract_x
_atom_site_fract_y
_atom_site_fract_z
Si Si1 0.393818 0.597556 0.596271
Si Si2 0.822054 0.766243 0.758259
Si Si3 0.737804 0.399778 0.030301
Si Si4 0.948135 0.390205 0.198057
Si Si5 0.995322 0.103147 0.184609
Si Si6 0.563918 0.331051 0.804974
Si Si7 0.113894 0.724739 0.455357
Si Si8 0.604205 0.219395 0.194961
O O1 0.384485 0.500000 0.657121
O O2 0.493000 0.606362 0.738341
O O3 0.392624 0.681512 0.711787
O O4 0.312787 0.604885 0.264157
O O5 0.845555 0.736630 0.628401
O O6 0.713892 0.808800 0.501035
O O7 0.854930 0.676006 0.942426
O O8 0.895584 0.846870 0.984284
O O9 0.785838 0.500000 0.161337
O O10 0.807760 0.317511 0.237770
O O11 0.652825 0.388753 0.954914
O O12 0.929551 0.500000 0.131443
O O13 0.000000 0.379347 0.500000
O O14 0.024823 0.346568 0.256333
O O15 0.076834 0.176543 0.426153
O O16 0.005104 0.000000 0.270852
O O17 0.000000 0.099209 0.000000
O O18 0.500000 0.299340 0.500000
O O19 0.595652 0.243510 0.986014
O O20 0.500000 0.177050 0.000000
#
# Coordination Sequence:
#
# PCOD9142363 Si02
#       8
#     4   4   4   4   4   4   4   4
#     4   9  19  30  42  62  95 139 186 220 249 289
#     4  10  20  35  54  78 103 136 175 217 259 314
#     4  10  18  28  45  69  99 136 177 216 256 297
#     4  10  22  36  50  72 105 143 179 216 260 309
#     4   8  16  33  58  81 101 123 159 215 268 320
#     4   9  17  31  46  64  95 136 180 225 261 291
#     4  10  19  33  53  77 103 130 172 215 264 313
#     4  10  20  33  48  71 101 137 178 217 257 304
#
# _framework density 19.091108999999999
#
# number of rings (size 3 to 8) (size 9 to 14) (size 15 to 20)
#    0.000    2.500    1.250    1.875    1.750    6.250 
#    0.000    0.000    0.000    6.375    0.000    0.000 
#    0.000   11.000    0.000    0.000    0.000    0.250 
#
# Total GULP energy -178186.351514 kJ/mol
# GULP energy per Si atom -5568.323485 kJ/mol
# Density = 1.904766 g / cm^3
# Si number density = 19.091109 Si / 1000 Ang^3
#
#
#
# Elastic Constant Matrix: (Units=GPa)
#
#
# Indices 1 2 3 4 5 6 
#
# 1 52.0706 12.7321 13.8283 0.0000 13.0087 0.0000
# 2 12.7321 108.5516 49.3059 0.0000 8.8810 0.0000
# 3 13.8283 49.3059 99.6775 0.0000 13.9272 0.0000
# 4 0.0000 0.0000 0.0000 8.0954 0.0000 0.4360
# 5 13.0087 8.8810 13.9272 0.0000 31.0287 0.0000
# 6 0.0000 0.0000 0.0000 0.4360 0.0000 -1.3946
#
#
#
# Elastic Compliance Matrix: (Units=1/GPa)
#
#
# Indices 1 2 3 4 5 6 
#
# 1 0.021920 -0.001339 -0.001225 0.000000 -0.008257 0.000000
# 2 -0.001339 0.011983 -0.005698 0.000000 -0.000311 0.000000
# 3 -0.001225 -0.005698 0.013572 0.000000 -0.003948 0.000000
# 4 0.000000 0.000000 0.000000 0.121482 0.000000 0.037976
# 5 -0.008257 -0.000311 -0.003948 0.000000 0.037551 0.000000
# 6 0.000000 0.000000 0.000000 0.037976 0.000000 -0.705171
#
#
# Mechanical properties :
#
#
# Convention : Reuss Voigt Hill
#
# Bulk Modulus (GPa) = 32.30901 45.78137 39.04519
# Shear Modulus (GPa) = -10.59724 19.84145 4.62211
#
# Velocity S-wave (km/s) = -2.35859 3.22732 1.55767
# Velocity P-wave (km/s) = 3.08919 6.15792 4.87150
#
# Compressibility (1/GPa) = 0.03095112
#
# Stress axis : x y z
#
# Youngs Moduli (GPa) = 45.61996 83.45208 73.67846
#
# Poissons Ratio (x) = 0.11175 0.09025
# Poissons Ratio (y) = 0.06109 0.41984
# Poissons Ratio (z) = 0.05588 0.47553
#
# Static dielectric constant tensor:
#      x y z
#    x 1.739050 0.000000 0.032990 
#    y 0.000000 1.639830 0.000000 
#    z 0.032990 0.000000 1.740430 
# 
# From -- ./inp_files/37751.got.cif
#   From: 2010.05.17/outbox.cif.g08.bks.cpg/sg10_19_cif.got.tgz:37751.got - 2010.06.03 11:33:40.
