data_PCOD9142797
_publ_section_title
;
Structure prediction by ZEFSAII (Michael W. Deem and Ramdas Pophale) SiO2 
 PCOD9142797
Probable space group: P 2/M
;
_chemical_formula_sum "Si O2"
_cell_formula_units_Z 30
_cell_length_a 11.989348
_cell_length_b 23.731994
_cell_length_c 5.429000
_cell_angle_alpha 90.000000
_cell_angle_beta 121.451850
_cell_angle_gamma 90.000000
_cell_volume 1317.767729
_symmetry_space_group_name_H-M "P 2/M"
_symmetry_group_IT_number 10
_symmetry_cell_setting 'monoclinic'
loop_
_space_group_symop_operation_xyz
x,y,z
-x,y,-z
-x,-y,-z
x,-y,z
loop_
_atom_site_type_symbol
_atom_site_label
_atom_site_fract_x
_atom_site_fract_y
_atom_site_fract_z
Si Si1 0.087791 0.500000 0.349242
Si Si2 0.142858 0.934759 0.683729
Si Si3 0.841152 0.375748 0.573363
Si Si4 0.134098 0.328905 0.895239
Si Si5 0.696903 0.935599 0.635747
Si Si6 0.789907 0.213498 0.062691
Si Si7 0.312549 0.176489 0.549722
Si Si8 0.518607 0.719243 0.772411
O O1 0.170446 0.442622 0.435351
O O2 0.000000 0.500000 0.500000
O O3 0.000000 0.500000 0.000000
O O4 0.199220 0.935677 0.470999
O O5 0.000000 0.906096 0.500000
O O6 0.118344 0.000000 0.726221
O O7 0.242496 0.921271 0.025412
O O8 0.791644 0.350351 0.260837
O O9 0.997539 0.362450 0.746782
O O10 0.796822 0.343221 0.767081
O O11 0.103603 0.262835 0.825305
O O12 0.614118 0.882156 0.435861
O O13 0.643756 0.000000 0.582460
O O14 0.769731 0.177902 0.289668
O O15 0.785809 0.184588 0.792479
O O16 0.658017 0.251016 0.916406
O O17 0.415085 0.228067 0.667879
O O18 0.500000 0.686848 0.500000
O O19 0.500000 0.686109 0.000000
#
# Coordination Sequence:
#
# PCOD9142797 Si02
#       8
#     2   4   4   4   4   4   4   4
#     4  12  16  30  48  74 100 144 186 198 234 290
#     4   9  17  30  49  68  89 118 151 192 237 282
#     4  10  19  30  48  71 104 141 169 205 239 273
#     4  10  18  30  46  68  95 136 173 204 242 274
#     4  10  19  31  51  73  93 120 157 201 256 309
#     4  10  19  32  52  68  93 131 167 201 249 300
#     4  10  19  33  51  71  96 121 159 203 262 310
#     4   8  16  30  49  70  87 117 154 200 248 303
#
# _framework density 22.765771999999998
#
# number of rings (size 3 to 8) (size 9 to 14) (size 15 to 20)
#    0.000    2.267    2.667    2.000    0.000    1.600 
#    0.000    0.000   29.333    7.200    0.000    0.000 
#    0.000    0.000    0.000  183.600    0.000    0.000 
#
# Total GULP energy -167012.522330 kJ/mol
# GULP energy per Si atom -5567.084078 kJ/mol
# Density = 2.271396 g / cm^3
# Si number density = 22.765772 Si / 1000 Ang^3
#
#
#
# Elastic Constant Matrix: (Units=GPa)
#
#
# Indices 1 2 3 4 5 6 
#
# 1 57.3019 6.3814 38.0283 0.0000 -19.0630 0.0000
# 2 6.3814 111.7685 30.1572 0.0000 -16.7986 0.0000
# 3 38.0283 30.1572 141.7816 0.0000 -69.1544 0.0000
# 4 0.0000 0.0000 0.0000 45.7933 0.0000 2.3385
# 5 -19.0630 -16.7986 -69.1544 0.0000 43.8931 0.0000
# 6 0.0000 0.0000 0.0000 2.3385 0.0000 24.3775
#
#
#
# Elastic Compliance Matrix: (Units=1/GPa)
#
#
# Indices 1 2 3 4 5 6 
#
# 1 0.021256 0.000367 -0.005218 0.000000 0.001152 0.000000
# 2 0.000367 0.009537 -0.001162 0.000000 0.001979 0.000000
# 3 -0.005218 -0.001162 0.031864 0.000000 0.047491 0.000000
# 4 0.000000 0.000000 0.000000 0.021945 0.000000 -0.002105
# 5 0.001152 0.001979 0.047491 0.000000 0.098864 0.000000
# 6 0.000000 0.000000 0.000000 -0.002105 0.000000 0.041223
#
#
# Mechanical properties :
#
#
# Convention : Reuss Voigt Hill
#
# Bulk Modulus (GPa) = 19.74997 51.10954 35.42975
# Shear Modulus (GPa) = 19.71682 38.56511 29.14097
#
# Velocity S-wave (km/s) = 2.94610 4.12028 3.58164
# Velocity P-wave (km/s) = 4.50187 6.71822 5.71845
#
# Compressibility (1/GPa) = 0.05063299
#
# Stress axis : x y z
#
# Youngs Moduli (GPa) = 47.04465 104.85465 31.38377
#
# Poissons Ratio (x) = -0.03851 0.16375
# Poissons Ratio (y) = -0.01728 0.03646
# Poissons Ratio (z) = 0.24546 0.12180
#
# Static dielectric constant tensor:
#      x y z
#    x 1.493950 0.000000 0.032120 
#    y 0.000000 1.950850 0.000000 
#    z 0.032120 0.000000 1.899820 
# 
# From -- ./inp_files/10198.got.cif
#   From: 2010.05.17/outbox.cif.g08.bks.cpg/sg10_6_cif.got.tgz:10198.got - 2010.06.03 11:33:40.
