data_PCOD9142567
_publ_section_title
;
Structure prediction by ZEFSAII (Michael W. Deem and Ramdas Pophale) SiO2 
 PCOD9142567
Probable space group: P 2/M
;
_chemical_formula_sum "Si O2"
_cell_formula_units_Z 24
_cell_length_a 15.931165
_cell_length_b 17.065863
_cell_length_c 9.146647
_cell_angle_alpha 90.000000
_cell_angle_beta 156.524180
_cell_angle_gamma 90.000000
_cell_volume 990.639475
_symmetry_space_group_name_H-M "P 2/M"
_symmetry_group_IT_number 10
_symmetry_cell_setting 'monoclinic'
loop_
_space_group_symop_operation_xyz
x,y,z
-x,y,-z
-x,-y,-z
x,-y,z
loop_
_atom_site_type_symbol
_atom_site_label
_atom_site_fract_x
_atom_site_fract_y
_atom_site_fract_z
Si Si1 0.105026 0.000000 0.329011
Si Si2 0.282412 0.000000 0.060177
Si Si3 0.572147 0.500000 0.780855
Si Si4 0.210104 0.670509 0.428757
Si Si5 0.718839 0.168773 0.940966
Si Si6 0.101984 0.167783 0.326123
Si Si7 0.276257 0.500000 0.568330
Si Si8 0.405165 0.668223 0.182621
O O1 0.217104 0.083967 0.523631
O O2 0.000000 0.000000 0.000000
O O3 0.912149 0.000000 0.137084
O O4 0.500000 0.000000 0.500000
O O5 0.272371 0.915719 0.964231
O O6 0.500000 0.500000 0.500000
O O7 0.349156 0.500000 0.514807
O O8 0.691690 0.581912 0.997784
O O9 0.225272 0.750944 0.542112
O O10 0.183626 0.584639 0.458088
O O11 0.407270 0.670623 0.634993
O O12 0.000000 0.677398 0.000000
O O13 0.500000 0.167863 0.500000
O O14 0.721393 0.250770 0.030095
O O15 0.909174 0.170171 0.130982
O O16 0.000000 0.166666 0.000000
O O17 0.500000 0.500000 0.000000
O O18 0.500000 0.667292 0.500000
#
# Coordination Sequence:
#
# PCOD9142567 Si02
#       8
#     2   2   2   4   4   4   2   4
#     4   8  14  22  32  50  85 124 148 183 241 286
#     4   8  14  20  28  44  74 114 149 171 210 272
#     4   8  16  29  46  67  88 116 153 188 229 283
#     4  10  18  29  46  70  92 119 160 203 237 283
#     4   9  14  21  32  51  80 115 146 179 221 272
#     4   9  15  23  36  59  89 119 155 196 237 280
#     4  10  21  35  50  71  99 130 161 200 250 297
#     4   9  15  24  38  60  85 112 147 187 227 270
#
# _framework density 24.226773999999999
#
# number of rings (size 3 to 8) (size 9 to 14) (size 15 to 20)
#    0.000    3.000    0.000    4.250    0.000    1.333 
#    0.000    2.500    0.000    0.000    0.000   84.583 
#    0.000    0.000    0.000   24.000    0.000    2.000 
#
# Total GULP energy -133771.456280 kJ/mol
# GULP energy per Si atom -5573.810678 kJ/mol
# Density = 2.417163 g / cm^3
# Si number density = 24.226774 Si / 1000 Ang^3
#
#
#
# Elastic Constant Matrix: (Units=GPa)
#
#
# Indices 1 2 3 4 5 6 
#
# 1 72.3165 37.1043 10.5592 0.0000 -6.4962 0.0000
# 2 37.1043 372.9762 25.6576 0.0000 17.9325 0.0000
# 3 10.5592 25.6576 37.7496 0.0000 -1.0054 0.0000
# 4 0.0000 0.0000 0.0000 -8.3509 0.0000 35.9546
# 5 -6.4962 17.9325 -1.0054 0.0000 20.9353 0.0000
# 6 0.0000 0.0000 0.0000 35.9546 0.0000 -0.2981
#
#
#
# Elastic Compliance Matrix: (Units=1/GPa)
#
#
# Indices 1 2 3 4 5 6 
#
# 1 0.015673 -0.001640 -0.003107 0.000000 0.006118 0.000000
# 2 -0.001640 0.003122 -0.001750 0.000000 -0.003267 0.000000
# 3 -0.003107 -0.001750 0.028600 0.000000 0.001909 0.000000
# 4 0.000000 0.000000 0.000000 0.000231 0.000000 0.027866
# 5 0.006118 -0.003267 0.001909 0.000000 0.052555 0.000000
# 6 0.000000 0.000000 0.000000 0.027866 0.000000 0.006472
#
#
# Mechanical properties :
#
#
# Convention : Reuss Voigt Hill
#
# Bulk Modulus (GPa) = 29.06859 69.96494 49.51677
# Shear Modulus (GPa) = 38.13549 29.77201 33.95375
#
# Velocity S-wave (km/s) = 3.97180 3.50935 3.74772
# Velocity P-wave (km/s) = 5.74963 6.73518 6.26182
#
# Compressibility (1/GPa) = 0.03440139
#
# Stress axis : x y z
#
# Youngs Moduli (GPa) = 63.80578 320.33781 34.96550
#
# Poissons Ratio (x) = 0.52523 0.10862
# Poissons Ratio (y) = 0.10462 0.06119
# Poissons Ratio (z) = 0.19821 0.56064
#
# Static dielectric constant tensor:
#      x y z
#    x 0.934600 0.000000 -0.068010 
#    y 0.000000 2.144670 0.000000 
#    z -0.068010 0.000000 1.851250 
# 
# From -- ./inp_files/54221.got.cif
#   From: 2010.05.17/outbox.cif.g08.bks.cpg/sg10_28_cif.got.tgz:54221.got - 2010.06.03 11:33:40.
