data_PCOD9142726
_publ_section_title
;
Structure prediction by ZEFSAII (Michael W. Deem and Ramdas Pophale) SiO2 
 PCOD9142726
Probable space group: P 2/M
;
_chemical_formula_sum "Si O2"
_cell_formula_units_Z 28
_cell_length_a 20.883460
_cell_length_b 8.034954
_cell_length_c 26.573845
_cell_angle_alpha 90.000000
_cell_angle_beta 21.075838
_cell_angle_gamma 90.000000
_cell_volume 1603.481554
_symmetry_space_group_name_H-M "P 2/M"
_symmetry_group_IT_number 10
_symmetry_cell_setting 'monoclinic'
loop_
_space_group_symop_operation_xyz
x,y,z
-x,y,-z
-x,-y,-z
x,-y,z
loop_
_atom_site_type_symbol
_atom_site_label
_atom_site_fract_x
_atom_site_fract_y
_atom_site_fract_z
Si Si1 0.801955 0.798536 0.658451
Si Si2 0.141690 0.697121 0.167519
Si Si3 0.123085 0.816982 0.716421
Si Si4 0.702946 0.798766 0.842936
Si Si5 0.972374 0.500000 0.960433
Si Si6 0.448114 0.697577 0.864708
Si Si7 0.195190 0.184157 0.967946
Si Si8 0.709992 0.500000 0.356014
O O1 0.760002 0.743362 0.745911
O O2 0.648026 0.737778 0.734072
O O3 0.000000 0.743242 0.500000
O O4 0.797276 0.000000 0.660857
O O5 0.120525 0.500000 0.175296
O O6 0.177096 0.735133 0.199456
O O7 0.971621 0.784610 0.267515
O O8 0.316945 0.750667 0.006905
O O9 0.242839 0.664088 0.646200
O O10 0.207760 0.000000 0.655752
O O11 0.959382 0.816446 0.876166
O O12 0.706807 0.000000 0.841594
O O13 0.500000 0.743662 0.000000
O O14 0.859907 0.336128 0.027230
O O15 0.000000 0.500000 0.000000
O O16 0.155081 0.500000 0.791935
O O17 0.426137 0.500000 0.874629
O O18 0.374616 0.781637 0.867995
O O19 0.199840 0.000000 0.941071
O O20 0.500000 0.500000 0.500000
#
# Coordination Sequence:
#
# PCOD9142726 Si02
#       8
#     4   4   4   4   2   4   4   2
#     4  10  21  35  49  68 101 141 180 220 265 316
#     4  10  18  29  50  77 105 131 172 227 271 303
#     4   9  17  31  53  81 110 142 179 216 259 313
#     4  10  19  31  48  73 101 132 175 222 268 311
#     4  10  20  36  58  86 114 138 172 216 262 312
#     4  10  18  30  51  76 102 133 176 225 263 309
#     4   9  17  31  54  82 109 139 178 220 263 308
#     4  10  20  36  58  84 114 143 172 212 258 315
#
# _framework density 17.462002999999999
#
# number of rings (size 3 to 8) (size 9 to 14) (size 15 to 20)
#    0.000    2.286    2.857    0.857    0.000    2.857 
#    0.000    0.000    3.143    0.000    0.000    0.000 
#    0.000    0.000    0.000    0.000    0.000    0.000 
#
# Total GULP energy -156117.008229 kJ/mol
# GULP energy per Si atom -5575.607437 kJ/mol
# Density = 1.742226 g / cm^3
# Si number density = 17.462003 Si / 1000 Ang^3
#
#
#
# Elastic Constant Matrix: (Units=GPa)
#
#
# Indices 1 2 3 4 5 6 
#
# 1 127.3774 59.3982 41.5544 0.0000 -17.9998 0.0000
# 2 59.3982 104.5629 33.6226 0.0000 -15.7805 0.0000
# 3 41.5544 33.6226 77.8125 0.0000 -16.7935 0.0000
# 4 0.0000 0.0000 0.0000 -1.0778 0.0000 4.4386
# 5 -17.9998 -15.7805 -16.7935 0.0000 27.4005 0.0000
# 6 0.0000 0.0000 0.0000 4.4386 0.0000 1.4374
#
#
#
# Elastic Compliance Matrix: (Units=1/GPa)
#
#
# Indices 1 2 3 4 5 6 
#
# 1 0.011768 -0.005169 -0.003486 0.000000 0.002617 0.000000
# 2 -0.005169 0.013768 -0.002547 0.000000 0.002972 0.000000
# 3 -0.003486 -0.002547 0.017290 0.000000 0.006840 0.000000
# 4 0.000000 0.000000 0.000000 -0.067643 0.000000 0.208871
# 5 0.002617 0.002972 0.006840 0.000000 0.044119 0.000000
# 6 0.000000 0.000000 0.000000 0.208871 0.000000 0.050717
#
#
# Mechanical properties :
#
#
# Convention : Reuss Voigt Hill
#
# Bulk Modulus (GPa) = 48.96916 64.32260 56.64588
# Shear Modulus (GPa) = 50.38761 17.23055 33.80908
#
# Velocity S-wave (km/s) = 5.37757 3.14466 4.40495
# Velocity P-wave (km/s) = 8.16467 7.07820 7.64077
#
# Compressibility (1/GPa) = 0.02042102
#
# Stress axis : x y z
#
# Youngs Moduli (GPa) = 84.97417 72.63443 57.83728
#
# Poissons Ratio (x) = 0.37546 0.20164
# Poissons Ratio (y) = 0.43924 0.14731
# Poissons Ratio (z) = 0.29624 0.18500
#
# Static dielectric constant tensor:
#      x y z
#    x 1.576610 0.000000 0.000700 
#    y 0.000000 1.625820 0.000000 
#    z 0.000700 0.000000 1.574390 
# 
# From -- ./inp_files/93540.got.cif
#   From: 2010.05.17/outbox.cif.g08.bks.cpg/sg10_47_cif.got.tgz:93540.got - 2010.06.03 11:33:40.
