data_PCOD9142840
_publ_section_title
;
Structure prediction by ZEFSAII (Michael W. Deem and Ramdas Pophale) SiO2 
 PCOD9142840
Probable space group: P 2/M
;
_chemical_formula_sum "Si O2"
_cell_formula_units_Z 16
_cell_length_a 7.045078
_cell_length_b 17.285468
_cell_length_c 8.795672
_cell_angle_alpha 90.000000
_cell_angle_beta 146.026767
_cell_angle_gamma 90.000000
_cell_volume 598.544820
_symmetry_space_group_name_H-M "P 2/M"
_symmetry_group_IT_number 10
_symmetry_cell_setting 'monoclinic'
loop_
_space_group_symop_operation_xyz
x,y,z
-x,y,-z
-x,-y,-z
x,-y,z
loop_
_atom_site_type_symbol
_atom_site_label
_atom_site_fract_x
_atom_site_fract_y
_atom_site_fract_z
Si Si1 0.772470 0.177512 0.002833
Si Si2 0.267925 0.914303 0.498351
Si Si3 0.593813 0.413133 0.884335
Si Si4 0.168472 0.682108 0.367767
O O1 0.903869 0.106177 0.189923
O O2 0.876260 0.252608 0.169030
O O3 0.405614 0.153712 0.698145
O O4 0.000000 0.184183 0.000000
O O5 0.500000 0.913923 0.500000
O O6 0.293568 0.000000 0.581419
O O7 0.552918 0.500000 0.796554
O O8 0.984371 0.385336 0.149916
O O9 0.500000 0.413984 0.000000
O O10 0.337257 0.355175 0.628395
O O11 0.500000 0.713289 0.500000
#
# Coordination Sequence:
#
# PCOD9142840 Si02
#       4
#     4   4   4   4
#     4  10  18  30  47  75 115 151 186 234 288 335
#     4   9  16  26  43  69 108 157 194 222 274 345
#     4  11  25  44  63  85 117 154 193 242 295 348
#     4  12  23  38  62  90 120 154 193 240 295 351
#
# _framework density 26.731497999999998
#
# number of rings (size 3 to 8) (size 9 to 14) (size 15 to 20)
#    0.000    1.500    0.000    8.250    0.000    8.000 
#    0.000    0.000    0.000    0.000    0.000    0.000 
#    0.000   70.000    0.000    0.000    0.000    0.000 
#
# Total GULP energy -89523.005092 kJ/mol
# GULP energy per Si atom -5595.187818 kJ/mol
# Density = 2.667066 g / cm^3
# Si number density = 26.731498 Si / 1000 Ang^3
#
#
#
# Elastic Constant Matrix: (Units=GPa)
#
#
# Indices 1 2 3 4 5 6 
#
# 1 74.9160 -2.3432 15.7905 0.0000 -3.7976 0.0000
# 2 -2.3432 163.4393 80.9336 0.0000 -16.8501 0.0000
# 3 15.7905 80.9336 218.0106 0.0000 -4.6566 0.0000
# 4 0.0000 0.0000 0.0000 54.8261 0.0000 -19.2875
# 5 -3.7976 -16.8501 -4.6566 0.0000 24.5888 0.0000
# 6 0.0000 0.0000 0.0000 -19.2875 0.0000 -30.3120
#
#
#
# Elastic Compliance Matrix: (Units=1/GPa)
#
#
# Indices 1 2 3 4 5 6 
#
# 1 0.013808 0.001151 -0.001371 0.000000 0.002662 0.000000
# 2 0.001151 0.008157 -0.003000 0.000000 0.005199 0.000000
# 3 -0.001371 -0.003000 0.005775 0.000000 -0.001174 0.000000
# 4 0.000000 0.000000 0.000000 0.014903 0.000000 -0.009483
# 5 0.002662 0.005199 -0.001174 0.000000 0.044421 0.000000
# 6 0.000000 0.000000 0.000000 -0.009483 0.000000 -0.026956
#
#
# Mechanical properties :
#
#
# Convention : Reuss Voigt Hill
#
# Bulk Modulus (GPa) = 46.94825 71.68085 59.31455
# Shear Modulus (GPa) = 67.89086 33.95290 50.92188
#
# Velocity S-wave (km/s) = 5.04504 3.56778 4.36930
# Velocity P-wave (km/s) = 7.17897 6.62158 6.90590
#
# Compressibility (1/GPa) = 0.02130005
#
# Stress axis : x y z
#
# Youngs Moduli (GPa) = 72.42123 122.59725 173.16027
#
# Poissons Ratio (x) = -0.14112 0.23733
# Poissons Ratio (y) = -0.08336 0.51955
# Poissons Ratio (z) = 0.09926 0.36784
#
# Static dielectric constant tensor:
#      x y z
#    x 2.243800 0.000000 -0.023790 
#    y 0.000000 2.083540 0.000000 
#    z -0.023790 0.000000 1.957840 
# 
# From -- ./inp_files/14838.got.cif
#   From: 2010.05.17/outbox.cif.g08.bks.cpg/sg10_8_cif.got.tgz:14838.got - 2010.06.03 11:33:40.
