data_PCOD9142257
_publ_section_title
;
Structure prediction by ZEFSAII (Michael W. Deem and Ramdas Pophale) SiO2 
 PCOD9142257
Probable space group: P 2/M
;
_chemical_formula_sum "Si O2"
_cell_formula_units_Z 32
_cell_length_a 12.780902
_cell_length_b 8.734974
_cell_length_c 24.590587
_cell_angle_alpha 90.000000
_cell_angle_beta 133.847255
_cell_angle_gamma 90.000000
_cell_volume 1979.890592
_symmetry_space_group_name_H-M "P 2/M"
_symmetry_group_IT_number 10
_symmetry_cell_setting 'monoclinic'
loop_
_space_group_symop_operation_xyz
x,y,z
-x,y,-z
-x,-y,-z
x,-y,z
loop_
_atom_site_type_symbol
_atom_site_label
_atom_site_fract_x
_atom_site_fract_y
_atom_site_fract_z
Si Si1 0.865485 0.177369 0.994311
Si Si2 0.542658 0.817377 0.406468
Si Si3 0.911782 0.184013 0.839766
Si Si4 0.950835 0.313920 0.421974
Si Si5 0.372787 0.314970 0.679984
Si Si6 0.676571 0.317940 0.838506
Si Si7 0.203032 0.684941 0.431130
Si Si8 0.223725 0.683191 0.313180
O O1 0.939348 0.233643 0.076600
O O2 0.822633 0.000000 0.984777
O O3 0.737827 0.268682 0.919152
O O4 0.000000 0.181696 0.000000
O O5 0.602352 0.756873 0.370296
O O6 0.652366 0.759143 0.492245
O O7 0.383279 0.748738 0.358220
O O8 0.535058 0.000000 0.403463
O O9 0.778551 0.240366 0.829623
O O10 0.885213 0.248875 0.770579
O O11 0.910204 0.000000 0.838994
O O12 0.954089 0.500000 0.422884
O O13 0.783978 0.267756 0.353698
O O14 0.000000 0.264726 0.500000
O O15 0.066512 0.264254 0.418594
O O16 0.371555 0.500000 0.673049
O O17 0.510470 0.274814 0.766804
O O18 0.690860 0.500000 0.837551
O O19 0.217059 0.500000 0.440953
O O20 0.184623 0.721814 0.361168
O O21 0.228065 0.500000 0.309111
#
# Coordination Sequence:
#
# PCOD9142257 Si02
#       8
#     4   4   4   4   4   4   4   4
#     4   8  16  29  44  64  95 131 161 191 235 290
#     4  12  23  33  49  71  99 132 164 199 243 290
#     4  10  19  31  47  68  97 132 162 193 240 293
#     4   9  16  31  56  74  90 124 165 203 246 292
#     4  10  19  32  51  74  99 128 164 201 242 289
#     4  10  18  27  45  72 100 128 160 199 238 283
#     4  10  21  37  54  71  93 127 168 207 245 288
#     4  11  22  34  50  72  98 128 165 205 242 288
#
# _framework density 16.162509
#
# number of rings (size 3 to 8) (size 9 to 14) (size 15 to 20)
#    0.000    2.000    2.500    3.375    0.000    5.750 
#    0.000    1.250    0.000    0.000    0.000    0.875 
#    0.000    7.000    0.000    0.000    0.000    0.000 
#
# Total GULP energy -178503.897810 kJ/mol
# GULP energy per Si atom -5578.246807 kJ/mol
# Density = 1.612572 g / cm^3
# Si number density = 16.162509 Si / 1000 Ang^3
#
#
#
# Elastic Constant Matrix: (Units=GPa)
#
#
# Indices 1 2 3 4 5 6 
#
# 1 44.9605 13.4562 35.7012 0.0000 -10.6839 0.0000
# 2 13.4562 32.8287 39.8652 0.0000 -2.2299 0.0000
# 3 35.7012 39.8652 155.8269 0.0000 -5.8062 0.0000
# 4 0.0000 0.0000 0.0000 12.4257 0.0000 -14.8833
# 5 -10.6839 -2.2299 -5.8062 0.0000 18.3300 0.0000
# 6 0.0000 0.0000 0.0000 -14.8833 0.0000 -13.5922
#
#
#
# Elastic Compliance Matrix: (Units=1/GPa)
#
#
# Indices 1 2 3 4 5 6 
#
# 1 0.031985 -0.005574 -0.005295 0.000000 0.016287 0.000000
# 2 -0.005574 0.045220 -0.010330 0.000000 -0.001020 0.000000
# 3 -0.005295 -0.010330 0.010232 0.000000 -0.001102 0.000000
# 4 0.000000 0.000000 0.000000 0.034816 0.000000 -0.038123
# 5 0.016287 -0.001020 -0.001102 0.000000 0.063576 0.000000
# 6 0.000000 0.000000 0.000000 -0.038123 0.000000 -0.031828
#
#
# Mechanical properties :
#
#
# Convention : Reuss Voigt Hill
#
# Bulk Modulus (GPa) = 22.20254 45.74014 33.97134
# Shear Modulus (GPa) = 23.65052 13.07227 18.36140
#
# Velocity S-wave (km/s) = 3.82945 2.84703 3.37419
# Velocity P-wave (km/s) = 5.77233 6.25852 6.02034
#
# Compressibility (1/GPa) = 0.04503988
#
# Stress axis : x y z
#
# Youngs Moduli (GPa) = 31.26465 22.11393 97.73140
#
# Poissons Ratio (x) = 0.12326 0.51750
# Poissons Ratio (y) = 0.17427 1.00953
# Poissons Ratio (z) = 0.16555 0.22843
#
# Static dielectric constant tensor:
#      x y z
#    x 1.516360 0.000000 0.000960 
#    y 0.000000 1.545390 0.000000 
#    z 0.000960 0.000000 1.563120 
# 
# From -- ./inp_files/83647.got.cif
#   From: 2010.05.17/outbox.cif.g08.bks.cpg/sg10_42_cif.got.tgz:83647.got - 2010.06.03 11:33:40.
