data_PCOD9142159
_publ_section_title
;
Structure prediction by ZEFSAII (Michael W. Deem and Ramdas Pophale) SiO2 
 PCOD9142159
Probable space group: P 2/M
;
_chemical_formula_sum "Si O2"
_cell_formula_units_Z 32
_cell_length_a 27.693056
_cell_length_b 7.589869
_cell_length_c 9.946778
_cell_angle_alpha 90.000000
_cell_angle_beta 51.100101
_cell_angle_gamma 90.000000
_cell_volume 1627.059792
_symmetry_space_group_name_H-M "P 2/M"
_symmetry_group_IT_number 10
_symmetry_cell_setting 'monoclinic'
loop_
_space_group_symop_operation_xyz
x,y,z
-x,y,-z
-x,-y,-z
x,-y,z
loop_
_atom_site_type_symbol
_atom_site_label
_atom_site_fract_x
_atom_site_fract_y
_atom_site_fract_z
Si Si1 0.883482 0.292178 0.492322
Si Si2 0.147486 0.206017 0.145947
Si Si3 0.331300 0.203725 0.501912
Si Si4 0.570721 0.215674 0.886418
Si Si5 0.983602 0.787398 0.680876
Si Si6 0.286508 0.783043 0.862786
Si Si7 0.330011 0.786458 0.076150
Si Si8 0.770897 0.703920 0.525559
O O1 0.871694 0.500000 0.523724
O O2 0.866202 0.216423 0.669668
O O3 0.956514 0.265299 0.338354
O O4 0.837006 0.222826 0.459169
O O5 0.086593 0.278467 0.175868
O O6 0.150576 0.000000 0.105835
O O7 0.215134 0.279463 0.996393
O O8 0.385454 0.278882 0.312586
O O9 0.318639 0.280136 0.670382
O O10 0.267841 0.208887 0.526257
O O11 0.348212 0.000000 0.493175
O O12 0.606734 0.266234 0.959712
O O13 0.570615 0.000000 0.883533
O O14 0.500000 0.274492 0.000000
O O15 0.000000 0.729524 0.500000
O O16 0.981993 0.000000 0.684156
O O17 0.285465 0.000000 0.862673
O O18 0.321239 0.730945 0.938461
O O19 0.273455 0.718382 0.266212
O O20 0.326233 0.000000 0.087583
O O21 0.778111 0.500000 0.474919
#
# Coordination Sequence:
#
# PCOD9142159 Si02
#       8
#     4   4   4   4   4   4   4   4
#     4  10  18  26  40  63  89 115 148 190 229 268
#     4   9  16  27  43  62  88 117 146 186 231 271
#     4   9  18  31  48  68  91 122 155 187 228 272
#     4   8  14  26  45  70  98 124 151 182 217 264
#     4   8  15  25  38  59  85 115 147 183 229 272
#     4   9  16  28  47  70  92 116 154 195 227 269
#     4   9  16  28  49  70  90 121 154 186 227 268
#     4  10  19  30  44  66  93 119 153 194 231 268
#
# _framework density 19.667379
#
# number of rings (size 3 to 8) (size 9 to 14) (size 15 to 20)
#    0.000    3.000    1.250    2.250    0.000    3.750 
#    0.000    1.875    0.000   10.500    0.000    5.250 
#    0.000    8.000    0.000    0.000    0.000    0.000 
#
# Total GULP energy -178272.809705 kJ/mol
# GULP energy per Si atom -5571.025303 kJ/mol
# Density = 1.962262 g / cm^3
# Si number density = 19.667379 Si / 1000 Ang^3
#
#
#
# Elastic Constant Matrix: (Units=GPa)
#
#
# Indices 1 2 3 4 5 6 
#
# 1 144.0941 2.0039 81.0744 0.0000 -23.1225 0.0000
# 2 2.0039 39.0801 3.0410 0.0000 -3.8739 0.0000
# 3 81.0744 3.0410 91.3169 0.0000 -4.8652 0.0000
# 4 0.0000 0.0000 0.0000 -25.6440 0.0000 58.9631
# 5 -23.1225 -3.8739 -4.8652 0.0000 36.5332 0.0000
# 6 0.0000 0.0000 0.0000 58.9631 0.0000 -255.5382
#
#
#
# Elastic Compliance Matrix: (Units=1/GPa)
#
#
# Indices 1 2 3 4 5 6 
#
# 1 0.016080 0.001091 -0.013863 0.000000 0.008447 0.000000
# 2 0.001091 0.025982 -0.001662 0.000000 0.003224 0.000000
# 3 -0.013863 -0.001662 0.023000 0.000000 -0.005887 0.000000
# 4 0.000000 0.000000 0.000000 -0.083065 0.000000 -0.019166
# 5 0.008447 0.003224 -0.005887 0.000000 0.032276 0.000000
# 6 0.000000 0.000000 0.000000 -0.019166 0.000000 -0.008336
#
#
# Mechanical properties :
#
#
# Convention : Reuss Voigt Hill
#
# Bulk Modulus (GPa) = 27.62852 49.63664 38.63258
# Shear Modulus (GPa) = 106.67719 -36.37169 35.15275
#
# Velocity S-wave (km/s) = 7.37282 -4.30506 4.23231
# Velocity P-wave (km/s) = 9.30356 0.76252 6.60067
#
# Compressibility (1/GPa) = 0.03619448
#
# Stress axis : x y z
#
# Youngs Moduli (GPa) = 62.18877 38.48892 43.47741
#
# Poissons Ratio (x) = -0.04201 0.60272
# Poissons Ratio (y) = -0.06788 0.07228
# Poissons Ratio (z) = 0.86211 0.06399
#
# Static dielectric constant tensor:
#      x y z
#    x 1.715760 0.000000 -0.023280 
#    y 0.000000 1.718690 0.000000 
#    z -0.023280 0.000000 1.669160 
# 
# From -- ./inp_files/57181.got.cif
#   From: 2010.05.17/outbox.cif.g08.bks.cpg/sg10_29_cif.got.tgz:57181.got - 2010.06.03 11:33:40.
