data_PCOD9142411
_publ_section_title
;
Structure prediction by ZEFSAII (Michael W. Deem and Ramdas Pophale) SiO2 
 PCOD9142411
Probable space group: P 2/M
;
_chemical_formula_sum "Si O2"
_cell_formula_units_Z 32
_cell_length_a 20.091817
_cell_length_b 9.021987
_cell_length_c 28.309043
_cell_angle_alpha 90.000000
_cell_angle_beta 158.311109
_cell_angle_gamma 90.000000
_cell_volume 1896.440912
_symmetry_space_group_name_H-M "P 2/M"
_symmetry_group_IT_number 10
_symmetry_cell_setting 'monoclinic'
loop_
_space_group_symop_operation_xyz
x,y,z
-x,y,-z
-x,-y,-z
x,-y,z
loop_
_atom_site_type_symbol
_atom_site_label
_atom_site_fract_x
_atom_site_fract_y
_atom_site_fract_z
Si Si1 0.051262 0.178318 0.087672
Si Si2 0.952195 0.176124 0.621307
Si Si3 0.193880 0.677729 0.379234
Si Si4 0.709221 0.177859 0.925799
Si Si5 0.423756 0.178715 0.660468
Si Si6 0.429460 0.323073 0.339492
Si Si7 0.702150 0.678157 0.120823
Si Si8 0.170563 0.323162 0.901095
O O1 0.238682 0.251965 0.225721
O O2 0.071011 0.000000 0.101632
O O3 0.000000 0.219839 0.000000
O O4 0.886364 0.220576 0.012617
O O5 0.872505 0.235247 0.618352
O O6 0.789444 0.211768 0.478074
O O7 0.145617 0.252591 0.745062
O O8 0.974975 0.000000 0.637738
O O9 0.176941 0.500000 0.376914
O O10 0.406201 0.709332 0.515662
O O11 0.044334 0.713713 0.241262
O O12 0.536144 0.221997 0.780681
O O13 0.707662 0.000000 0.928391
O O14 0.726615 0.246151 0.988732
O O15 0.508452 0.257155 0.670284
O O16 0.443405 0.000000 0.666741
O O17 0.412294 0.500000 0.324553
O O18 0.713408 0.500000 0.131711
O O19 0.752078 0.717816 0.099568
O O20 0.500000 0.724503 0.000000
O O21 0.187057 0.500000 0.916808
#
# Coordination Sequence:
#
# PCOD9142411 Si02
#       8
#     4   4   4   4   4   4   4   4
#     4  10  19  33  48  63  92 131 165 200 246 292
#     4   9  16  26  47  76  99 120 156 202 235 269
#     4   8  16  31  47  65  94 129 157 192 245 294
#     4  10  20  33  49  67  93 131 166 195 238 292
#     4   9  17  31  47  66  96 132 162 193 241 289
#     4  10  18  28  47  72  93 117 161 213 249 280
#     4   9  18  34  55  76 101 131 155 183 234 291
#     4   9  18  33  51  71  96 123 157 196 234 281
#
# _framework density 16.873714
#
# number of rings (size 3 to 8) (size 9 to 14) (size 15 to 20)
#    0.000    2.750    1.250    1.500    0.000    4.500 
#    0.000    0.625    0.000    4.500    0.000    5.250 
#    0.000    0.000    0.000    0.000    0.000    0.000 
#
# Total GULP energy -178200.272106 kJ/mol
# GULP energy per Si atom -5568.758503 kJ/mol
# Density = 1.683531 g / cm^3
# Si number density = 16.873714 Si / 1000 Ang^3
#
#
#
# Elastic Constant Matrix: (Units=GPa)
#
#
# Indices 1 2 3 4 5 6 
#
# 1 39.6338 15.3733 48.6258 0.0000 -5.7413 0.0000
# 2 15.3733 14.6419 41.3685 0.0000 1.0680 0.0000
# 3 48.6258 41.3685 178.2988 0.0000 2.0742 0.0000
# 4 0.0000 0.0000 0.0000 100.9277 0.0000 26.0961
# 5 -5.7413 1.0680 2.0742 0.0000 24.3659 0.0000
# 6 0.0000 0.0000 0.0000 26.0961 0.0000 27.2168
#
#
#
# Elastic Compliance Matrix: (Units=1/GPa)
#
#
# Indices 1 2 3 4 5 6 
#
# 1 0.047262 -0.039874 -0.003792 0.000000 0.013207 0.000000
# 2 -0.039874 0.232467 -0.042877 0.000000 -0.015934 0.000000
# 3 -0.003792 -0.042877 0.016596 0.000000 -0.000427 0.000000
# 4 0.000000 0.000000 0.000000 0.013174 0.000000 -0.012632
# 5 0.013207 -0.015934 -0.000427 0.000000 0.044888 0.000000
# 6 0.000000 0.000000 0.000000 -0.012632 0.000000 0.048854
#
#
# Mechanical properties :
#
#
# Convention : Reuss Voigt Hill
#
# Bulk Modulus (GPa) = 8.11417 49.25664 28.68541
# Shear Modulus (GPa) = 8.09840 38.98254 23.54047
#
# Velocity S-wave (km/s) = 2.19313 4.81172 3.73915
# Velocity P-wave (km/s) = 3.35147 7.75403 5.97316
#
# Compressibility (1/GPa) = 0.12324116
#
# Stress axis : x y z
#
# Youngs Moduli (GPa) = 21.15851 4.30168 60.25619
#
# Poissons Ratio (x) = 0.17152 0.22847
# Poissons Ratio (y) = 0.84367 2.58360
# Poissons Ratio (z) = 0.08023 0.18444
#
# Static dielectric constant tensor:
#      x y z
#    x 1.542350 0.000000 0.001200 
#    y 0.000000 1.566830 0.000000 
#    z 0.001200 0.000000 1.617800 
# 
# From -- ./inp_files/52694.got.cif
#   From: 2010.05.17/outbox.cif.g08.bks.cpg/sg10_27_cif.got.tgz:52694.got - 2010.06.03 11:33:40.
