data_PCOD9142455
_publ_section_title
;
Structure prediction by ZEFSAII (Michael W. Deem and Ramdas Pophale) SiO2 
 PCOD9142455
Probable space group: P 2/M
;
_chemical_formula_sum "Si O2"
_cell_formula_units_Z 28
_cell_length_a 24.988398
_cell_length_b 15.655509
_cell_length_c 5.255616
_cell_angle_alpha 90.000000
_cell_angle_beta 103.248482
_cell_angle_gamma 90.000000
_cell_volume 2001.308453
_symmetry_space_group_name_H-M "P 2/M"
_symmetry_group_IT_number 10
_symmetry_cell_setting 'monoclinic'
loop_
_space_group_symop_operation_xyz
x,y,z
-x,y,-z
-x,-y,-z
x,-y,z
loop_
_atom_site_type_symbol
_atom_site_label
_atom_site_fract_x
_atom_site_fract_y
_atom_site_fract_z
Si Si1 0.463500 0.598353 0.205240
Si Si2 0.840600 0.103854 0.112898
Si Si3 0.225569 0.103163 0.457597
Si Si4 0.614585 0.750778 0.750797
Si Si5 0.657105 0.181376 0.288465
Si Si6 0.441392 0.903389 0.070024
Si Si7 0.966840 0.104119 0.213206
O O1 0.500000 0.600708 0.500000
O O2 0.445904 0.500000 0.143937
O O3 0.414510 0.663760 0.201077
O O4 0.500000 0.624230 0.000000
O O5 0.813745 0.128444 0.351164
O O6 0.903529 0.132517 0.150010
O O7 0.841833 0.000000 0.109996
O O8 0.802224 0.130583 0.836711
O O9 0.286043 0.139702 0.568185
O O10 0.229271 0.000000 0.460061
O O11 0.636917 0.756399 0.490827
O O12 0.659734 0.773068 0.016013
O O13 0.570598 0.828543 0.740721
O O14 0.608446 0.112384 0.184559
O O15 0.438320 0.000000 0.168633
O O16 0.500000 0.891851 0.000000
O O17 0.000000 0.130157 0.500000
O O18 0.965892 0.000000 0.209735
O O19 0.000000 0.131537 0.000000
#
# Coordination Sequence:
#
# PCOD9142455 Si02
#       7
#     4   4   4   4   4   4   4
#     4  10  20  34  54  74  89 106 129 162 214 274
#     4   9  17  26  39  55  72 101 135 174 216 252
#     4  10  18  29  41  54  76 104 144 179 206 246
#     4  10  21  32  49  64  86 107 134 170 214 258
#     4  10  21  32  45  61  81 111 137 175 214 247
#     4   9  20  33  45  62  82 110 141 171 212 262
#     4   9  15  23  35  52  74  95 122 164 219 268
#
# _framework density 13.990847
#
# number of rings (size 3 to 8) (size 9 to 14) (size 15 to 20)
#    0.857    1.571    0.000    3.429    2.000    4.571 
#    0.000    1.429    0.000    0.000    0.000    0.000 
#    0.000    0.000    0.000    0.000    0.000    0.000 
#
# Total GULP energy -155890.641294 kJ/mol
# GULP energy per Si atom -5567.522903 kJ/mol
# Density = 1.395900 g / cm^3
# Si number density = 13.990847 Si / 1000 Ang^3
#
#
#
# Elastic Constant Matrix: (Units=GPa)
#
#
# Indices 1 2 3 4 5 6 
#
# 1 56.5268 7.9412 4.0997 0.0000 6.5118 0.0000
# 2 7.9412 25.6447 -0.0436 0.0000 0.8362 0.0000
# 3 4.0997 -0.0436 49.7939 0.0000 -2.3760 0.0000
# 4 0.0000 0.0000 0.0000 -3.4495 0.0000 -1.9269
# 5 6.5118 0.8362 -2.3760 0.0000 27.7329 0.0000
# 6 0.0000 0.0000 0.0000 -1.9269 0.0000 4.0280
#
#
#
# Elastic Compliance Matrix: (Units=1/GPa)
#
#
# Indices 1 2 3 4 5 6 
#
# 1 0.019150 -0.005787 -0.001795 0.000000 -0.004476 0.000000
# 2 -0.005787 0.040782 0.000520 0.000000 0.000174 0.000000
# 3 -0.001795 0.000520 0.020334 0.000000 0.002148 0.000000
# 4 0.000000 0.000000 0.000000 -0.228765 0.000000 -0.109438
# 5 -0.004476 0.000174 0.002148 0.000000 0.037288 0.000000
# 6 0.000000 0.000000 0.000000 -0.109438 0.000000 0.195912
#
#
# Mechanical properties :
#
#
# Convention : Reuss Voigt Hill
#
# Bulk Modulus (GPa) = 15.11921 17.32890 16.22406
# Shear Modulus (GPa) = 41.36669 13.66014 27.51341
#
# Velocity S-wave (km/s) = 5.44345 3.12807 4.43937
# Velocity P-wave (km/s) = 7.09494 5.04571 6.15619
#
# Compressibility (1/GPa) = 0.06614102
#
# Stress axis : x y z
#
# Youngs Moduli (GPa) = 52.22067 24.52087 49.17984
#
# Poissons Ratio (x) = 0.14190 0.08829
# Poissons Ratio (y) = 0.30220 -0.02560
# Poissons Ratio (z) = 0.09375 -0.01276
#
# Static dielectric constant tensor:
#      x y z
#    x 1.451420 0.000000 -0.006660 
#    y 0.000000 1.438440 0.000000 
#    z -0.006660 0.000000 1.488730 
# 
# From -- ./inp_files/13274.got.cif
#   From: 2010.05.17/outbox.cif.g08.bks.cpg/sg10_7_cif.got.tgz:13274.got - 2010.06.03 11:33:40.
