data_PCOD9142949
_publ_section_title
;
Structure prediction by ZEFSAII (Michael W. Deem and Ramdas Pophale) SiO2 
 PCOD9142949
Probable space group: P 2/M
;
_chemical_formula_sum "Si O2"
_cell_formula_units_Z 26
_cell_length_a 10.628265
_cell_length_b 11.468294
_cell_length_c 21.771965
_cell_angle_alpha 90.000000
_cell_angle_beta 156.227990
_cell_angle_gamma 90.000000
_cell_volume 1069.719121
_symmetry_space_group_name_H-M "P 2/M"
_symmetry_group_IT_number 10
_symmetry_cell_setting 'monoclinic'
loop_
_space_group_symop_operation_xyz
x,y,z
-x,y,-z
-x,-y,-z
x,-y,z
loop_
_atom_site_type_symbol
_atom_site_label
_atom_site_fract_x
_atom_site_fract_y
_atom_site_fract_z
Si Si1 0.192061 0.135973 0.905661
Si Si2 0.746475 0.699703 0.948380
Si Si3 0.789536 0.323323 0.675301
Si Si4 0.860634 0.869874 0.536560
Si Si5 0.932462 0.627224 0.316606
Si Si6 0.141682 0.500000 0.182507
Si Si7 0.507916 0.872434 0.748783
O O1 0.894100 0.193257 0.739008
O O2 0.149952 0.000000 0.897858
O O3 0.500000 0.150457 0.000000
O O4 0.235220 0.203521 0.988989
O O5 0.697924 0.769115 0.863384
O O6 0.412140 0.637256 0.810593
O O7 0.001585 0.602114 0.074685
O O8 0.500000 0.337755 0.500000
O O9 0.073306 0.370929 0.759815
O O10 0.761178 0.398971 0.723177
O O11 0.892998 0.748268 0.587164
O O12 0.587438 0.857402 0.364435
O O13 0.183118 0.874696 0.641833
O O14 0.834207 0.000000 0.554776
O O15 0.062477 0.500000 0.394647
O O16 0.653830 0.000000 0.820910
#
# Coordination Sequence:
#
# PCOD9142949 Si02
#       7
#     4   4   4   4   4   2   4
#     4  10  20  33  52  79 106 135 175 223 267 315
#     4  10  18  30  49  78 103 139 169 217 266 315
#     4  11  23  37  53  71 103 148 182 216 262 320
#     4   8  16  30  47  72 104 143 173 210 266 329
#     4  11  20  31  50  77 106 139 183 222 265 310
#     4  10  21  33  50  71 101 135 179 217 263 320
#     4   8  14  28  48  71 105 137 170 207 265 326
#
# _framework density 24.305443
#
# number of rings (size 3 to 8) (size 9 to 14) (size 15 to 20)
#    0.000    2.308    3.077    1.615    0.000    2.154 
#    1.385    1.538    0.000    0.000    0.000    5.385 
#    0.000   11.077    0.000    0.000    0.000    0.000 
#
# Total GULP energy -144782.213405 kJ/mol
# GULP energy per Si atom -5568.546669 kJ/mol
# Density = 2.425012 g / cm^3
# Si number density = 24.305443 Si / 1000 Ang^3
#
#
#
# Elastic Constant Matrix: (Units=GPa)
#
#
# Indices 1 2 3 4 5 6 
#
# 1 37.6971 47.0494 23.1529 0.0000 -2.0252 0.0000
# 2 47.0494 264.9001 84.5366 0.0000 -28.2139 0.0000
# 3 23.1529 84.5366 117.5683 0.0000 -21.1924 0.0000
# 4 0.0000 0.0000 0.0000 47.3981 0.0000 -18.7139
# 5 -2.0252 -28.2139 -21.1924 0.0000 24.3624 0.0000
# 6 0.0000 0.0000 0.0000 -18.7139 0.0000 19.2723
#
#
#
# Elastic Compliance Matrix: (Units=1/GPa)
#
#
# Indices 1 2 3 4 5 6 
#
# 1 0.036017 -0.005838 -0.004239 0.000000 -0.007454 0.000000
# 2 -0.005838 0.006051 -0.002402 0.000000 0.004432 0.000000
# 3 -0.004239 -0.002402 0.012456 0.000000 0.007701 0.000000
# 4 0.000000 0.000000 0.000000 0.034216 0.000000 0.033224
# 5 -0.007454 0.004432 0.007701 0.000000 0.052259 0.000000
# 6 0.000000 0.000000 0.000000 0.033224 0.000000 0.084149
#
#
# Mechanical properties :
#
#
# Convention : Reuss Voigt Hill
#
# Bulk Modulus (GPa) = 33.82323 81.07146 57.44735
# Shear Modulus (GPa) = 19.23375 35.90167 27.56771
#
# Velocity S-wave (km/s) = 2.81612 3.84748 3.37147
# Velocity P-wave (km/s) = 4.95178 7.29144 6.23239
#
# Compressibility (1/GPa) = 0.02956548
#
# Stress axis : x y z
#
# Youngs Moduli (GPa) = 27.76485 165.27412 80.28519
#
# Poissons Ratio (x) = 0.96492 0.34029
# Poissons Ratio (y) = 0.16210 0.19284
# Poissons Ratio (z) = 0.11768 0.39697
#
# Static dielectric constant tensor:
#      x y z
#    x 2.013550 0.000000 0.071250 
#    y 0.000000 1.890210 0.000000 
#    z 0.071250 0.000000 1.950850 
# 
# From -- ./inp_files/27966.got.cif
#   From: 2010.05.17/outbox.cif.g08.bks.cpg/sg10_14_cif.got.tgz:27966.got - 2010.06.03 11:33:40.
