data_PCOD9142591
_publ_section_title
;
Structure prediction by ZEFSAII (Michael W. Deem and Ramdas Pophale) SiO2 
 PCOD9142591
Probable space group: P 2/M
;
_chemical_formula_sum "Si O2"
_cell_formula_units_Z 32
_cell_length_a 20.081755
_cell_length_b 7.719557
_cell_length_c 28.559557
_cell_angle_alpha 90.000000
_cell_angle_beta 21.696255
_cell_angle_gamma 90.000000
_cell_volume 1636.735658
_symmetry_space_group_name_H-M "P 2/M"
_symmetry_group_IT_number 10
_symmetry_cell_setting 'monoclinic'
loop_
_space_group_symop_operation_xyz
x,y,z
-x,y,-z
-x,-y,-z
x,-y,z
loop_
_atom_site_type_symbol
_atom_site_label
_atom_site_fract_x
_atom_site_fract_y
_atom_site_fract_z
Si Si1 0.014908 0.798328 0.436959
Si Si2 0.209064 0.799003 0.103294
Si Si3 0.946160 0.697374 0.893378
Si Si4 0.584171 0.706437 0.829241
Si Si5 0.859955 0.709420 0.376894
Si Si6 0.300650 0.699746 0.423015
Si Si7 0.425491 0.286679 0.831954
Si Si8 0.701245 0.287489 0.380506
O O1 0.221404 0.781828 0.286422
O O2 0.000000 0.731231 0.500000
O O3 0.876186 0.703971 0.493954
O O4 0.962175 0.000000 0.471911
O O5 0.135417 0.694912 0.106261
O O6 0.069389 0.762413 0.236045
O O7 0.195389 0.000000 0.099858
O O8 0.418526 0.753999 0.971366
O O9 0.970502 0.500000 0.893804
O O10 0.144164 0.774458 0.756605
O O11 0.781609 0.774193 0.030458
O O12 0.601496 0.500000 0.816874
O O13 0.523798 0.765047 0.816270
O O14 0.857655 0.500000 0.379775
O O15 0.757459 0.777642 0.489455
O O16 0.763172 0.765132 0.392055
O O17 0.351362 0.500000 0.398945
O O18 0.460965 0.774622 0.286664
O O19 0.424247 0.500000 0.833154
O O20 0.500000 0.232435 0.500000
O O21 0.705298 0.500000 0.376911
#
# Coordination Sequence:
#
# PCOD9142591 Si02
#       8
#     4   4   4   4   4   4   4   4
#     4  11  22  33  46  70 101 126 156 201 246 284
#     4  10  18  29  47  69  95 123 155 199 249 287
#     4   8  14  26  44  68  94 122 159 195 232 283
#     4  10  18  31  51  70  92 123 163 202 239 283
#     4   9  18  32  49  69  94 125 164 199 233 288
#     4  10  19  32  49  67  90 126 167 201 237 287
#     4   8  14  25  44  67  88 117 156 198 233 269
#     4   8  13  24  46  73  97 123 157 198 241 280
#
# _framework density 19.551110000000001
#
# number of rings (size 3 to 8) (size 9 to 14) (size 15 to 20)
#    0.000    2.750    1.250    3.375    0.000    1.000 
#    0.000    0.625    0.000   10.500    0.000    5.250 
#    0.000    0.000    0.000   18.625    0.000   23.250 
#
# Total GULP energy -178341.766585 kJ/mol
# GULP energy per Si atom -5573.180206 kJ/mol
# Density = 1.950661 g / cm^3
# Si number density = 19.551110 Si / 1000 Ang^3
#
#
#
# Elastic Constant Matrix: (Units=GPa)
#
#
# Indices 1 2 3 4 5 6 
#
# 1 42.2617 -0.3881 54.2645 0.0000 13.0258 0.0000
# 2 -0.3881 45.7671 -4.6586 0.0000 3.9767 0.0000
# 3 54.2645 -4.6586 209.5266 0.0000 11.6146 0.0000
# 4 0.0000 0.0000 0.0000 -9.2872 0.0000 7.4731
# 5 13.0258 3.9767 11.6146 0.0000 29.9977 0.0000
# 6 0.0000 0.0000 0.0000 7.4731 0.0000 -3.2513
#
#
#
# Elastic Compliance Matrix: (Units=1/GPa)
#
#
# Indices 1 2 3 4 5 6 
#
# 1 0.040354 0.000561 -0.009671 0.000000 -0.013853 0.000000
# 2 0.000561 0.022204 0.000536 0.000000 -0.003395 0.000000
# 3 -0.009671 0.000536 0.007215 0.000000 0.001335 0.000000
# 4 0.000000 0.000000 0.000000 0.126749 0.000000 0.291330
# 5 -0.013853 -0.003395 0.001335 0.000000 0.039285 0.000000
# 6 0.000000 0.000000 0.000000 0.291330 0.000000 0.362048
#
#
# Mechanical properties :
#
#
# Convention : Reuss Voigt Hill
#
# Bulk Modulus (GPa) = 19.00129 43.99900 31.50015
# Shear Modulus (GPa) = 7.90458 20.04767 13.97613
#
# Velocity S-wave (km/s) = 2.01291 3.20566 2.67657
# Velocity P-wave (km/s) = 3.89131 6.02122 5.06939
#
# Compressibility (1/GPa) = 0.05262800
#
# Stress axis : x y z
#
# Youngs Moduli (GPa) = 24.78040 45.03670 138.59565
#
# Poissons Ratio (x) = -0.02529 1.34034
# Poissons Ratio (y) = -0.01391 -0.07435
# Poissons Ratio (z) = 0.23965 -0.02416
#
# Static dielectric constant tensor:
#      x y z
#    x 1.654010 0.000000 0.024780 
#    y 0.000000 1.707750 0.000000 
#    z 0.024780 0.000000 1.739140 
# 
# From -- ./inp_files/54773.got.cif
#   From: 2010.05.17/outbox.cif.g08.bks.cpg/sg10_28_cif.got.tgz:54773.got - 2010.06.03 11:33:40.
