data_PCOD9142891
_publ_section_title
;
Structure prediction by ZEFSAII (Michael W. Deem and Ramdas Pophale) SiO2 
 PCOD9142891
Probable space group: P 2/M
;
_chemical_formula_sum "Si O2"
_cell_formula_units_Z 30
_cell_length_a 10.913012
_cell_length_b 9.576498
_cell_length_c 16.703848
_cell_angle_alpha 90.000000
_cell_angle_beta 99.856506
_cell_angle_gamma 90.000000
_cell_volume 1719.925852
_symmetry_space_group_name_H-M "P 2/M"
_symmetry_group_IT_number 10
_symmetry_cell_setting 'monoclinic'
loop_
_space_group_symop_operation_xyz
x,y,z
-x,y,-z
-x,-y,-z
x,-y,z
loop_
_atom_site_type_symbol
_atom_site_label
_atom_site_fract_x
_atom_site_fract_y
_atom_site_fract_z
Si Si1 0.656422 0.158428 0.166927
Si Si2 0.558913 0.837209 0.330283
Si Si3 0.724687 0.164638 0.640706
Si Si4 0.871692 0.333959 0.119297
Si Si5 0.749704 0.660932 0.947472
Si Si6 0.500000 0.248898 0.000000
Si Si7 0.642856 0.661060 0.483871
Si Si8 0.845866 0.333492 0.793075
O O1 0.584577 0.194376 0.240427
O O2 0.771826 0.259686 0.164453
O O3 0.566675 0.167770 0.079657
O O4 0.701766 0.000000 0.179160
O O5 0.413868 0.823186 0.336504
O O6 0.635547 0.736401 0.397382
O O7 0.591841 0.000000 0.349046
O O8 0.718344 0.245974 0.555787
O O9 0.814778 0.243604 0.711986
O O10 0.751812 0.000000 0.634377
O O11 0.846605 0.500000 0.116162
O O12 0.012267 0.314720 0.162547
O O13 0.841627 0.280080 0.025871
O O14 0.787228 0.500000 0.941391
O O15 0.612244 0.669142 0.969410
O O16 0.763100 0.718357 0.859623
O O17 0.500000 0.660145 0.500000
O O18 0.684358 0.500000 0.484643
O O19 0.823948 0.500000 0.774939
#
# Coordination Sequence:
#
# PCOD9142891 Si02
#       8
#     4   4   4   4   4   2   4   4
#     4  10  20  33  50  71  99 133 166 202 244 289
#     4   9  18  32  49  72 101 132 162 194 241 296
#     4  10  19  31  49  74 103 131 158 194 242 295
#     4   9  19  34  50  68  93 129 171 210 246 284
#     4   9  17  30  49  72  98 130 166 204 246 290
#     4  10  18  30  48  74 105 132 163 200 243 288
#     4   9  17  30  49  74 101 128 159 196 239 289
#     4  10  19  32  50  71  97 129 167 208 245 285
#
# _framework density 17.442612
#
# number of rings (size 3 to 8) (size 9 to 14) (size 15 to 20)
#    0.000    2.533    0.000    2.400    0.000    5.333 
#    0.000    2.667    0.000    4.800    0.000    5.600 
#    0.000    0.000    0.000    0.000    0.000    0.000 
#
# Total GULP energy -167134.276367 kJ/mol
# GULP energy per Si atom -5571.142546 kJ/mol
# Density = 1.740291 g / cm^3
# Si number density = 17.442612 Si / 1000 Ang^3
#
#
#
# Elastic Constant Matrix: (Units=GPa)
#
#
# Indices 1 2 3 4 5 6 
#
# 1 40.8170 24.5645 27.7649 0.0000 3.6315 0.0000
# 2 24.5645 73.5681 51.5626 0.0000 7.4070 0.0000
# 3 27.7649 51.5626 107.3271 0.0000 3.3666 0.0000
# 4 0.0000 0.0000 0.0000 26.4305 0.0000 -1.9206
# 5 3.6315 7.4070 3.3666 0.0000 22.9383 0.0000
# 6 0.0000 0.0000 0.0000 -1.9206 0.0000 17.0216
#
#
#
# Elastic Compliance Matrix: (Units=1/GPa)
#
#
# Indices 1 2 3 4 5 6 
#
# 1 0.032300 -0.007183 -0.004839 0.000000 -0.002084 0.000000
# 2 -0.007183 0.022727 -0.008907 0.000000 -0.004894 0.000000
# 3 -0.004839 -0.008907 0.014802 0.000000 0.001470 0.000000
# 4 0.000000 0.000000 0.000000 0.038148 0.000000 0.004304
# 5 -0.002084 -0.004894 0.001470 0.000000 0.045290 0.000000
# 6 0.000000 0.000000 0.000000 0.004304 0.000000 0.059235
#
#
# Mechanical properties :
#
#
# Convention : Reuss Voigt Hill
#
# Bulk Modulus (GPa) = 35.75269 47.72181 41.73725
# Shear Modulus (GPa) = 18.96216 21.13275 20.04746
#
# Velocity S-wave (km/s) = 3.30072 3.48452 3.39387
# Velocity P-wave (km/s) = 5.92184 6.60363 6.27201
#
# Compressibility (1/GPa) = 0.02796992
#
# Stress axis : x y z
#
# Youngs Moduli (GPa) = 30.95979 44.00123 67.55811
#
# Poissons Ratio (x) = 0.31608 0.32694
# Poissons Ratio (y) = 0.22240 0.60171
# Poissons Ratio (z) = 0.14983 0.39190
#
# Static dielectric constant tensor:
#      x y z
#    x 1.578490 0.000000 -0.003930 
#    y 0.000000 1.594990 0.000000 
#    z -0.003930 0.000000 1.603460 
# 
# From -- ./inp_files/63872.got.cif
#   From: 2010.05.17/outbox.cif.g08.bks.cpg/sg10_32_cif.got.tgz:63872.got - 2010.06.03 11:33:40.
