data_PCOD9142427
_publ_section_title
;
Structure prediction by ZEFSAII (Michael W. Deem and Ramdas Pophale) SiO2 
 PCOD9142427
Probable space group: P 2/M
;
_chemical_formula_sum "Si O2"
_cell_formula_units_Z 32
_cell_length_a 26.739802
_cell_length_b 7.308379
_cell_length_c 20.270017
_cell_angle_alpha 90.000000
_cell_angle_beta 19.065231
_cell_angle_gamma 90.000000
_cell_volume 1293.923481
_symmetry_space_group_name_H-M "P 2/M"
_symmetry_group_IT_number 10
_symmetry_cell_setting 'monoclinic'
loop_
_space_group_symop_operation_xyz
x,y,z
-x,y,-z
-x,-y,-z
x,-y,z
loop_
_atom_site_type_symbol
_atom_site_label
_atom_site_fract_x
_atom_site_fract_y
_atom_site_fract_z
Si Si1 0.642205 0.223357 0.984686
Si Si2 0.599019 0.208431 0.316592
Si Si3 0.861302 0.279146 0.082098
Si Si4 0.202824 0.280886 0.695276
Si Si5 0.674190 0.777415 0.800535
Si Si6 0.075728 0.777490 0.619946
Si Si7 0.267386 0.775807 0.981374
Si Si8 0.312628 0.787485 0.423464
O O1 0.466372 0.287816 0.201009
O O2 0.645207 0.000000 0.982100
O O3 0.715646 0.277639 0.823722
O O4 0.702202 0.280969 0.981321
O O5 0.500000 0.294139 0.500000
O O6 0.771313 0.206490 0.131781
O O7 0.544814 0.000000 0.377236
O O8 0.616736 0.287373 0.221083
O O9 0.861110 0.500000 0.078201
O O10 0.773935 0.222850 0.258636
O O11 0.035150 0.218750 0.878787
O O12 0.197736 0.500000 0.703031
O O13 0.318740 0.224877 0.494367
O O14 0.803551 0.722085 0.587212
O O15 0.671397 0.000000 0.802019
O O16 0.500000 0.720286 0.000000
O O17 0.156383 0.714324 0.587168
O O18 0.903866 0.715000 0.823405
O O19 0.065463 0.000000 0.631753
O O20 0.273826 0.000000 0.971789
O O21 0.313563 0.000000 0.404481
#
# Coordination Sequence:
#
# PCOD9142427 Si02
#       8
#     4   4   4   4   4   4   4   4
#     4   9  17  27  42  65  95 128 161 201 244 290
#     4  10  21  34  50  71 100 135 168 205 250 297
#     4   9  19  36  53  70  95 128 166 208 253 296
#     4   9  19  34  51  72  99 127 160 209 256 293
#     4   9  14  24  40  63  94 126 162 199 240 289
#     4   9  16  26  43  66  94 127 162 204 245 287
#     4   9  18  30  41  62  97 129 160 202 250 292
#     4  10  18  28  48  74  96 128 166 200 243 297
#
# _framework density 24.730983999999999
#
# number of rings (size 3 to 8) (size 9 to 14) (size 15 to 20)
#    0.000    2.750    1.250    1.500    1.750    2.750 
#    0.000    3.750    0.000    0.000    0.000    1.750 
#    0.000    0.000    0.000    6.375    0.000    6.250 
#
# Total GULP energy -178789.295044 kJ/mol
# GULP energy per Si atom -5587.165470 kJ/mol
# Density = 2.467469 g / cm^3
# Si number density = 24.730984 Si / 1000 Ang^3
#
#
#
# Elastic Constant Matrix: (Units=GPa)
#
#
# Indices 1 2 3 4 5 6 
#
# 1 172.1000 -3.1736 45.9232 0.0000 20.0097 0.0000
# 2 -3.1736 103.2065 1.4886 0.0000 -4.9487 0.0000
# 3 45.9232 1.4886 77.6742 0.0000 21.0646 0.0000
# 4 0.0000 0.0000 0.0000 -25.5145 0.0000 -63.9888
# 5 20.0097 -4.9487 21.0646 0.0000 49.7962 0.0000
# 6 0.0000 0.0000 0.0000 -63.9888 0.0000 -197.5058
#
#
#
# Elastic Compliance Matrix: (Units=1/GPa)
#
#
# Indices 1 2 3 4 5 6 
#
# 1 0.006966 0.000213 -0.003806 0.000000 -0.001168 0.000000
# 2 0.000213 0.009760 -0.000624 0.000000 0.001148 0.000000
# 3 -0.003806 -0.000624 0.016648 0.000000 -0.005575 0.000000
# 4 0.000000 0.000000 0.000000 -0.209068 0.000000 0.067735
# 5 -0.001168 0.001148 -0.005575 0.000000 0.023024 0.000000
# 6 0.000000 0.000000 0.000000 0.067735 0.000000 -0.027008
#
#
# Mechanical properties :
#
#
# Convention : Reuss Voigt Hill
#
# Bulk Modulus (GPa) = 40.09654 49.05081 44.57367
# Shear Modulus (GPa) = -30.68790 -14.06198 -22.37494
#
# Velocity S-wave (km/s) = -3.52642 -2.38712 -3.01114
# Velocity P-wave (km/s) = 0.57667 3.50415 2.44402
#
# Compressibility (1/GPa) = 0.02493981
#
# Stress axis : x y z
#
# Youngs Moduli (GPa) = 143.55800 102.45965 60.06627
#
# Poissons Ratio (x) = -0.02183 0.22860
# Poissons Ratio (y) = -0.03059 0.03751
# Poissons Ratio (z) = 0.54634 0.06398
#
# Static dielectric constant tensor:
#      x y z
#    x 1.953240 0.000000 0.004350 
#    y 0.000000 1.937060 0.000000 
#    z 0.004350 0.000000 1.944500 
# 
# From -- ./inp_files/85786.got.cif
#   From: 2010.05.17/outbox.cif.g08.bks.cpg/sg10_43_cif.got.tgz:85786.got - 2010.06.03 11:33:40.
