data_PCOD9142336
_publ_section_title
;
Structure prediction by ZEFSAII (Michael W. Deem and Ramdas Pophale) SiO2 
 PCOD9142336
Probable space group: P 2/M
;
_chemical_formula_sum "Si O2"
_cell_formula_units_Z 30
_cell_length_a 12.274085
_cell_length_b 9.547361
_cell_length_c 18.173695
_cell_angle_alpha 90.000000
_cell_angle_beta 58.209154
_cell_angle_gamma 90.000000
_cell_volume 1810.184388
_symmetry_space_group_name_H-M "P 2/M"
_symmetry_group_IT_number 10
_symmetry_cell_setting 'monoclinic'
loop_
_space_group_symop_operation_xyz
x,y,z
-x,y,-z
-x,-y,-z
x,-y,z
loop_
_atom_site_type_symbol
_atom_site_label
_atom_site_fract_x
_atom_site_fract_y
_atom_site_fract_z
Si Si1 0.814235 0.836379 0.195835
Si Si2 0.039964 0.162584 0.715306
Si Si3 0.250140 0.345613 0.996854
Si Si4 0.259670 0.837767 0.134471
Si Si5 0.000000 0.744951 0.000000
Si Si6 0.688373 0.668650 0.740921
Si Si7 0.061550 0.831257 0.398531
Si Si8 0.408415 0.339439 0.792592
O O1 0.875158 0.775475 0.249389
O O2 0.684973 0.757850 0.220456
O O3 0.788327 0.000000 0.214081
O O4 0.917587 0.823106 0.092378
O O5 0.892732 0.166462 0.794552
O O6 0.033321 0.215705 0.634111
O O7 0.078271 0.000000 0.696421
O O8 0.259039 0.500000 0.028265
O O9 0.353402 0.333855 0.895281
O O10 0.273672 0.227924 0.049039
O O11 0.111071 0.333501 0.006668
O O12 0.322113 0.741448 0.175123
O O13 0.301141 0.000000 0.123754
O O14 0.704914 0.500000 0.741607
O O15 0.808776 0.743889 0.659382
O O16 0.557619 0.696227 0.743159
O O17 0.000000 0.811006 0.500000
O O18 0.086322 0.000000 0.380016
O O19 0.394189 0.500000 0.772743
#
# Coordination Sequence:
#
# PCOD9142336 Si02
#       8
#     4   4   4   4   2   4   4   4
#     4  10  18  29  48  71  98 133 173 212 251 298
#     4   8  15  29  47  72 102 128 156 202 254 297
#     4  10  19  31  46  66  95 136 180 216 254 297
#     4  10  19  32  49  71 100 131 169 218 262 299
#     4  10  18  28  44  70 100 134 172 220 258 286
#     4  10  20  36  54  72  99 133 168 206 252 307
#     4   9  18  34  58  84 106 127 155 200 259 314
#     4   9  21  36  47  66  99 138 175 212 251 295
#
# _framework density 16.572897999999999
#
# number of rings (size 3 to 8) (size 9 to 14) (size 15 to 20)
#    0.000    2.533    1.333    2.000    0.000    4.533 
#    0.000    3.333    0.000    0.800    0.000    5.600 
#    0.000    0.000    0.000    0.000    0.000    0.000 
#
# Total GULP energy -167030.614414 kJ/mol
# GULP energy per Si atom -5567.687147 kJ/mol
# Density = 1.653518 g / cm^3
# Si number density = 16.572898 Si / 1000 Ang^3
#
#
#
# Elastic Constant Matrix: (Units=GPa)
#
#
# Indices 1 2 3 4 5 6 
#
# 1 118.8117 58.2577 52.6253 0.0000 9.2464 0.0000
# 2 58.2577 75.0018 32.2666 0.0000 4.6830 0.0000
# 3 52.6253 32.2666 57.5692 0.0000 15.0332 0.0000
# 4 0.0000 0.0000 0.0000 13.7364 0.0000 -5.6467
# 5 9.2464 4.6830 15.0332 0.0000 20.1093 0.0000
# 6 0.0000 0.0000 0.0000 -5.6467 0.0000 2.8138
#
#
#
# Elastic Compliance Matrix: (Units=1/GPa)
#
#
# Indices 1 2 3 4 5 6 
#
# 1 0.017939 -0.008872 -0.012191 0.000000 0.002931 0.000000
# 2 -0.008872 0.022229 -0.005047 0.000000 0.002676 0.000000
# 3 -0.012191 -0.005047 0.036746 0.000000 -0.020690 0.000000
# 4 0.000000 0.000000 0.000000 0.415854 0.000000 0.834535
# 5 0.002931 0.002676 -0.020690 0.000000 0.063224 0.000000
# 6 0.000000 0.000000 0.000000 0.834535 0.000000 2.030140
#
#
# Mechanical properties :
#
#
# Convention : Reuss Voigt Hill
#
# Bulk Modulus (GPa) = 40.49818 59.74244 50.12031
# Shear Modulus (GPa) = 1.88923 14.54744 8.21833
#
# Velocity S-wave (km/s) = 1.06884 2.96596 2.22927
# Velocity P-wave (km/s) = 5.10026 6.91778 6.07735
#
# Compressibility (1/GPa) = 0.02469247
#
# Stress axis : x y z
#
# Youngs Moduli (GPa) = 55.74561 44.98644 27.21377
#
# Poissons Ratio (x) = 0.39913 0.33176
# Poissons Ratio (y) = 0.49459 0.13736
# Poissons Ratio (z) = 0.67959 0.22707
#
# Static dielectric constant tensor:
#      x y z
#    x 1.566730 0.000000 0.018690 
#    y 0.000000 1.565370 0.000000 
#    z 0.018690 0.000000 1.550180 
# 
# From -- ./inp_files/76187.got.cif
#   From: 2010.05.17/outbox.cif.g08.bks.cpg/sg10_39_cif.got.tgz:76187.got - 2010.06.03 11:33:40.
