data_PCOD9142731
_publ_section_title
;
Structure prediction by ZEFSAII (Michael W. Deem and Ramdas Pophale) SiO2 
 PCOD9142731
Probable space group: P 2/M
;
_chemical_formula_sum "Si O2"
_cell_formula_units_Z 28
_cell_length_a 19.769662
_cell_length_b 8.658051
_cell_length_c 15.930771
_cell_angle_alpha 90.000000
_cell_angle_beta 142.504508
_cell_angle_gamma 90.000000
_cell_volume 1659.811509
_symmetry_space_group_name_H-M "P 2/M"
_symmetry_group_IT_number 10
_symmetry_cell_setting 'monoclinic'
loop_
_space_group_symop_operation_xyz
x,y,z
-x,y,-z
-x,-y,-z
x,-y,z
loop_
_atom_site_type_symbol
_atom_site_label
_atom_site_fract_x
_atom_site_fract_y
_atom_site_fract_z
Si Si1 0.862390 0.812783 0.689428
Si Si2 0.111016 0.684246 0.924281
Si Si3 0.129127 0.686246 0.617645
Si Si4 0.501850 0.686706 0.100179
Si Si5 0.270180 0.815378 0.604290
Si Si6 0.259598 0.688013 0.914594
Si Si7 0.865672 0.822280 0.877012
O O1 0.779100 0.764183 0.533982
O O2 0.826430 0.761856 0.747760
O O3 0.987239 0.754104 0.794448
O O4 0.867293 0.000000 0.696725
O O5 0.100840 0.500000 0.908466
O O6 0.191871 0.740034 0.929593
O O7 0.158016 0.729262 0.062021
O O8 0.138240 0.500000 0.618260
O O9 0.184539 0.761991 0.591568
O O10 0.194945 0.732752 0.766273
O O11 0.000000 0.725399 0.500000
O O12 0.505706 0.500000 0.104463
O O13 0.610481 0.748107 0.253461
O O14 0.500000 0.734070 0.000000
O O15 0.387238 0.737668 0.031134
O O16 0.276921 0.000000 0.610158
O O17 0.260159 0.500000 0.917128
O O18 0.829902 0.000000 0.852918
O O19 0.000000 0.823103 0.000000
#
# Coordination Sequence:
#
# PCOD9142731 Si02
#       7
#     4   4   4   4   4   4   4
#     4   9  19  34  49  69 103 139 162 191 244 303
#     4  10  18  29  50  79 104 124 159 208 247 285
#     4  10  19  33  52  72  98 134 168 194 237 303
#     4  10  19  36  57  69  90 132 176 206 242 298
#     4  11  22  34  50  74 102 127 164 214 252 283
#     4   9  18  32  49  72  99 128 161 202 247 291
#     4   8  15  30  49  68  97 136 166 189 236 302
#
# _framework density 16.869385000000001
#
# number of rings (size 3 to 8) (size 9 to 14) (size 15 to 20)
#    0.000    2.429    1.429    2.571    0.000    5.429 
#    0.000    2.857    0.000    0.857    0.000    6.000 
#    0.000    0.000    0.000    0.000    0.000    0.000 
#
# Total GULP energy -156120.606367 kJ/mol
# GULP energy per Si atom -5575.735942 kJ/mol
# Density = 1.683099 g / cm^3
# Si number density = 16.869385 Si / 1000 Ang^3
#
#
#
# Elastic Constant Matrix: (Units=GPa)
#
#
# Indices 1 2 3 4 5 6 
#
# 1 54.9056 13.3352 74.1619 0.0000 -18.2404 0.0000
# 2 13.3352 11.2023 23.5164 0.0000 -1.9372 0.0000
# 3 74.1619 23.5164 151.0989 0.0000 -14.0926 0.0000
# 4 0.0000 0.0000 0.0000 10.8907 0.0000 -13.8335
# 5 -18.2404 -1.9372 -14.0926 0.0000 31.3002 0.0000
# 6 0.0000 0.0000 0.0000 -13.8335 0.0000 1.9552
#
#
#
# Elastic Compliance Matrix: (Units=1/GPa)
#
#
# Indices 1 2 3 4 5 6 
#
# 1 0.072695 -0.018219 -0.030270 0.000000 0.027607 0.000000
# 2 -0.018219 0.137190 -0.013161 0.000000 -0.008052 0.000000
# 3 -0.030270 -0.013161 0.022758 0.000000 -0.008208 0.000000
# 4 0.000000 0.000000 0.000000 -0.011496 0.000000 -0.081339
# 5 0.027607 -0.008052 -0.008208 0.000000 0.043843 0.000000
# 6 0.000000 0.000000 0.000000 -0.081339 0.000000 -0.064035
#
#
# Mechanical properties :
#
#
# Convention : Reuss Voigt Hill
#
# Bulk Modulus (GPa) = 9.14537 48.80376 28.97456
# Shear Modulus (GPa) = 13.86190 15.90877 14.88534
#
# Velocity S-wave (km/s) = 2.86967 3.07425 2.97372
# Velocity P-wave (km/s) = 4.05131 6.44938 5.38552
#
# Compressibility (1/GPa) = 0.10934495
#
# Stress axis : x y z
#
# Youngs Moduli (GPa) = 13.75603 7.28917 43.94092
#
# Poissons Ratio (x) = 0.13280 1.33008
# Poissons Ratio (y) = 0.25062 0.57829
# Poissons Ratio (z) = 0.41639 0.09593
#
# Static dielectric constant tensor:
#      x y z
#    x 1.563300 0.000000 -0.021620 
#    y 0.000000 1.577680 0.000000 
#    z -0.021620 0.000000 1.567690 
# 
# From -- ./inp_files/55018.got.cif
#   From: 2010.05.17/outbox.cif.g08.bks.cpg/sg10_28_cif.got.tgz:55018.got - 2010.06.03 11:33:40.
