data_PCOD9142982
_publ_section_title
;
Structure prediction by ZEFSAII (Michael W. Deem and Ramdas Pophale) SiO2 
 PCOD9142982
Probable space group: P 2/M
;
_chemical_formula_sum "Si O2"
_cell_formula_units_Z 20
_cell_length_a 7.545790
_cell_length_b 13.024655
_cell_length_c 11.864324
_cell_angle_alpha 90.000000
_cell_angle_beta 118.918094
_cell_angle_gamma 90.000000
_cell_volume 1020.649802
_symmetry_space_group_name_H-M "P 2/M"
_symmetry_group_IT_number 10
_symmetry_cell_setting 'monoclinic'
loop_
_space_group_symop_operation_xyz
x,y,z
-x,y,-z
-x,-y,-z
x,-y,z
loop_
_atom_site_type_symbol
_atom_site_label
_atom_site_fract_x
_atom_site_fract_y
_atom_site_fract_z
Si Si1 0.426485 0.880619 0.145740
Si Si2 0.833775 0.380969 0.289677
Si Si3 0.189722 0.805616 0.869067
Si Si4 0.807838 0.728811 0.495141
Si Si5 0.258330 0.120436 0.332222
O O1 0.647570 0.862064 0.161880
O O2 0.402875 0.858426 0.270113
O O3 0.372994 0.000000 0.114229
O O4 0.270730 0.818103 0.020095
O O5 0.790964 0.500000 0.264775
O O6 0.803777 0.311741 0.170930
O O7 0.713330 0.328402 0.358281
O O8 0.068134 0.359867 0.398719
O O9 0.969416 0.853478 0.781284
O O10 0.708824 0.804612 0.552289
O O11 0.000000 0.790478 0.500000
O O12 0.273128 0.000000 0.366484
#
# Coordination Sequence:
#
# PCOD9142982 Si02
#       5
#     4   4   4   4   4
#     4  10  20  32  47  71 102 130 156 191 234 283
#     4   8  15  30  52  71  90 126 162 195 246 282
#     4  10  18  32  50  71  95 129 162 196 231 283
#     4   7  15  29  48  74  92 127 153 195 238 281
#     4  10  18  30  50  73  99 129 158 190 232 283
#
# _framework density 19.595358000000001
#
# number of rings (size 3 to 8) (size 9 to 14) (size 15 to 20)
#    1.200    1.600    0.000    4.200    0.000    2.000 
#    0.000    3.000    0.000   20.400    0.000    0.000 
#    0.000    0.000    0.000    0.000    0.000    0.000 
#
# Total GULP energy -111346.365804 kJ/mol
# GULP energy per Si atom -5567.318290 kJ/mol
# Density = 1.955076 g / cm^3
# Si number density = 19.595358 Si / 1000 Ang^3
#
#
#
# Elastic Constant Matrix: (Units=GPa)
#
#
# Indices 1 2 3 4 5 6 
#
# 1 57.9345 7.3749 12.7643 0.0000 -8.6391 0.0000
# 2 7.3749 135.8051 48.3773 0.0000 -25.0861 0.0000
# 3 12.7643 48.3773 74.9228 0.0000 -16.4016 0.0000
# 4 0.0000 0.0000 0.0000 8.6863 0.0000 -25.3946
# 5 -8.6391 -25.0861 -16.4016 0.0000 30.8382 0.0000
# 6 0.0000 0.0000 0.0000 -25.3946 0.0000 -22.0056
#
#
#
# Elastic Compliance Matrix: (Units=1/GPa)
#
#
# Indices 1 2 3 4 5 6 
#
# 1 0.018402 0.000755 -0.002671 0.000000 0.004349 0.000000
# 2 0.000755 0.010356 -0.005574 0.000000 0.005671 0.000000
# 3 -0.002671 -0.005574 0.018385 0.000000 0.004496 0.000000
# 4 0.000000 0.000000 0.000000 0.026321 0.000000 -0.030375
# 5 0.004349 0.005671 0.004496 0.000000 0.040650 0.000000
# 6 0.000000 0.000000 0.000000 -0.030375 0.000000 -0.010390
#
#
# Mechanical properties :
#
#
# Convention : Reuss Voigt Hill
#
# Bulk Modulus (GPa) = 31.09016 45.07727 38.08371
# Shear Modulus (GPa) = 38.63270 16.84683 27.73976
#
# Velocity S-wave (km/s) = 4.44500 2.93531 3.76657
# Velocity P-wave (km/s) = 6.49958 5.87725 6.19623
#
# Compressibility (1/GPa) = 0.03216452
#
# Stress axis : x y z
#
# Youngs Moduli (GPa) = 54.34286 96.56632 54.39130
#
# Poissons Ratio (x) = -0.07295 0.14526
# Poissons Ratio (y) = -0.04105 0.30316
# Poissons Ratio (z) = 0.14513 0.53824
#
# Static dielectric constant tensor:
#      x y z
#    x 1.740180 0.000000 0.008540 
#    y 0.000000 1.653680 0.000000 
#    z 0.008540 0.000000 1.744380 
# 
# From -- ./inp_files/41691.got.cif
#   From: 2010.05.17/outbox.cif.g08.bks.cpg/sg10_21_cif.got.tgz:41691.got - 2010.06.03 11:33:40.
