data_PCOD9142189
_publ_section_title
;
Structure prediction by ZEFSAII (Michael W. Deem and Ramdas Pophale) SiO2 
 PCOD9142189
Probable space group: P 2/M
;
_chemical_formula_sum "Si O2"
_cell_formula_units_Z 32
_cell_length_a 16.689780
_cell_length_b 9.347764
_cell_length_c 14.204557
_cell_angle_alpha 90.000000
_cell_angle_beta 86.075058
_cell_angle_gamma 90.000000
_cell_volume 2210.885463
_symmetry_space_group_name_H-M "P 2/M"
_symmetry_group_IT_number 10
_symmetry_cell_setting 'monoclinic'
loop_
_space_group_symop_operation_xyz
x,y,z
-x,y,-z
-x,-y,-z
x,-y,z
loop_
_atom_site_type_symbol
_atom_site_label
_atom_site_fract_x
_atom_site_fract_y
_atom_site_fract_z
Si Si1 0.593787 0.336413 0.024246
Si Si2 0.521152 0.671448 0.219911
Si Si3 0.423887 0.670244 0.572403
Si Si4 0.636918 0.828419 0.842127
Si Si5 0.217509 0.829470 0.305681
Si Si6 0.265275 0.170862 0.517180
Si Si7 0.889851 0.332762 0.423540
Si Si8 0.062519 0.666372 0.358754
O O1 0.622850 0.500000 0.013282
O O2 0.638011 0.233699 0.947831
O O3 0.500000 0.336018 0.000000
O O4 0.587184 0.294363 0.134156
O O5 0.504961 0.500000 0.213094
O O6 0.552095 0.700807 0.321818
O O7 0.440174 0.757107 0.202422
O O8 0.500000 0.702249 0.500000
O O9 0.407067 0.500000 0.565708
O O10 0.346933 0.758389 0.546055
O O11 0.716493 0.789800 0.777207
O O12 0.628312 0.000000 0.843519
O O13 0.252022 0.794898 0.407174
O O14 0.131552 0.754333 0.301674
O O15 0.206275 0.000000 0.303642
O O16 0.189250 0.237804 0.578186
O O17 0.267012 0.000000 0.526719
O O18 0.873825 0.500000 0.403309
O O19 0.914502 0.326822 0.532059
O O20 0.969692 0.285284 0.360940
O O21 0.065575 0.500000 0.331200
#
# Coordination Sequence:
#
# PCOD9142189 Si02
#       8
#     4   4   4   4   4   4   4   4
#     4   8  15  28  43  58  77 101 130 166 206 245
#     4   9  18  31  44  58  78 105 137 172 208 241
#     4  10  20  32  45  60  79 107 142 175 205 236
#     4  10  18  27  41  61  83 107 135 166 202 243
#     4   9  18  28  37  56  87 114 134 162 201 242
#     4  10  19  29  41  58  81 111 142 169 201 238
#     4   8  14  26  41  57  78 103 135 172 202 231
#     4   8  14  24  40  59  77 103 137 168 198 234
#
# _framework density 14.473839
#
# number of rings (size 3 to 8) (size 9 to 14) (size 15 to 20)
#    0.000    3.000    0.000    3.000    0.000    5.000 
#    0.000    2.500    0.000    0.000    0.000    0.000 
#    0.000    1.000    0.000   11.250    0.000    6.125 
#
# Total GULP energy -178149.077812 kJ/mol
# GULP energy per Si atom -5567.158682 kJ/mol
# Density = 1.444090 g / cm^3
# Si number density = 14.473839 Si / 1000 Ang^3
#
#
#
# Elastic Constant Matrix: (Units=GPa)
#
#
# Indices 1 2 3 4 5 6 
#
# 1 107.4403 58.4116 56.9542 0.0000 -25.3519 0.0000
# 2 58.4116 50.0449 44.6335 0.0000 -16.4155 0.0000
# 3 56.9542 44.6335 95.1886 0.0000 -19.2082 0.0000
# 4 0.0000 0.0000 0.0000 18.8162 0.0000 -3.7317
# 5 -25.3519 -16.4155 -19.2082 0.0000 21.4324 0.0000
# 6 0.0000 0.0000 0.0000 -3.7317 0.0000 19.5693
#
#
#
# Elastic Compliance Matrix: (Units=1/GPa)
#
#
# Indices 1 2 3 4 5 6 
#
# 1 0.027250 -0.027112 -0.001560 0.000000 0.010070 0.000000
# 2 -0.027112 0.065450 -0.013213 0.000000 0.006218 0.000000
# 3 -0.001560 -0.013213 0.018580 0.000000 0.004686 0.000000
# 4 0.000000 0.000000 0.000000 0.055235 0.000000 0.010533
# 5 0.010070 0.006218 0.004686 0.000000 0.067533 0.000000
# 6 0.000000 0.000000 0.000000 0.010533 0.000000 0.053109
#
#
# Mechanical properties :
#
#
# Convention : Reuss Voigt Hill
#
# Bulk Modulus (GPa) = 36.34845 63.63027 49.98936
# Shear Modulus (GPa) = 13.15455 18.14188 15.64822
#
# Velocity S-wave (km/s) = 3.01799 3.54422 3.29163
# Velocity P-wave (km/s) = 6.10836 7.79784 7.00423
#
# Compressibility (1/GPa) = 0.02751149
#
# Stress axis : x y z
#
# Youngs Moduli (GPa) = 36.69677 15.27883 53.82114
#
# Poissons Ratio (x) = 0.41423 0.08397
# Poissons Ratio (y) = 0.99491 0.71113
# Poissons Ratio (z) = 0.05725 0.20188
#
# Static dielectric constant tensor:
#      x y z
#    x 1.464400 0.000000 -0.013780 
#    y 0.000000 1.481500 0.000000 
#    z -0.013780 0.000000 1.487720 
# 
# From -- ./inp_files/66025.got.cif
#   From: 2010.05.17/outbox.cif.g08.bks.cpg/sg10_34_cif.got.tgz:66025.got - 2010.06.03 11:33:40.
