data_PCOD9142151
_publ_section_title
;
Structure prediction by ZEFSAII (Michael W. Deem and Ramdas Pophale) SiO2 
 PCOD9142151
Probable space group: P 2/M
;
_chemical_formula_sum "Si O2"
_cell_formula_units_Z 32
_cell_length_a 16.666444
_cell_length_b 9.015411
_cell_length_c 18.787619
_cell_angle_alpha 90.000000
_cell_angle_beta 54.983701
_cell_angle_gamma 90.000000
_cell_volume 2311.948783
_symmetry_space_group_name_H-M "P 2/M"
_symmetry_group_IT_number 10
_symmetry_cell_setting 'monoclinic'
loop_
_space_group_symop_operation_xyz
x,y,z
-x,y,-z
-x,-y,-z
x,-y,z
loop_
_atom_site_type_symbol
_atom_site_label
_atom_site_fract_x
_atom_site_fract_y
_atom_site_fract_z
Si Si1 0.007078 0.677772 0.328829
Si Si2 0.018141 0.322694 0.158195
Si Si3 0.897821 0.170766 0.507720
Si Si4 0.205655 0.677163 0.313092
Si Si5 0.202489 0.819864 0.984697
Si Si6 0.607365 0.820237 0.028032
Si Si7 0.902272 0.829198 0.099216
Si Si8 0.384715 0.820537 0.140651
O O1 0.995836 0.500000 0.340466
O O2 0.113576 0.714977 0.308144
O O3 0.004028 0.719448 0.247664
O O4 0.925200 0.755319 0.418902
O O5 0.027735 0.500000 0.148865
O O6 0.929326 0.268065 0.153375
O O7 0.116379 0.247979 0.076887
O O8 0.821733 0.258747 0.595597
O O9 0.000000 0.174597 0.500000
O O10 0.868505 0.000000 0.514466
O O11 0.213203 0.500000 0.312155
O O12 0.303048 0.747802 0.231131
O O13 0.194948 0.000000 0.991895
O O14 0.307075 0.772319 0.962484
O O15 0.181341 0.778413 0.913305
O O16 0.496305 0.774907 0.102188
O O17 0.606595 0.000000 0.028981
O O18 0.630549 0.777862 0.934587
O O19 0.884971 0.000000 0.129205
O O20 0.000000 0.828027 0.000000
O O21 0.378151 0.000000 0.148470
#
# Coordination Sequence:
#
# PCOD9142151 Si02
#       8
#     4   4   4   4   4   4   4   4
#     4   9  18  29  39  55  80 107 131 157 193 234
#     4  10  18  26  38  57  80 104 131 162 195 231
#     4   9  17  28  42  59  76  98 131 165 192 223
#     4  10  18  28  41  56  79 108 132 157 194 233
#     4   9  16  27  41  55  75 105 137 164 195 232
#     4   8  15  27  42  58  77 103 133 168 202 226
#     4   8  15  26  38  53  74 101 132 163 193 229
#     4   9  16  27  42  59  78 101 134 169 197 227
#
# _framework density 13.841137
#
# number of rings (size 3 to 8) (size 9 to 14) (size 15 to 20)
#    0.000    3.000    0.000    3.375    0.000    5.250 
#    0.000    1.875    0.000    0.000    0.000    0.000 
#    0.000    1.000    0.000   11.500    0.000    2.875 
#
# Total GULP energy -178170.513389 kJ/mol
# GULP energy per Si atom -5567.828543 kJ/mol
# Density = 1.380963 g / cm^3
# Si number density = 13.841137 Si / 1000 Ang^3
#
#
#
# Elastic Constant Matrix: (Units=GPa)
#
#
# Indices 1 2 3 4 5 6 
#
# 1 102.7125 28.3186 53.6340 0.0000 5.8775 0.0000
# 2 28.3186 33.9508 42.6797 0.0000 2.9160 0.0000
# 3 53.6340 42.6797 110.2813 0.0000 1.4752 0.0000
# 4 0.0000 0.0000 0.0000 21.1504 0.0000 5.5879
# 5 5.8775 2.9160 1.4752 0.0000 21.0275 0.0000
# 6 0.0000 0.0000 0.0000 5.5879 0.0000 9.4478
#
#
#
# Elastic Compliance Matrix: (Units=1/GPa)
#
#
# Indices 1 2 3 4 5 6 
#
# 1 0.013790 -0.005610 -0.004498 0.000000 -0.002761 0.000000
# 2 -0.005610 0.060518 -0.020621 0.000000 -0.005378 0.000000
# 3 -0.004498 -0.020621 0.019199 0.000000 0.002770 0.000000
# 4 0.000000 0.000000 0.000000 0.056037 0.000000 -0.033143
# 5 -0.002761 -0.005378 0.002770 0.000000 0.048880 0.000000
# 6 0.000000 0.000000 0.000000 -0.033143 0.000000 0.125447
#
#
# Mechanical properties :
#
#
# Convention : Reuss Voigt Hill
#
# Bulk Modulus (GPa) = 31.20293 55.13435 43.16864
# Shear Modulus (GPa) = 12.62597 18.47930 15.55263
#
# Velocity S-wave (km/s) = 3.02355 3.65787 3.35573
# Velocity P-wave (km/s) = 5.89760 7.60001 6.80227
#
# Compressibility (1/GPa) = 0.03204828
#
# Stress axis : x y z
#
# Youngs Moduli (GPa) = 72.51885 16.52412 52.08688
#
# Poissons Ratio (x) = 0.09270 0.23431
# Poissons Ratio (y) = 0.40682 1.07406
# Poissons Ratio (z) = 0.32622 0.34074
#
# Static dielectric constant tensor:
#      x y z
#    x 1.467500 0.000000 0.009860 
#    y 0.000000 1.463180 0.000000 
#    z 0.009860 0.000000 1.430750 
# 
# From -- ./inp_files/68221.got.cif
#   From: 2010.05.17/outbox.cif.g08.bks.cpg/sg10_35_cif.got.tgz:68221.got - 2010.06.03 11:33:40.
