data_PCOD9142453
_publ_section_title
;
Structure prediction by ZEFSAII (Michael W. Deem and Ramdas Pophale) SiO2 
 PCOD9142453
Probable space group: P 2/M
;
_chemical_formula_sum "Si O2"
_cell_formula_units_Z 26
_cell_length_a 5.409514
_cell_length_b 15.682423
_cell_length_c 16.114826
_cell_angle_alpha 90.000000
_cell_angle_beta 119.670120
_cell_angle_gamma 90.000000
_cell_volume 1187.850330
_symmetry_space_group_name_H-M "P 2/M"
_symmetry_group_IT_number 10
_symmetry_cell_setting 'monoclinic'
loop_
_space_group_symop_operation_xyz
x,y,z
-x,y,-z
-x,-y,-z
x,-y,z
loop_
_atom_site_type_symbol
_atom_site_label
_atom_site_fract_x
_atom_site_fract_y
_atom_site_fract_z
Si Si1 0.597214 0.237736 0.839368
Si Si2 0.743558 0.632208 0.600082
Si Si3 0.592355 0.403713 0.284966
Si Si4 0.160345 0.000000 0.938578
Si Si5 0.173851 0.173886 0.370558
Si Si6 0.619164 0.099099 0.332992
Si Si7 0.124178 0.817254 0.858315
O O1 0.473283 0.328174 0.790335
O O2 0.507290 0.163472 0.757892
O O3 0.450649 0.207818 0.899289
O O4 0.936079 0.238134 0.889224
O O5 0.500000 0.595931 0.500000
O O6 0.606874 0.618110 0.668575
O O7 0.771484 0.732867 0.585313
O O8 0.065747 0.599113 0.642093
O O9 0.523899 0.500000 0.246531
O O10 0.086598 0.085177 0.877305
O O11 0.500000 0.000000 0.000000
O O12 0.000000 0.000000 0.000000
O O13 0.457610 0.125039 0.390190
O O14 0.953582 0.119426 0.387414
O O15 0.011694 0.193289 0.256013
O O16 0.569664 0.000000 0.304721
#
# Coordination Sequence:
#
# PCOD9142453 Si02
#       7
#     4   4   4   2   4   4   4
#     4  10  19  35  55  87 106 149 216 237 286 341
#     4  12  23  40  58  82 120 158 200 266 323 381
#     4  12  23  40  58  85 121 152 203 273 314 374
#     4  12  26  40  56 102 143 158 187 230 292 360
#     4  10  19  35  53  82 106 149 213 230 285 341
#     4  10  18  28  54  78 104 127 189 256 269 332
#     4  10  20  35  61  75 119 164 193 226 276 352
#
# _framework density 21.888280999999999
#
# number of rings (size 3 to 8) (size 9 to 14) (size 15 to 20)
#    0.000    1.231    6.154    2.308    8.615    1.846 
#    0.000    0.000    0.000    2.769    0.000    0.000 
#    0.000   12.308    0.000    0.000    0.000    0.000 
#
# Total GULP energy -145234.932894 kJ/mol
# GULP energy per Si atom -5585.958957 kJ/mol
# Density = 2.183846 g / cm^3
# Si number density = 21.888281 Si / 1000 Ang^3
#
#
#
# Elastic Constant Matrix: (Units=GPa)
#
#
# Indices 1 2 3 4 5 6 
#
# 1 200.5792 23.6711 -7.0837 0.0000 5.3727 0.0000
# 2 23.6711 163.2043 -1.6747 0.0000 0.0348 0.0000
# 3 -7.0837 -1.6747 18.9061 0.0000 1.6823 0.0000
# 4 0.0000 0.0000 0.0000 4.6013 0.0000 -1.1472
# 5 5.3727 0.0348 1.6823 0.0000 24.8298 0.0000
# 6 0.0000 0.0000 0.0000 -1.1472 0.0000 15.6175
#
#
#
# Elastic Compliance Matrix: (Units=1/GPa)
#
#
# Indices 1 2 3 4 5 6 
#
# 1 0.005175 -0.000730 0.001986 0.000000 -0.001253 0.000000
# 2 -0.000730 0.006236 0.000267 0.000000 0.000131 0.000000
# 3 0.001986 0.000267 0.054025 0.000000 -0.004091 0.000000
# 4 0.000000 0.000000 0.000000 0.221386 0.000000 0.016263
# 5 -0.001253 0.000131 -0.004091 0.000000 0.040822 0.000000
# 6 0.000000 0.000000 0.000000 0.016263 0.000000 0.065225
#
#
# Mechanical properties :
#
#
# Convention : Reuss Voigt Hill
#
# Bulk Modulus (GPa) = 14.60226 45.83499 30.21862
# Shear Modulus (GPa) = 12.11677 33.52816 22.82247
#
# Velocity S-wave (km/s) = 2.35537 3.91805 3.23256
# Velocity P-wave (km/s) = 3.75270 6.43848 5.26957
#
# Compressibility (1/GPa) = 0.06848257
#
# Stress axis : x y z
#
# Youngs Moduli (GPa) = 193.22090 160.36224 18.50999
#
# Poissons Ratio (x) = 0.11706 -0.03676
# Poissons Ratio (y) = 0.14105 -0.00495
# Poissons Ratio (z) = -0.38373 -0.04285
#
# Static dielectric constant tensor:
#      x y z
#    x 1.876710 0.000000 0.008550 
#    y 0.000000 1.802570 0.000000 
#    z 0.008550 0.000000 1.764990 
# 
# From -- ./inp_files/73463.got.cif
#   From: 2010.05.17/outbox.cif.g08.bks.cpg/sg10_37_cif.got.tgz:73463.got - 2010.06.03 11:33:40.
