data_PCOD9142483
_publ_section_title
;
Structure prediction by ZEFSAII (Michael W. Deem and Ramdas Pophale) SiO2 
 PCOD9142483
Probable space group: P 2/M
;
_chemical_formula_sum "Si O2"
_cell_formula_units_Z 32
_cell_length_a 22.555751
_cell_length_b 8.824960
_cell_length_c 33.648434
_cell_angle_alpha 90.000000
_cell_angle_beta 18.258873
_cell_angle_gamma 90.000000
_cell_volume 2098.506724
_symmetry_space_group_name_H-M "P 2/M"
_symmetry_group_IT_number 10
_symmetry_cell_setting 'monoclinic'
loop_
_space_group_symop_operation_xyz
x,y,z
-x,y,-z
-x,-y,-z
x,-y,z
loop_
_atom_site_type_symbol
_atom_site_label
_atom_site_fract_x
_atom_site_fract_y
_atom_site_fract_z
Si Si1 0.048242 0.319061 0.802684
Si Si2 0.469142 0.680239 0.762858
Si Si3 0.642831 0.174572 0.446844
Si Si4 0.780007 0.819231 0.148468
Si Si5 0.145233 0.821053 0.465224
Si Si6 0.646075 0.816810 0.078719
Si Si7 0.748251 0.821757 0.696256
Si Si8 0.672098 0.680671 0.301539
O O1 0.031008 0.500000 0.810791
O O2 0.169306 0.255332 0.688770
O O3 0.170419 0.285132 0.764836
O O4 0.844604 0.242744 0.936400
O O5 0.457652 0.500000 0.773711
O O6 0.347821 0.739057 0.803223
O O7 0.687698 0.732286 0.619603
O O8 0.388685 0.754871 0.854611
O O9 0.500000 0.175807 0.500000
O O10 0.528012 0.260476 0.554156
O O11 0.678495 0.000000 0.434842
O O12 0.725808 0.761056 0.226551
O O13 0.753849 0.000000 0.162576
O O14 0.000000 0.785195 0.000000
O O15 0.197618 0.812445 0.384939
O O16 0.929414 0.760627 0.605025
O O17 0.151483 0.000000 0.471778
O O18 0.466281 0.763321 0.166453
O O19 0.643574 0.000000 0.081753
O O20 0.741595 0.000000 0.710485
O O21 0.666765 0.500000 0.299706
#
# Coordination Sequence:
#
# PCOD9142483 Si02
#       8
#     4   4   4   4   4   4   4   4
#     4  10  19  30  45  67  93 118 144 178 224 268
#     4  11  21  31  43  62  88 117 149 185 225 263
#     4   9  17  30  48  67  86 112 147 182 216 260
#     4  11  23  36  49  64  84 115 155 191 220 256
#     4   8  13  26  44  59  79 110 147 181 214 255
#     4  10  18  29  44  63  89 120 152 182 216 261
#     4   7  12  23  41  61  81 110 145 179 214 254
#     4  10  20  33  48  65  88 116 146 185 228 264
#
# _framework density 15.248939
#
# number of rings (size 3 to 8) (size 9 to 14) (size 15 to 20)
#    0.000    2.500    0.000    5.250    0.000    6.000 
#    0.000    5.625    0.000    0.000    0.000    0.000 
#    0.000    1.000    0.000   10.750    0.000    5.000 
#
# Total GULP energy -178284.314397 kJ/mol
# GULP energy per Si atom -5571.384825 kJ/mol
# Density = 1.521423 g / cm^3
# Si number density = 15.248939 Si / 1000 Ang^3
#
#
#
# Elastic Constant Matrix: (Units=GPa)
#
#
# Indices 1 2 3 4 5 6 
#
# 1 49.0795 33.5365 53.5065 0.0000 -14.0536 0.0000
# 2 33.5365 66.7606 54.9793 0.0000 -13.2447 0.0000
# 3 53.5065 54.9793 143.4793 0.0000 -17.6197 0.0000
# 4 0.0000 0.0000 0.0000 17.5156 0.0000 5.0629
# 5 -14.0536 -13.2447 -17.6197 0.0000 25.5622 0.0000
# 6 0.0000 0.0000 0.0000 5.0629 0.0000 15.7217
#
#
#
# Elastic Compliance Matrix: (Units=1/GPa)
#
#
# Indices 1 2 3 4 5 6 
#
# 1 0.041671 -0.010403 -0.010272 0.000000 0.010440 0.000000
# 2 -0.010403 0.025380 -0.005390 0.000000 0.003716 0.000000
# 3 -0.010272 -0.005390 0.012923 0.000000 0.000468 0.000000
# 4 0.000000 0.000000 0.000000 0.062952 0.000000 -0.020273
# 5 0.010440 0.003716 0.000468 0.000000 0.047108 0.000000
# 6 0.000000 0.000000 0.000000 -0.020273 0.000000 0.070135
#
#
# Mechanical properties :
#
#
# Convention : Reuss Voigt Hill
#
# Bulk Modulus (GPa) = 35.91186 60.37377 48.14282
# Shear Modulus (GPa) = 15.54827 19.57970 17.56399
#
# Velocity S-wave (km/s) = 3.19663 3.58719 3.39753
# Velocity P-wave (km/s) = 6.10132 7.53892 6.85789
#
# Compressibility (1/GPa) = 0.02784595
#
# Stress axis : x y z
#
# Youngs Moduli (GPa) = 23.99749 39.40048 77.38207
#
# Poissons Ratio (x) = 0.40987 0.79485
# Poissons Ratio (y) = 0.24964 0.41706
# Poissons Ratio (z) = 0.24650 0.21235
#
# Static dielectric constant tensor:
#      x y z
#    x 1.490130 0.000000 -0.029540 
#    y 0.000000 1.507170 0.000000 
#    z -0.029540 0.000000 1.522810 
# 
# From -- ./inp_files/49918.got.cif
#   From: 2010.05.17/outbox.cif.g08.bks.cpg/sg10_25_cif.got.tgz:49918.got - 2010.06.03 11:33:40.
