data_PCOD9142163
_publ_section_title
;
Structure prediction by ZEFSAII (Michael W. Deem and Ramdas Pophale) SiO2 
 PCOD9142163
Probable space group: P 2/M
;
_chemical_formula_sum "Si O2"
_cell_formula_units_Z 28
_cell_length_a 29.907295
_cell_length_b 7.723931
_cell_length_c 15.053780
_cell_angle_alpha 90.000000
_cell_angle_beta 27.383989
_cell_angle_gamma 90.000000
_cell_volume 1599.459642
_symmetry_space_group_name_H-M "P 2/M"
_symmetry_group_IT_number 10
_symmetry_cell_setting 'monoclinic'
loop_
_space_group_symop_operation_xyz
x,y,z
-x,y,-z
-x,-y,-z
x,-y,z
loop_
_atom_site_type_symbol
_atom_site_label
_atom_site_fract_x
_atom_site_fract_y
_atom_site_fract_z
Si Si1 0.917023 0.790049 0.778941
Si Si2 0.773737 0.211169 0.880024
Si Si3 0.903086 0.200849 0.283675
Si Si4 0.131347 0.211965 0.460641
Si Si5 0.607758 0.202559 0.304445
Si Si6 0.876928 0.298064 0.132107
Si Si7 0.746760 0.300271 0.212147
O O1 0.870038 0.743725 0.767195
O O2 0.026194 0.736765 0.607123
O O3 0.913352 0.000000 0.791956
O O4 0.843334 0.715369 0.981408
O O5 0.788579 0.267327 0.752524
O O6 0.769728 0.000000 0.887003
O O7 0.681306 0.275223 0.099729
O O8 0.863503 0.272201 0.446682
O O9 0.868874 0.284764 0.252308
O O10 0.876465 0.000000 0.324656
O O11 0.020986 0.212119 0.075725
O O12 0.131948 0.000000 0.462470
O O13 0.500000 0.279570 0.500000
O O14 0.663113 0.213550 0.301107
O O15 0.596695 0.000000 0.301400
O O16 0.887020 0.500000 0.090897
O O17 0.784650 0.229586 0.239730
O O18 0.717973 0.500000 0.273178
#
# Coordination Sequence:
#
# PCOD9142163 Si02
#       7
#     4   4   4   4   4   4   4
#     4   9  15  25  41  60  85 116 148 177 203 245
#     4   8  14  24  41  63  87 112 139 173 213 260
#     4  10  18  26  41  62  85 114 151 186 211 240
#     4   9  15  23  38  63  88 114 146 176 210 250
#     4   9  18  32  50  70  88 109 140 179 221 262
#     4  10  19  30  41  57  85 119 151 178 214 254
#     4  10  19  29  44  64  87 117 147 177 216 258
#
# _framework density 17.505913
#
# number of rings (size 3 to 8) (size 9 to 14) (size 15 to 20)
#    0.000    2.714    1.429    3.429    0.000    3.714 
#    0.000    0.000    0.000   13.714    0.000    1.000 
#    0.000    8.000    0.000    0.000    0.000    0.000 
#
# Total GULP energy -155979.587706 kJ/mol
# GULP energy per Si atom -5570.699561 kJ/mol
# Density = 1.746607 g / cm^3
# Si number density = 17.505913 Si / 1000 Ang^3
#
#
#
# Elastic Constant Matrix: (Units=GPa)
#
#
# Indices 1 2 3 4 5 6 
#
# 1 109.0444 -4.4828 63.9485 0.0000 20.3960 0.0000
# 2 -4.4828 24.5097 -1.8158 0.0000 1.5457 0.0000
# 3 63.9485 -1.8158 77.7178 0.0000 6.0484 0.0000
# 4 0.0000 0.0000 0.0000 -35.1144 0.0000 -11.9122
# 5 20.3960 1.5457 6.0484 0.0000 27.5761 0.0000
# 6 0.0000 0.0000 0.0000 -11.9122 0.0000 15.4574
#
#
#
# Elastic Compliance Matrix: (Units=1/GPa)
#
#
# Indices 1 2 3 4 5 6 
#
# 1 0.021270 0.003447 -0.016463 0.000000 -0.012314 0.000000
# 2 0.003447 0.041606 -0.001510 0.000000 -0.004551 0.000000
# 3 -0.016463 -0.001510 0.025865 0.000000 0.006588 0.000000
# 4 0.000000 0.000000 0.000000 -0.022576 0.000000 -0.017398
# 5 -0.012314 -0.004551 0.006588 0.000000 0.044181 0.000000
# 6 0.000000 0.000000 0.000000 -0.017398 0.000000 0.051286
#
#
# Mechanical properties :
#
#
# Convention : Reuss Voigt Hill
#
# Bulk Modulus (GPa) = 16.75335 36.28573 26.51954
# Shear Modulus (GPa) = 23.74391 11.82529 17.78460
#
# Velocity S-wave (km/s) = 3.68684 2.60186 3.19081
# Velocity P-wave (km/s) = 5.26447 5.45884 5.36254
#
# Compressibility (1/GPa) = 0.05968955
#
# Stress axis : x y z
#
# Youngs Moduli (GPa) = 47.01428 24.03509 38.66202
#
# Poissons Ratio (x) = -0.08285 0.63649
# Poissons Ratio (y) = -0.16207 0.05839
# Poissons Ratio (z) = 0.77399 0.03630
#
# Static dielectric constant tensor:
#      x y z
#    x 1.634540 0.000000 0.026230 
#    y 0.000000 1.639480 0.000000 
#    z 0.026230 0.000000 1.593210 
# 
# From -- ./inp_files/72463.got.cif
#   From: 2010.05.17/outbox.cif.g08.bks.cpg/sg10_37_cif.got.tgz:72463.got - 2010.06.03 11:33:40.
