data_PCOD9142787
_publ_section_title
;
Structure prediction by ZEFSAII (Michael W. Deem and Ramdas Pophale) SiO2 
 PCOD9142787
Probable space group: P 2/M
;
_chemical_formula_sum "Si O2"
_cell_formula_units_Z 28
_cell_length_a 17.586817
_cell_length_b 12.198329
_cell_length_c 13.414329
_cell_angle_alpha 90.000000
_cell_angle_beta 149.243564
_cell_angle_gamma 90.000000
_cell_volume 1471.663263
_symmetry_space_group_name_H-M "P 2/M"
_symmetry_group_IT_number 10
_symmetry_cell_setting 'monoclinic'
loop_
_space_group_symop_operation_xyz
x,y,z
-x,y,-z
-x,-y,-z
x,-y,z
loop_
_atom_site_type_symbol
_atom_site_label
_atom_site_fract_x
_atom_site_fract_y
_atom_site_fract_z
Si Si1 0.621504 0.735117 0.931053
Si Si2 0.174417 0.123489 0.980714
Si Si3 0.158632 0.734285 0.632139
Si Si4 0.641249 0.875998 0.608856
Si Si5 0.463137 0.500000 0.125635
Si Si6 0.252633 0.500000 0.690307
Si Si7 0.387446 0.875643 0.777511
Si Si8 0.908321 0.865995 0.798925
O O1 0.725362 0.730765 0.145848
O O2 0.722074 0.795609 0.963589
O O3 0.571318 0.611121 0.854183
O O4 0.478225 0.806712 0.798810
O O5 0.247557 0.113135 0.172421
O O6 0.172630 0.000000 0.934444
O O7 0.006398 0.163461 0.813457
O O8 0.157464 0.611361 0.585785
O O9 0.236580 0.817029 0.642850
O O10 0.000000 0.765678 0.500000
O O11 0.500000 0.818566 0.500000
O O12 0.739815 0.828959 0.630049
O O13 0.593064 0.000000 0.523597
O O14 0.629133 0.500000 0.266820
O O15 0.355259 0.500000 0.906143
O O16 0.359803 0.000000 0.713888
O O17 0.500000 0.878728 0.000000
O O18 0.905291 0.000000 0.796649
O O19 0.000000 0.829054 0.000000
#
# Coordination Sequence:
#
# PCOD9142787 Si02
#       8
#     4   4   4   4   2   2   4   4
#     4  10  18  30  46  65  87 113 150 187 223 265
#     4   9  16  26  42  64  90 118 142 171 216 264
#     4  10  19  30  46  66  86 112 149 190 231 264
#     4   8  13  23  41  65  88 111 143 179 209 246
#     4   9  16  28  50  68  80 106 150 197 223 254
#     4   9  15  30  50  68  80 102 151 199 230 260
#     4   9  17  29  44  60  84 119 151 177 211 267
#     4   7  11  21  37  57  81 109 139 164 196 247
#
# _framework density 19.026091000000001
#
# number of rings (size 3 to 8) (size 9 to 14) (size 15 to 20)
#    0.000    3.143    1.429    2.357    0.000    0.857 
#    0.000    1.429    0.000    1.714    0.000    5.000 
#    0.000    0.000    0.000    0.000    0.000    0.000 
#
# Total GULP energy -155872.373455 kJ/mol
# GULP energy per Si atom -5566.870481 kJ/mol
# Density = 1.898279 g / cm^3
# Si number density = 19.026091 Si / 1000 Ang^3
#
#
#
# Elastic Constant Matrix: (Units=GPa)
#
#
# Indices 1 2 3 4 5 6 
#
# 1 104.6984 65.1632 40.6210 0.0000 59.3270 0.0000
# 2 65.1632 123.8929 27.5119 0.0000 38.6940 0.0000
# 3 40.6210 27.5119 72.3043 0.0000 39.3455 0.0000
# 4 0.0000 0.0000 0.0000 -1.4122 0.0000 -2.6592
# 5 59.3270 38.6940 39.3455 0.0000 61.4427 0.0000
# 6 0.0000 0.0000 0.0000 -2.6592 0.0000 1.5373
#
#
#
# Elastic Compliance Matrix: (Units=1/GPa)
#
#
# Indices 1 2 3 4 5 6 
#
# 1 0.025269 -0.007031 -0.001003 0.000000 -0.019329 0.000000
# 2 -0.007031 0.012020 -0.000305 0.000000 -0.000585 0.000000
# 3 -0.001003 -0.000305 0.021301 0.000000 -0.012480 0.000000
# 4 0.000000 0.000000 0.000000 -0.166337 0.000000 -0.287725
# 5 -0.019329 -0.000585 -0.012480 0.000000 0.043299 0.000000
# 6 0.000000 0.000000 0.000000 -0.287725 0.000000 0.152797
#
#
# Mechanical properties :
#
#
# Convention : Reuss Voigt Hill
#
# Bulk Modulus (GPa) = 23.85927 63.05420 43.45673
# Shear Modulus (GPa) = 42.01755 23.48687 32.75221
#
# Velocity S-wave (km/s) = 4.70448 3.51729 4.15352
# Velocity P-wave (km/s) = 6.48668 7.05039 6.77440
#
# Compressibility (1/GPa) = 0.04191243
#
# Stress axis : x y z
#
# Youngs Moduli (GPa) = 39.57398 83.19332 46.94593
#
# Poissons Ratio (x) = 0.58495 0.04708
# Poissons Ratio (y) = 0.27825 0.01432
# Poissons Ratio (z) = 0.03969 0.02537
#
# Static dielectric constant tensor:
#      x y z
#    x 1.706350 0.000000 0.011580 
#    y 0.000000 1.648810 0.000000 
#    z 0.011580 0.000000 1.736580 
# 
# From -- ./inp_files/34446.got.cif
#   From: 2010.05.17/outbox.cif.g08.bks.cpg/sg10_18_cif.got.tgz:34446.got - 2010.06.03 11:33:40.
