data_PCOD9142102
_publ_section_title
;
Structure prediction by ZEFSAII (Michael W. Deem and Ramdas Pophale) SiO2 
 PCOD9142102
Probable space group: P 2/M
;
_chemical_formula_sum "Si O2"
_cell_formula_units_Z 22
_cell_length_a 11.611647
_cell_length_b 12.957207
_cell_length_c 8.511538
_cell_angle_alpha 90.000000
_cell_angle_beta 84.899317
_cell_angle_gamma 90.000000
_cell_volume 1275.528145
_symmetry_space_group_name_H-M "P 2/M"
_symmetry_group_IT_number 10
_symmetry_cell_setting 'monoclinic'
loop_
_space_group_symop_operation_xyz
x,y,z
-x,y,-z
-x,-y,-z
x,-y,z
loop_
_atom_site_type_symbol
_atom_site_label
_atom_site_fract_x
_atom_site_fract_y
_atom_site_fract_z
Si Si1 0.000000 0.304292 0.000000
Si Si2 0.124603 0.792326 0.533849
Si Si3 0.364673 0.380772 0.019332
Si Si4 0.180275 0.000000 0.062080
Si Si5 0.196979 0.615672 0.753228
Si Si6 0.066048 0.000000 0.734914
Si Si7 0.205552 0.209417 0.176479
O O1 0.914513 0.369779 0.119490
O O2 0.083846 0.237063 0.102574
O O3 0.189206 0.708505 0.631734
O O4 0.188080 0.810257 0.361983
O O5 0.000000 0.746911 0.500000
O O6 0.097918 0.898014 0.631373
O O7 0.350570 0.500000 0.072311
O O8 0.307248 0.373442 0.853683
O O9 0.500000 0.356550 0.000000
O O10 0.291380 0.303484 0.134892
O O11 0.247205 0.104691 0.089606
O O12 0.068239 0.000000 0.193806
O O13 0.135166 0.000000 0.889964
O O14 0.195710 0.500000 0.685396
#
# Coordination Sequence:
#
# PCOD9142102 Si02
#       7
#     2   4   4   2   4   2   4
#     4  10  17  33  48  76 108 143 183 212 258 324
#     4  12  21  33  48  82 121 148 173 211 274 335
#     4   9  20  41  63  78  99 141 195 236 265 312
#     4  11  19  32  54  79 107 152 190 222 255 315
#     4  10  20  33  52  78 109 140 175 222 274 323
#     4  11  20  33  52  75 117 155 186 212 253 326
#     4  11  21  33  54  81 111 144 181 223 272 322
#
# _framework density 17.247758000000001
#
# number of rings (size 3 to 8) (size 9 to 14) (size 15 to 20)
#    0.000    1.455    3.636    4.364    0.000    1.818 
#    0.000    1.364    0.000    3.273    0.000    3.818 
#    0.000    0.000    0.000    0.000    0.000    0.000 
#
# Total GULP energy -122780.077351 kJ/mol
# GULP energy per Si atom -5580.912607 kJ/mol
# Density = 1.720850 g / cm^3
# Si number density = 17.247758 Si / 1000 Ang^3
#
#
#
# Elastic Constant Matrix: (Units=GPa)
#
#
# Indices 1 2 3 4 5 6 
#
# 1 80.4669 40.0710 24.3324 0.0000 1.2365 0.0000
# 2 40.0710 101.7304 46.6867 0.0000 5.9184 0.0000
# 3 24.3324 46.6867 93.1388 0.0000 9.3605 0.0000
# 4 0.0000 0.0000 0.0000 17.7277 0.0000 -0.1216
# 5 1.2365 5.9184 9.3605 0.0000 10.5888 0.0000
# 6 0.0000 0.0000 0.0000 -0.1216 0.0000 3.7626
#
#
#
# Elastic Compliance Matrix: (Units=1/GPa)
#
#
# Indices 1 2 3 4 5 6 
#
# 1 0.015647 -0.005610 -0.001544 0.000000 0.002674 0.000000
# 2 -0.005610 0.014804 -0.005695 0.000000 -0.002585 0.000000
# 3 -0.001544 -0.005695 0.014988 0.000000 -0.009886 0.000000
# 4 0.000000 0.000000 0.000000 0.056421 0.000000 0.001824
# 5 0.002674 -0.002585 -0.009886 0.000000 0.104312 0.000000
# 6 0.000000 0.000000 0.000000 0.001824 0.000000 0.265830
#
#
# Mechanical properties :
#
#
# Convention : Reuss Voigt Hill
#
# Bulk Modulus (GPa) = 50.65835 55.27957 52.96896
# Shear Modulus (GPa) = 9.91510 17.36556 13.64033
#
# Velocity S-wave (km/s) = 2.40023 3.17650 2.81525
# Velocity P-wave (km/s) = 6.09231 6.75081 6.42999
#
# Compressibility (1/GPa) = 0.01974008
#
# Stress axis : x y z
#
# Youngs Moduli (GPa) = 63.90954 67.55080 66.71817
#
# Poissons Ratio (x) = 0.37897 0.10304
# Poissons Ratio (y) = 0.35854 0.37997
# Poissons Ratio (z) = 0.09870 0.38471
#
# Static dielectric constant tensor:
#      x y z
#    x 1.565720 0.000000 0.010500 
#    y 0.000000 1.616140 0.000000 
#    z 0.010500 0.000000 1.584710 
# 
# From -- ./inp_files/23976.got.cif
#   From: 2010.05.17/outbox.cif.g08.bks.cpg/sg10_12_cif.got.tgz:23976.got - 2010.06.03 11:33:40.
