data_PCOD9142184
_publ_section_title
;
Structure prediction by ZEFSAII (Michael W. Deem and Ramdas Pophale) SiO2 
 PCOD9142184
Probable space group: P 2/M
;
_chemical_formula_sum "Si O2"
_cell_formula_units_Z 32
_cell_length_a 19.166393
_cell_length_b 8.457970
_cell_length_c 14.120032
_cell_angle_alpha 90.000000
_cell_angle_beta 69.404280
_cell_angle_gamma 90.000000
_cell_volume 2142.682758
_symmetry_space_group_name_H-M "P 2/M"
_symmetry_group_IT_number 10
_symmetry_cell_setting 'monoclinic'
loop_
_space_group_symop_operation_xyz
x,y,z
-x,y,-z
-x,-y,-z
x,-y,z
loop_
_atom_site_type_symbol
_atom_site_label
_atom_site_fract_x
_atom_site_fract_y
_atom_site_fract_z
Si Si1 0.735517 0.690132 0.769334
Si Si2 0.743013 0.311570 0.985886
Si Si3 0.960671 0.688155 0.158843
Si Si4 0.577410 0.811398 0.846549
Si Si5 0.965238 0.307304 0.370435
Si Si6 0.884152 0.692908 0.596668
Si Si7 0.892149 0.814455 0.004168
Si Si8 0.584528 0.189404 0.069628
O O1 0.737336 0.500000 0.769887
O O2 0.745441 0.742561 0.874243
O O3 0.654114 0.740690 0.771875
O O4 0.804878 0.747867 0.673756
O O5 0.752537 0.500000 0.982696
O O6 0.810135 0.233192 0.010540
O O7 0.661312 0.268023 0.064568
O O8 0.948353 0.500000 0.160356
O O9 0.949147 0.745142 0.271671
O O10 0.909472 0.769618 0.104461
O O11 0.045794 0.722859 0.087234
O O12 0.495624 0.755645 0.851782
O O13 0.579317 0.000000 0.833269
O O14 0.580034 0.780671 0.958528
O O15 0.965127 0.500000 0.369107
O O16 0.907510 0.257379 0.479692
O O17 0.047705 0.260238 0.366876
O O18 0.882999 0.500000 0.597172
O O19 0.904371 0.000000 0.985068
O O20 0.589786 0.000000 0.079806
#
# Coordination Sequence:
#
# PCOD9142184 Si02
#       8
#     4   4   4   4   4   4   4   4
#     4   9  16  24  38  59  83 107 135 169 201 230
#     4  10  18  27  40  60  82 106 136 171 201 229
#     4  10  18  30  46  62  79 102 134 172 204 232
#     4   8  14  24  37  52  76 108 139 163 192 235
#     4   8  14  24  41  60  80 105 132 164 203 237
#     4   8  13  23  38  60  84 105 131 163 198 239
#     4  11  21  31  42  58  80 108 136 164 201 245
#     4   8  14  25  38  53  75 107 138 164 195 235
#
# _framework density 14.934547999999999
#
# number of rings (size 3 to 8) (size 9 to 14) (size 15 to 20)
#    0.000    3.000    0.000    4.875    0.000    3.000 
#    0.000    2.500    0.000    1.500    0.000    5.250 
#    0.000    1.000    0.000   11.500    0.000    3.375 
#
# Total GULP energy -178136.869637 kJ/mol
# GULP energy per Si atom -5566.777176 kJ/mol
# Density = 1.490056 g / cm^3
# Si number density = 14.934548 Si / 1000 Ang^3
#
#
#
# Elastic Constant Matrix: (Units=GPa)
#
#
# Indices 1 2 3 4 5 6 
#
# 1 104.5628 7.1443 48.5593 0.0000 -19.9291 0.0000
# 2 7.1443 5.3787 0.6571 0.0000 -2.6298 0.0000
# 3 48.5593 0.6571 78.7171 0.0000 -11.2571 0.0000
# 4 0.0000 0.0000 0.0000 -32.3903 0.0000 25.7150
# 5 -19.9291 -2.6298 -11.2571 0.0000 24.7379 0.0000
# 6 0.0000 0.0000 0.0000 25.7150 0.0000 -2.1031
#
#
#
# Elastic Compliance Matrix: (Units=1/GPa)
#
#
# Indices 1 2 3 4 5 6 
#
# 1 0.016188 -0.016888 -0.008810 0.000000 0.007237 0.000000
# 2 -0.016888 0.213881 0.010630 0.000000 0.013969 0.000000
# 3 -0.008810 0.010630 0.018394 0.000000 0.002402 0.000000
# 4 0.000000 0.000000 0.000000 0.003546 0.000000 0.043354
# 5 0.007237 0.013969 0.002402 0.000000 0.048832 0.000000
# 6 0.000000 0.000000 0.000000 0.043354 0.000000 0.054608
#
#
# Mechanical properties :
#
#
# Convention : Reuss Voigt Hill
#
# Bulk Modulus (GPa) = 4.58029 33.48667 19.03348
# Shear Modulus (GPa) = 10.90846 6.86876 8.88861
#
# Velocity S-wave (km/s) = 2.70556 2.14691 2.44226
# Velocity P-wave (km/s) = 3.58240 5.34945 4.55248
#
# Compressibility (1/GPa) = 0.21832667
#
# Stress axis : x y z
#
# Youngs Moduli (GPa) = 61.77249 4.67551 54.36680
#
# Poissons Ratio (x) = 0.07896 0.47900
# Poissons Ratio (y) = 1.04319 -0.57793
# Poissons Ratio (z) = 0.54424 -0.04970
#
# Static dielectric constant tensor:
#      x y z
#    x 1.495450 0.000000 -0.016130 
#    y 0.000000 1.508530 0.000000 
#    z -0.016130 0.000000 1.493040 
# 
# From -- ./inp_files/68225.got.cif
#   From: 2010.05.17/outbox.cif.g08.bks.cpg/sg10_35_cif.got.tgz:68225.got - 2010.06.03 11:33:40.
