data_PCOD9142640
_publ_section_title
;
Structure prediction by ZEFSAII (Michael W. Deem and Ramdas Pophale) SiO2 
 PCOD9142640
Probable space group: P 2/M
;
_chemical_formula_sum "Si O2"
_cell_formula_units_Z 32
_cell_length_a 23.272324
_cell_length_b 17.167353
_cell_length_c 25.623148
_cell_angle_alpha 90.000000
_cell_angle_beta 10.574727
_cell_angle_gamma 90.000000
_cell_volume 1878.683769
_symmetry_space_group_name_H-M "P 2/M"
_symmetry_group_IT_number 10
_symmetry_cell_setting 'monoclinic'
loop_
_space_group_symop_operation_xyz
x,y,z
-x,y,-z
-x,-y,-z
x,-y,z
loop_
_atom_site_type_symbol
_atom_site_label
_atom_site_fract_x
_atom_site_fract_y
_atom_site_fract_z
Si Si1 0.568656 0.913160 0.716399
Si Si2 0.137733 0.090026 0.819088
Si Si3 0.248795 0.409919 0.611104
Si Si4 0.346752 0.825164 0.821619
Si Si5 0.015262 0.590534 0.044125
Si Si6 0.810081 0.832995 0.859562
Si Si7 0.018436 0.735309 0.763520
Si Si8 0.630619 0.089420 0.825188
O O1 0.459883 0.899421 0.754304
O O2 0.866534 0.857007 0.456750
O O3 0.675552 0.000000 0.630622
O O4 0.287620 0.891641 0.006145
O O5 0.500000 0.114467 0.500000
O O6 0.132434 0.000000 0.803502
O O7 0.000000 0.088722 0.000000
O O8 0.919608 0.146452 0.979803
O O9 0.144479 0.500000 0.702494
O O10 0.081469 0.354165 0.719663
O O11 0.177736 0.379762 0.733746
O O12 0.618052 0.408175 0.270238
O O13 0.652844 0.782910 0.525194
O O14 0.206807 0.767914 0.990377
O O15 0.908750 0.500000 0.133034
O O16 0.000000 0.627505 0.000000
O O17 0.874674 0.754920 0.835049
O O18 0.535954 0.847639 0.063031
O O19 0.000000 0.100029 0.500000
O O20 0.570099 0.000000 0.859863
O O21 0.500000 0.094245 0.000000
#
# Coordination Sequence:
#
# PCOD9142640 Si02
#       8
#     4   4   4   4   4   4   4   4
#     4  10  18  29  48  68  88 119 157 193 228 272
#     4  10  20  34  51  67  87 118 156 198 239 281
#     4  10  19  33  52  71  94 123 157 196 240 292
#     4  10  20  34  48  66  92 118 151 194 240 283
#     4   9  17  30  49  71  93 117 148 188 233 287
#     4  10  20  32  47  68  97 127 155 193 233 269
#     4  10  21  35  50  69  95 123 153 195 240 283
#     4  10  19  30  46  69  98 129 160 191 221 264
#
# _framework density 17.033201999999999
#
# number of rings (size 3 to 8) (size 9 to 14) (size 15 to 20)
#    0.000    2.125    0.000    4.125    0.000    2.500 
#    0.000   10.000    0.000    0.000    0.000    0.000 
#    0.000    1.000    0.000    0.000    0.000    3.000 
#
# Total GULP energy -178386.234239 kJ/mol
# GULP energy per Si atom -5574.569820 kJ/mol
# Density = 1.699443 g / cm^3
# Si number density = 17.033202 Si / 1000 Ang^3
#
#
#
# Elastic Constant Matrix: (Units=GPa)
#
#
# Indices 1 2 3 4 5 6 
#
# 1 53.3081 19.2419 17.0349 0.0000 -14.8425 0.0000
# 2 19.2419 38.3218 -0.8938 0.0000 -12.1402 0.0000
# 3 17.0349 -0.8938 82.7958 0.0000 3.5443 0.0000
# 4 0.0000 0.0000 0.0000 12.8921 0.0000 -2.2818
# 5 -14.8425 -12.1402 3.5443 0.0000 31.6758 0.0000
# 6 0.0000 0.0000 0.0000 -2.2818 0.0000 17.1693
#
#
#
# Elastic Compliance Matrix: (Units=1/GPa)
#
#
# Indices 1 2 3 4 5 6 
#
# 1 0.027218 -0.010872 -0.006114 0.000000 0.009271 0.000000
# 2 -0.010872 0.034046 0.002275 0.000000 0.007700 0.000000
# 3 -0.006114 0.002275 0.013510 0.000000 -0.003505 0.000000
# 4 0.000000 0.000000 0.000000 0.079435 0.000000 0.010557
# 5 0.009271 0.007700 -0.003505 0.000000 0.039257 0.000000
# 6 0.000000 0.000000 0.000000 0.010557 0.000000 0.059646
#
#
# Mechanical properties :
#
#
# Convention : Reuss Voigt Hill
#
# Bulk Modulus (GPa) = 22.04993 27.24352 24.64672
# Shear Modulus (GPa) = 16.79798 21.61696 19.20747
#
# Velocity S-wave (km/s) = 3.14377 3.56632 3.36169
# Velocity P-wave (km/s) = 5.11382 5.74345 5.43775
#
# Compressibility (1/GPa) = 0.04535162
#
# Stress axis : x y z
#
# Youngs Moduli (GPa) = 36.73975 29.37184 74.01654
#
# Poissons Ratio (x) = 0.31934 0.45256
# Poissons Ratio (y) = 0.39945 -0.16838
# Poissons Ratio (z) = 0.22464 -0.06682
#
# Static dielectric constant tensor:
#      x y z
#    x 1.591590 0.000000 -0.015010 
#    y 0.000000 1.596780 0.000000 
#    z -0.015010 0.000000 1.558120 
# 
# From -- ./inp_files/93946.got.cif
#   From: 2010.05.17/outbox.cif.g08.bks.cpg/sg10_47_cif.got.tgz:93946.got - 2010.06.03 11:33:40.
