data_PCOD9142124
_publ_section_title
;
Structure prediction by ZEFSAII (Michael W. Deem and Ramdas Pophale) SiO2 
 PCOD9142124
Probable space group: P 2/M
;
_chemical_formula_sum "Si O2"
_cell_formula_units_Z 28
_cell_length_a 13.881333
_cell_length_b 15.838843
_cell_length_c 8.217245
_cell_angle_alpha 90.000000
_cell_angle_beta 130.366327
_cell_angle_gamma 90.000000
_cell_volume 1376.542775
_symmetry_space_group_name_H-M "P 2/M"
_symmetry_group_IT_number 10
_symmetry_cell_setting 'monoclinic'
loop_
_space_group_symop_operation_xyz
x,y,z
-x,y,-z
-x,-y,-z
x,-y,z
loop_
_atom_site_type_symbol
_atom_site_label
_atom_site_fract_x
_atom_site_fract_y
_atom_site_fract_z
Si Si1 0.870121 0.265621 0.444463
Si Si2 0.599449 0.265520 0.973733
Si Si3 0.631239 0.407332 0.738522
Si Si4 0.170694 0.865881 0.108093
Si Si5 0.911003 0.909621 0.645038
Si Si6 0.858701 0.325637 0.801767
Si Si7 0.564911 0.096717 0.747509
O O1 0.741268 0.266333 0.201601
O O2 0.890727 0.167302 0.505607
O O3 0.852211 0.309616 0.600934
O O4 0.000000 0.296454 0.500000
O O5 0.500000 0.294902 0.000000
O O6 0.610336 0.331756 0.840533
O O7 0.545781 0.175004 0.849454
O O8 0.500000 0.412011 0.500000
O O9 0.655656 0.500000 0.840358
O O10 0.747576 0.383973 0.747491
O O11 0.182659 0.903246 0.302704
O O12 0.158095 0.765504 0.125915
O O13 0.287091 0.894335 0.129260
O O14 0.045551 0.897051 0.880585
O O15 0.900135 0.000000 0.553303
O O16 0.000000 0.355669 0.000000
O O17 0.500000 0.111711 0.500000
O O18 0.534581 0.000000 0.766689
#
# Coordination Sequence:
#
# PCOD9142124 Si02
#       7
#     4   4   4   4   4   4   4
#     4  11  23  38  60  95 131 175 209 260 330 390
#     4  12  26  42  65  95 137 175 206 267 341 393
#     4  11  25  47  75 100 123 163 222 273 322 397
#     4  10  17  34  59  89 118 164 219 275 311 358
#     4  10  19  31  55  88 122 164 220 270 309 358
#     4  11  20  40  71  97 128 168 219 269 320 391
#     4  11  24  39  61  88 126 177 231 270 310 380
#
# _framework density 20.340814999999999
#
# number of rings (size 3 to 8) (size 9 to 14) (size 15 to 20)
#    0.000    1.143    4.286    4.714    4.000    1.714 
#    0.000    0.714    0.000    1.714    0.000    0.000 
#    0.000    0.000    0.000    0.000    0.000    0.000 
#
# Total GULP energy -156380.696334 kJ/mol
# GULP energy per Si atom -5585.024869 kJ/mol
# Density = 2.029452 g / cm^3
# Si number density = 20.340815 Si / 1000 Ang^3
#
#
#
# Elastic Constant Matrix: (Units=GPa)
#
#
# Indices 1 2 3 4 5 6 
#
# 1 93.5729 41.1762 23.3133 0.0000 0.2439 0.0000
# 2 41.1762 79.0419 35.3785 0.0000 -4.0052 0.0000
# 3 23.3133 35.3785 95.2622 0.0000 4.5600 0.0000
# 4 0.0000 0.0000 0.0000 12.9848 0.0000 27.1493
# 5 0.2439 -4.0052 4.5600 0.0000 26.1634 0.0000
# 6 0.0000 0.0000 0.0000 27.1493 0.0000 11.8084
#
#
#
# Elastic Compliance Matrix: (Units=1/GPa)
#
#
# Indices 1 2 3 4 5 6 
#
# 1 0.013952 -0.006976 -0.000773 0.000000 -0.001063 0.000000
# 2 -0.006976 0.018956 -0.005521 0.000000 0.003929 0.000000
# 3 -0.000773 -0.005521 0.012884 0.000000 -0.003084 0.000000
# 4 0.000000 0.000000 0.000000 -0.020228 0.000000 0.046508
# 5 -0.001063 0.003929 -0.003084 0.000000 0.039370 0.000000
# 6 0.000000 0.000000 0.000000 0.046508 0.000000 -0.022244
#
#
# Mechanical properties :
#
#
# Convention : Reuss Voigt Hill
#
# Bulk Modulus (GPa) = 51.93990 51.95700 51.94845
# Shear Modulus (GPa) = 66.09649 21.39191 43.74420
#
# Velocity S-wave (km/s) = 5.70658 3.24647 4.64245
# Velocity P-wave (km/s) = 8.30725 6.29694 7.37095
#
# Compressibility (1/GPa) = 0.01925302
#
# Stress axis : x y z
#
# Youngs Moduli (GPa) = 71.67444 52.75436 77.61385
#
# Poissons Ratio (x) = 0.36802 0.05997
# Poissons Ratio (y) = 0.50001 0.42848
# Poissons Ratio (z) = 0.05538 0.29124
#
# Static dielectric constant tensor:
#      x y z
#    x 1.756180 0.000000 0.029460 
#    y 0.000000 1.737650 0.000000 
#    z 0.029460 0.000000 1.775030 
# 
# From -- ./inp_files/29586.got.cif
#   From: 2010.05.17/outbox.cif.g08.bks.cpg/sg10_15_cif.got.tgz:29586.got - 2010.06.03 11:33:40.
