data_PCOD9142628
_publ_section_title
;
Structure prediction by ZEFSAII (Michael W. Deem and Ramdas Pophale) SiO2 
 PCOD9142628
Probable space group: P 2/M
;
_chemical_formula_sum "Si O2"
_cell_formula_units_Z 32
_cell_length_a 18.244549
_cell_length_b 8.757441
_cell_length_c 24.659506
_cell_angle_alpha 90.000000
_cell_angle_beta 30.400032
_cell_angle_gamma 90.000000
_cell_volume 1993.768055
_symmetry_space_group_name_H-M "P 2/M"
_symmetry_group_IT_number 10
_symmetry_cell_setting 'monoclinic'
loop_
_space_group_symop_operation_xyz
x,y,z
-x,y,-z
-x,-y,-z
x,-y,z
loop_
_atom_site_type_symbol
_atom_site_label
_atom_site_fract_x
_atom_site_fract_y
_atom_site_fract_z
Si Si1 0.954300 0.185375 0.636974
Si Si2 0.367388 0.323488 0.627969
Si Si3 0.825499 0.181764 0.335136
Si Si4 0.283565 0.815148 0.403420
Si Si5 0.444394 0.682778 0.975650
Si Si6 0.131291 0.184227 0.186141
Si Si7 0.594277 0.683526 0.567089
Si Si8 0.321563 0.815321 0.255699
O O1 0.906181 0.231104 0.728067
O O2 0.832518 0.233589 0.671800
O O3 0.116945 0.235092 0.519665
O O4 0.957343 0.000000 0.634317
O O5 0.500000 0.320660 0.500000
O O6 0.323141 0.500000 0.662410
O O7 0.239873 0.230686 0.680928
O O8 0.443891 0.267294 0.634127
O O9 0.725397 0.256951 0.445487
O O10 0.991912 0.225478 0.238969
O O11 0.814035 0.000000 0.349069
O O12 0.380540 0.746329 0.389160
O O13 0.329740 0.771069 0.313385
O O14 0.287019 0.000000 0.405051
O O15 0.447838 0.500000 0.971486
O O16 0.551368 0.749505 0.862317
O O17 0.500000 0.731967 0.000000
O O18 0.281261 0.741714 0.072915
O O19 0.146627 0.000000 0.175764
O O20 0.596545 0.500000 0.564779
O O21 0.326425 0.000000 0.249937
#
# Coordination Sequence:
#
# PCOD9142628 Si02
#       8
#     4   4   4   4   4   4   4   4
#     4   9  16  30  50  72  98 127 161 202 243 288
#     4   8  16  29  43  64  96 133 165 190 230 294
#     4  10  18  29  47  73  99 124 161 207 245 284
#     4  10  19  32  50  75 100 126 168 208 240 286
#     4  11  23  36  50  70  97 127 166 212 249 287
#     4  10  19  32  52  73  96 129 166 202 245 294
#     4  10  19  30  45  67 100 138 165 190 236 295
#     4  10  20  34  54  72  93 130 169 207 248 290
#
# _framework density 16.050011999999999
#
# number of rings (size 3 to 8) (size 9 to 14) (size 15 to 20)
#    0.000    2.250    2.500    2.250    0.000    6.250 
#    0.000    0.625    0.000    1.500    0.000    0.875 
#    0.000    7.000    0.000    0.000    0.000    0.000 
#
# Total GULP energy -178447.545278 kJ/mol
# GULP energy per Si atom -5576.485790 kJ/mol
# Density = 1.601348 g / cm^3
# Si number density = 16.050012 Si / 1000 Ang^3
#
#
#
# Elastic Constant Matrix: (Units=GPa)
#
#
# Indices 1 2 3 4 5 6 
#
# 1 169.2656 37.8924 66.2224 0.0000 -6.0070 0.0000
# 2 37.8924 23.1367 20.2887 0.0000 -2.0798 0.0000
# 3 66.2224 20.2887 69.3189 0.0000 7.6791 0.0000
# 4 0.0000 0.0000 0.0000 -10.8068 0.0000 6.9423
# 5 -6.0070 -2.0798 7.6791 0.0000 21.2069 0.0000
# 6 0.0000 0.0000 0.0000 6.9423 0.0000 20.3932
#
#
#
# Elastic Compliance Matrix: (Units=1/GPa)
#
#
# Indices 1 2 3 4 5 6 
#
# 1 0.012171 -0.011718 -0.008805 0.000000 0.005487 0.000000
# 2 -0.011718 0.072713 -0.010949 0.000000 0.007776 0.000000
# 3 -0.008805 -0.010949 0.027542 0.000000 -0.013541 0.000000
# 4 0.000000 0.000000 0.000000 -0.075930 0.000000 0.025848
# 5 0.005487 0.007776 -0.013541 0.000000 0.054374 0.000000
# 6 0.000000 0.000000 0.000000 0.025848 0.000000 0.040237
#
#
# Mechanical properties :
#
#
# Convention : Reuss Voigt Hill
#
# Bulk Modulus (GPa) = 20.20936 56.72536 38.46736
# Shear Modulus (GPa) = 23.74781 15.31318 19.53050
#
# Velocity S-wave (km/s) = 3.85075 3.09219 3.49213
# Velocity P-wave (km/s) = 5.69121 6.94035 6.34658
#
# Compressibility (1/GPa) = 0.04948202
#
# Stress axis : x y z
#
# Youngs Moduli (GPa) = 82.16434 13.75268 36.30770
#
# Poissons Ratio (x) = 0.16116 0.31969
# Poissons Ratio (y) = 0.96283 0.39752
# Poissons Ratio (z) = 0.72346 0.15057
#
# Static dielectric constant tensor:
#      x y z
#    x 1.560090 0.000000 -0.007360 
#    y 0.000000 1.542840 0.000000 
#    z -0.007360 0.000000 1.500770 
# 
# From -- ./inp_files/56478.got.cif
#   From: 2010.05.17/outbox.cif.g08.bks.cpg/sg10_29_cif.got.tgz:56478.got - 2010.06.03 11:33:40.
