data_PCOD9142636
_publ_section_title
;
Structure prediction by ZEFSAII (Michael W. Deem and Ramdas Pophale) SiO2 
 PCOD9142636
Probable space group: P 2/M
;
_chemical_formula_sum "Si O2"
_cell_formula_units_Z 30
_cell_length_a 24.103969
_cell_length_b 12.416612
_cell_length_c 5.304519
_cell_angle_alpha 90.000000
_cell_angle_beta 86.043261
_cell_angle_gamma 90.000000
_cell_volume 1583.803415
_symmetry_space_group_name_H-M "P 2/M"
_symmetry_group_IT_number 10
_symmetry_cell_setting 'monoclinic'
loop_
_space_group_symop_operation_xyz
x,y,z
-x,y,-z
-x,-y,-z
x,-y,z
loop_
_atom_site_type_symbol
_atom_site_label
_atom_site_fract_x
_atom_site_fract_y
_atom_site_fract_z
Si Si1 0.251376 0.724210 0.982116
Si Si2 0.062882 0.370226 0.452989
Si Si3 0.296000 0.377866 0.462777
Si Si4 0.449269 0.880010 0.215212
Si Si5 0.591895 0.700357 0.451793
Si Si6 0.462916 0.500000 0.763241
Si Si7 0.654579 0.879794 0.116168
Si Si8 0.868082 0.630836 0.070166
O O1 0.263595 0.688454 0.263280
O O2 0.187226 0.701461 0.945879
O O3 0.281897 0.653569 0.754616
O O4 0.283137 0.838183 0.951963
O O5 0.059180 0.500000 0.463462
O O6 0.091377 0.345742 0.177584
O O7 0.000000 0.327892 0.500000
O O8 0.101484 0.341563 0.677950
O O9 0.280005 0.500000 0.429149
O O10 0.361802 0.361304 0.397950
O O11 0.451236 0.768895 0.369654
O O12 0.453128 0.000000 0.337951
O O13 0.500000 0.877049 0.000000
O O14 0.388326 0.878395 0.104570
O O15 0.570883 0.611444 0.260169
O O16 0.625416 0.796739 0.311085
O O17 0.500000 0.500000 0.500000
O O18 0.500000 0.500000 0.000000
O O19 0.655351 0.000000 0.218261
O O20 0.855638 0.500000 0.072028
#
# Coordination Sequence:
#
# PCOD9142636 Si02
#       8
#     4   4   4   4   4   2   4   4
#     4  11  22  36  57  85 119 155 199 248 300 354
#     4   9  17  29  47  73 112 161 205 242 286 336
#     4  11  21  37  58  82 112 154 192 234 287 358
#     4  10  22  41  68  94 117 151 201 258 312 369
#     4  11  24  43  64  87 120 155 195 239 306 373
#     4  12  32  46  66  92 126 158 190 242 299 376
#     4  10  23  41  63  89 119 153 199 253 309 367
#     4  10  18  29  47  76 115 156 198 246 287 347
#
# _framework density 18.941744
#
# number of rings (size 3 to 8) (size 9 to 14) (size 15 to 20)
#    0.000    1.600    2.000    2.800    3.733    2.667 
#    0.000    2.000    0.000    1.200    0.000    0.000 
#    0.000    3.200    0.000    0.000    0.000    0.000 
#
# Total GULP energy -167337.430572 kJ/mol
# GULP energy per Si atom -5577.914352 kJ/mol
# Density = 1.889863 g / cm^3
# Si number density = 18.941744 Si / 1000 Ang^3
#
#
#
# Elastic Constant Matrix: (Units=GPa)
#
#
# Indices 1 2 3 4 5 6 
#
# 1 83.3700 19.8382 -1.2463 0.0000 2.1860 0.0000
# 2 19.8382 86.2505 0.3894 0.0000 -7.4464 0.0000
# 3 -1.2463 0.3894 36.2310 0.0000 2.4605 0.0000
# 4 0.0000 0.0000 0.0000 2.6098 0.0000 -6.3841
# 5 2.1860 -7.4464 2.4605 0.0000 25.0397 0.0000
# 6 0.0000 0.0000 0.0000 -6.3841 0.0000 21.3808
#
#
#
# Elastic Compliance Matrix: (Units=1/GPa)
#
#
# Indices 1 2 3 4 5 6 
#
# 1 0.012804 -0.003130 0.000617 0.000000 -0.002109 0.000000
# 2 -0.003130 0.012670 -0.000522 0.000000 0.004092 0.000000
# 3 0.000617 -0.000522 0.027827 0.000000 -0.002944 0.000000
# 4 0.000000 0.000000 0.000000 1.421249 0.000000 0.424369
# 5 -0.002109 0.004092 -0.002944 0.000000 0.041627 0.000000
# 6 0.000000 0.000000 0.000000 0.424369 0.000000 0.173483
#
#
# Mechanical properties :
#
#
# Convention : Reuss Voigt Hill
#
# Bulk Modulus (GPa) = 21.17189 27.09046 24.13118
# Shear Modulus (GPa) = 2.92146 22.26407 12.59277
#
# Velocity S-wave (km/s) = 1.24326 3.43213 2.58120
# Velocity P-wave (km/s) = 3.64178 5.48079 4.65304
#
# Compressibility (1/GPa) = 0.04723244
#
# Stress axis : x y z
#
# Youngs Moduli (GPa) = 78.10044 78.92848 35.93583
#
# Poissons Ratio (x) = 0.24704 -0.02218
# Poissons Ratio (y) = 0.24445 0.01875
# Poissons Ratio (z) = -0.04821 0.04118
#
# Static dielectric constant tensor:
#      x y z
#    x 1.709440 0.000000 0.017120 
#    y 0.000000 1.670540 0.000000 
#    z 0.017120 0.000000 1.751740 
# 
# From -- ./inp_files/12439.got.cif
#   From: 2010.05.17/outbox.cif.g08.bks.cpg/sg10_7_cif.got.tgz:12439.got - 2010.06.03 11:33:40.
