data_PCOD9142047
_publ_section_title
;
Structure prediction by ZEFSAII (Michael W. Deem and Ramdas Pophale) SiO2 
 PCOD9142047
Probable space group: P 2/M
;
_chemical_formula_sum "Si O2"
_cell_formula_units_Z 24
_cell_length_a 12.009941
_cell_length_b 14.795971
_cell_length_c 9.430958
_cell_angle_alpha 90.000000
_cell_angle_beta 35.043397
_cell_angle_gamma 90.000000
_cell_volume 962.278670
_symmetry_space_group_name_H-M "P 2/M"
_symmetry_group_IT_number 10
_symmetry_cell_setting 'monoclinic'
loop_
_space_group_symop_operation_xyz
x,y,z
-x,y,-z
-x,-y,-z
x,-y,z
loop_
_atom_site_type_symbol
_atom_site_label
_atom_site_fract_x
_atom_site_fract_y
_atom_site_fract_z
Si Si1 0.165177 0.142431 0.683761
Si Si2 0.266885 0.745731 0.051202
Si Si3 0.223774 0.397564 0.320234
Si Si4 0.700439 0.901078 0.174762
Si Si5 0.731636 0.102454 0.743502
Si Si6 0.069897 0.657562 0.778727
O O1 0.225035 0.126332 0.461931
O O2 0.167958 0.248119 0.719348
O O3 0.939610 0.110527 0.921927
O O4 0.312357 0.097784 0.641345
O O5 0.331608 0.673004 0.102480
O O6 0.377907 0.812398 0.825533
O O7 0.180404 0.824903 0.240923
O O8 0.123097 0.689007 0.102703
O O9 0.286171 0.500000 0.228674
O O10 0.204850 0.382680 0.511193
O O11 0.000000 0.389944 0.500000
O O12 0.654889 0.000000 0.160699
O O13 0.788566 0.000000 0.714410
O O14 0.500000 0.110384 0.000000
O O15 0.000000 0.611610 0.000000
#
# Coordination Sequence:
#
# PCOD9142047 Si02
#       6
#     4   4   4   4   4   4
#     4  10  17  32  49  74 106 135 168 215 261 309
#     4  10  19  32  52  73 105 134 174 215 258 314
#     4   9  18  31  50  78 110 139 166 209 272 330
#     4  10  18  28  50  79 104 133 167 212 266 313
#     4  11  23  36  50  71 104 147 187 219 253 303
#     4  10  17  31  53  79 107 134 167 212 269 322
#
# _framework density 24.940801
#
# number of rings (size 3 to 8) (size 9 to 14) (size 15 to 20)
#    0.000    2.000    5.000    2.500    2.333    0.333 
#    0.000    3.333    0.000    3.500    0.000    0.000 
#    0.000    2.667    0.000    0.000    0.000    0.000 
#
# Total GULP energy -133898.345170 kJ/mol
# GULP energy per Si atom -5579.097715 kJ/mol
# Density = 2.488403 g / cm^3
# Si number density = 24.940801 Si / 1000 Ang^3
#
#
#
# Elastic Constant Matrix: (Units=GPa)
#
#
# Indices 1 2 3 4 5 6 
#
# 1 116.6698 25.1655 34.8963 0.0000 25.5676 0.0000
# 2 25.1655 151.5794 32.2327 0.0000 27.4126 0.0000
# 3 34.8963 32.2327 130.6469 0.0000 45.2785 0.0000
# 4 0.0000 0.0000 0.0000 31.1009 0.0000 18.8635
# 5 25.5676 27.4126 45.2785 0.0000 60.7552 0.0000
# 6 0.0000 0.0000 0.0000 18.8635 0.0000 5.4624
#
#
#
# Elastic Compliance Matrix: (Units=1/GPa)
#
#
# Indices 1 2 3 4 5 6 
#
# 1 0.009773 -0.000830 -0.001497 0.000000 -0.002623 0.000000
# 2 -0.000830 0.007329 -0.000757 0.000000 -0.002393 0.000000
# 3 -0.001497 -0.000757 0.010657 0.000000 -0.006971 0.000000
# 4 0.000000 0.000000 0.000000 -0.029376 0.000000 0.101446
# 5 -0.002623 -0.002393 -0.006971 0.000000 0.023838 0.000000
# 6 0.000000 0.000000 0.000000 0.101446 0.000000 -0.167258
#
#
# Mechanical properties :
#
#
# Convention : Reuss Voigt Hill
#
# Bulk Modulus (GPa) = 46.31567 64.83168 55.57368
# Shear Modulus (GPa) = -37.97246 39.90381 0.96567
#
# Velocity S-wave (km/s) = -3.90616 4.00427 0.62292
# Velocity P-wave (km/s) = 1.31665 6.88691 4.77996
#
# Compressibility (1/GPa) = 0.02159096
#
# Stress axis : x y z
#
# Youngs Moduli (GPa) = 102.32683 136.44837 93.83943
#
# Poissons Ratio (x) = 0.11324 0.14044
# Poissons Ratio (y) = 0.08492 0.07104
# Poissons Ratio (z) = 0.15314 0.10329
#
# Static dielectric constant tensor:
#      x y z
#    x 2.045320 0.000000 -0.020910 
#    y 0.000000 1.939360 0.000000 
#    z -0.020910 0.000000 2.121120 
# 
# From -- ./inp_files/29239.got.cif
#   From: 2010.05.17/outbox.cif.g08.bks.cpg/sg10_15_cif.got.tgz:29239.got - 2010.06.03 11:33:40.
