data_PCOD9142299
_publ_section_title
;
Structure prediction by ZEFSAII (Michael W. Deem and Ramdas Pophale) SiO2 
 PCOD9142299
Probable space group: P 2/M
;
_chemical_formula_sum "Si O2"
_cell_formula_units_Z 28
_cell_length_a 14.571949
_cell_length_b 7.896149
_cell_length_c 14.325731
_cell_angle_alpha 90.000000
_cell_angle_beta 120.815761
_cell_angle_gamma 90.000000
_cell_volume 1415.635415
_symmetry_space_group_name_H-M "P 2/M"
_symmetry_group_IT_number 10
_symmetry_cell_setting 'monoclinic'
loop_
_space_group_symop_operation_xyz
x,y,z
-x,y,-z
-x,-y,-z
x,-y,z
loop_
_atom_site_type_symbol
_atom_site_label
_atom_site_fract_x
_atom_site_fract_y
_atom_site_fract_z
Si Si1 0.659852 0.296789 0.632693
Si Si2 0.452109 0.706463 0.619042
Si Si3 0.129289 0.797435 0.160212
Si Si4 0.843196 0.196130 0.229896
Si Si5 0.738993 0.701985 0.367563
Si Si6 0.056119 0.693408 0.427288
Si Si7 0.885434 0.207821 0.053952
O O1 0.656839 0.500000 0.630515
O O2 0.614365 0.244667 0.508484
O O3 0.573138 0.234880 0.664391
O O4 0.779276 0.246776 0.719522
O O5 0.457037 0.500000 0.624612
O O6 0.379024 0.763584 0.667213
O O7 0.009836 0.737404 0.120878
O O8 0.121997 0.000000 0.152405
O O9 0.157914 0.738799 0.069782
O O10 0.778476 0.271528 0.282885
O O11 0.828304 0.268540 0.118345
O O12 0.970004 0.212724 0.319096
O O13 0.814850 0.000000 0.213999
O O14 0.741649 0.500000 0.384302
O O15 0.828747 0.770183 0.487076
O O16 0.067214 0.500000 0.398065
O O17 0.000000 0.684562 0.500000
O O18 0.883741 0.000000 0.056034
#
# Coordination Sequence:
#
# PCOD9142299 Si02
#       7
#     4   4   4   4   4   4   4
#     4   9  17  31  51  73  92 116 152 193 230 266
#     4   8  16  31  49  68  95 126 150 177 229 286
#     4   9  17  33  52  67  89 123 155 186 229 279
#     4  10  18  28  43  65  91 118 151 190 224 261
#     4   9  17  30  45  62  89 126 155 176 216 276
#     4   8  15  26  39  58  86 119 152 177 211 264
#     4   8  17  32  48  66  92 126 155 179 228 287
#
# _framework density 19.779105000000001
#
# number of rings (size 3 to 8) (size 9 to 14) (size 15 to 20)
#    0.000    3.286    0.000    3.000    2.000    2.571 
#    0.000    6.429    0.000    0.857    0.000    6.000 
#    0.000    0.000    0.000    0.000    0.000    0.000 
#
# Total GULP energy -155919.366626 kJ/mol
# GULP energy per Si atom -5568.548808 kJ/mol
# Density = 1.973409 g / cm^3
# Si number density = 19.779105 Si / 1000 Ang^3
#
#
#
# Elastic Constant Matrix: (Units=GPa)
#
#
# Indices 1 2 3 4 5 6 
#
# 1 56.3395 3.3160 -4.0880 0.0000 -13.7521 0.0000
# 2 3.3160 11.4929 -4.8853 0.0000 -0.0995 0.0000
# 3 -4.0880 -4.8853 34.1143 0.0000 -6.8765 0.0000
# 4 0.0000 0.0000 0.0000 -7.9787 0.0000 -8.6967
# 5 -13.7521 -0.0995 -6.8765 0.0000 27.9207 0.0000
# 6 0.0000 0.0000 0.0000 -8.6967 0.0000 4.6692
#
#
#
# Elastic Compliance Matrix: (Units=1/GPa)
#
#
# Indices 1 2 3 4 5 6 
#
# 1 0.021089 -0.004189 0.004228 0.000000 0.011413 0.000000
# 2 -0.004189 0.093864 0.013249 0.000000 0.001535 0.000000
# 3 0.004228 0.013249 0.033826 0.000000 0.010461 0.000000
# 4 0.000000 0.000000 0.000000 -0.041362 0.000000 -0.077039
# 5 0.011413 0.001535 0.010461 0.000000 0.044019 0.000000
# 6 0.000000 0.000000 0.000000 -0.077039 0.000000 0.070679
#
#
# Mechanical properties :
#
#
# Convention : Reuss Voigt Hill
#
# Bulk Modulus (GPa) = 5.70272 10.07024 7.88648
# Shear Modulus (GPa) = 19.68590 12.09586 15.89088
#
# Velocity S-wave (km/s) = 3.15824 2.47563 2.83754
# Velocity P-wave (km/s) = 4.02353 3.64336 3.83815
#
# Compressibility (1/GPa) = 0.17535479
#
# Stress axis : x y z
#
# Youngs Moduli (GPa) = 47.41850 10.65373 29.56332
#
# Poissons Ratio (x) = 0.04463 -0.12499
# Poissons Ratio (y) = 0.19862 -0.39168
# Poissons Ratio (z) = -0.20048 -0.14115
#
# Static dielectric constant tensor:
#      x y z
#    x 1.753090 0.000000 -0.019620 
#    y 0.000000 1.719510 0.000000 
#    z -0.019620 0.000000 1.708550 
# 
# From -- ./inp_files/66248.got.cif
#   From: 2010.05.17/outbox.cif.g08.bks.cpg/sg10_34_cif.got.tgz:66248.got - 2010.06.03 11:33:40.
