data_PCOD9142915
_publ_section_title
;
Structure prediction by ZEFSAII (Michael W. Deem and Ramdas Pophale) SiO2 
 PCOD9142915
Probable space group: P 2/M
;
_chemical_formula_sum "Si O2"
_cell_formula_units_Z 32
_cell_length_a 21.751534
_cell_length_b 13.969989
_cell_length_c 18.975049
_cell_angle_alpha 90.000000
_cell_angle_beta 19.356061
_cell_angle_gamma 90.000000
_cell_volume 1911.044330
_symmetry_space_group_name_H-M "P 2/M"
_symmetry_group_IT_number 10
_symmetry_cell_setting 'monoclinic'
loop_
_space_group_symop_operation_xyz
x,y,z
-x,y,-z
-x,-y,-z
x,-y,z
loop_
_atom_site_type_symbol
_atom_site_label
_atom_site_fract_x
_atom_site_fract_y
_atom_site_fract_z
Si Si1 0.414632 0.611150 0.942235
Si Si2 0.217801 0.290606 0.446933
Si Si3 0.315979 0.886488 0.546893
Si Si4 0.066517 0.888588 0.678319
Si Si5 0.203964 0.610482 0.313054
Si Si6 0.274287 0.108233 0.747066
Si Si7 0.857963 0.389084 0.893412
Si Si8 0.283224 0.793024 0.881024
O O1 0.477368 0.500000 0.872158
O O2 0.343818 0.630988 0.097869
O O3 0.248346 0.619455 0.066505
O O4 0.579710 0.681872 0.744338
O O5 0.160908 0.181273 0.519892
O O6 0.215784 0.323173 0.368003
O O7 0.065116 0.352042 0.654675
O O8 0.180422 0.872770 0.627872
O O9 0.219708 0.865364 0.726463
O O10 0.504879 0.825868 0.336431
O O11 0.366027 0.000000 0.495918
O O12 0.074101 0.000000 0.652371
O O13 0.856488 0.854406 0.919141
O O14 0.233586 0.500000 0.303688
O O15 0.000000 0.616030 0.500000
O O16 0.500000 0.104206 0.500000
O O17 0.231342 0.179301 0.856887
O O18 0.207668 0.000000 0.835959
O O19 0.854386 0.500000 0.918513
O O20 0.757417 0.316656 0.055575
#
# Coordination Sequence:
#
# PCOD9142915 Si02
#       8
#     4   4   4   4   4   4   4   4
#     4  10  19  31  51  75  97 122 154 194 241 285
#     4  11  20  32  50  72  98 128 155 191 241 285
#     4   9  17  31  50  72  98 121 153 203 246 279
#     4  10  21  33  48  72  97 126 162 195 230 281
#     4  10  18  31  52  76  99 120 150 198 244 280
#     4   8  14  26  47  72  94 119 153 197 244 284
#     4  10  20  32  46  70 100 127 159 196 232 280
#     4  10  18  30  49  71  96 129 158 193 241 285
#
# _framework density 16.744769999999999
#
# number of rings (size 3 to 8) (size 9 to 14) (size 15 to 20)
#    0.000    2.250    1.250    4.125    0.000    1.500 
#    0.000    1.875    0.000    5.250    0.000    3.500 
#    0.000    0.000    0.000    0.000    0.000    0.000 
#
# Total GULP energy -178543.398354 kJ/mol
# GULP energy per Si atom -5579.481199 kJ/mol
# Density = 1.670666 g / cm^3
# Si number density = 16.744770 Si / 1000 Ang^3
#
#
#
# Elastic Constant Matrix: (Units=GPa)
#
#
# Indices 1 2 3 4 5 6 
#
# 1 46.4447 29.4508 -2.0197 0.0000 13.6049 0.0000
# 2 29.4508 111.5765 35.4473 0.0000 18.1064 0.0000
# 3 -2.0197 35.4473 58.9731 0.0000 3.7164 0.0000
# 4 0.0000 0.0000 0.0000 21.1103 0.0000 6.2620
# 5 13.6049 18.1064 3.7164 0.0000 25.5502 0.0000
# 6 0.0000 0.0000 0.0000 6.2620 0.0000 12.5128
#
#
#
# Elastic Compliance Matrix: (Units=1/GPa)
#
#
# Indices 1 2 3 4 5 6 
#
# 1 0.030422 -0.008354 0.006773 0.000000 -0.011264 0.000000
# 2 -0.008354 0.014744 -0.008852 0.000000 -0.004713 0.000000
# 3 0.006773 -0.008852 0.022548 0.000000 -0.000613 0.000000
# 4 0.000000 0.000000 0.000000 0.055628 0.000000 -0.027839
# 5 -0.011264 -0.004713 -0.000613 0.000000 0.048566 0.000000
# 6 0.000000 0.000000 0.000000 -0.027839 0.000000 0.093850
#
#
# Mechanical properties :
#
#
# Convention : Reuss Voigt Hill
#
# Bulk Modulus (GPa) = 21.34476 38.08346 29.71411
# Shear Modulus (GPa) = 16.54314 22.10906 19.32610
#
# Velocity S-wave (km/s) = 3.14659 3.63761 3.40097
# Velocity P-wave (km/s) = 5.09668 6.35892 5.76246
#
# Compressibility (1/GPa) = 0.04684991
#
# Stress axis : x y z
#
# Youngs Moduli (GPa) = 32.87062 67.82251 44.34995
#
# Poissons Ratio (x) = 0.56658 -0.30038
# Poissons Ratio (y) = 0.27459 0.39257
# Poissons Ratio (z) = -0.22263 0.60033
#
# Static dielectric constant tensor:
#      x y z
#    x 1.585570 0.000000 -0.020170 
#    y 0.000000 1.542240 0.000000 
#    z -0.020170 0.000000 1.588730 
# 
# From -- ./inp_files/79687.got.cif
#   From: 2010.05.17/outbox.cif.g08.bks.cpg/sg10_40_cif.got.tgz:79687.got - 2010.06.03 11:33:40.
