data_PCOD9142518
_publ_section_title
;
Structure prediction by ZEFSAII (Michael W. Deem and Ramdas Pophale) SiO2 
 PCOD9142518
Probable space group: P 2/M
;
_chemical_formula_sum "Si O2"
_cell_formula_units_Z 32
_cell_length_a 21.119509
_cell_length_b 7.565321
_cell_length_c 19.494025
_cell_angle_alpha 90.000000
_cell_angle_beta 151.329655
_cell_angle_gamma 90.000000
_cell_volume 1494.325746
_symmetry_space_group_name_H-M "P 2/M"
_symmetry_group_IT_number 10
_symmetry_cell_setting 'monoclinic'
loop_
_space_group_symop_operation_xyz
x,y,z
-x,y,-z
-x,-y,-z
x,-y,z
loop_
_atom_site_type_symbol
_atom_site_label
_atom_site_fract_x
_atom_site_fract_y
_atom_site_fract_z
Si Si1 0.518031 0.715878 0.836060
Si Si2 0.789803 0.699126 0.832955
Si Si3 0.012022 0.207140 0.773216
Si Si4 0.299054 0.285200 0.110117
Si Si5 0.933105 0.793768 0.840465
Si Si6 0.995607 0.701518 0.387894
Si Si7 0.703332 0.716110 0.137928
Si Si8 0.278806 0.716201 0.693670
O O1 0.519022 0.500000 0.835682
O O2 0.580947 0.773742 0.824031
O O3 0.613299 0.772718 0.989139
O O4 0.372611 0.772906 0.720699
O O5 0.744051 0.500000 0.778548
O O6 0.813559 0.777852 0.780233
O O7 0.705747 0.779882 0.815604
O O8 0.937888 0.699240 0.006131
O O9 0.920062 0.265692 0.749568
O O10 0.991271 0.301014 0.681784
O O11 0.162217 0.234068 0.942432
O O12 0.990672 0.000000 0.740326
O O13 0.299298 0.500000 0.113433
O O14 0.970568 0.000000 0.873817
O O15 0.989541 0.500000 0.407909
O O16 0.129146 0.781105 0.544792
O O17 0.853285 0.779851 0.269471
O O18 0.702512 0.500000 0.134214
O O19 0.662933 0.764549 0.176675
O O20 0.274947 0.500000 0.687997
#
# Coordination Sequence:
#
# PCOD9142518 Si02
#       8
#     4   4   4   4   4   4   4   4
#     4   9  15  25  42  66  94 120 145 180 223 263
#     4   9  15  22  36  59  87 115 141 173 216 264
#     4  10  19  29  43  63  87 118 153 185 219 264
#     4   9  16  27  43  65  91 118 148 182 221 262
#     4   9  16  25  37  56  84 114 144 179 216 256
#     4  10  18  29  45  67  92 117 147 187 227 262
#     4   9  15  25  43  66  92 118 144 182 228 266
#     4   9  17  26  41  68  95 116 146 185 224 266
#
# _framework density 21.414341
#
# number of rings (size 3 to 8) (size 9 to 14) (size 15 to 20)
#    0.000    2.750    1.250    2.625    0.000    5.000 
#    0.000    0.000    0.000    2.250    0.000    1.750 
#    0.000    7.000    0.000    0.000    0.000    0.000 
#
# Total GULP energy -178384.050706 kJ/mol
# GULP energy per Si atom -5574.501585 kJ/mol
# Density = 2.136560 g / cm^3
# Si number density = 21.414341 Si / 1000 Ang^3
#
#
#
# Elastic Constant Matrix: (Units=GPa)
#
#
# Indices 1 2 3 4 5 6 
#
# 1 124.1508 1.8346 -8.1612 0.0000 -3.1528 0.0000
# 2 1.8346 53.2128 -3.5128 0.0000 -1.3223 0.0000
# 3 -8.1612 -3.5128 19.2391 0.0000 10.3673 0.0000
# 4 0.0000 0.0000 0.0000 -0.4744 0.0000 -14.1131
# 5 -3.1528 -1.3223 10.3673 0.0000 23.3666 0.0000
# 6 0.0000 0.0000 0.0000 -14.1131 0.0000 -35.7495
#
#
#
# Elastic Compliance Matrix: (Units=1/GPa)
#
#
# Indices 1 2 3 4 5 6 
#
# 1 0.008292 -0.000048 0.003821 0.000000 -0.000579 0.000000
# 2 -0.000048 0.019029 0.003781 0.000000 -0.000607 0.000000
# 3 0.003821 0.003781 0.070830 0.000000 -0.030697 0.000000
# 4 0.000000 0.000000 0.000000 0.196188 0.000000 -0.077451
# 5 -0.000579 -0.000607 -0.030697 0.000000 0.056303 0.000000
# 6 0.000000 0.000000 0.000000 -0.077451 0.000000 0.002603
#
#
# Mechanical properties :
#
#
# Convention : Reuss Voigt Hill
#
# Bulk Modulus (GPa) = 8.82938 19.65823 14.24380
# Shear Modulus (GPa) = 13.30176 11.19134 12.24655
#
# Velocity S-wave (km/s) = 2.49501 2.28855 2.39401
# Velocity P-wave (km/s) = 3.52593 4.02282 3.78255
#
# Compressibility (1/GPa) = 0.11325829
#
# Stress axis : x y z
#
# Youngs Moduli (GPa) = 120.59985 52.55238 14.11830
#
# Poissons Ratio (x) = 0.00253 -0.05394
# Poissons Ratio (y) = 0.00580 -0.05338
# Poissons Ratio (z) = -0.46078 -0.19871
#
# Static dielectric constant tensor:
#      x y z
#    x 1.839580 0.000000 0.015440 
#    y 0.000000 1.817050 0.000000 
#    z 0.015440 0.000000 1.728600 
# 
# From -- ./inp_files/86169.got.cif
#   From: 2010.05.17/outbox.cif.g08.bks.cpg/sg10_44_cif.got.tgz:86169.got - 2010.06.03 11:33:40.
