data_PCOD9142909
_publ_section_title
;
Structure prediction by ZEFSAII (Michael W. Deem and Ramdas Pophale) SiO2 
 PCOD9142909
Probable space group: P 2/M
;
_chemical_formula_sum "Si O2"
_cell_formula_units_Z 32
_cell_length_a 16.306057
_cell_length_b 8.535609
_cell_length_c 29.095805
_cell_angle_alpha 90.000000
_cell_angle_beta 27.244898
_cell_angle_gamma 90.000000
_cell_volume 1853.892952
_symmetry_space_group_name_H-M "P 2/M"
_symmetry_group_IT_number 10
_symmetry_cell_setting 'monoclinic'
loop_
_space_group_symop_operation_xyz
x,y,z
-x,y,-z
-x,-y,-z
x,-y,z
loop_
_atom_site_type_symbol
_atom_site_label
_atom_site_fract_x
_atom_site_fract_y
_atom_site_fract_z
Si Si1 0.445727 0.687112 0.912523
Si Si2 0.203545 0.809019 0.846385
Si Si3 0.207017 0.686938 0.677993
Si Si4 0.205194 0.810870 0.950864
Si Si5 0.201712 0.189530 0.579264
Si Si6 0.793066 0.186937 0.780523
Si Si7 0.443937 0.188728 0.643147
Si Si8 0.211478 0.311652 0.116071
O O1 0.441980 0.500000 0.914685
O O2 0.345373 0.746698 0.917399
O O3 0.648009 0.744413 0.818129
O O4 0.334804 0.742858 0.012783
O O5 0.240879 0.761756 0.880344
O O6 0.345875 0.752720 0.737980
O O7 0.204575 0.000000 0.845546
O O8 0.999650 0.761715 0.935785
O O9 0.228338 0.500000 0.668456
O O10 0.252303 0.748721 0.604629
O O11 0.326216 0.762746 0.657975
O O12 0.996746 0.724553 0.790398
O O13 0.209716 0.000000 0.949962
O O14 0.352946 0.241157 0.467936
O O15 0.998263 0.241066 0.670422
O O16 0.201190 0.000000 0.581368
O O17 0.743519 0.238999 0.857039
O O18 0.789441 0.000000 0.779731
O O19 0.446503 0.000000 0.644362
O O20 0.228553 0.500000 0.111848
#
# Coordination Sequence:
#
# PCOD9142909 Si02
#       8
#     4   4   4   4   4   4   4   4
#     4  11  21  32  48  70  95 124 156 189 231 279
#     4   8  16  31  52  75  97 121 149 186 231 276
#     4  10  19  30  45  68  98 128 156 187 226 273
#     4   9  17  32  52  74  98 121 149 186 229 277
#     4   9  19  33  47  65  92 125 160 196 230 267
#     4  10  20  33  48  67  91 122 161 199 231 266
#     4  10  18  30  49  70  93 123 157 191 230 274
#     4   9  19  33  46  65  97 129 154 186 229 276
#
# _framework density 17.260974000000001
#
# number of rings (size 3 to 8) (size 9 to 14) (size 15 to 20)
#    0.000    2.500    0.000    3.375    0.000    5.500 
#    0.000    1.875    0.000    0.750    0.000    5.250 
#    0.000    0.000    0.000    0.000    0.000    0.000 
#
# Total GULP energy -178535.287622 kJ/mol
# GULP energy per Si atom -5579.227738 kJ/mol
# Density = 1.722169 g / cm^3
# Si number density = 17.260974 Si / 1000 Ang^3
#
#
#
# Elastic Constant Matrix: (Units=GPa)
#
#
# Indices 1 2 3 4 5 6 
#
# 1 129.6730 19.0906 80.9317 0.0000 -11.7474 0.0000
# 2 19.0906 7.6096 18.7903 0.0000 -2.5422 0.0000
# 3 80.9317 18.7903 136.4291 0.0000 10.7771 0.0000
# 4 0.0000 0.0000 0.0000 14.0213 0.0000 3.3775
# 5 -11.7474 -2.5422 10.7771 0.0000 16.4718 0.0000
# 6 0.0000 0.0000 0.0000 3.3775 0.0000 -96.3731
#
#
#
# Elastic Compliance Matrix: (Units=1/GPa)
#
#
# Indices 1 2 3 4 5 6 
#
# 1 0.017267 -0.014164 -0.009588 0.000000 0.016401 0.000000
# 2 -0.014164 0.262641 -0.031820 0.000000 0.051253 0.000000
# 3 -0.009588 -0.031820 0.019327 0.000000 -0.024394 0.000000
# 4 0.000000 0.000000 0.000000 0.070723 0.000000 0.002479
# 5 0.016401 0.051253 -0.024394 0.000000 0.096278 0.000000
# 6 0.000000 0.000000 0.000000 0.002479 0.000000 -0.010289
#
#
# Mechanical properties :
#
#
# Convention : Reuss Voigt Hill
#
# Bulk Modulus (GPa) = 5.31656 56.81521 31.06588
# Shear Modulus (GPa) = 7.93921 -2.84940 2.54490
#
# Velocity S-wave (km/s) = 2.14697 -1.28622 1.21555
# Velocity P-wave (km/s) = 3.03855 5.54807 4.47291
#
# Compressibility (1/GPa) = 0.18809164
#
# Stress axis : x y z
#
# Youngs Moduli (GPa) = 57.91528 3.80749 51.74135
#
# Poissons Ratio (x) = 0.05393 0.49608
# Poissons Ratio (y) = 0.82028 1.64641
# Poissons Ratio (z) = 0.55527 0.12115
#
# Static dielectric constant tensor:
#      x y z
#    x 1.552480 0.000000 -0.005870 
#    y 0.000000 1.580660 0.000000 
#    z -0.005870 0.000000 1.616190 
# 
# From -- ./inp_files/66464.got.cif
#   From: 2010.05.17/outbox.cif.g08.bks.cpg/sg10_34_cif.got.tgz:66464.got - 2010.06.03 11:33:40.
