data_PCOD9142252
_publ_section_title
;
Structure prediction by ZEFSAII (Michael W. Deem and Ramdas Pophale) SiO2 
 PCOD9142252
Probable space group: P 2/M
;
_chemical_formula_sum "Si O2"
_cell_formula_units_Z 24
_cell_length_a 21.666421
_cell_length_b 7.544034
_cell_length_c 12.316610
_cell_angle_alpha 90.000000
_cell_angle_beta 38.709783
_cell_angle_gamma 90.000000
_cell_volume 1258.992512
_symmetry_space_group_name_H-M "P 2/M"
_symmetry_group_IT_number 10
_symmetry_cell_setting 'monoclinic'
loop_
_space_group_symop_operation_xyz
x,y,z
-x,y,-z
-x,-y,-z
x,-y,z
loop_
_atom_site_type_symbol
_atom_site_label
_atom_site_fract_x
_atom_site_fract_y
_atom_site_fract_z
Si Si1 0.389720 0.290175 0.123912
Si Si2 0.638299 0.214063 0.088179
Si Si3 0.738625 0.216400 0.157748
Si Si4 0.578705 0.785020 0.551062
Si Si5 0.262867 0.703295 0.488839
Si Si6 0.893596 0.794300 0.119136
O O1 0.394023 0.500000 0.142950
O O2 0.303665 0.217632 0.320529
O O3 0.500000 0.218746 0.000000
O O4 0.362420 0.269350 0.035775
O O5 0.723644 0.273635 0.054175
O O6 0.533562 0.271367 0.282956
O O7 0.639383 0.000000 0.086752
O O8 0.639639 0.264537 0.360523
O O9 0.829937 0.281307 0.105803
O O10 0.742920 0.000000 0.152684
O O11 0.641146 0.712288 0.565785
O O12 0.580778 0.000000 0.553894
O O13 0.232032 0.500000 0.514765
O O14 0.176530 0.789295 0.678601
O O15 0.910824 0.000000 0.066867
O O16 0.000000 0.713959 0.000000
#
# Coordination Sequence:
#
# PCOD9142252 Si02
#       6
#     4   4   4   4   4   4
#     4  10  20  33  45  62  97 137 165 193 229 269
#     4  10  18  27  45  69  94 127 162 194 227 274
#     4   8  15  28  45  69  97 120 149 192 242 285
#     4   9  16  27  44  66  95 127 157 190 231 278
#     4  10  19  31  48  69  95 127 161 196 234 273
#     4   9  18  34  56  76  94 118 150 196 249 291
#
# _framework density 19.062861000000002
#
# number of rings (size 3 to 8) (size 9 to 14) (size 15 to 20)
#    0.000    2.667    1.667    2.000    0.000    4.000 
#    0.000    3.333    0.000    6.000    0.000    7.000 
#    0.000    0.000    0.000    0.000    0.000    0.000 
#
# Total GULP energy -133739.651111 kJ/mol
# GULP energy per Si atom -5572.485463 kJ/mol
# Density = 1.901947 g / cm^3
# Si number density = 19.062861 Si / 1000 Ang^3
#
#
#
# Elastic Constant Matrix: (Units=GPa)
#
#
# Indices 1 2 3 4 5 6 
#
# 1 141.7734 -4.1778 84.6702 0.0000 14.7067 0.0000
# 2 -4.1778 40.5928 -3.1291 0.0000 -2.3669 0.0000
# 3 84.6702 -3.1291 71.3011 0.0000 -0.0616 0.0000
# 4 0.0000 0.0000 0.0000 9.2677 0.0000 11.5798
# 5 14.7067 -2.3669 -0.0616 0.0000 30.5234 0.0000
# 6 0.0000 0.0000 0.0000 11.5798 0.0000 16.8154
#
#
#
# Elastic Compliance Matrix: (Units=1/GPa)
#
#
# Indices 1 2 3 4 5 6 
#
# 1 0.029361 -0.000500 -0.034900 0.000000 -0.014256 0.000000
# 2 -0.000500 0.024840 0.001685 0.000000 0.002170 0.000000
# 3 -0.034900 0.001685 0.055558 0.000000 0.017058 0.000000
# 4 0.000000 0.000000 0.000000 0.773126 0.000000 -0.532405
# 5 -0.014256 0.002170 0.017058 0.000000 0.039833 0.000000
# 6 0.000000 0.000000 0.000000 -0.532405 0.000000 0.426105
#
#
# Mechanical properties :
#
#
# Convention : Reuss Voigt Hill
#
# Bulk Modulus (GPa) = 23.62419 45.37707 34.50063
# Shear Modulus (GPa) = 3.49562 23.07492 13.28527
#
# Velocity S-wave (km/s) = 1.35562 3.48295 2.64279
# Velocity P-wave (km/s) = 3.85616 6.32694 5.23928
#
# Compressibility (1/GPa) = 0.04232950
#
# Stress axis : x y z
#
# Youngs Moduli (GPa) = 34.05919 40.25774 17.99933
#
# Poissons Ratio (x) = 0.02012 0.62818
# Poissons Ratio (y) = 0.01702 -0.03034
# Poissons Ratio (z) = 1.18867 -0.06785
#
# Static dielectric constant tensor:
#      x y z
#    x 1.683120 0.000000 0.013470 
#    y 0.000000 1.733560 0.000000 
#    z 0.013470 0.000000 1.663310 
# 
# From -- ./inp_files/48434.got.cif
#   From: 2010.05.17/outbox.cif.g08.bks.cpg/sg10_25_cif.got.tgz:48434.got - 2010.06.03 11:33:40.
