data_PCOD9142899
_publ_section_title
;
Structure prediction by ZEFSAII (Michael W. Deem and Ramdas Pophale) SiO2 
 PCOD9142899
Probable space group: P 2/M
;
_chemical_formula_sum "Si O2"
_cell_formula_units_Z 24
_cell_length_a 12.548313
_cell_length_b 7.813618
_cell_length_c 22.459904
_cell_angle_alpha 90.000000
_cell_angle_beta 137.706890
_cell_angle_gamma 90.000000
_cell_volume 1481.873567
_symmetry_space_group_name_H-M "P 2/M"
_symmetry_group_IT_number 10
_symmetry_cell_setting 'monoclinic'
loop_
_space_group_symop_operation_xyz
x,y,z
-x,y,-z
-x,-y,-z
x,-y,z
loop_
_atom_site_type_symbol
_atom_site_label
_atom_site_fract_x
_atom_site_fract_y
_atom_site_fract_z
Si Si1 0.758834 0.000000 0.941929
Si Si2 0.154011 0.707331 0.486915
Si Si3 0.802488 0.291869 0.358198
Si Si4 0.459619 0.299565 0.182073
Si Si5 0.094723 0.000000 0.131555
Si Si6 0.303664 0.309928 0.248370
Si Si7 0.533420 0.798690 0.447452
O O1 0.650631 0.830477 0.899598
O O2 0.836147 0.000000 0.907493
O O3 0.905984 0.000000 0.047660
O O4 0.159180 0.500000 0.487775
O O5 0.198996 0.761496 0.572998
O O6 0.284332 0.774612 0.495690
O O7 0.971944 0.761062 0.401790
O O8 0.800957 0.500000 0.358475
O O9 0.642529 0.240906 0.258951
O O10 0.448063 0.500000 0.159405
O O11 0.401071 0.291326 0.226802
O O12 0.169392 0.833705 0.193147
O O13 0.234551 0.500000 0.220287
O O14 0.425033 0.288676 0.352747
O O15 0.500000 0.733693 0.500000
O O16 0.494864 0.000000 0.429916
#
# Coordination Sequence:
#
# PCOD9142899 Si02
#       7
#     2   4   4   4   2   4   4
#     4   9  18  28  44  64  90 125 149 185 238 278
#     4   9  16  28  45  64  87 121 160 190 227 270
#     4   8  14  26  44  65  92 120 150 192 228 268
#     4   9  16  27  44  67  94 121 153 188 226 278
#     4   9  18  32  43  63  93 116 154 198 226 274
#     4  10  18  30  49  65  86 124 159 189 230 276
#     4  11  22  33  44  63  95 128 161 201 231 261
#
# _framework density 16.195715
#
# number of rings (size 3 to 8) (size 9 to 14) (size 15 to 20)
#    0.000    2.667    2.500    1.500    0.000    2.000 
#    1.500    4.167    0.000    0.000    0.000    0.000 
#    0.000    2.667    0.000    7.500    0.000    0.333 
#
# Total GULP energy -133740.115186 kJ/mol
# GULP energy per Si atom -5572.504799 kJ/mol
# Density = 1.615885 g / cm^3
# Si number density = 16.195715 Si / 1000 Ang^3
#
#
#
# Elastic Constant Matrix: (Units=GPa)
#
#
# Indices 1 2 3 4 5 6 
#
# 1 69.4651 17.2071 39.9526 0.0000 15.2024 0.0000
# 2 17.2071 75.9625 46.6647 0.0000 14.4448 0.0000
# 3 39.9526 46.6647 91.6591 0.0000 36.4195 0.0000
# 4 0.0000 0.0000 0.0000 19.6331 0.0000 1.3861
# 5 15.2024 14.4448 36.4195 0.0000 26.2385 0.0000
# 6 0.0000 0.0000 0.0000 1.3861 0.0000 17.3292
#
#
#
# Elastic Compliance Matrix: (Units=1/GPa)
#
#
# Indices 1 2 3 4 5 6 
#
# 1 0.019309 0.001280 -0.009684 0.000000 0.001549 0.000000
# 2 0.001280 0.019778 -0.013392 0.000000 0.006959 0.000000
# 3 -0.009684 -0.013392 0.037438 0.000000 -0.038981 0.000000
# 4 0.000000 0.000000 0.000000 0.051224 0.000000 -0.004097
# 5 0.001549 0.006959 -0.038981 0.000000 0.087489 0.000000
# 6 0.000000 0.000000 0.000000 -0.004097 0.000000 0.058034
#
#
# Mechanical properties :
#
#
# Convention : Reuss Voigt Hill
#
# Bulk Modulus (GPa) = 30.36419 49.41503 39.88961
# Shear Modulus (GPa) = 15.25127 21.52432 18.38779
#
# Velocity S-wave (km/s) = 3.07202 3.64952 3.37315
# Velocity P-wave (km/s) = 5.60108 6.95241 6.31301
#
# Compressibility (1/GPa) = 0.03293353
#
# Stress axis : x y z
#
# Youngs Moduli (GPa) = 51.78874 50.56068 26.71101
#
# Poissons Ratio (x) = -0.06474 0.25866
# Poissons Ratio (y) = -0.06631 0.35773
# Poissons Ratio (z) = 0.50151 0.67713
#
# Static dielectric constant tensor:
#      x y z
#    x 1.528910 0.000000 0.021710 
#    y 0.000000 1.576830 0.000000 
#    z 0.021710 0.000000 1.528300 
# 
# From -- ./inp_files/55061.got.cif
#   From: 2010.05.17/outbox.cif.g08.bks.cpg/sg10_28_cif.got.tgz:55061.got - 2010.06.03 11:33:40.
