data_PCOD9142464
_publ_section_title
;
Structure prediction by ZEFSAII (Michael W. Deem and Ramdas Pophale) SiO2 
 PCOD9142464
Probable space group: P 2/M
;
_chemical_formula_sum "Si O2"
_cell_formula_units_Z 32
_cell_length_a 17.497233
_cell_length_b 9.105918
_cell_length_c 19.816326
_cell_angle_alpha 90.000000
_cell_angle_beta 43.224534
_cell_angle_gamma 90.000000
_cell_volume 2162.307897
_symmetry_space_group_name_H-M "P 2/M"
_symmetry_group_IT_number 10
_symmetry_cell_setting 'monoclinic'
loop_
_space_group_symop_operation_xyz
x,y,z
-x,y,-z
-x,-y,-z
x,-y,z
loop_
_atom_site_type_symbol
_atom_site_label
_atom_site_fract_x
_atom_site_fract_y
_atom_site_fract_z
Si Si1 0.334747 0.829808 0.084410
Si Si2 0.027039 0.325074 0.141537
Si Si3 0.548628 0.824578 0.132257
Si Si4 0.892344 0.831969 0.119048
Si Si5 0.232720 0.822577 0.929733
Si Si6 0.662025 0.674419 0.777584
Si Si7 0.932370 0.828708 0.747351
Si Si8 0.079739 0.676441 0.386291
O O1 0.361834 0.731016 0.131155
O O2 0.202186 0.820363 0.157272
O O3 0.360819 0.000000 0.084295
O O4 0.397549 0.789903 0.975563
O O5 0.035357 0.500000 0.137675
O O6 0.016309 0.258660 0.223067
O O7 0.925797 0.271937 0.158812
O O8 0.139325 0.256680 0.035485
O O9 0.643633 0.783618 0.125132
O O10 0.429621 0.746811 0.211698
O O11 0.533530 0.000000 0.145077
O O12 0.793304 0.789160 0.131823
O O13 0.876803 0.000000 0.152507
O O14 0.000000 0.832444 0.000000
O O15 0.218147 0.000000 0.947898
O O16 0.652733 0.500000 0.780645
O O17 0.791127 0.715821 0.681117
O O18 0.955301 0.756982 0.659952
O O19 0.963633 0.000000 0.728883
O O20 0.076194 0.500000 0.377723
O O21 0.000000 0.712806 0.500000
#
# Coordination Sequence:
#
# PCOD9142464 Si02
#       8
#     4   4   4   4   4   4   4   4
#     4   9  17  29  43  57  80 115 148 177 211 250
#     4  11  19  26  40  62  89 116 147 184 221 257
#     4  10  18  29  43  59  84 117 150 179 212 252
#     4   8  15  27  42  56  78 114 153 186 215 250
#     4   9  17  30  43  57  81 119 157 184 215 253
#     4  10  20  30  42  63  85 108 142 179 217 258
#     4  10  18  30  47  66  87 113 150 186 216 257
#     4   9  19  36  52  65  87 115 141 177 227 272
#
# _framework density 14.799003000000001
#
# number of rings (size 3 to 8) (size 9 to 14) (size 15 to 20)
#    0.000    2.500    1.250    3.000    0.000    6.000 
#    0.000    0.000    0.000    0.000    0.000    0.000 
#    0.000    1.000    0.000   11.500    0.000    3.500 
#
# Total GULP energy -178355.209240 kJ/mol
# GULP energy per Si atom -5573.600289 kJ/mol
# Density = 1.476532 g / cm^3
# Si number density = 14.799003 Si / 1000 Ang^3
#
#
#
# Elastic Constant Matrix: (Units=GPa)
#
#
# Indices 1 2 3 4 5 6 
#
# 1 137.2995 58.2012 45.3832 0.0000 11.1284 0.0000
# 2 58.2012 59.6799 36.1546 0.0000 11.6118 0.0000
# 3 45.3832 36.1546 56.6567 0.0000 10.4175 0.0000
# 4 0.0000 0.0000 0.0000 14.9469 0.0000 -0.7046
# 5 11.1284 11.6118 10.4175 0.0000 12.0420 0.0000
# 6 0.0000 0.0000 0.0000 -0.7046 0.0000 -21.6184
#
#
#
# Elastic Compliance Matrix: (Units=1/GPa)
#
#
# Indices 1 2 3 4 5 6 
#
# 1 0.012913 -0.010533 -0.003919 0.000000 0.001613 0.000000
# 2 -0.010533 0.037852 -0.012839 0.000000 -0.015660 0.000000
# 3 -0.003919 -0.012839 0.030965 0.000000 -0.010787 0.000000
# 4 0.000000 0.000000 0.000000 0.066801 0.000000 -0.002177
# 5 0.001613 -0.015660 -0.010787 0.000000 0.105984 0.000000
# 6 0.000000 0.000000 0.000000 -0.002177 0.000000 -0.046186
#
#
# Mechanical properties :
#
#
# Convention : Reuss Voigt Hill
#
# Bulk Modulus (GPa) = 36.83206 59.23491 48.03349
# Shear Modulus (GPa) = 18.38513 8.66725 13.52619
#
# Velocity S-wave (km/s) = 3.52848 2.42268 3.02651
# Velocity P-wave (km/s) = 6.44535 6.92380 6.68885
#
# Compressibility (1/GPa) = 0.02715026
#
# Stress axis : x y z
#
# Youngs Moduli (GPa) = 77.44331 26.41842 32.29422
#
# Poissons Ratio (x) = 0.27826 0.12655
# Poissons Ratio (y) = 0.81568 0.41461
# Poissons Ratio (z) = 0.30348 0.33918
#
# Static dielectric constant tensor:
#      x y z
#    x 1.525240 0.000000 -0.000840 
#    y 0.000000 1.494110 0.000000 
#    z -0.000840 0.000000 1.455870 
# 
# From -- ./inp_files/77399.got.cif
#   From: 2010.05.17/outbox.cif.g08.bks.cpg/sg10_39_cif.got.tgz:77399.got - 2010.06.03 11:33:40.
