data_PCOD9142041
_publ_section_title
;
Structure prediction by ZEFSAII (Michael W. Deem and Ramdas Pophale) SiO2 
 PCOD9142041
Probable space group: P 2/M
;
_chemical_formula_sum "Si O2"
_cell_formula_units_Z 32
_cell_length_a 18.448298
_cell_length_b 16.244566
_cell_length_c 12.834352
_cell_angle_alpha 90.000000
_cell_angle_beta 28.154474
_cell_angle_gamma 90.000000
_cell_volume 1814.857986
_symmetry_space_group_name_H-M "P 2/M"
_symmetry_group_IT_number 10
_symmetry_cell_setting 'monoclinic'
loop_
_space_group_symop_operation_xyz
x,y,z
-x,y,-z
-x,-y,-z
x,-y,z
loop_
_atom_site_type_symbol
_atom_site_label
_atom_site_fract_x
_atom_site_fract_y
_atom_site_fract_z
Si Si1 0.397401 0.758211 0.732067
Si Si2 0.045578 0.333072 0.557660
Si Si3 0.167825 0.094926 0.060062
Si Si4 0.738633 0.904702 0.821049
Si Si5 0.734962 0.589830 0.010337
Si Si6 0.134343 0.174902 0.547926
Si Si7 0.535712 0.796576 0.778726
Si Si8 0.613612 0.369077 0.940573
O O1 0.500000 0.751666 0.500000
O O2 0.317060 0.670549 0.860057
O O3 0.500590 0.779259 0.702617
O O4 0.278003 0.834470 0.874597
O O5 0.046468 0.260312 0.639689
O O6 0.219716 0.362866 0.324298
O O7 0.000000 0.301535 0.500000
O O8 0.914703 0.397670 0.754051
O O9 0.178134 0.107256 0.173066
O O10 0.992096 0.111403 0.250761
O O11 0.213442 0.000000 0.981452
O O12 0.809451 0.853506 0.637465
O O13 0.747859 0.000000 0.782000
O O14 0.564636 0.875002 0.059524
O O15 0.710627 0.500000 0.090251
O O16 0.644453 0.592147 0.014529
O O17 0.286821 0.189906 0.421136
O O18 0.461301 0.719803 0.935860
O O19 0.500000 0.407553 0.000000
#
# Coordination Sequence:
#
# PCOD9142041 Si02
#       8
#     4   4   4   4   4   4   4   4
#     4  10  22  42  63  77  97 137 183 237 290 324
#     4  10  18  29  52  76 111 149 179 203 248 314
#     4  10  21  35  55  83 112 146 186 219 260 322
#     4  10  19  30  47  78 118 153 181 211 253 313
#     4  10  22  37  56  83 108 137 184 226 267 329
#     4  12  18  29  51  80 114 151 175 214 257 314
#     4  10  20  32  51  79 109 142 189 222 265 316
#     4  10  17  31  52  79 116 151 176 207 257 317
#
# _framework density 17.632234
#
# number of rings (size 3 to 8) (size 9 to 14) (size 15 to 20)
#    0.000    1.750    3.750    1.875    0.000    5.500 
#    0.000    0.625    0.000    0.750    0.000    0.875 
#    0.000    0.000    0.000    0.000    0.000    0.000 
#
# Total GULP energy -178460.574493 kJ/mol
# GULP energy per Si atom -5576.892953 kJ/mol
# Density = 1.759210 g / cm^3
# Si number density = 17.632234 Si / 1000 Ang^3
#
#
#
# Elastic Constant Matrix: (Units=GPa)
#
#
# Indices 1 2 3 4 5 6 
#
# 1 58.3813 27.6979 54.6314 0.0000 -24.1109 0.0000
# 2 27.6979 101.4058 50.6358 0.0000 -8.0713 0.0000
# 3 54.6314 50.6358 97.7550 0.0000 -7.9377 0.0000
# 4 0.0000 0.0000 0.0000 3.7116 0.0000 3.5258
# 5 -24.1109 -8.0713 -7.9377 0.0000 35.3999 0.0000
# 6 0.0000 0.0000 0.0000 3.5258 0.0000 -2.5290
#
#
#
# Elastic Compliance Matrix: (Units=1/GPa)
#
#
# Indices 1 2 3 4 5 6 
#
# 1 0.060226 0.002291 -0.032055 0.000000 0.034355 0.000000
# 2 0.002291 0.013469 -0.008027 0.000000 0.002831 0.000000
# 3 -0.032055 -0.008027 0.030944 0.000000 -0.016724 0.000000
# 4 0.000000 0.000000 0.000000 0.115914 0.000000 0.161600
# 5 0.034355 0.002831 -0.016724 0.000000 0.048543 0.000000
# 6 0.000000 0.000000 0.000000 0.161600 0.000000 -0.170117
#
#
# Mechanical properties :
#
#
# Convention : Reuss Voigt Hill
#
# Bulk Modulus (GPa) = 34.41595 58.16360 46.28978
# Shear Modulus (GPa) = 27.13752 15.62163 21.37958
#
# Velocity S-wave (km/s) = 3.92737 2.97975 3.48591
# Velocity P-wave (km/s) = 6.33457 6.70054 6.52013
#
# Compressibility (1/GPa) = 0.02905630
#
# Stress axis : x y z
#
# Youngs Moduli (GPa) = 16.60411 74.24271 32.31671
#
# Poissons Ratio (x) = -0.17005 1.03591
# Poissons Ratio (y) = -0.03803 0.25941
# Poissons Ratio (z) = 0.53224 0.59596
#
# Static dielectric constant tensor:
#      x y z
#    x 1.606110 0.000000 -0.032270 
#    y 0.000000 1.634240 0.000000 
#    z -0.032270 0.000000 1.585470 
# 
# From -- ./inp_files/53976.got.cif
#   From: 2010.05.17/outbox.cif.g08.bks.cpg/sg10_27_cif.got.tgz:53976.got - 2010.06.03 11:33:40.
