data_PCOD9142900
_publ_section_title
;
Structure prediction by ZEFSAII (Michael W. Deem and Ramdas Pophale) SiO2 
 PCOD9142900
Probable space group: P 2/M
;
_chemical_formula_sum "Si O2"
_cell_formula_units_Z 28
_cell_length_a 14.135621
_cell_length_b 7.499684
_cell_length_c 13.265498
_cell_angle_alpha 90.000000
_cell_angle_beta 57.805511
_cell_angle_gamma 90.000000
_cell_volume 1190.082947
_symmetry_space_group_name_H-M "P 2/M"
_symmetry_group_IT_number 10
_symmetry_cell_setting 'monoclinic'
loop_
_space_group_symop_operation_xyz
x,y,z
-x,y,-z
-x,-y,-z
x,-y,z
loop_
_atom_site_type_symbol
_atom_site_label
_atom_site_fract_x
_atom_site_fract_y
_atom_site_fract_z
Si Si1 0.220370 0.794715 0.765705
Si Si2 0.986075 0.205285 0.234295
Si Si3 0.180896 0.788216 0.248834
Si Si4 0.850701 0.287579 0.509483
Si Si5 0.639816 0.287579 0.509483
Si Si6 0.570270 0.788216 0.248834
Si Si7 0.569883 0.215667 0.860235
O O1 0.101784 0.714985 0.796433
O O2 0.298596 0.795359 0.621290
O O3 0.306065 0.714354 0.798382
O O4 0.197722 0.000000 0.807065
O O5 0.919885 0.204642 0.378711
O O6 0.104447 0.285646 0.201618
O O7 0.004787 0.000000 0.192936
O O8 0.124236 0.764678 0.390691
O O9 0.305138 0.714351 0.192952
O O10 0.189694 0.000000 0.225217
O O11 0.864724 0.500000 0.492726
O O12 0.721346 0.242195 0.557308
O O13 0.642552 0.500000 0.492724
O O14 0.514928 0.235323 0.609308
O O15 0.501910 0.714351 0.192952
O O16 0.585088 0.000000 0.225219
O O17 0.579890 0.000000 0.840220
O O18 0.500000 0.246922 0.000000
#
# Coordination Sequence:
#
# PCOD9142900 Si02
#       7
#     4   4   4   4   4   4   4
#     4   9  18  30  44  65  94 126 157 185 219 272
#     4   9  18  30  44  65  94 126 157 185 219 272
#     4  10  18  30  49  67  88 121 157 193 231 273
#     4  10  19  29  43  67  98 127 154 187 228 274
#     4  10  19  29  43  67  98 127 154 187 228 274
#     4  10  18  30  49  67  88 121 157 193 231 273
#     4   9  18  32  51  73  91 113 155 205 244 277
#
# _framework density 23.527771999999999
#
# number of rings (size 3 to 8) (size 9 to 14) (size 15 to 20)
#    0.000    2.429    1.429    1.714    0.000    5.714 
#    0.000    0.000    0.000    2.571    0.000    6.000 
#    0.000    0.000    0.000    9.714    0.000   10.286 
#
# Total GULP energy -156213.561179 kJ/mol
# GULP energy per Si atom -5579.055756 kJ/mol
# Density = 2.347422 g / cm^3
# Si number density = 23.527772 Si / 1000 Ang^3
#
#
#
# Elastic Constant Matrix: (Units=GPa)
#
#
# Indices 1 2 3 4 5 6 
#
# 1 202.9646 19.9345 28.8626 0.0000 0.0013 0.0000
# 2 19.9345 70.5280 -7.3056 0.0000 -0.0003 0.0000
# 3 28.8626 -7.3056 14.0920 0.0000 0.0002 0.0000
# 4 0.0000 0.0000 0.0000 18.4385 0.0000 0.0002
# 5 0.0013 -0.0003 0.0002 0.0000 9.9607 0.0000
# 6 0.0000 0.0000 0.0000 0.0002 0.0000 -2.9049
#
#
#
# Elastic Compliance Matrix: (Units=1/GPa)
#
#
# Indices 1 2 3 4 5 6 
#
# 1 0.007962 -0.004163 -0.018465 0.000000 -0.000001 0.000000
# 2 -0.004163 0.017160 0.017423 0.000000 0.000001 0.000000
# 3 -0.018465 0.017423 0.117814 0.000000 0.000001 0.000000
# 4 0.000000 0.000000 0.000000 0.054234 0.000000 0.000004
# 5 -0.000001 0.000001 0.000001 0.000000 0.100395 0.000000
# 6 0.000000 0.000000 0.000000 0.000004 0.000000 -0.344245
#
#
# Mechanical properties :
#
#
# Convention : Reuss Voigt Hill
#
# Bulk Modulus (GPa) = 7.54570 41.17417 24.35994
# Shear Modulus (GPa) = 632.47276 21.50506 326.98891
#
# Velocity S-wave (km/s) = 16.41351 3.02657 11.80177
# Velocity P-wave (km/s) = 19.03729 5.45452 14.00304
#
# Compressibility (1/GPa) = 0.13252580
#
# Stress axis : x y z
#
# Youngs Moduli (GPa) = 125.60170 58.27442 8.48793
#
# Poissons Ratio (x) = 0.24260 0.15673
# Poissons Ratio (y) = 0.52288 -0.14788
# Poissons Ratio (z) = 2.31924 -1.01531
#
# Static dielectric constant tensor:
#      x y z
#    x 2.020610 0.000000 0.000000 
#    y 0.000000 1.846390 0.000000 
#    z 0.000000 0.000000 1.829440 
# 
# From -- ./inp_files/65924.got.cif
#   From: 2010.05.17/outbox.cif.g08.bks.cpg/sg10_33_cif.got.tgz:65924.got - 2010.06.03 11:33:40.
