data_PCOD9142095
_publ_section_title
;
Structure prediction by ZEFSAII (Michael W. Deem and Ramdas Pophale) SiO2 
 PCOD9142095
Probable space group: P 2/M
;
_chemical_formula_sum "Si O2"
_cell_formula_units_Z 28
_cell_length_a 15.598595
_cell_length_b 7.952242
_cell_length_c 12.709845
_cell_angle_alpha 90.000000
_cell_angle_beta 132.200013
_cell_angle_gamma 90.000000
_cell_volume 1167.935618
_symmetry_space_group_name_H-M "P 2/M"
_symmetry_group_IT_number 10
_symmetry_cell_setting 'monoclinic'
loop_
_space_group_symop_operation_xyz
x,y,z
-x,y,-z
-x,-y,-z
x,-y,z
loop_
_atom_site_type_symbol
_atom_site_label
_atom_site_fract_x
_atom_site_fract_y
_atom_site_fract_z
Si Si1 0.843263 0.800011 0.289126
Si Si2 0.208762 0.197956 0.521781
Si Si3 0.113276 0.801723 0.898054
Si Si4 0.125457 0.693568 0.230555
Si Si5 0.535577 0.310086 0.311367
Si Si6 0.691115 0.299586 0.782811
Si Si7 0.592162 0.811554 0.983830
O O1 0.841620 0.736958 0.407838
O O2 0.910431 0.735738 0.240868
O O3 0.868656 0.000000 0.320097
O O4 0.713097 0.777794 0.139080
O O5 0.162811 0.291476 0.382086
O O6 0.348322 0.215110 0.627294
O O7 0.178814 0.000000 0.488526
O O8 0.001457 0.772492 0.877330
O O9 0.132409 0.000000 0.903910
O O10 0.226830 0.728371 0.047596
O O11 0.112902 0.500000 0.188315
O O12 0.228974 0.768969 0.245686
O O13 0.569202 0.500000 0.371161
O O14 0.440733 0.235153 0.314437
O O15 0.455548 0.313805 0.141672
O O16 0.676793 0.500000 0.756634
O O17 0.597888 0.000000 0.940582
O O18 0.500000 0.816083 0.000000
#
# Coordination Sequence:
#
# PCOD9142095 Si02
#       7
#     4   4   4   4   4   4   4
#     4   9  19  35  59  89 122 156 189 237 299 356
#     4  11  23  42  63  87 121 162 202 238 291 359
#     4  11  22  39  66  95 118 149 200 253 296 346
#     4  11  25  45  62  82 119 163 203 246 299 353
#     4  11  22  36  58  91 123 155 196 243 297 353
#     4  10  23  42  63  87 121 161 196 241 304 359
#     4  10  17  32  56  84 119 159 194 234 296 355
#
# _framework density 23.973925000000001
#
# number of rings (size 3 to 8) (size 9 to 14) (size 15 to 20)
#    0.000    1.571    2.857    2.143    0.000    4.857 
#    0.000    8.571    0.000    0.000    0.000    0.000 
#    0.000    0.000    0.000    0.000    0.000    0.000 
#
# Total GULP energy -156334.116350 kJ/mol
# GULP energy per Si atom -5583.361298 kJ/mol
# Density = 2.391936 g / cm^3
# Si number density = 23.973925 Si / 1000 Ang^3
#
#
#
# Elastic Constant Matrix: (Units=GPa)
#
#
# Indices 1 2 3 4 5 6 
#
# 1 141.5138 -3.3960 15.9268 0.0000 -27.7329 0.0000
# 2 -3.3960 24.3871 -13.1922 0.0000 3.1406 0.0000
# 3 15.9268 -13.1922 58.1488 0.0000 -14.3552 0.0000
# 4 0.0000 0.0000 0.0000 32.4771 0.0000 -5.6832
# 5 -27.7329 3.1406 -14.3552 0.0000 29.4587 0.0000
# 6 0.0000 0.0000 0.0000 -5.6832 0.0000 59.8324
#
#
#
# Elastic Compliance Matrix: (Units=1/GPa)
#
#
# Indices 1 2 3 4 5 6 
#
# 1 0.008674 -0.000045 -0.000419 0.000000 0.007966 0.000000
# 2 -0.000045 0.046743 0.010658 0.000000 0.000168 0.000000
# 3 -0.000419 0.010658 0.021999 0.000000 0.009189 0.000000
# 4 0.000000 0.000000 0.000000 0.031311 0.000000 0.002974
# 5 0.007966 0.000168 0.009189 0.000000 0.045905 0.000000
# 6 0.000000 0.000000 0.000000 0.002974 0.000000 0.016996
#
#
# Mechanical properties :
#
#
# Convention : Reuss Voigt Hill
#
# Bulk Modulus (GPa) = 10.22455 24.74744 17.48599
# Shear Modulus (GPa) = 27.19751 39.33437 33.26594
#
# Velocity S-wave (km/s) = 3.37183 4.05497 3.72908
# Velocity P-wave (km/s) = 4.40830 5.68056 5.08438
#
# Compressibility (1/GPa) = 0.09780386
#
# Stress axis : x y z
#
# Youngs Moduli (GPa) = 115.29119 21.39355 45.45735
#
# Poissons Ratio (x) = 0.00096 0.01906
# Poissons Ratio (y) = 0.00517 -0.48450
# Poissons Ratio (z) = 0.04834 -0.22802
#
# Static dielectric constant tensor:
#      x y z
#    x 2.025280 0.000000 -0.039000 
#    y 0.000000 1.905170 0.000000 
#    z -0.039000 0.000000 1.920630 
# 
# From -- ./inp_files/50111.got.cif
#   From: 2010.05.17/outbox.cif.g08.bks.cpg/sg10_26_cif.got.tgz:50111.got - 2010.06.03 11:33:40.
