data_PCOD9142984
_publ_section_title
;
Structure prediction by ZEFSAII (Michael W. Deem and Ramdas Pophale) SiO2 
 PCOD9142984
Probable space group: P 2/M
;
_chemical_formula_sum "Si O2"
_cell_formula_units_Z 30
_cell_length_a 19.314423
_cell_length_b 21.013763
_cell_length_c 22.187202
_cell_angle_alpha 90.000000
_cell_angle_beta 168.127774
_cell_angle_gamma 90.000000
_cell_volume 1852.615850
_symmetry_space_group_name_H-M "P 2/M"
_symmetry_group_IT_number 10
_symmetry_cell_setting 'monoclinic'
loop_
_space_group_symop_operation_xyz
x,y,z
-x,y,-z
-x,-y,-z
x,-y,z
loop_
_atom_site_type_symbol
_atom_site_label
_atom_site_fract_x
_atom_site_fract_y
_atom_site_fract_z
Si Si1 0.204985 0.207436 0.459336
Si Si2 0.273111 0.070384 0.679271
Si Si3 0.095784 0.500000 0.151458
Si Si4 0.770391 0.848167 0.177551
Si Si5 0.055590 0.756992 0.891327
Si Si6 0.597753 0.070009 0.421246
Si Si7 0.851328 0.893777 0.765094
Si Si8 0.097646 0.639239 0.153722
O O1 0.547389 0.233103 0.779205
O O2 0.278477 0.132511 0.508433
O O3 0.895411 0.208793 0.241877
O O4 0.125870 0.240920 0.328145
O O5 0.000000 0.064286 0.500000
O O6 0.100552 0.120060 0.487818
O O7 0.332679 0.000000 0.704546
O O8 0.596643 0.099737 0.986515
O O9 0.500000 0.500000 0.500000
O O10 0.973825 0.569092 0.069895
O O11 0.000000 0.500000 0.000000
O O12 0.500000 0.833174 0.000000
O O13 0.914854 0.818606 0.807599
O O14 0.012265 0.695291 0.895686
O O15 0.795380 0.074332 0.652524
O O16 0.652633 0.000000 0.440841
O O17 0.194176 0.079727 0.086508
O O18 0.500000 0.903107 0.500000
O O19 0.500000 0.638249 0.500000
O O20 0.000000 0.649306 0.000000
#
# Coordination Sequence:
#
# PCOD9142984 Si02
#       8
#     4   4   2   4   4   4   4   4
#     4  10  21  35  46  64  89 114 150 190 230 282
#     4   9  17  28  43  65  86 103 134 178 225 283
#     4   8  16  28  44  72 104 128 155 188 213 246
#     4  10  19  32  49  65  84 113 145 184 234 282
#     4  10  20  33  48  66  92 123 150 184 226 262
#     4  10  21  33  44  59  80 107 136 178 237 277
#     4  10  20  32  46  62  79 103 145 187 216 260
#     4  10  18  30  50  74 100 131 162 186 215 254
#
# _framework density 16.19332
#
# number of rings (size 3 to 8) (size 9 to 14) (size 15 to 20)
#    0.000    2.267    0.000    3.200    0.000    6.400 
#    0.000    0.000    0.000    0.000    0.000    0.000 
#    0.000    0.000    0.000    3.600    0.000    0.000 
#
# Total GULP energy -167210.986960 kJ/mol
# GULP energy per Si atom -5573.699565 kJ/mol
# Density = 1.615646 g / cm^3
# Si number density = 16.193320 Si / 1000 Ang^3
#
#
#
# Elastic Constant Matrix: (Units=GPa)
#
#
# Indices 1 2 3 4 5 6 
#
# 1 48.3799 24.3953 16.5740 0.0000 0.1798 0.0000
# 2 24.3953 84.0221 14.3642 0.0000 1.3279 0.0000
# 3 16.5740 14.3642 56.3777 0.0000 -9.1806 0.0000
# 4 0.0000 0.0000 0.0000 6.9631 0.0000 8.6455
# 5 0.1798 1.3279 -9.1806 0.0000 27.2637 0.0000
# 6 0.0000 0.0000 0.0000 8.6455 0.0000 14.7193
#
#
#
# Elastic Compliance Matrix: (Units=1/GPa)
#
#
# Indices 1 2 3 4 5 6 
#
# 1 0.026114 -0.006464 -0.006355 0.000000 -0.001997 0.000000
# 2 -0.006464 0.014125 -0.001908 0.000000 -0.001288 0.000000
# 3 -0.006355 -0.001908 0.021281 0.000000 0.007301 0.000000
# 4 0.000000 0.000000 0.000000 0.530476 0.000000 -0.311579
# 5 -0.001997 -0.001288 0.007301 0.000000 0.039213 0.000000
# 6 0.000000 0.000000 0.000000 -0.311579 0.000000 0.250947
#
#
# Mechanical properties :
#
#
# Convention : Reuss Voigt Hill
#
# Bulk Modulus (GPa) = 31.18701 33.27185 32.22943
# Shear Modulus (GPa) = 5.42124 18.68562 12.05343
#
# Velocity S-wave (km/s) = 1.83169 3.40061 2.73123
# Velocity P-wave (km/s) = 4.87591 6.00084 5.46738
#
# Compressibility (1/GPa) = 0.03206463
#
# Stress axis : x y z
#
# Youngs Moduli (GPa) = 38.29401 70.79659 46.99040
#
# Poissons Ratio (x) = 0.45762 0.29864
# Poissons Ratio (y) = 0.24753 0.08967
# Poissons Ratio (z) = 0.24337 0.13510
#
# Static dielectric constant tensor:
#      x y z
#    x 1.566620 0.000000 -0.010050 
#    y 0.000000 1.563580 0.000000 
#    z -0.010050 0.000000 1.490510 
# 
# From -- ./inp_files/90494.got.cif
#   From: 2010.05.17/outbox.cif.g08.bks.cpg/sg10_46_cif.got.tgz:90494.got - 2010.06.03 11:33:40.
