data_PCOD9142112
_publ_section_title
;
Structure prediction by ZEFSAII (Michael W. Deem and Ramdas Pophale) SiO2 
 PCOD9142112
Probable space group: P 2/M
;
_chemical_formula_sum "Si O2"
_cell_formula_units_Z 28
_cell_length_a 24.503593
_cell_length_b 13.677903
_cell_length_c 9.772921
_cell_angle_alpha 90.000000
_cell_angle_beta 25.700655
_cell_angle_gamma 90.000000
_cell_volume 1420.471232
_symmetry_space_group_name_H-M "P 2/M"
_symmetry_group_IT_number 10
_symmetry_cell_setting 'monoclinic'
loop_
_space_group_symop_operation_xyz
x,y,z
-x,y,-z
-x,-y,-z
x,-y,z
loop_
_atom_site_type_symbol
_atom_site_label
_atom_site_fract_x
_atom_site_fract_y
_atom_site_fract_z
Si Si1 0.266167 0.612450 0.621460
Si Si2 0.834416 0.206578 0.730969
Si Si3 0.454077 0.785245 0.249315
Si Si4 0.201657 0.113587 0.902955
Si Si5 0.406387 0.113288 0.841509
Si Si6 0.852242 0.607144 0.810640
Si Si7 0.061863 0.769960 0.006930
O O1 0.284170 0.500000 0.531177
O O2 0.391318 0.679539 0.355846
O O3 0.210022 0.605445 0.900642
O O4 0.158249 0.677155 0.788479
O O5 0.779399 0.313500 0.887142
O O6 0.948857 0.231919 0.372392
O O7 0.860228 0.165811 0.825708
O O8 0.734949 0.133502 0.889920
O O9 0.342349 0.846838 0.571125
O O10 0.563417 0.804947 0.111978
O O11 0.500000 0.825263 0.000000
O O12 0.196593 0.000000 0.938537
O O13 0.141980 0.142404 0.892269
O O14 0.500000 0.124572 0.500000
O O15 0.419009 0.000000 0.861135
O O16 0.849280 0.500000 0.753963
O O17 0.000000 0.631830 0.500000
O O18 0.000000 0.784762 0.000000
#
# Coordination Sequence:
#
# PCOD9142112 Si02
#       7
#     4   4   4   4   4   4   4
#     4  10  21  41  68  91 121 165 210 257 312 381
#     4  12  21  39  65  93 127 167 210 264 304 372
#     4  11  24  42  64  90 125 166 206 264 314 372
#     4  11  23  42  65  89 121 170 220 259 311 373
#     4  11  23  40  63  91 124 165 216 261 302 365
#     4  10  17  33  63  93 117 155 208 255 307 368
#     4  11  25  40  60  96 133 162 201 258 324 373
#
# _framework density 19.711767999999999
#
# number of rings (size 3 to 8) (size 9 to 14) (size 15 to 20)
#    0.000    1.143    5.714    1.286    4.000    3.714 
#    0.000    0.714    0.000    2.571    0.000    0.000 
#    0.000    0.000    0.000    0.000    0.000    0.000 
#
# Total GULP energy -155973.227533 kJ/mol
# GULP energy per Si atom -5570.472412 kJ/mol
# Density = 1.966690 g / cm^3
# Si number density = 19.711768 Si / 1000 Ang^3
#
#
#
# Elastic Constant Matrix: (Units=GPa)
#
#
# Indices 1 2 3 4 5 6 
#
# 1 85.0246 36.2994 18.9667 0.0000 5.1959 0.0000
# 2 36.2994 117.7082 25.2851 0.0000 -1.7939 0.0000
# 3 18.9667 25.2851 40.0706 0.0000 3.8833 0.0000
# 4 0.0000 0.0000 0.0000 27.7976 0.0000 15.3037
# 5 5.1959 -1.7939 3.8833 0.0000 25.1532 0.0000
# 6 0.0000 0.0000 0.0000 15.3037 0.0000 32.2129
#
#
#
# Elastic Compliance Matrix: (Units=1/GPa)
#
#
# Indices 1 2 3 4 5 6 
#
# 1 0.014398 -0.003550 -0.004327 0.000000 -0.002559 0.000000
# 2 -0.003550 0.010774 -0.005344 0.000000 0.002327 0.000000
# 3 -0.004327 -0.005344 0.030787 0.000000 -0.004240 0.000000
# 4 0.000000 0.000000 0.000000 0.048716 0.000000 -0.023144
# 5 -0.002559 0.002327 -0.004240 0.000000 0.041106 0.000000
# 6 0.000000 0.000000 0.000000 -0.023144 0.000000 0.042039
#
#
# Mechanical properties :
#
#
# Convention : Reuss Voigt Hill
#
# Bulk Modulus (GPa) = 33.87779 44.87844 39.37811
# Shear Modulus (GPa) = 22.31146 27.84955 25.08051
#
# Velocity S-wave (km/s) = 3.36800 3.76285 3.57089
# Velocity P-wave (km/s) = 5.68757 6.45721 6.08457
#
# Compressibility (1/GPa) = 0.02951787
#
# Stress axis : x y z
#
# Youngs Moduli (GPa) = 69.45173 92.81963 32.48127
#
# Poissons Ratio (x) = 0.32948 0.14056
# Poissons Ratio (y) = 0.24653 0.17357
# Poissons Ratio (z) = 0.30054 0.49599
#
# Static dielectric constant tensor:
#      x y z
#    x 1.721470 0.000000 -0.065870 
#    y 0.000000 1.722480 0.000000 
#    z -0.065870 0.000000 1.760790 
# 
# From -- ./inp_files/35255.got.cif
#   From: 2010.05.17/outbox.cif.g08.bks.cpg/sg10_18_cif.got.tgz:35255.got - 2010.06.03 11:33:40.
