data_PCOD9142280
_publ_section_title
;
Structure prediction by ZEFSAII (Michael W. Deem and Ramdas Pophale) SiO2 
 PCOD9142280
Probable space group: P 2/M
;
_chemical_formula_sum "Si O2"
_cell_formula_units_Z 28
_cell_length_a 12.404757
_cell_length_b 8.951083
_cell_length_c 26.408992
_cell_angle_alpha 90.000000
_cell_angle_beta 38.664014
_cell_angle_gamma 90.000000
_cell_volume 1831.992026
_symmetry_space_group_name_H-M "P 2/M"
_symmetry_group_IT_number 10
_symmetry_cell_setting 'monoclinic'
loop_
_space_group_symop_operation_xyz
x,y,z
-x,y,-z
-x,-y,-z
x,-y,z
loop_
_atom_site_type_symbol
_atom_site_label
_atom_site_fract_x
_atom_site_fract_y
_atom_site_fract_z
Si Si1 0.808737 0.320694 0.554193
Si Si2 0.517182 0.821482 0.272771
Si Si3 0.708422 0.180114 0.376587
Si Si4 0.061495 0.324009 0.057979
Si Si5 0.279811 0.323197 0.887334
Si Si6 0.328851 0.320797 0.506157
Si Si7 0.849271 0.178889 0.218617
O O1 0.796799 0.500000 0.564893
O O2 0.660130 0.246105 0.642156
O O3 0.770014 0.287818 0.509517
O O4 0.000000 0.272878 0.500000
O O5 0.572974 0.762581 0.197085
O O6 0.671968 0.775293 0.254682
O O7 0.509336 0.000000 0.275723
O O8 0.517734 0.244847 0.434664
O O9 0.758722 0.252571 0.411631
O O10 0.828699 0.220224 0.284876
O O11 0.698639 0.000000 0.384181
O O12 0.085577 0.500000 0.057806
O O13 0.891827 0.307655 0.084571
O O14 0.009469 0.245332 0.128998
O O15 0.220795 0.270103 0.964761
O O16 0.318873 0.500000 0.875477
O O17 0.347548 0.500000 0.504459
O O18 0.857812 0.000000 0.212306
#
# Coordination Sequence:
#
# PCOD9142280 Si02
#       7
#     4   4   4   4   4   4   4
#     4  10  21  35  48  62  84 114 147 186 227 260
#     4  10  18  28  42  61  83 111 147 180 214 256
#     4  10  18  29  44  62  89 117 141 174 217 261
#     4   8  14  23  37  56  80 111 144 174 205 245
#     4   8  14  25  38  55  80 111 143 174 210 250
#     4  10  19  30  45  64  82 107 147 184 216 257
#     4   9  17  26  38  59  87 115 142 171 209 255
#
# _framework density 15.283909
#
# number of rings (size 3 to 8) (size 9 to 14) (size 15 to 20)
#    0.000    2.714    1.429    3.000    0.000    3.143 
#    0.000    2.857    0.000    0.000    0.000    0.000 
#    0.000    1.143    0.000   12.857    0.000    7.000 
#
# Total GULP energy -155899.619915 kJ/mol
# GULP energy per Si atom -5567.843568 kJ/mol
# Density = 1.524912 g / cm^3
# Si number density = 15.283909 Si / 1000 Ang^3
#
#
#
# Elastic Constant Matrix: (Units=GPa)
#
#
# Indices 1 2 3 4 5 6 
#
# 1 56.0709 27.9750 58.3091 0.0000 11.7904 0.0000
# 2 27.9750 36.2636 48.8129 0.0000 11.3071 0.0000
# 3 58.3091 48.8129 150.7555 0.0000 37.3527 0.0000
# 4 0.0000 0.0000 0.0000 21.0757 0.0000 10.1748
# 5 11.7904 11.3071 37.3527 0.0000 24.4736 0.0000
# 6 0.0000 0.0000 0.0000 10.1748 0.0000 7.8220
#
#
#
# Elastic Compliance Matrix: (Units=1/GPa)
#
#
# Indices 1 2 3 4 5 6 
#
# 1 0.034336 -0.015064 -0.009695 0.000000 0.005215 0.000000
# 2 -0.015064 0.055586 -0.012233 0.000000 0.000246 0.000000
# 3 -0.009695 -0.012233 0.018954 0.000000 -0.018606 0.000000
# 4 0.000000 0.000000 0.000000 0.127546 0.000000 -0.165911
# 5 0.005215 0.000246 -0.018606 0.000000 0.066632 0.000000
# 6 0.000000 0.000000 0.000000 -0.165911 0.000000 0.343663
#
#
# Mechanical properties :
#
#
# Convention : Reuss Voigt Hill
#
# Bulk Modulus (GPa) = 28.65945 57.03157 42.84551
# Shear Modulus (GPa) = 6.82754 17.87378 12.35066
#
# Velocity S-wave (km/s) = 2.11585 3.42343 2.84576
# Velocity P-wave (km/s) = 4.97606 7.28164 6.23633
#
# Compressibility (1/GPa) = 0.03489250
#
# Stress axis : x y z
#
# Youngs Moduli (GPa) = 29.12427 17.99027 52.75982
#
# Poissons Ratio (x) = 0.27100 0.51150
# Poissons Ratio (y) = 0.43872 0.64539
# Poissons Ratio (z) = 0.28236 0.22007
#
# Static dielectric constant tensor:
#      x y z
#    x 1.494130 0.000000 0.032120 
#    y 0.000000 1.510440 0.000000 
#    z 0.032120 0.000000 1.526040 
# 
# From -- ./inp_files/89875.got.cif
#   From: 2010.05.17/outbox.cif.g08.bks.cpg/sg10_45_cif.got.tgz:89875.got - 2010.06.03 11:33:40.
