data_PCOD9142833
_publ_section_title
;
Structure prediction by ZEFSAII (Michael W. Deem and Ramdas Pophale) SiO2 
 PCOD9142833
Probable space group: P 2/M
;
_chemical_formula_sum "Si O2"
_cell_formula_units_Z 32
_cell_length_a 22.492196
_cell_length_b 7.478794
_cell_length_c 29.113485
_cell_angle_alpha 90.000000
_cell_angle_beta 161.337874
_cell_angle_gamma 90.000000
_cell_volume 1567.074614
_symmetry_space_group_name_H-M "P 2/M"
_symmetry_group_IT_number 10
_symmetry_cell_setting 'monoclinic'
loop_
_space_group_symop_operation_xyz
x,y,z
-x,y,-z
-x,-y,-z
x,-y,z
loop_
_atom_site_type_symbol
_atom_site_label
_atom_site_fract_x
_atom_site_fract_y
_atom_site_fract_z
Si Si1 0.504488 0.787680 0.951536
Si Si2 0.417687 0.281297 0.335169
Si Si3 0.211721 0.283859 0.660093
Si Si4 0.216804 0.788473 0.921284
Si Si5 0.501695 0.705319 0.205493
Si Si6 0.691516 0.719221 0.846848
Si Si7 0.895969 0.718392 0.822105
Si Si8 0.180860 0.714701 0.337705
O O1 0.317086 0.761814 0.784599
O O2 0.534734 0.000000 0.977825
O O3 0.500000 0.714495 0.000000
O O4 0.671827 0.718660 0.041620
O O5 0.417382 0.500000 0.335095
O O6 0.364307 0.225048 0.244878
O O7 0.264148 0.225290 0.259885
O O8 0.623024 0.220865 0.499535
O O9 0.211137 0.500000 0.657585
O O10 0.340735 0.216036 0.712507
O O11 0.000000 0.222165 0.500000
O O12 0.998110 0.757599 0.762567
O O13 0.250657 0.000000 0.949248
O O14 0.314333 0.706641 0.037646
O O15 0.557105 0.500000 0.254223
O O16 0.448139 0.783029 0.215495
O O17 0.689831 0.500000 0.846769
O O18 0.900603 0.774443 0.012329
O O19 0.895554 0.500000 0.821395
O O20 0.855982 0.779388 0.741075
O O21 0.192639 0.500000 0.343881
#
# Coordination Sequence:
#
# PCOD9142833 Si02
#       8
#     4   4   4   4   4   4   4   4
#     4   9  19  36  55  74  97 128 168 209 244 285
#     4   9  17  26  40  69 101 124 153 198 242 281
#     4   9  18  32  50  76 107 133 158 195 244 298
#     4  10  19  32  52  73  94 124 163 200 236 281
#     4   9  16  30  51  71  96 127 160 195 235 282
#     4   9  15  25  43  68  95 122 154 195 239 276
#     4   9  15  25  44  67  94 125 158 196 238 280
#     4  10  18  30  47  71  98 125 157 195 240 284
#
# _framework density 20.420216
#
# number of rings (size 3 to 8) (size 9 to 14) (size 15 to 20)
#    0.000    2.750    1.250    1.125    0.000    4.000 
#    2.250    0.000    0.000    2.250    0.000    0.875 
#    0.000    0.000    0.000    0.000    0.000    0.000 
#
# Total GULP energy -178583.502656 kJ/mol
# GULP energy per Si atom -5580.734458 kJ/mol
# Density = 2.037374 g / cm^3
# Si number density = 20.420216 Si / 1000 Ang^3
#
#
#
# Elastic Constant Matrix: (Units=GPa)
#
#
# Indices 1 2 3 4 5 6 
#
# 1 172.9347 3.8282 103.1188 0.0000 -4.4142 0.0000
# 2 3.8282 57.6747 -5.2910 0.0000 -2.2726 0.0000
# 3 103.1188 -5.2910 158.7908 0.0000 1.6369 0.0000
# 4 0.0000 0.0000 0.0000 -1.5960 0.0000 -13.3427
# 5 -4.4142 -2.2726 1.6369 0.0000 28.8375 0.0000
# 6 0.0000 0.0000 0.0000 -13.3427 0.0000 -7.5754
#
#
#
# Elastic Compliance Matrix: (Units=1/GPa)
#
#
# Indices 1 2 3 4 5 6 
#
# 1 0.009605 -0.001146 -0.006294 0.000000 0.001737 0.000000
# 2 -0.001146 0.017580 0.001319 0.000000 0.001135 0.000000
# 3 -0.006294 0.001319 0.010444 0.000000 -0.001452 0.000000
# 4 0.000000 0.000000 0.000000 0.045652 0.000000 -0.080408
# 5 0.001737 0.001135 -0.001452 0.000000 0.035115 0.000000
# 6 0.000000 0.000000 0.000000 -0.080408 0.000000 0.009618
#
#
# Mechanical properties :
#
#
# Convention : Reuss Voigt Hill
#
# Bulk Modulus (GPa) = 39.39169 65.85694 52.62431
# Shear Modulus (GPa) = 33.62059 23.11618 28.36839
#
# Velocity S-wave (km/s) = 4.06203 3.36821 3.73128
# Velocity P-wave (km/s) = 6.42904 6.88820 6.66258
#
# Compressibility (1/GPa) = 0.02538606
#
# Stress axis : x y z
#
# Youngs Moduli (GPa) = 104.11164 56.88147 95.75245
#
# Poissons Ratio (x) = 0.06521 0.60263
# Poissons Ratio (y) = 0.11936 -0.12626
# Poissons Ratio (z) = 0.65524 -0.07500
#
# Static dielectric constant tensor:
#      x y z
#    x 1.723980 0.000000 0.016590 
#    y 0.000000 1.785760 0.000000 
#    z 0.016590 0.000000 1.682320 
# 
# From -- ./inp_files/93785.got.cif
#   From: 2010.05.17/outbox.cif.g08.bks.cpg/sg10_47_cif.got.tgz:93785.got - 2010.06.03 11:33:40.
