data_PCOD9142955
_publ_section_title
;
Structure prediction by ZEFSAII (Michael W. Deem and Ramdas Pophale) SiO2 
 PCOD9142955
Probable space group: P 2/M
;
_chemical_formula_sum "Si O2"
_cell_formula_units_Z 32
_cell_length_a 14.450091
_cell_length_b 20.108175
_cell_length_c 8.903606
_cell_angle_alpha 90.000000
_cell_angle_beta 146.068288
_cell_angle_gamma 90.000000
_cell_volume 1444.117201
_symmetry_space_group_name_H-M "P 2/M"
_symmetry_group_IT_number 10
_symmetry_cell_setting 'monoclinic'
loop_
_space_group_symop_operation_xyz
x,y,z
-x,y,-z
-x,-y,-z
x,-y,z
loop_
_atom_site_type_symbol
_atom_site_label
_atom_site_fract_x
_atom_site_fract_y
_atom_site_fract_z
Si Si1 0.927112 0.113506 0.046469
Si Si2 0.741739 0.574357 0.954733
Si Si3 0.804773 0.072737 0.191761
Si Si4 0.399707 0.706723 0.679945
Si Si5 0.218688 0.293538 0.844993
Si Si6 0.676379 0.779960 0.712950
Si Si7 0.211481 0.811915 0.613331
Si Si8 0.653150 0.425478 0.493483
O O1 0.077166 0.147793 0.338292
O O2 0.815423 0.080176 0.025920
O O3 0.000000 0.076029 0.000000
O O4 0.811663 0.171729 0.827247
O O5 0.800410 0.500000 0.070216
O O6 0.544750 0.577240 0.733331
O O7 0.745058 0.582421 0.778034
O O8 0.830819 0.634264 0.161873
O O9 0.726652 0.134707 0.177664
O O10 0.000000 0.073012 0.500000
O O11 0.736119 0.000000 0.140329
O O12 0.370927 0.721481 0.464214
O O13 0.337498 0.773805 0.674829
O O14 0.313623 0.634621 0.577855
O O15 0.594085 0.698747 0.969741
O O16 0.134758 0.250741 0.600830
O O17 0.247615 0.248447 0.031573
O O18 0.500000 0.815476 0.500000
O O19 0.688412 0.500000 0.484080
#
# Coordination Sequence:
#
# PCOD9142955 Si02
#       8
#     4   4   4   4   4   4   4   4
#     4  11  21  37  59  87 111 136 185 233 276 324
#     4   8  13  23  42  70 105 146 190 237 280 325
#     4   9  20  38  58  82 112 143 176 220 273 326
#     4  10  18  30  49  82 113 149 190 233 276 325
#     4  10  18  30  50  79 114 148 190 231 283 329
#     4  10  19  33  54  82 114 148 181 231 282 324
#     4  11  21  33  55  80 113 145 184 225 276 329
#     4   8  13  23  42  70 106 145 191 237 278 320
#
# _framework density 22.158864999999999
#
# number of rings (size 3 to 8) (size 9 to 14) (size 15 to 20)
#    0.000    2.375    3.750    1.125    0.000    0.250 
#    0.000    0.625    0.000    4.875    0.000    5.250 
#    0.000    0.000    0.000    0.000    0.000    0.000 
#
# Total GULP energy -178239.562129 kJ/mol
# GULP energy per Si atom -5569.986317 kJ/mol
# Density = 2.210843 g / cm^3
# Si number density = 22.158865 Si / 1000 Ang^3
#
#
#
# Elastic Constant Matrix: (Units=GPa)
#
#
# Indices 1 2 3 4 5 6 
#
# 1 67.4240 44.9165 6.8088 0.0000 -12.8643 0.0000
# 2 44.9165 145.8434 8.4056 0.0000 -16.5297 0.0000
# 3 6.8088 8.4056 46.5074 0.0000 -19.0359 0.0000
# 4 0.0000 0.0000 0.0000 2.4607 0.0000 5.0372
# 5 -12.8643 -16.5297 -19.0359 0.0000 21.5657 0.0000
# 6 0.0000 0.0000 0.0000 5.0372 0.0000 23.9706
#
#
#
# Elastic Compliance Matrix: (Units=1/GPa)
#
#
# Indices 1 2 3 4 5 6 
#
# 1 0.019907 -0.005149 0.001975 0.000000 0.009672 0.000000
# 2 -0.005149 0.008914 0.001068 0.000000 0.004704 0.000000
# 3 0.001975 0.001068 0.034190 0.000000 0.032176 0.000000
# 4 0.000000 0.000000 0.000000 0.713162 0.000000 -0.149865
# 5 0.009672 0.004704 0.032176 0.000000 0.084146 0.000000
# 6 0.000000 0.000000 0.000000 -0.149865 0.000000 0.073211
#
#
# Mechanical properties :
#
#
# Convention : Reuss Voigt Hill
#
# Bulk Modulus (GPa) = 17.00698 42.22629 29.61663
# Shear Modulus (GPa) = 5.22280 22.90899 14.06589
#
# Velocity S-wave (km/s) = 1.53691 3.21885 2.52221
# Velocity P-wave (km/s) = 3.29259 5.73691 4.67725
#
# Compressibility (1/GPa) = 0.05879940
#
# Stress axis : x y z
#
# Youngs Moduli (GPa) = 50.23261 112.18433 29.24869
#
# Poissons Ratio (x) = 0.57760 -0.05776
# Poissons Ratio (y) = 0.25863 -0.03124
# Poissons Ratio (z) = -0.09921 -0.11981
#
# Static dielectric constant tensor:
#      x y z
#    x 1.906260 0.000000 -0.010870 
#    y 0.000000 1.841540 0.000000 
#    z -0.010870 0.000000 1.866310 
# 
# From -- ./inp_files/30323.got.cif
#   From: 2010.05.17/outbox.cif.g08.bks.cpg/sg10_16_cif.got.tgz:30323.got - 2010.06.03 11:33:40.
