data_PCOD9142718
_publ_section_title
;
Structure prediction by ZEFSAII (Michael W. Deem and Ramdas Pophale) SiO2 
 PCOD9142718
Probable space group: P 2/M
;
_chemical_formula_sum "Si O2"
_cell_formula_units_Z 28
_cell_length_a 13.307471
_cell_length_b 14.281696
_cell_length_c 8.901064
_cell_angle_alpha 90.000000
_cell_angle_beta 59.287794
_cell_angle_gamma 90.000000
_cell_volume 1454.407589
_symmetry_space_group_name_H-M "P 2/M"
_symmetry_group_IT_number 10
_symmetry_cell_setting 'monoclinic'
loop_
_space_group_symop_operation_xyz
x,y,z
-x,y,-z
-x,-y,-z
x,-y,z
loop_
_atom_site_type_symbol
_atom_site_label
_atom_site_fract_x
_atom_site_fract_y
_atom_site_fract_z
Si Si1 0.943292 0.396064 0.294055
Si Si2 0.244104 0.895151 0.853419
Si Si3 0.292181 0.392015 0.715250
Si Si4 0.868289 0.249166 0.579773
Si Si5 0.333530 0.209813 0.498819
Si Si6 0.516725 0.892363 0.160627
Si Si7 0.828936 0.717640 0.946577
O O1 0.985768 0.500000 0.289330
O O2 0.837406 0.397566 0.257930
O O3 0.895710 0.349204 0.482130
O O4 0.048996 0.336086 0.150287
O O5 0.303373 0.862840 0.653557
O O6 0.348190 0.892206 0.896051
O O7 0.196702 0.000000 0.881045
O O8 0.158356 0.812978 0.969037
O O9 0.337566 0.500000 0.683740
O O10 0.350202 0.312390 0.563839
O O11 0.269794 0.344883 0.895342
O O12 0.777471 0.206702 0.530033
O O13 0.808737 0.258772 0.787111
O O14 0.000000 0.205983 0.500000
O O15 0.445772 0.176446 0.322165
O O16 0.474073 0.000000 0.214064
O O17 0.500000 0.867413 0.000000
#
# Coordination Sequence:
#
# PCOD9142718 Si02
#       7
#     4   4   4   4   4   4   4
#     4   9  17  30  50  76 105 138 178 219 257 303
#     4  10  21  36  55  79 103 133 175 217 261 314
#     4   9  18  31  50  76 104 138 177 214 256 308
#     4   9  19  32  49  75 108 141 175 214 260 305
#     4  10  19  34  56  77 106 139 172 216 263 309
#     4  10  20  35  59  86 105 127 168 220 268 312
#     4  10  18  29  50  74 103 134 168 214 261 301
#
# _framework density 19.251826000000001
#
# number of rings (size 3 to 8) (size 9 to 14) (size 15 to 20)
#    0.000    2.429    0.000    2.571    0.000    6.571 
#    0.000    0.714    0.000   48.857    0.000    0.000 
#    0.000    0.000    0.000    0.000    0.000    0.000 
#
# Total GULP energy -156076.601804 kJ/mol
# GULP energy per Si atom -5574.164350 kJ/mol
# Density = 1.920801 g / cm^3
# Si number density = 19.251826 Si / 1000 Ang^3
#
#
#
# Elastic Constant Matrix: (Units=GPa)
#
#
# Indices 1 2 3 4 5 6 
#
# 1 29.0538 -21.6355 -11.9199 0.0000 7.5239 0.0000
# 2 -21.6355 113.0884 40.2033 0.0000 -16.3903 0.0000
# 3 -11.9199 40.2033 97.8255 0.0000 10.5552 0.0000
# 4 0.0000 0.0000 0.0000 15.0418 0.0000 -5.8523
# 5 7.5239 -16.3903 10.5552 0.0000 25.9203 0.0000
# 6 0.0000 0.0000 0.0000 -5.8523 0.0000 18.4571
#
#
#
# Elastic Compliance Matrix: (Units=1/GPa)
#
#
# Indices 1 2 3 4 5 6 
#
# 1 0.042805 0.005061 0.004321 0.000000 -0.010984 0.000000
# 2 0.005061 0.013220 -0.005815 0.000000 0.009259 0.000000
# 3 0.004321 -0.005815 0.014299 0.000000 -0.010754 0.000000
# 4 0.000000 0.000000 0.000000 0.075837 0.000000 0.024046
# 5 -0.010984 0.009259 -0.010754 0.000000 0.052002 0.000000
# 6 0.000000 0.000000 0.000000 0.024046 0.000000 0.061804
#
#
# Mechanical properties :
#
#
# Convention : Reuss Voigt Hill
#
# Bulk Modulus (GPa) = 12.91025 28.14038 20.52531
# Shear Modulus (GPa) = 17.94341 27.43850 22.69095
#
# Velocity S-wave (km/s) = 3.05624 3.77933 3.43686
# Velocity P-wave (km/s) = 4.37889 5.80458 5.14139
#
# Compressibility (1/GPa) = 0.07745785
#
# Stress axis : x y z
#
# Youngs Moduli (GPa) = 23.36171 75.64180 69.93441
#
# Poissons Ratio (x) = -0.38284 -0.30218
# Poissons Ratio (y) = -0.11824 0.40670
# Poissons Ratio (z) = -0.10094 0.43989
#
# Static dielectric constant tensor:
#      x y z
#    x 1.708840 0.000000 0.012580 
#    y 0.000000 1.706620 0.000000 
#    z 0.012580 0.000000 1.669470 
# 
# From -- ./inp_files/29421.got.cif
#   From: 2010.05.17/outbox.cif.g08.bks.cpg/sg10_15_cif.got.tgz:29421.got - 2010.06.03 11:33:40.
