data_PCOD9142150
_publ_section_title
;
Structure prediction by ZEFSAII (Michael W. Deem and Ramdas Pophale) SiO2 
 PCOD9142150
Probable space group: P 2/M
;
_chemical_formula_sum "Si O2"
_cell_formula_units_Z 32
_cell_length_a 19.605985
_cell_length_b 9.030144
_cell_length_c 20.927783
_cell_angle_alpha 90.000000
_cell_angle_beta 35.765063
_cell_angle_gamma 90.000000
_cell_volume 2165.526955
_symmetry_space_group_name_H-M "P 2/M"
_symmetry_group_IT_number 10
_symmetry_cell_setting 'monoclinic'
loop_
_space_group_symop_operation_xyz
x,y,z
-x,y,-z
-x,-y,-z
x,-y,z
loop_
_atom_site_type_symbol
_atom_site_label
_atom_site_fract_x
_atom_site_fract_y
_atom_site_fract_z
Si Si1 0.631058 0.320236 0.410912
Si Si2 0.928206 0.822556 0.967747
Si Si3 0.785821 0.679771 0.412257
Si Si4 0.905201 0.329356 0.714755
Si Si5 0.183471 0.328994 0.471384
Si Si6 0.139363 0.170270 0.378492
Si Si7 0.165196 0.321257 0.840978
Si Si8 0.961348 0.176061 0.798531
O O1 0.500000 0.265081 0.500000
O O2 0.626500 0.500000 0.415947
O O3 0.690504 0.274964 0.432526
O O4 0.719483 0.282161 0.286484
O O5 0.053511 0.750554 0.890334
O O6 0.905818 0.794958 0.910061
O O7 0.932727 0.000000 0.974663
O O8 0.839497 0.746162 0.084454
O O9 0.798074 0.500000 0.401755
O O10 0.758088 0.721569 0.506725
O O11 0.910437 0.749537 0.299533
O O12 0.873114 0.500000 0.747381
O O13 0.843654 0.259742 0.699790
O O14 0.044501 0.324211 0.593031
O O15 0.892480 0.241343 0.790427
O O16 0.213675 0.500000 0.436301
O O17 0.201401 0.236511 0.393735
O O18 0.000000 0.177055 0.500000
O O19 0.170225 0.000000 0.345616
O O20 0.152560 0.500000 0.852069
O O21 0.974868 0.000000 0.780466
#
# Coordination Sequence:
#
# PCOD9142150 Si02
#       8
#     4   4   4   4   4   4   4   4
#     4   9  17  29  45  64  84 106 136 176 216 250
#     4  10  19  29  42  59  84 109 132 170 213 248
#     4   9  16  27  41  56  76 102 134 170 205 244
#     4   9  16  24  35  50  72 100 130 163 195 234
#     4   8  14  22  33  48  67  95 129 163 197 231
#     4   9  15  22  32  47  69  97 129 162 194 231
#     4  10  18  28  45  63  79 103 138 173 206 250
#     4  10  18  26  38  56  78 105 133 166 204 241
#
# _framework density 14.777004
#
# number of rings (size 3 to 8) (size 9 to 14) (size 15 to 20)
#    0.000    2.750    1.250    3.375    0.000    6.000 
#    0.000    0.000    0.000    3.375    0.000    0.000 
#    0.000    0.000    0.000    1.125    0.000   24.375 
#
# Total GULP energy -178140.834082 kJ/mol
# GULP energy per Si atom -5566.901065 kJ/mol
# Density = 1.474337 g / cm^3
# Si number density = 14.777004 Si / 1000 Ang^3
#
#
#
# Elastic Constant Matrix: (Units=GPa)
#
#
# Indices 1 2 3 4 5 6 
#
# 1 101.1727 43.0170 61.1900 0.0000 35.4790 0.0000
# 2 43.0170 61.5672 32.7674 0.0000 21.1863 0.0000
# 3 61.1900 32.7674 64.9445 0.0000 20.4578 0.0000
# 4 0.0000 0.0000 0.0000 11.7323 0.0000 12.1949
# 5 35.4790 21.1863 20.4578 0.0000 29.0130 0.0000
# 6 0.0000 0.0000 0.0000 12.1949 0.0000 17.5854
#
#
#
# Elastic Compliance Matrix: (Units=1/GPa)
#
#
# Indices 1 2 3 4 5 6 
#
# 1 0.031835 -0.003474 -0.021569 0.000000 -0.021184 0.000000
# 2 -0.003474 0.025502 -0.006512 0.000000 -0.009782 0.000000
# 3 -0.021569 -0.006512 0.037536 0.000000 0.004663 0.000000
# 4 0.000000 0.000000 0.000000 0.305296 0.000000 -0.211713
# 5 -0.021184 -0.009782 0.004663 0.000000 0.064228 0.000000
# 6 0.000000 0.000000 0.000000 -0.211713 0.000000 0.203682
#
#
# Mechanical properties :
#
#
# Convention : Reuss Voigt Hill
#
# Bulk Modulus (GPa) = 31.48264 55.73700 43.60982
# Shear Modulus (GPa) = 6.74058 17.71347 12.22702
#
# Velocity S-wave (km/s) = 2.13809 3.46601 2.87964
# Velocity P-wave (km/s) = 5.23896 7.33609 6.37436
#
# Compressibility (1/GPa) = 0.03176354
#
# Stress axis : x y z
#
# Youngs Moduli (GPa) = 31.41213 39.21279 26.64087
#
# Poissons Ratio (x) = 0.13622 0.57461
# Poissons Ratio (y) = 0.10912 0.17350
# Poissons Ratio (z) = 0.67751 0.25537
#
# Static dielectric constant tensor:
#      x y z
#    x 1.499900 0.000000 0.034700 
#    y 0.000000 1.494290 0.000000 
#    z 0.034700 0.000000 1.473060 
# 
# From -- ./inp_files/86407.got.cif
#   From: 2010.05.17/outbox.cif.g08.bks.cpg/sg10_44_cif.got.tgz:86407.got - 2010.06.03 11:33:40.
