data_PCOD9142932
_publ_section_title
;
Structure prediction by ZEFSAII (Michael W. Deem and Ramdas Pophale) SiO2 
 PCOD9142932
Probable space group: P 2/M
;
_chemical_formula_sum "Si O2"
_cell_formula_units_Z 32
_cell_length_a 12.699089
_cell_length_b 9.119919
_cell_length_c 19.572144
_cell_angle_alpha 90.000000
_cell_angle_beta 63.203003
_cell_angle_gamma 90.000000
_cell_volume 2023.314669
_symmetry_space_group_name_H-M "P 2/M"
_symmetry_group_IT_number 10
_symmetry_cell_setting 'monoclinic'
loop_
_space_group_symop_operation_xyz
x,y,z
-x,y,-z
-x,-y,-z
x,-y,z
loop_
_atom_site_type_symbol
_atom_site_label
_atom_site_fract_x
_atom_site_fract_y
_atom_site_fract_z
Si Si1 0.999659 0.674616 0.805788
Si Si2 0.213504 0.325359 0.338283
Si Si3 0.865922 0.831280 0.509595
Si Si4 0.725575 0.674533 0.917663
Si Si5 0.983361 0.176096 0.340143
Si Si6 0.888145 0.674758 0.081165
Si Si7 0.576095 0.325665 0.824297
Si Si8 0.666601 0.825500 0.077050
O O1 0.005541 0.500000 0.789992
O O2 0.040863 0.763487 0.727835
O O3 0.073685 0.705166 0.852357
O O4 0.862104 0.708641 0.861291
O O5 0.194648 0.500000 0.341176
O O6 0.208331 0.268175 0.417425
O O7 0.334525 0.292232 0.263592
O O8 0.106185 0.247378 0.329599
O O9 0.884290 0.784801 0.425796
O O10 0.000000 0.829265 0.500000
O O11 0.825181 0.000000 0.524596
O O12 0.718877 0.500000 0.934764
O O13 0.646511 0.703477 0.874245
O O14 0.682527 0.762720 0.995786
O O15 0.994786 0.000000 0.337675
O O16 0.865443 0.500000 0.080942
O O17 0.775358 0.762735 0.088919
O O18 0.000000 0.708341 0.000000
O O19 0.549957 0.500000 0.830544
O O20 0.456453 0.235440 0.858379
O O21 0.667965 0.000000 0.075843
#
# Coordination Sequence:
#
# PCOD9142932 Si02
#       8
#     4   4   4   4   4   4   4   4
#     4  10  19  33  55  78  97 128 175 212 246 296
#     4  10  18  30  49  73  98 131 174 212 243 288
#     4   8  16  29  43  66 101 139 166 191 244 307
#     4  10  19  36  55  72  99 135 172 208 250 301
#     4  10  19  30  46  71 107 139 162 198 252 307
#     4  10  20  38  59  73  94 131 171 211 256 302
#     4  10  21  36  53  72 100 137 173 208 250 300
#     4  12  25  36  50  75 103 131 171 215 252 299
#
# _framework density 15.815632000000001
#
# number of rings (size 3 to 8) (size 9 to 14) (size 15 to 20)
#    0.000    2.000    2.500    3.000    0.000    7.000 
#    0.000    0.000    0.000    0.000    0.000    0.875 
#    0.000    7.000    0.000    0.000    0.000    0.000 
#
# Total GULP energy -178568.698249 kJ/mol
# GULP energy per Si atom -5580.271820 kJ/mol
# Density = 1.577964 g / cm^3
# Si number density = 15.815632 Si / 1000 Ang^3
#
#
#
# Elastic Constant Matrix: (Units=GPa)
#
#
# Indices 1 2 3 4 5 6 
#
# 1 78.4038 56.4116 64.8512 0.0000 -8.8034 0.0000
# 2 56.4116 70.6750 78.9154 0.0000 -1.6929 0.0000
# 3 64.8512 78.9154 148.7403 0.0000 10.2171 0.0000
# 4 0.0000 0.0000 0.0000 69.7854 0.0000 -16.6993
# 5 -8.8034 -1.6929 10.2171 0.0000 13.5008 0.0000
# 6 0.0000 0.0000 0.0000 -16.6993 0.0000 23.8703
#
#
#
# Elastic Compliance Matrix: (Units=1/GPa)
#
#
# Indices 1 2 3 4 5 6 
#
# 1 0.036002 -0.021202 -0.006201 0.000000 0.025510 0.000000
# 2 -0.021202 0.052724 -0.019233 0.000000 0.007342 0.000000
# 3 -0.006201 -0.019233 0.021175 0.000000 -0.022480 0.000000
# 4 0.000000 0.000000 0.000000 0.017211 0.000000 0.012040
# 5 0.025510 0.007342 -0.022480 0.000000 0.108636 0.000000
# 6 0.000000 0.000000 0.000000 0.012040 0.000000 0.050316
#
#
# Mechanical properties :
#
#
# Convention : Reuss Voigt Hill
#
# Bulk Modulus (GPa) = 60.13274 77.57505 68.85389
# Shear Modulus (GPa) = 12.99107 27.94070 20.46588
#
# Velocity S-wave (km/s) = 2.86913 4.20771 3.60116
# Velocity P-wave (km/s) = 7.00568 8.53010 7.80519
#
# Compressibility (1/GPa) = 0.01662988
#
# Stress axis : x y z
#
# Youngs Moduli (GPa) = 27.77609 18.96669 47.22498
#
# Poissons Ratio (x) = 0.40213 0.29282
# Poissons Ratio (y) = 0.58890 0.90830
# Poissons Ratio (z) = 0.17223 0.36480
#
# Static dielectric constant tensor:
#      x y z
#    x 1.502270 0.000000 0.011330 
#    y 0.000000 1.524170 0.000000 
#    z 0.011330 0.000000 1.539690 
# 
# From -- ./inp_files/54925.got.cif
#   From: 2010.05.17/outbox.cif.g08.bks.cpg/sg10_28_cif.got.tgz:54925.got - 2010.06.03 11:33:40.
