data_PCOD9142893
_publ_section_title
;
Structure prediction by ZEFSAII (Michael W. Deem and Ramdas Pophale) SiO2 
 PCOD9142893
Probable space group: P 2/M
;
_chemical_formula_sum "Si O2"
_cell_formula_units_Z 28
_cell_length_a 13.686314
_cell_length_b 8.085597
_cell_length_c 13.897782
_cell_angle_alpha 90.000000
_cell_angle_beta 119.714535
_cell_angle_gamma 90.000000
_cell_volume 1335.724241
_symmetry_space_group_name_H-M "P 2/M"
_symmetry_group_IT_number 10
_symmetry_cell_setting 'monoclinic'
loop_
_space_group_symop_operation_xyz
x,y,z
-x,y,-z
-x,-y,-z
x,-y,z
loop_
_atom_site_type_symbol
_atom_site_label
_atom_site_fract_x
_atom_site_fract_y
_atom_site_fract_z
Si Si1 0.180235 0.197072 0.944763
Si Si2 0.978575 0.691828 0.733856
Si Si3 0.563293 0.202319 0.934331
Si Si4 0.646729 0.695437 0.670629
Si Si5 0.560196 0.196763 0.320470
Si Si6 0.237388 0.699405 0.471890
Si Si7 0.141261 0.808003 0.133821
O O1 0.099527 0.231381 0.815432
O O2 0.187428 0.000000 0.960068
O O3 0.307343 0.260968 0.000428
O O4 0.123209 0.256255 0.017086
O O5 0.996036 0.500000 0.721753
O O6 0.889850 0.759729 0.611717
O O7 0.912123 0.712014 0.802949
O O8 0.493591 0.255282 0.806294
O O9 0.565370 0.000000 0.934136
O O10 0.500000 0.253778 0.000000
O O11 0.669488 0.500000 0.690854
O O12 0.518362 0.726716 0.634636
O O13 0.689709 0.749144 0.586794
O O14 0.724555 0.793957 0.783815
O O15 0.689881 0.241586 0.402583
O O16 0.549291 0.000000 0.319870
O O17 0.233324 0.500000 0.471914
O O18 0.105758 0.000000 0.124950
#
# Coordination Sequence:
#
# PCOD9142893 Si02
#       7
#     4   4   4   4   4   4   4
#     4  10  19  33  53  76 103 136 174 219 266 308
#     4  10  21  34  49  74 108 145 179 207 253 317
#     4   9  19  37  58  80 106 134 169 220 278 321
#     4  10  19  31  48  72 107 147 178 209 256 314
#     4  11  20  32  53  79 102 133 177 220 265 312
#     4   9  20  35  48  70 106 145 177 207 252 310
#     4  10  18  30  48  75 108 139 178 220 255 304
#
# _framework density 20.962409999999998
#
# number of rings (size 3 to 8) (size 9 to 14) (size 15 to 20)
#    0.000    2.143    1.429    3.429    0.000    8.000 
#    0.000    0.000    0.000    4.714    0.000    6.000 
#    0.000    0.000    0.000    0.000    0.000    0.000 
#
# Total GULP energy -156216.695182 kJ/mol
# GULP energy per Si atom -5579.167685 kJ/mol
# Density = 2.091470 g / cm^3
# Si number density = 20.962410 Si / 1000 Ang^3
#
#
#
# Elastic Constant Matrix: (Units=GPa)
#
#
# Indices 1 2 3 4 5 6 
#
# 1 47.0653 -0.6161 43.9923 0.0000 12.6916 0.0000
# 2 -0.6161 18.2778 5.6413 0.0000 -0.4276 0.0000
# 3 43.9923 5.6413 151.0106 0.0000 43.2544 0.0000
# 4 0.0000 0.0000 0.0000 29.1710 0.0000 6.0848
# 5 12.6916 -0.4276 43.2544 0.0000 27.3647 0.0000
# 6 0.0000 0.0000 0.0000 6.0848 0.0000 12.4877
#
#
#
# Elastic Compliance Matrix: (Units=1/GPa)
#
#
# Indices 1 2 3 4 5 6 
#
# 1 0.029442 0.003719 -0.008810 0.000000 0.000329 0.000000
# 2 0.003719 0.056687 -0.005410 0.000000 0.007713 0.000000
# 3 -0.008810 -0.005410 0.015066 0.000000 -0.019812 0.000000
# 4 0.000000 0.000000 0.000000 0.038159 0.000000 -0.018593
# 5 0.000329 0.007713 -0.019812 0.000000 0.067828 0.000000
# 6 0.000000 0.000000 0.000000 -0.018593 0.000000 0.089139
#
#
# Mechanical properties :
#
#
# Convention : Reuss Voigt Hill
#
# Bulk Modulus (GPa) = 12.47009 34.93207 23.70108
# Shear Modulus (GPa) = 14.53263 24.96041 19.74652
#
# Velocity S-wave (km/s) = 2.63586 3.45443 3.07253
# Velocity P-wave (km/s) = 3.90197 5.71061 4.89063
#
# Compressibility (1/GPa) = 0.08019188
#
# Stress axis : x y z
#
# Youngs Moduli (GPa) = 33.96506 17.64076 66.37660
#
# Poissons Ratio (x) = -0.06561 0.58479
# Poissons Ratio (y) = -0.12632 0.35912
# Poissons Ratio (z) = 0.29924 0.09544
#
# Static dielectric constant tensor:
#      x y z
#    x 1.752540 0.000000 0.053060 
#    y 0.000000 1.735420 0.000000 
#    z 0.053060 0.000000 1.831800 
# 
# From -- ./inp_files/66643.got.cif
#   From: 2010.05.17/outbox.cif.g08.bks.cpg/sg10_34_cif.got.tgz:66643.got - 2010.06.03 11:33:40.
