data_PCOD9142319
_publ_section_title
;
Structure prediction by ZEFSAII (Michael W. Deem and Ramdas Pophale) SiO2 
 PCOD9142319
Probable space group: P 2/M
;
_chemical_formula_sum "Si O2"
_cell_formula_units_Z 32
_cell_length_a 23.589305
_cell_length_b 14.419334
_cell_length_c 19.669672
_cell_angle_alpha 90.000000
_cell_angle_beta 17.126484
_cell_angle_gamma 90.000000
_cell_volume 1970.227408
_symmetry_space_group_name_H-M "P 2/M"
_symmetry_group_IT_number 10
_symmetry_cell_setting 'monoclinic'
loop_
_space_group_symop_operation_xyz
x,y,z
-x,y,-z
-x,-y,-z
x,-y,z
loop_
_atom_site_type_symbol
_atom_site_label
_atom_site_fract_x
_atom_site_fract_y
_atom_site_fract_z
Si Si1 0.440220 0.796225 0.411215
Si Si2 0.130407 0.395389 0.953823
Si Si3 0.701124 0.395391 0.383131
Si Si4 0.008378 0.889086 0.693573
Si Si5 0.856910 0.796217 0.994521
Si Si6 0.412250 0.889081 0.885805
Si Si7 0.583516 0.112367 0.832945
Si Si8 0.282555 0.892094 0.717452
O O1 0.411736 0.686368 0.450928
O O2 0.649862 0.820954 0.200276
O O3 0.447707 0.836199 0.327121
O O4 0.291513 0.842931 0.634119
O O5 0.169384 0.500000 0.933659
O O6 0.916472 0.395139 0.167064
O O7 0.274179 0.375673 0.725807
O O8 0.137105 0.313643 0.000215
O O9 0.624519 0.500000 0.478549
O O10 0.195743 0.862191 0.435744
O O11 0.016078 0.000000 0.698011
O O12 0.002661 0.836170 0.772156
O O13 0.809432 0.870909 0.881146
O O14 0.857241 0.842925 0.068379
O O15 0.458678 0.862173 0.909837
O O16 0.444223 0.000000 0.841711
O O17 0.579586 0.000000 0.840758
O O18 0.500000 0.147562 0.000000
O O19 0.500000 0.885547 0.500000
O O20 0.236293 0.000000 0.763712
#
# Coordination Sequence:
#
# PCOD9142319 Si02
#       8
#     4   4   4   4   4   4   4   4
#     4  10  18  28  44  65  87 119 158 192 231 270
#     4   9  18  31  44  59  84 119 157 198 242 278
#     4   9  18  31  44  59  84 119 157 198 242 278
#     4   9  18  31  46  68  99 128 154 191 235 275
#     4  10  18  28  44  65  87 119 158 192 231 270
#     4   9  18  31  46  68  99 128 154 191 235 275
#     4   9  18  32  50  71  92 121 160 191 226 281
#     4   9  16  26  40  59  86 120 157 191 220 262
#
# _framework density 16.241779999999999
#
# number of rings (size 3 to 8) (size 9 to 14) (size 15 to 20)
#    0.000    2.750    1.250    1.500    1.750    4.000 
#    0.000    3.750    0.000    0.750    0.000    0.000 
#    0.000    2.000    0.000    5.500    0.000    0.250 
#
# Total GULP energy -178395.651152 kJ/mol
# GULP energy per Si atom -5574.864098 kJ/mol
# Density = 1.620481 g / cm^3
# Si number density = 16.241780 Si / 1000 Ang^3
#
#
#
# Elastic Constant Matrix: (Units=GPa)
#
#
# Indices 1 2 3 4 5 6 
#
# 1 75.4139 27.7501 62.1723 0.0000 17.1977 0.0000
# 2 27.7501 65.4024 41.8101 0.0000 21.6954 0.0000
# 3 62.1723 41.8101 105.2090 0.0000 28.8805 0.0000
# 4 0.0000 0.0000 0.0000 0.5362 0.0000 10.7428
# 5 17.1977 21.6954 28.8805 0.0000 30.1899 0.0000
# 6 0.0000 0.0000 0.0000 10.7428 0.0000 -6.4728
#
#
#
# Elastic Compliance Matrix: (Units=1/GPa)
#
#
# Indices 1 2 3 4 5 6 
#
# 1 0.025993 -0.001758 -0.014841 0.000000 0.000654 0.000000
# 2 -0.001758 0.022796 -0.005151 0.000000 -0.010453 0.000000
# 3 -0.014841 -0.005151 0.023034 0.000000 -0.009879 0.000000
# 4 0.000000 0.000000 0.000000 0.054450 0.000000 0.090368
# 5 0.000654 -0.010453 -0.009879 0.000000 0.049714 0.000000
# 6 0.000000 0.000000 0.000000 0.090368 0.000000 -0.004511
#
#
# Mechanical properties :
#
#
# Convention : Reuss Voigt Hill
#
# Bulk Modulus (GPa) = 35.30702 56.61000 45.95851
# Shear Modulus (GPa) = 22.27983 12.47018 17.37500
#
# Velocity S-wave (km/s) = 3.70775 2.77390 3.27429
# Velocity P-wave (km/s) = 6.33367 6.72232 6.53089
#
# Compressibility (1/GPa) = 0.02832298
#
# Stress axis : x y z
#
# Youngs Moduli (GPa) = 38.47121 43.86684 43.41390
#
# Poissons Ratio (x) = 0.07713 0.64432
# Poissons Ratio (y) = 0.06764 0.22362
# Poissons Ratio (z) = 0.57097 0.22595
#
# Static dielectric constant tensor:
#      x y z
#    x 1.582580 0.000000 -0.033730 
#    y 0.000000 1.534760 0.000000 
#    z -0.033730 0.000000 1.560630 
# 
# From -- ./inp_files/38305.got.cif
#   From: 2010.05.17/outbox.cif.g08.bks.cpg/sg10_20_cif.got.tgz:38305.got - 2010.06.03 11:33:40.
