data_PCOD9142085
_publ_section_title
;
Structure prediction by ZEFSAII (Michael W. Deem and Ramdas Pophale) SiO2 
 PCOD9142085
Probable space group: P 2/M
;
_chemical_formula_sum "Si O2"
_cell_formula_units_Z 26
_cell_length_a 7.898981
_cell_length_b 12.437280
_cell_length_c 13.562024
_cell_angle_alpha 90.000000
_cell_angle_beta 61.686826
_cell_angle_gamma 90.000000
_cell_volume 1172.965928
_symmetry_space_group_name_H-M "P 2/M"
_symmetry_group_IT_number 10
_symmetry_cell_setting 'monoclinic'
loop_
_space_group_symop_operation_xyz
x,y,z
-x,y,-z
-x,-y,-z
x,-y,z
loop_
_atom_site_type_symbol
_atom_site_label
_atom_site_fract_x
_atom_site_fract_y
_atom_site_fract_z
Si Si1 0.768208 0.261545 0.946495
Si Si2 0.819326 0.500000 0.204431
Si Si3 0.758560 0.873555 0.766746
Si Si4 0.401938 0.738197 0.371802
Si Si5 0.140576 0.120575 0.557691
Si Si6 0.237038 0.500000 0.144955
Si Si7 0.213385 0.730287 0.841181
Si Si8 0.615210 0.500000 0.671927
O O1 0.691603 0.182904 0.884451
O O2 0.730094 0.386390 0.922361
O O3 0.997002 0.233531 0.883687
O O4 0.706604 0.236368 0.074871
O O5 0.822721 0.603402 0.136074
O O6 0.605581 0.500000 0.306034
O O7 0.003447 0.500000 0.224753
O O8 0.669765 0.809401 0.700175
O O9 0.990019 0.861539 0.686904
O O10 0.715300 0.000000 0.773782
O O11 0.306230 0.793462 0.492630
O O12 0.631851 0.741187 0.289016
O O13 0.318573 0.617050 0.383029
O O14 0.000000 0.122224 0.500000
O O15 0.221694 0.000000 0.542526
O O16 0.350174 0.500000 0.218309
#
# Coordination Sequence:
#
# PCOD9142085 Si02
#       8
#     4   2   4   4   4   2   4   2
#     4  10  19  35  53  77 107 141 178 211 267 317
#     4   8  17  32  50  76 114 148 180 217 260 317
#     4  10  20  36  55  75 102 136 179 225 262 313
#     4  10  18  34  52  79 108 133 173 219 264 313
#     4   8  16  33  56  74  96 136 177 218 267 315
#     4  10  17  32  55  78 110 149 180 218 267 323
#     4   9  19  33  53  76 107 144 173 213 263 325
#     4  10  18  30  51  89 110 137 180 224 266 327
#
# _framework density 22.166031
#
# number of rings (size 3 to 8) (size 9 to 14) (size 15 to 20)
#    0.000    2.615    1.538    1.846    0.000    2.462 
#    0.000   11.923    0.000    1.846    0.000    6.462 
#    0.000    0.000    0.000    0.000    0.000    0.000 
#
# Total GULP energy -144814.495540 kJ/mol
# GULP energy per Si atom -5569.788290 kJ/mol
# Density = 2.211558 g / cm^3
# Si number density = 22.166031 Si / 1000 Ang^3
#
#
#
# Elastic Constant Matrix: (Units=GPa)
#
#
# Indices 1 2 3 4 5 6 
#
# 1 78.8090 34.1526 16.6257 0.0000 -17.7303 0.0000
# 2 34.1526 97.8291 39.9132 0.0000 -1.1317 0.0000
# 3 16.6257 39.9132 74.7480 0.0000 -3.7870 0.0000
# 4 0.0000 0.0000 0.0000 74.5972 0.0000 -249.8257
# 5 -17.7303 -1.1317 -3.7870 0.0000 23.9745 0.0000
# 6 0.0000 0.0000 0.0000 -249.8257 0.0000 555.7707
#
#
#
# Elastic Compliance Matrix: (Units=1/GPa)
#
#
# Indices 1 2 3 4 5 6 
#
# 1 0.018402 -0.006233 -0.000091 0.000000 0.013300 0.000000
# 2 -0.006233 0.015186 -0.006976 0.000000 -0.004995 0.000000
# 3 -0.000091 -0.006976 0.017241 0.000000 0.002327 0.000000
# 4 0.000000 0.000000 0.000000 -0.026523 0.000000 -0.011923
# 5 0.013300 -0.004995 0.002327 0.000000 0.051679 0.000000
# 6 0.000000 0.000000 0.000000 -0.011923 0.000000 -0.003560
#
#
# Mechanical properties :
#
#
# Convention : Reuss Voigt Hill
#
# Bulk Modulus (GPa) = 41.27163 48.08546 44.67854
# Shear Modulus (GPa) = 46.68545 141.58143 94.13344
#
# Velocity S-wave (km/s) = 4.59428 8.00074 6.52377
# Velocity P-wave (km/s) = 6.84127 10.34841 8.77190
#
# Compressibility (1/GPa) = 0.02422972
#
# Stress axis : x y z
#
# Youngs Moduli (GPa) = 54.34337 65.84965 58.00094
#
# Poissons Ratio (x) = 0.41045 0.00526
# Poissons Ratio (y) = 0.33873 0.40459
# Poissons Ratio (z) = 0.00493 0.45934
#
# Static dielectric constant tensor:
#      x y z
#    x 1.915180 0.000000 -0.051610 
#    y 0.000000 1.811270 0.000000 
#    z -0.051610 0.000000 1.860040 
# 
# From -- ./inp_files/60905.got.cif
#   From: 2010.05.17/outbox.cif.g08.bks.cpg/sg10_31_cif.got.tgz:60905.got - 2010.06.03 11:33:40.
