data_PCOD9142575
_publ_section_title
;
Structure prediction by ZEFSAII (Michael W. Deem and Ramdas Pophale) SiO2 
 PCOD9142575
Probable space group: P 2/M
;
_chemical_formula_sum "Si O2"
_cell_formula_units_Z 24
_cell_length_a 27.160685
_cell_length_b 8.818504
_cell_length_c 14.339769
_cell_angle_alpha 90.000000
_cell_angle_beta 25.337978
_cell_angle_gamma 90.000000
_cell_volume 1469.866723
_symmetry_space_group_name_H-M "P 2/M"
_symmetry_group_IT_number 10
_symmetry_cell_setting 'monoclinic'
loop_
_space_group_symop_operation_xyz
x,y,z
-x,y,-z
-x,-y,-z
x,-y,z
loop_
_atom_site_type_symbol
_atom_site_label
_atom_site_fract_x
_atom_site_fract_y
_atom_site_fract_z
Si Si1 0.244462 0.820540 0.347204
Si Si2 0.387598 0.324659 0.259857
Si Si3 0.840303 0.818765 0.831964
Si Si4 0.593687 0.679786 0.259889
Si Si5 0.533055 0.820610 0.166970
Si Si6 0.063908 0.681236 0.524431
O O1 0.288437 0.757067 0.370597
O O2 0.135478 0.734476 0.491343
O O3 0.223137 0.000000 0.388667
O O4 0.350394 0.796857 0.093177
O O5 0.359533 0.500000 0.325807
O O6 0.428528 0.240863 0.283079
O O7 0.500000 0.321409 0.000000
O O8 0.871391 0.749713 0.677172
O O9 0.936172 0.750153 0.736689
O O10 0.849961 0.000000 0.810951
O O11 0.712164 0.767778 0.075726
O O12 0.500000 0.709007 0.500000
O O13 0.617466 0.500000 0.215860
O O14 0.546472 0.734178 0.240898
O O15 0.521784 0.000000 0.202167
O O16 0.060559 0.500000 0.522961
#
# Coordination Sequence:
#
# PCOD9142575 Si02
#       6
#     4   4   4   4   4   4
#     4  10  18  29  46  72 102 132 165 202 247 300
#     4   9  17  28  44  67  97 131 165 201 244 299
#     4  11  21  34  50  71  99 131 168 208 251 299
#     4  11  23  37  53  73  99 133 173 213 251 295
#     4  10  19  31  48  69  98 132 166 208 250 295
#     4  11  20  31  50  73 101 134 166 203 250 302
#
# _framework density 16.328012999999999
#
# number of rings (size 3 to 8) (size 9 to 14) (size 15 to 20)
#    0.000    1.667    1.667    6.000    0.000    4.667 
#    0.000    0.000    0.000    0.000    0.000    1.167 
#    0.000    9.333    0.000    0.000    0.000    0.000 
#
# Total GULP energy -133985.727334 kJ/mol
# GULP energy per Si atom -5582.738639 kJ/mol
# Density = 1.629085 g / cm^3
# Si number density = 16.328013 Si / 1000 Ang^3
#
#
#
# Elastic Constant Matrix: (Units=GPa)
#
#
# Indices 1 2 3 4 5 6 
#
# 1 131.0534 70.8778 41.4841 0.0000 -33.4819 0.0000
# 2 70.8778 131.5263 48.0602 0.0000 -15.3060 0.0000
# 3 41.4841 48.0602 47.6418 0.0000 -12.3411 0.0000
# 4 0.0000 0.0000 0.0000 17.9478 0.0000 -3.2858
# 5 -33.4819 -15.3060 -12.3411 0.0000 18.9225 0.0000
# 6 0.0000 0.0000 0.0000 -3.2858 0.0000 37.2951
#
#
#
# Elastic Compliance Matrix: (Units=1/GPa)
#
#
# Indices 1 2 3 4 5 6 
#
# 1 0.018333 -0.005531 -0.003778 0.000000 0.025500 0.000000
# 2 -0.005531 0.013786 -0.010514 0.000000 -0.005493 0.000000
# 3 -0.003778 -0.010514 0.037243 0.000000 0.009101 0.000000
# 4 0.000000 0.000000 0.000000 0.056631 0.000000 0.004989
# 5 0.025500 -0.005493 0.009101 0.000000 0.099461 0.000000
# 6 0.000000 0.000000 0.000000 0.004989 0.000000 0.027253
#
#
# Mechanical properties :
#
#
# Convention : Reuss Voigt Hill
#
# Bulk Modulus (GPa) = 33.65150 70.11843 51.88497
# Shear Modulus (GPa) = 16.54216 24.81969 20.68093
#
# Velocity S-wave (km/s) = 3.18640 3.90303 3.56278
# Velocity P-wave (km/s) = 5.84739 7.95917 6.98357
#
# Compressibility (1/GPa) = 0.02971636
#
# Stress axis : x y z
#
# Youngs Moduli (GPa) = 54.54718 72.53508 26.85057
#
# Poissons Ratio (x) = 0.40122 0.10143
# Poissons Ratio (y) = 0.30172 0.28231
# Poissons Ratio (z) = 0.20606 0.76263
#
# Static dielectric constant tensor:
#      x y z
#    x 1.550940 0.000000 -0.015960 
#    y 0.000000 1.543420 0.000000 
#    z -0.015960 0.000000 1.523900 
# 
# From -- ./inp_files/52393.got.cif
#   From: 2010.05.17/outbox.cif.g08.bks.cpg/sg10_27_cif.got.tgz:52393.got - 2010.06.03 11:33:40.
