data_PCOD9142253
_publ_section_title
;
Structure prediction by ZEFSAII (Michael W. Deem and Ramdas Pophale) SiO2 
 PCOD9142253
Probable space group: P 2/M
;
_chemical_formula_sum "Si O2"
_cell_formula_units_Z 24
_cell_length_a 11.787556
_cell_length_b 8.550228
_cell_length_c 20.539074
_cell_angle_alpha 90.000000
_cell_angle_beta 136.574060
_cell_angle_gamma 90.000000
_cell_volume 1422.991174
_symmetry_space_group_name_H-M "P 2/M"
_symmetry_group_IT_number 10
_symmetry_cell_setting 'monoclinic'
loop_
_space_group_symop_operation_xyz
x,y,z
-x,y,-z
-x,-y,-z
x,-y,z
loop_
_atom_site_type_symbol
_atom_site_label
_atom_site_fract_x
_atom_site_fract_y
_atom_site_fract_z
Si Si1 0.688820 0.308843 0.590874
Si Si2 0.399199 0.812763 0.180329
Si Si3 0.110812 0.309562 0.451337
Si Si4 0.243709 0.688924 0.646897
Si Si5 0.103403 0.819299 0.975345
Si Si6 0.802061 0.313984 0.780541
O O1 0.500000 0.261545 0.500000
O O2 0.691798 0.500000 0.591939
O O3 0.803382 0.255599 0.578946
O O4 0.752153 0.257907 0.687971
O O5 0.585950 0.755631 0.255930
O O6 0.315663 0.757068 0.212913
O O7 0.392231 0.000000 0.176217
O O8 0.281769 0.756766 0.071922
O O9 0.111499 0.500000 0.451194
O O10 0.211716 0.263659 0.558269
O O11 0.920724 0.262271 0.382565
O O12 0.252191 0.500000 0.651699
O O13 0.990103 0.727980 0.877470
O O14 0.116894 0.000000 0.960018
O O15 0.000000 0.818062 0.000000
O O16 0.780817 0.500000 0.774029
#
# Coordination Sequence:
#
# PCOD9142253 Si02
#       6
#     4   4   4   4   4   4
#     4   9  16  26  43  68  96 120 141 172 218 268
#     4  10  19  30  45  65  91 120 147 181 228 269
#     4   8  15  28  45  68  95 118 143 180 226 264
#     4   9  16  28  49  70  87 114 152 188 217 255
#     4   8  16  30  44  60  87 120 146 178 229 270
#     4  10  18  27  45  70  91 116 150 183 215 260
#
# _framework density 16.865881999999999
#
# number of rings (size 3 to 8) (size 9 to 14) (size 15 to 20)
#    0.000    3.000    0.000    4.000    0.000    6.333 
#    0.000    1.667    0.000   12.000    0.000    7.000 
#    0.000    0.000    0.000    0.000    0.000    0.000 
#
# Total GULP energy -133692.939332 kJ/mol
# GULP energy per Si atom -5570.539139 kJ/mol
# Density = 1.682749 g / cm^3
# Si number density = 16.865882 Si / 1000 Ang^3
#
#
#
# Elastic Constant Matrix: (Units=GPa)
#
#
# Indices 1 2 3 4 5 6 
#
# 1 82.8698 11.5610 66.8011 0.0000 2.9068 0.0000
# 2 11.5610 15.3514 20.7679 0.0000 1.4627 0.0000
# 3 66.8011 20.7679 159.6521 0.0000 15.3298 0.0000
# 4 0.0000 0.0000 0.0000-1790.3098 0.0000 670.2613
# 5 2.9068 1.4627 15.3298 0.0000 27.0866 0.0000
# 6 0.0000 0.0000 0.0000 670.2613 0.0000 -237.3062
#
#
#
# Elastic Compliance Matrix: (Units=1/GPa)
#
#
# Indices 1 2 3 4 5 6 
#
# 1 0.018581 -0.004114 -0.007475 0.000000 0.002459 0.000000
# 2 -0.004114 0.080032 -0.008795 0.000000 0.001097 0.000000
# 3 -0.007475 -0.008795 0.011011 0.000000 -0.004955 0.000000
# 4 0.000000 0.000000 0.000000 0.009726 0.000000 0.027471
# 5 0.002459 0.001097 -0.004955 0.000000 0.039400 0.000000
# 6 0.000000 0.000000 0.000000 0.027471 0.000000 0.073377
#
#
# Mechanical properties :
#
#
# Convention : Reuss Voigt Hill
#
# Bulk Modulus (GPa) = 14.52318 50.68151 32.60235
# Shear Modulus (GPa) = 16.90058 -389.52300 -186.31121
#
# Velocity S-wave (km/s) = 3.16896 -15.21363 -10.52170
# Velocity P-wave (km/s) = 4.69249 16.68806 11.32413
#
# Compressibility (1/GPa) = 0.06885543
#
# Stress axis : x y z
#
# Youngs Moduli (GPa) = 53.81910 12.49498 90.81632
#
# Poissons Ratio (x) = 0.05141 0.67889
# Poissons Ratio (y) = 0.22143 0.79869
# Poissons Ratio (z) = 0.40232 0.10989
#
# Static dielectric constant tensor:
#      x y z
#    x 1.554500 0.000000 0.009780 
#    y 0.000000 1.576330 0.000000 
#    z 0.009780 0.000000 1.586920 
# 
# From -- ./inp_files/52880.got.cif
#   From: 2010.05.17/outbox.cif.g08.bks.cpg/sg10_27_cif.got.tgz:52880.got - 2010.06.03 11:33:40.
