data_PCOD9142242
_publ_section_title
;
Structure prediction by ZEFSAII (Michael W. Deem and Ramdas Pophale) SiO2 
 PCOD9142242
Probable space group: P 2/M
;
_chemical_formula_sum "Si O2"
_cell_formula_units_Z 24
_cell_length_a 14.036788
_cell_length_b 10.885618
_cell_length_c 20.144177
_cell_angle_alpha 90.000000
_cell_angle_beta 20.132881
_cell_angle_gamma 90.000000
_cell_volume 1059.447443
_symmetry_space_group_name_H-M "P 2/M"
_symmetry_group_IT_number 10
_symmetry_cell_setting 'monoclinic'
loop_
_space_group_symop_operation_xyz
x,y,z
-x,y,-z
-x,-y,-z
x,-y,z
loop_
_atom_site_type_symbol
_atom_site_label
_atom_site_fract_x
_atom_site_fract_y
_atom_site_fract_z
Si Si1 0.315651 0.133581 0.768120
Si Si2 0.461769 0.227502 0.809489
Si Si3 0.143976 0.355483 0.791812
Si Si4 0.963513 0.639400 0.430039
Si Si5 0.025359 0.363898 0.724321
Si Si6 0.500229 0.188715 0.072714
O O1 0.480568 0.153048 0.728540
O O2 0.310029 0.252423 0.724364
O O3 0.388959 0.000000 0.689539
O O4 0.000000 0.125718 0.000000
O O5 0.725871 0.316856 0.634869
O O6 0.473869 0.143541 0.867763
O O7 0.179426 0.309193 0.991442
O O8 0.172067 0.500000 0.794210
O O9 0.202664 0.349100 0.674586
O O10 0.051287 0.500000 0.385376
O O11 0.837855 0.641553 0.437171
O O12 0.223904 0.729320 0.256119
O O13 0.899531 0.500000 0.812039
O O14 0.775288 0.270280 0.889115
O O15 0.500000 0.125534 0.000000
#
# Coordination Sequence:
#
# PCOD9142242 Si02
#       6
#     4   4   4   4   4   4
#     4   9  19  35  54  75 100 133 170 207 253 307
#     4  10  19  29  47  73 101 130 166 210 254 295
#     4   9  17  31  52  76 101 131 169 210 250 295
#     4  10  18  27  43  71 106 137 167 205 249 296
#     4   8  15  28  45  68 101 139 170 200 245 298
#     4   9  17  29  45  67  99 138 172 202 244 300
#
# _framework density 22.653317999999999
#
# number of rings (size 3 to 8) (size 9 to 14) (size 15 to 20)
#    0.000    2.833    0.000    1.500    0.000    8.333 
#    0.000    0.833    0.000    7.500    0.000    4.667 
#    0.000    0.000    0.000    0.000    0.000    0.000 
#
# Total GULP energy -133635.455964 kJ/mol
# GULP energy per Si atom -5568.143999 kJ/mol
# Density = 2.260176 g / cm^3
# Si number density = 22.653318 Si / 1000 Ang^3
#
#
#
# Elastic Constant Matrix: (Units=GPa)
#
#
# Indices 1 2 3 4 5 6 
#
# 1 155.3884 75.4045 8.5563 0.0000 24.4395 0.0000
# 2 75.4045 148.1832 25.8753 0.0000 7.5646 0.0000
# 3 8.5563 25.8753 51.5906 0.0000 6.1355 0.0000
# 4 0.0000 0.0000 0.0000 -15.9261 0.0000 -17.4961
# 5 24.4395 7.5646 6.1355 0.0000 38.7787 0.0000
# 6 0.0000 0.0000 0.0000 -17.4961 0.0000 -74.5133
#
#
#
# Elastic Compliance Matrix: (Units=1/GPa)
#
#
# Indices 1 2 3 4 5 6 
#
# 1 0.009536 -0.004840 0.001476 0.000000 -0.005300 0.000000
# 2 -0.004840 0.009882 -0.004369 0.000000 0.001814 0.000000
# 3 0.001476 -0.004369 0.021748 0.000000 -0.003519 0.000000
# 4 0.000000 0.000000 0.000000 -0.084617 0.000000 0.019868
# 5 -0.005300 0.001814 -0.003519 0.000000 0.029330 0.000000
# 6 0.000000 0.000000 0.000000 0.019868 0.000000 -0.018086
#
#
# Mechanical properties :
#
#
# Convention : Reuss Voigt Hill
#
# Bulk Modulus (GPa) = 38.90980 63.87050 51.39015
# Shear Modulus (GPa) = -611.73309 6.02291 -302.85509
#
# Velocity S-wave (km/s) = -16.45076 1.63233 -11.57504
# Velocity P-wave (km/s) = 18.53708 5.63992 12.48628
#
# Compressibility (1/GPa) = 0.02570046
#
# Stress axis : x y z
#
# Youngs Moduli (GPa) = 104.86218 101.19876 45.98039
#
# Poissons Ratio (x) = 0.48979 -0.06787
# Poissons Ratio (y) = 0.50752 0.20089
# Poissons Ratio (z) = -0.15479 0.44215
#
# Static dielectric constant tensor:
#      x y z
#    x 1.954850 0.000000 0.012340 
#    y 0.000000 1.923810 0.000000 
#    z 0.012340 0.000000 1.799400 
# 
# From -- ./inp_files/85170.got.cif
#   From: 2010.05.17/outbox.cif.g08.bks.cpg/sg10_43_cif.got.tgz:85170.got - 2010.06.03 11:33:40.
