data_PCOD9142928
_publ_section_title
;
Structure prediction by ZEFSAII (Michael W. Deem and Ramdas Pophale) SiO2 
 PCOD9142928
Probable space group: P 2/M
;
_chemical_formula_sum "Si O2"
_cell_formula_units_Z 32
_cell_length_a 18.598574
_cell_length_b 13.862759
_cell_length_c 20.218006
_cell_angle_alpha 90.000000
_cell_angle_beta 157.713770
_cell_angle_gamma 90.000000
_cell_volume 1976.854334
_symmetry_space_group_name_H-M "P 2/M"
_symmetry_group_IT_number 10
_symmetry_cell_setting 'monoclinic'
loop_
_space_group_symop_operation_xyz
x,y,z
-x,y,-z
-x,-y,-z
x,-y,z
loop_
_atom_site_type_symbol
_atom_site_label
_atom_site_fract_x
_atom_site_fract_y
_atom_site_fract_z
Si Si1 0.866495 0.798615 0.449900
Si Si2 0.059326 0.888908 0.742024
Si Si3 0.033063 0.299699 0.796651
Si Si4 0.213308 0.385020 0.298289
Si Si5 0.644100 0.614749 0.717138
Si Si6 0.178654 0.389054 0.506957
Si Si7 0.502738 0.113938 0.925724
Si Si8 0.380170 0.614614 0.154154
O O1 0.868143 0.688523 0.476683
O O2 0.655064 0.830154 0.250085
O O3 0.000000 0.812103 0.500000
O O4 0.947226 0.861332 0.579618
O O5 0.005961 0.810575 0.751824
O O6 0.023584 0.000000 0.729192
O O7 0.283465 0.876553 0.918344
O O8 0.926810 0.328854 0.773372
O O9 0.946615 0.363462 0.663786
O O10 0.251157 0.327165 0.993682
O O11 0.167930 0.500000 0.260834
O O12 0.226072 0.350547 0.233060
O O13 0.425428 0.374496 0.508490
O O14 0.678539 0.500000 0.749462
O O15 0.663493 0.650192 0.808300
O O16 0.150655 0.500000 0.502710
O O17 0.397629 0.376034 0.671604
O O18 0.452588 0.000000 0.881968
O O19 0.500000 0.145881 0.000000
O O20 0.334224 0.500000 0.111107
#
# Coordination Sequence:
#
# PCOD9142928 Si02
#       8
#     4   4   4   4   4   4   4   4
#     4  11  21  34  55  77  98 127 164 200 241 298
#     4  10  22  37  52  75 100 123 158 205 255 297
#     4  11  20  31  51  72  96 132 168 199 240 294
#     4   9  15  27  46  71 103 133 162 196 239 283
#     4   8  15  26  44  71 103 133 160 199 241 278
#     4  10  21  35  48  68 103 138 167 197 233 281
#     4  10  19  33  55  77  98 119 146 200 264 302
#     4  10  18  30  49  73 101 132 166 200 237 282
#
# _framework density 16.187334
#
# number of rings (size 3 to 8) (size 9 to 14) (size 15 to 20)
#    0.000    2.125    2.500    3.000    0.000    1.250 
#    0.000    1.875    0.000    0.375    0.000    3.500 
#    0.000    0.000    0.000    0.000    0.000    0.000 
#
# Total GULP energy -178471.495539 kJ/mol
# GULP energy per Si atom -5577.234236 kJ/mol
# Density = 1.615049 g / cm^3
# Si number density = 16.187334 Si / 1000 Ang^3
#
#
#
# Elastic Constant Matrix: (Units=GPa)
#
#
# Indices 1 2 3 4 5 6 
#
# 1 32.6589 16.3743 6.8268 0.0000 1.6837 0.0000
# 2 16.3743 70.4787 26.3045 0.0000 -1.2792 0.0000
# 3 6.8268 26.3045 92.8435 0.0000 -12.2039 0.0000
# 4 0.0000 0.0000 0.0000 18.0287 0.0000 1.2644
# 5 1.6837 -1.2792 -12.2039 0.0000 11.2469 0.0000
# 6 0.0000 0.0000 0.0000 1.2644 0.0000 4.2842
#
#
#
# Elastic Compliance Matrix: (Units=1/GPa)
#
#
# Indices 1 2 3 4 5 6 
#
# 1 0.035217 -0.007804 -0.001386 0.000000 -0.007663 0.000000
# 2 -0.007804 0.017721 -0.004698 0.000000 -0.001914 0.000000
# 3 -0.001386 -0.004698 0.014184 0.000000 0.015064 0.000000
# 4 0.000000 0.000000 0.000000 0.056639 0.000000 -0.016716
# 5 -0.007663 -0.001914 0.015064 0.000000 0.106188 0.000000
# 6 0.000000 0.000000 0.000000 -0.016716 0.000000 0.238350
#
#
# Mechanical properties :
#
#
# Convention : Reuss Voigt Hill
#
# Bulk Modulus (GPa) = 25.41604 32.77694 29.09649
# Shear Modulus (GPa) = 9.81951 16.47700 13.14826
#
# Velocity S-wave (km/s) = 2.46563 3.19391 2.85310
# Velocity P-wave (km/s) = 4.88273 5.82184 5.37284
#
# Compressibility (1/GPa) = 0.03934524
#
# Stress axis : x y z
#
# Youngs Moduli (GPa) = 28.39546 56.43158 70.50219
#
# Poissons Ratio (x) = 0.44038 0.09771
# Poissons Ratio (y) = 0.22159 0.33125
# Poissons Ratio (z) = 0.03935 0.26514
#
# Static dielectric constant tensor:
#      x y z
#    x 1.549050 0.000000 0.004220 
#    y 0.000000 1.520260 0.000000 
#    z 0.004220 0.000000 1.560240 
# 
# From -- ./inp_files/86310.got.cif
#   From: 2010.05.17/outbox.cif.g08.bks.cpg/sg10_44_cif.got.tgz:86310.got - 2010.06.03 11:33:40.
