data_PCOD9142493
_publ_section_title
;
Structure prediction by ZEFSAII (Michael W. Deem and Ramdas Pophale) SiO2 
 PCOD9142493
Probable space group: P 2/M
;
_chemical_formula_sum "Si O2"
_cell_formula_units_Z 32
_cell_length_a 13.201154
_cell_length_b 8.700932
_cell_length_c 18.984520
_cell_angle_alpha 90.000000
_cell_angle_beta 90.232864
_cell_angle_gamma 90.000000
_cell_volume 2180.588443
_symmetry_space_group_name_H-M "P 2/M"
_symmetry_group_IT_number 10
_symmetry_cell_setting 'monoclinic'
loop_
_space_group_symop_operation_xyz
x,y,z
-x,y,-z
-x,-y,-z
x,-y,z
loop_
_atom_site_type_symbol
_atom_site_label
_atom_site_fract_x
_atom_site_fract_y
_atom_site_fract_z
Si Si1 0.386359 0.680872 0.792726
Si Si2 0.704858 0.315745 0.664279
Si Si3 0.890751 0.316551 0.423029
Si Si4 0.401909 0.817905 0.212485
Si Si5 0.298238 0.182067 0.659699
Si Si6 0.513210 0.182729 0.079258
Si Si7 0.503846 0.684560 0.416540
Si Si8 0.107299 0.183798 0.420125
O O1 0.370444 0.500000 0.789522
O O2 0.497713 0.725901 0.762944
O O3 0.310594 0.768388 0.741258
O O4 0.399415 0.738792 0.873163
O O5 0.712268 0.500000 0.664719
O O6 0.688487 0.251059 0.743004
O O7 0.603494 0.272767 0.619563
O O8 0.802635 0.243305 0.628479
O O9 0.896779 0.500000 0.427762
O O10 0.797630 0.265222 0.374867
O O11 0.874690 0.247934 0.501085
O O12 0.997942 0.249355 0.397368
O O13 0.412630 0.000000 0.226466
O O14 0.412627 0.797124 0.127972
O O15 0.399684 0.234851 0.618701
O O16 0.287481 0.000000 0.653970
O O17 0.533531 0.000000 0.076872
O O18 0.500000 0.239996 0.000000
O O19 0.500000 0.717950 0.500000
O O20 0.516586 0.500000 0.408079
O O21 0.104167 0.000000 0.421928
#
# Coordination Sequence:
#
# PCOD9142493 Si02
#       8
#     4   4   4   4   4   4   4   4
#     4  10  18  29  44  66  94 126 158 190 229 277
#     4  11  20  31  48  68  95 127 159 196 241 286
#     4  11  22  38  55  70  91 120 160 205 252 294
#     4   9  17  29  44  65  93 126 158 191 230 275
#     4  12  22  33  49  68  93 123 158 197 242 288
#     4   8  15  28  45  66  96 131 162 192 229 276
#     4  10  20  31  44  64  90 119 153 190 234 285
#     4  11  22  37  54  72  93 119 160 205 248 294
#
# _framework density 14.674937999999999
#
# number of rings (size 3 to 8) (size 9 to 14) (size 15 to 20)
#    0.750    1.000    1.250    6.375    0.000    2.000 
#    0.000    0.000    0.000    0.000    0.000    0.000 
#    0.000    1.000    0.000   10.750    0.000    4.750 
#
# Total GULP energy -178273.586938 kJ/mol
# GULP energy per Si atom -5571.049592 kJ/mol
# Density = 1.464154 g / cm^3
# Si number density = 14.674938 Si / 1000 Ang^3
#
#
#
# Elastic Constant Matrix: (Units=GPa)
#
#
# Indices 1 2 3 4 5 6 
#
# 1 77.3020 31.6389 42.0669 0.0000 -3.9669 0.0000
# 2 31.6389 90.9825 32.9165 0.0000 -3.8025 0.0000
# 3 42.0669 32.9165 87.3758 0.0000 -2.4315 0.0000
# 4 0.0000 0.0000 0.0000 32.4748 0.0000 17.6156
# 5 -3.9669 -3.8025 -2.4315 0.0000 13.2377 0.0000
# 6 0.0000 0.0000 0.0000 17.6156 0.0000 50.7274
#
#
#
# Elastic Compliance Matrix: (Units=1/GPa)
#
#
# Indices 1 2 3 4 5 6 
#
# 1 0.018692 -0.003640 -0.007540 0.000000 0.003171 0.000000
# 2 -0.003640 0.013538 -0.003287 0.000000 0.002194 0.000000
# 3 -0.007540 -0.003287 0.016307 0.000000 -0.000208 0.000000
# 4 0.000000 0.000000 0.000000 0.037940 0.000000 -0.013175
# 5 0.003171 0.002194 -0.000208 0.000000 0.077084 0.000000
# 6 0.000000 0.000000 0.000000 -0.013175 0.000000 0.024288
#
#
# Mechanical properties :
#
#
# Convention : Reuss Voigt Hill
#
# Bulk Modulus (GPa) = 51.00856 52.10054 51.55455
# Shear Modulus (GPa) = 22.38991 29.22387 25.80689
#
# Velocity S-wave (km/s) = 3.91029 4.46737 4.19808
# Velocity P-wave (km/s) = 7.43112 7.88606 7.66197
#
# Compressibility (1/GPa) = 0.01960455
#
# Stress axis : x y z
#
# Youngs Moduli (GPa) = 53.49974 73.86862 61.32297
#
# Poissons Ratio (x) = 0.26886 0.46236
# Poissons Ratio (y) = 0.19472 0.20154
# Poissons Ratio (z) = 0.40337 0.24277
#
# Static dielectric constant tensor:
#      x y z
#    x 1.472680 0.000000 -0.000740 
#    y 0.000000 1.487400 0.000000 
#    z -0.000740 0.000000 1.504020 
# 
# From -- ./inp_files/75991.got.cif
#   From: 2010.05.17/outbox.cif.g08.bks.cpg/sg10_38_cif.got.tgz:75991.got - 2010.06.03 11:33:40.
