data_PCOD9142646
_publ_section_title
;
Structure prediction by ZEFSAII (Michael W. Deem and Ramdas Pophale) SiO2 
 PCOD9142646
Probable space group: P 2/M
;
_chemical_formula_sum "Si O2"
_cell_formula_units_Z 28
_cell_length_a 18.564564
_cell_length_b 9.038053
_cell_length_c 22.555951
_cell_angle_alpha 90.000000
_cell_angle_beta 153.640999
_cell_angle_gamma 90.000000
_cell_volume 1680.343235
_symmetry_space_group_name_H-M "P 2/M"
_symmetry_group_IT_number 10
_symmetry_cell_setting 'monoclinic'
loop_
_space_group_symop_operation_xyz
x,y,z
-x,y,-z
-x,-y,-z
x,-y,z
loop_
_atom_site_type_symbol
_atom_site_label
_atom_site_fract_x
_atom_site_fract_y
_atom_site_fract_z
Si Si1 0.804752 0.825921 0.353888
Si Si2 0.669155 0.673290 0.662088
Si Si3 0.691770 0.325801 0.149587
Si Si4 0.255608 0.323013 0.567604
Si Si5 0.451819 0.322638 0.601936
Si Si6 0.161773 0.824427 0.313784
Si Si7 0.038060 0.822282 0.724380
O O1 0.743505 0.745876 0.249883
O O2 0.734909 0.749763 0.361229
O O3 0.000000 0.812090 0.500000
O O4 0.765332 0.000000 0.323374
O O5 0.500000 0.691387 0.500000
O O6 0.708400 0.500000 0.690470
O O7 0.618338 0.718971 0.691315
O O8 0.808499 0.757607 0.729180
O O9 0.732337 0.500000 0.179086
O O10 0.793542 0.243698 0.173702
O O11 0.500000 0.309325 0.000000
O O12 0.231963 0.500000 0.554503
O O13 0.413324 0.295450 0.642331
O O14 0.101910 0.251136 0.419924
O O15 0.432290 0.500000 0.577823
O O16 0.309236 0.239256 0.461974
O O17 0.005831 0.788464 0.239369
O O18 0.174878 0.000000 0.319737
O O19 0.032825 0.000000 0.712437
#
# Coordination Sequence:
#
# PCOD9142646 Si02
#       7
#     4   4   4   4   4   4   4
#     4  11  22  35  53  76 101 129 163 201 244 298
#     4   8  13  22  34  50  79 117 154 187 227 279
#     4  11  24  39  55  75  97 125 164 207 249 293
#     4  10  18  29  48  70  94 125 163 205 242 279
#     4   8  15  25  36  55  84 119 154 190 234 279
#     4   9  16  23  35  57  84 115 154 193 229 276
#     4  10  19  31  46  67  95 126 160 199 244 293
#
# _framework density 16.663262
#
# number of rings (size 3 to 8) (size 9 to 14) (size 15 to 20)
#    0.000    2.429    1.429    3.000    0.000    6.571 
#    0.000    0.000    0.000    0.000    0.000    0.000 
#    0.000    1.143    0.000   12.857    0.000    8.000 
#
# Total GULP energy -155928.973397 kJ/mol
# GULP energy per Si atom -5568.891907 kJ/mol
# Density = 1.662534 g / cm^3
# Si number density = 16.663262 Si / 1000 Ang^3
#
#
#
# Elastic Constant Matrix: (Units=GPa)
#
#
# Indices 1 2 3 4 5 6 
#
# 1 191.9827 77.5374 23.0929 0.0000 14.2046 0.0000
# 2 77.5374 83.1675 26.5442 0.0000 6.4994 0.0000
# 3 23.0929 26.5442 23.3677 0.0000 4.1473 0.0000
# 4 0.0000 0.0000 0.0000 0.9386 0.0000 -3.3409
# 5 14.2046 6.4994 4.1473 0.0000 8.4789 0.0000
# 6 0.0000 0.0000 0.0000 -3.3409 0.0000 24.3245
#
#
#
# Elastic Compliance Matrix: (Units=1/GPa)
#
#
# Indices 1 2 3 4 5 6 
#
# 1 0.009060 -0.008434 0.002381 0.000000 -0.009877 0.000000
# 2 -0.008434 0.026863 -0.023032 0.000000 0.004804 0.000000
# 3 0.002381 -0.023032 0.070280 0.000000 -0.020710 0.000000
# 4 0.000000 0.000000 0.000000 2.084661 0.000000 0.286321
# 5 -0.009877 0.004804 -0.020710 0.000000 0.140934 0.000000
# 6 0.000000 0.000000 0.000000 0.286321 0.000000 0.080436
#
#
# Mechanical properties :
#
#
# Convention : Reuss Voigt Hill
#
# Bulk Modulus (GPa) = 20.81988 61.42965 41.12476
# Shear Modulus (GPa) = 2.01093 18.17128 10.09110
#
# Velocity S-wave (km/s) = 1.09974 3.30585 2.46354
# Velocity P-wave (km/s) = 3.75954 7.17753 5.72936
#
# Compressibility (1/GPa) = 0.04803102
#
# Stress axis : x y z
#
# Youngs Moduli (GPa) = 110.37963 37.22620 14.22888
#
# Poissons Ratio (x) = 0.31398 -0.03387
# Poissons Ratio (y) = 0.93098 0.32772
# Poissons Ratio (z) = -0.26277 0.85739
#
# Static dielectric constant tensor:
#      x y z
#    x 1.634400 0.000000 0.007850 
#    y 0.000000 1.555240 0.000000 
#    z 0.007850 0.000000 1.516870 
# 
# From -- ./inp_files/75747.got.cif
#   From: 2010.05.17/outbox.cif.g08.bks.cpg/sg10_38_cif.got.tgz:75747.got - 2010.06.03 11:33:40.
