data_PCOD9142064
_publ_section_title
;
Structure prediction by ZEFSAII (Michael W. Deem and Ramdas Pophale) SiO2 
 PCOD9142064
Probable space group: P 2/M
;
_chemical_formula_sum "Si O2"
_cell_formula_units_Z 32
_cell_length_a 19.692666
_cell_length_b 7.594579
_cell_length_c 12.777936
_cell_angle_alpha 90.000000
_cell_angle_beta 130.439152
_cell_angle_gamma 90.000000
_cell_volume 1454.480619
_symmetry_space_group_name_H-M "P 2/M"
_symmetry_group_IT_number 10
_symmetry_cell_setting 'monoclinic'
loop_
_space_group_symop_operation_xyz
x,y,z
-x,y,-z
-x,-y,-z
x,-y,z
loop_
_atom_site_type_symbol
_atom_site_label
_atom_site_fract_x
_atom_site_fract_y
_atom_site_fract_z
Si Si1 0.859696 0.702769 0.072312
Si Si2 0.771978 0.214790 0.586041
Si Si3 0.683760 0.213866 0.279910
Si Si4 0.035725 0.204039 0.146307
Si Si5 0.273481 0.212425 0.232515
Si Si6 0.709354 0.703386 0.077721
Si Si7 0.503099 0.790897 0.836478
Si Si8 0.537198 0.784877 0.647177
O O1 0.875900 0.500000 0.116992
O O2 0.787449 0.781165 0.082101
O O3 0.955444 0.788677 0.149234
O O4 0.811531 0.713645 0.911383
O O5 0.730139 0.272317 0.434386
O O6 0.872881 0.275405 0.712614
O O7 0.718456 0.263484 0.638183
O O8 0.770618 0.000000 0.579345
O O9 0.730720 0.278044 0.221609
O O10 0.579561 0.275341 0.177288
O O11 0.686013 0.000000 0.277774
O O12 0.057319 0.000000 0.143667
O O13 0.000000 0.281550 0.000000
O O14 0.359250 0.264029 0.251204
O O15 0.267138 0.000000 0.223822
O O16 0.704224 0.500000 0.042562
O O17 0.607552 0.770455 0.965931
O O18 0.491281 0.722371 0.706426
O O19 0.489133 0.000000 0.821089
O O20 0.500000 0.723486 0.500000
O O21 0.531558 0.000000 0.641618
#
# Coordination Sequence:
#
# PCOD9142064 Si02
#       8
#     4   4   4   4   4   4   4   4
#     4  11  23  37  54  80 112 145 186 232 273 318
#     4   9  18  34  57  87 117 141 175 226 281 336
#     4  10  21  37  58  84 113 144 184 235 281 326
#     4  10  19  35  61  89 114 143 178 220 276 342
#     4  10  17  31  56  81 111 146 178 219 275 333
#     4  11  24  40  56  76 110 154 196 234 272 321
#     4  10  19  33  56  85 111 141 187 235 277 326
#     4   9  16  26  47  81 114 143 177 219 272 330
#
# _framework density 22.000979000000001
#
# number of rings (size 3 to 8) (size 9 to 14) (size 15 to 20)
#    0.000    2.000    2.500    1.875    0.000    6.750 
#    0.000    1.875    0.000    6.750    0.000    0.000 
#    0.000    0.000    0.000    0.000    0.000    0.000 
#
# Total GULP energy -178577.484194 kJ/mol
# GULP energy per Si atom -5580.546381 kJ/mol
# Density = 2.195090 g / cm^3
# Si number density = 22.000979 Si / 1000 Ang^3
#
#
#
# Elastic Constant Matrix: (Units=GPa)
#
#
# Indices 1 2 3 4 5 6 
#
# 1 128.8232 -2.8835 42.6482 0.0000 -12.5665 0.0000
# 2 -2.8835 42.5618 -3.3387 0.0000 2.5209 0.0000
# 3 42.6482 -3.3387 74.0017 0.0000 -15.7998 0.0000
# 4 0.0000 0.0000 0.0000 38.6467 0.0000 -13.6870
# 5 -12.5665 2.5209 -15.7998 0.0000 36.2694 0.0000
# 6 0.0000 0.0000 0.0000 -13.6870 0.0000 -19.7391
#
#
#
# Elastic Compliance Matrix: (Units=1/GPa)
#
#
# Indices 1 2 3 4 5 6 
#
# 1 0.009628 0.000175 -0.005326 0.000000 0.001003 0.000000
# 2 0.000175 0.023637 0.000692 0.000000 -0.001281 0.000000
# 3 -0.005326 0.000692 0.017872 0.000000 0.005892 0.000000
# 4 0.000000 0.000000 0.000000 0.020774 0.000000 -0.014405
# 5 0.001003 -0.001281 0.005892 0.000000 0.030575 0.000000
# 6 0.000000 0.000000 0.000000 -0.014405 0.000000 -0.040673
#
#
# Mechanical properties :
#
#
# Convention : Reuss Voigt Hill
#
# Bulk Modulus (GPa) = 23.68639 35.35985 29.52312
# Shear Modulus (GPa) = 58.95908 24.96610 41.96259
#
# Velocity S-wave (km/s) = 5.18233 3.37229 4.37201
# Velocity P-wave (km/s) = 6.82629 5.59196 6.23972
#
# Compressibility (1/GPa) = 0.04221833
#
# Stress axis : x y z
#
# Youngs Moduli (GPa) = 103.86636 42.30612 55.95314
#
# Poissons Ratio (x) = -0.00740 0.29803
# Poissons Ratio (y) = -0.01818 -0.03872
# Poissons Ratio (z) = 0.55324 -0.02928
#
# Static dielectric constant tensor:
#      x y z
#    x 1.824060 0.000000 0.007570 
#    y 0.000000 1.858520 0.000000 
#    z 0.007570 0.000000 1.817190 
# 
# From -- ./inp_files/55331.got.cif
#   From: 2010.05.17/outbox.cif.g08.bks.cpg/sg10_28_cif.got.tgz:55331.got - 2010.06.03 11:33:40.
