data_PCOD9142332
_publ_section_title
;
Structure prediction by ZEFSAII (Michael W. Deem and Ramdas Pophale) SiO2 
 PCOD9142332
Probable space group: P 2/M
;
_chemical_formula_sum "Si O2"
_cell_formula_units_Z 32
_cell_length_a 22.538601
_cell_length_b 10.534495
_cell_length_c 11.543828
_cell_angle_alpha 90.000000
_cell_angle_beta 135.091430
_cell_angle_gamma 90.000000
_cell_volume 1935.001881
_symmetry_space_group_name_H-M "P 2/M"
_symmetry_group_IT_number 10
_symmetry_cell_setting 'monoclinic'
loop_
_space_group_symop_operation_xyz
x,y,z
-x,y,-z
-x,-y,-z
x,-y,z
loop_
_atom_site_type_symbol
_atom_site_label
_atom_site_fract_x
_atom_site_fract_y
_atom_site_fract_z
Si Si1 0.790793 0.647689 0.064244
Si Si2 0.597344 0.145990 0.163113
Si Si3 0.145927 0.771475 0.449042
Si Si4 0.695667 0.356455 0.435920
Si Si5 0.011907 0.650544 0.649673
Si Si6 0.217575 0.645601 0.204806
Si Si7 0.743878 0.142791 0.186275
Si Si8 0.099784 0.140463 0.137537
O O1 0.781116 0.500000 0.088749
O O2 0.890812 0.669916 0.185146
O O3 0.758473 0.747452 0.113138
O O4 0.750399 0.663160 0.881530
O O5 0.633995 0.248963 0.302532
O O6 0.654464 0.157087 0.126908
O O7 0.608369 0.000000 0.220231
O O8 0.500000 0.166100 0.000000
O O9 0.214668 0.666358 0.504740
O O10 0.188101 0.841258 0.616226
O O11 0.132107 0.852933 0.314622
O O12 0.056599 0.716864 0.364912
O O13 0.666669 0.500000 0.373083
O O14 0.714777 0.341848 0.598875
O O15 0.995114 0.500000 0.630640
O O16 0.000000 0.692638 0.500000
O O17 0.184742 0.500000 0.165879
O O18 0.146431 0.748268 0.134198
O O19 0.750514 0.000000 0.147062
O O20 0.117545 0.000000 0.114038
O O21 0.000000 0.159867 0.000000
#
# Coordination Sequence:
#
# PCOD9142332 Si02
#       8
#     4   4   4   4   4   4   4   4
#     4  10  20  34  50  69  99 136 173 209 244 286
#     4   9  19  36  57  80 105 130 156 192 244 304
#     4  10  18  31  48  68  99 133 167 208 254 297
#     4   9  18  31  52  79 102 126 162 208 251 292
#     4  10  18  28  44  67  95 132 176 213 242 284
#     4   9  19  34  50  70  96 131 171 206 245 295
#     4  10  20  33  50  73  99 127 160 199 246 297
#     4  10  20  32  47  67  94 127 169 219 263 298
#
# _framework density 16.537451999999998
#
# number of rings (size 3 to 8) (size 9 to 14) (size 15 to 20)
#    0.000    2.375    1.250    1.500    0.000    6.500 
#    0.000    1.875    0.000    0.750    0.000    5.250 
#    0.000    0.000    0.000    0.000    0.000    0.000 
#
# Total GULP energy -178342.556689 kJ/mol
# GULP energy per Si atom -5573.204897 kJ/mol
# Density = 1.649981 g / cm^3
# Si number density = 16.537452 Si / 1000 Ang^3
#
#
#
# Elastic Constant Matrix: (Units=GPa)
#
#
# Indices 1 2 3 4 5 6 
#
# 1 55.7447 51.3263 38.0906 0.0000 -0.2351 0.0000
# 2 51.3263 128.4532 66.7634 0.0000 -3.3488 0.0000
# 3 38.0906 66.7634 69.2063 0.0000 -8.5503 0.0000
# 4 0.0000 0.0000 0.0000 -118.4907 0.0000 23.5936
# 5 -0.2351 -3.3488 -8.5503 0.0000 25.5581 0.0000
# 6 0.0000 0.0000 0.0000 23.5936 0.0000 11.1049
#
#
#
# Elastic Compliance Matrix: (Units=1/GPa)
#
#
# Indices 1 2 3 4 5 6 
#
# 1 0.032264 -0.007002 -0.011558 0.000000 -0.004487 0.000000
# 2 -0.007002 0.017376 -0.013180 0.000000 -0.002197 0.000000
# 3 -0.011558 -0.013180 0.034735 0.000000 0.009787 0.000000
# 4 0.000000 0.000000 0.000000 -0.005931 0.000000 0.012600
# 5 -0.004487 -0.002197 0.009787 0.000000 0.042072 0.000000
# 6 0.000000 0.000000 0.000000 0.012600 0.000000 0.063280
#
#
# Mechanical properties :
#
#
# Convention : Reuss Voigt Hill
#
# Bulk Modulus (GPa) = 47.85697 62.86277 55.35987
# Shear Modulus (GPa) = 19.66642 -9.88394 4.89124
#
# Velocity S-wave (km/s) = 3.45223 -2.44738 1.72166
# Velocity P-wave (km/s) = 6.70014 5.48714 6.12375
#
# Compressibility (1/GPa) = 0.02089560
#
# Stress axis : x y z
#
# Youngs Moduli (GPa) = 30.99401 57.55162 28.78939
#
# Poissons Ratio (x) = 0.40296 0.33274
# Poissons Ratio (y) = 0.21701 0.37945
# Poissons Ratio (z) = 0.35822 0.75854
#
# Static dielectric constant tensor:
#      x y z
#    x 1.532840 0.000000 -0.014120 
#    y 0.000000 1.565890 0.000000 
#    z -0.014120 0.000000 1.568330 
# 
# From -- ./inp_files/56482.got.cif
#   From: 2010.05.17/outbox.cif.g08.bks.cpg/sg10_29_cif.got.tgz:56482.got - 2010.06.03 11:33:40.
