data_PCOD9142228
_publ_section_title
;
Structure prediction by ZEFSAII (Michael W. Deem and Ramdas Pophale) SiO2 
 PCOD9142228
Probable space group: P 2/M
;
_chemical_formula_sum "Si O2"
_cell_formula_units_Z 32
_cell_length_a 22.163932
_cell_length_b 8.490615
_cell_length_c 31.995267
_cell_angle_alpha 90.000000
_cell_angle_beta 160.773757
_cell_angle_gamma 90.000000
_cell_volume 1982.724265
_symmetry_space_group_name_H-M "P 2/M"
_symmetry_group_IT_number 10
_symmetry_cell_setting 'monoclinic'
loop_
_space_group_symop_operation_xyz
x,y,z
-x,y,-z
-x,-y,-z
x,-y,z
loop_
_atom_site_type_symbol
_atom_site_label
_atom_site_fract_x
_atom_site_fract_y
_atom_site_fract_z
Si Si1 0.782807 0.687276 0.445516
Si Si2 0.814259 0.188908 0.902084
Si Si3 0.552986 0.188810 0.216509
Si Si4 0.170834 0.311079 0.993358
Si Si5 0.116549 0.816391 0.619454
Si Si6 0.434796 0.309620 0.616309
Si Si7 0.213279 0.691820 0.295972
Si Si8 0.578970 0.307971 0.486803
O O1 0.758424 0.500000 0.426317
O O2 0.655555 0.764502 0.326631
O O3 0.710334 0.740365 0.443256
O O4 0.992509 0.729001 0.572099
O O5 0.635100 0.255101 0.761978
O O6 0.806107 0.000000 0.896181
O O7 0.817003 0.245923 0.951665
O O8 0.000000 0.239832 0.000000
O O9 0.683876 0.243820 0.264002
O O10 0.545720 0.000000 0.209925
O O11 0.350906 0.258167 0.086222
O O12 0.167923 0.500000 0.993784
O O13 0.983466 0.254926 0.848958
O O14 0.000000 0.808573 0.500000
O O15 0.129646 0.000000 0.639650
O O16 0.434865 0.500000 0.615580
O O17 0.392974 0.253198 0.542089
O O18 0.210463 0.500000 0.294341
O O19 0.274022 0.742660 0.382144
O O20 0.378324 0.738248 0.372842
O O21 0.581859 0.500000 0.488427
#
# Coordination Sequence:
#
# PCOD9142228 Si02
#       8
#     4   4   4   4   4   4   4   4
#     4  10  18  27  42  68  95 120 151 189 229 270
#     4  11  23  34  44  62  92 129 160 185 223 276
#     4  10  19  31  45  63  91 126 156 185 225 276
#     4  11  20  30  47  71  94 119 154 194 234 273
#     4   8  16  29  44  61  85 122 158 183 222 273
#     4  10  19  30  47  70  94 121 152 189 231 275
#     4   8  15  27  46  69  90 116 153 195 234 272
#     4   8  14  28  47  67  91 118 151 192 235 274
#
# _framework density 16.139409000000001
#
# number of rings (size 3 to 8) (size 9 to 14) (size 15 to 20)
#    0.000    2.500    1.250    3.750    0.000    5.250 
#    0.000    0.000    0.000    1.500    0.000    7.000 
#    0.000    7.000    0.000    0.000    0.000    0.000 
#
# Total GULP energy -178359.867121 kJ/mol
# GULP energy per Si atom -5573.745848 kJ/mol
# Density = 1.610268 g / cm^3
# Si number density = 16.139409 Si / 1000 Ang^3
#
#
#
# Elastic Constant Matrix: (Units=GPa)
#
#
# Indices 1 2 3 4 5 6 
#
# 1 115.9477 8.7059 42.7412 0.0000 5.5576 0.0000
# 2 8.7059 5.5066 -4.9900 0.0000 0.5897 0.0000
# 3 42.7412 -4.9900 52.0668 0.0000 -0.5402 0.0000
# 4 0.0000 0.0000 0.0000 1.1860 0.0000 17.7579
# 5 5.5576 0.5897 -0.5402 0.0000 23.6375 0.0000
# 6 0.0000 0.0000 0.0000 17.7579 0.0000 9.4186
#
#
#
# Elastic Compliance Matrix: (Units=1/GPa)
#
#
# Indices 1 2 3 4 5 6 
#
# 1 0.021116 -0.053317 -0.022487 0.000000 -0.004148 0.000000
# 2 -0.053317 0.333979 0.075837 0.000000 0.005936 0.000000
# 3 -0.022487 0.075837 0.044979 0.000000 0.004423 0.000000
# 4 0.000000 0.000000 0.000000 -0.030965 0.000000 0.058381
# 5 -0.004148 0.005936 0.004423 0.000000 0.043234 0.000000
# 6 0.000000 0.000000 0.000000 0.058381 0.000000 -0.003899
#
#
# Mechanical properties :
#
#
# Convention : Reuss Voigt Hill
#
# Bulk Modulus (GPa) = 2.49911 29.60392 16.05152
# Shear Modulus (GPa) = 9.22922 15.31937 12.27429
#
# Velocity S-wave (km/s) = 2.39392 3.08424 2.76074
# Velocity P-wave (km/s) = 3.03199 5.57367 4.48658
#
# Compressibility (1/GPa) = 0.40014169
#
# Stress axis : x y z
#
# Youngs Moduli (GPa) = 47.35793 2.99420 22.23251
#
# Poissons Ratio (x) = 0.15964 0.49993
# Poissons Ratio (y) = 2.52496 -1.68604
# Poissons Ratio (z) = 1.06492 -0.22707
#
# Static dielectric constant tensor:
#      x y z
#    x 1.552520 0.000000 0.020920 
#    y 0.000000 1.550140 0.000000 
#    z 0.020920 0.000000 1.532150 
# 
# From -- ./inp_files/54812.got.cif
#   From: 2010.05.17/outbox.cif.g08.bks.cpg/sg10_28_cif.got.tgz:54812.got - 2010.06.03 11:33:40.
