data_PCOD9142505
_publ_section_title
;
Structure prediction by ZEFSAII (Michael W. Deem and Ramdas Pophale) SiO2 
 PCOD9142505
Probable space group: P 2/M
;
_chemical_formula_sum "Si O2"
_cell_formula_units_Z 20
_cell_length_a 5.572216
_cell_length_b 9.630240
_cell_length_c 15.859364
_cell_angle_alpha 90.000000
_cell_angle_beta 89.438608
_cell_angle_gamma 90.000000
_cell_volume 851.000810
_symmetry_space_group_name_H-M "P 2/M"
_symmetry_group_IT_number 10
_symmetry_cell_setting 'monoclinic'
loop_
_space_group_symop_operation_xyz
x,y,z
-x,y,-z
-x,-y,-z
x,-y,z
loop_
_atom_site_type_symbol
_atom_site_label
_atom_site_fract_x
_atom_site_fract_y
_atom_site_fract_z
Si Si1 0.563318 0.665113 0.901853
Si Si2 0.601027 0.000000 0.277707
Si Si3 0.936619 0.699247 0.645964
Si Si4 0.101465 0.000000 0.285171
Si Si5 0.064842 0.658245 0.838152
Si Si6 0.436790 0.256362 0.592517
O O1 0.584340 0.500000 0.880314
O O2 0.330427 0.719769 0.852003
O O3 0.827698 0.723743 0.881028
O O4 0.500000 0.678016 0.000000
O O5 0.594366 0.134588 0.338633
O O6 0.347021 0.000000 0.232680
O O7 0.857888 0.000000 0.232821
O O8 0.906159 0.866003 0.655107
O O9 0.671001 0.655241 0.618706
O O10 0.001783 0.652884 0.740008
O O11 0.175450 0.670810 0.591292
O O12 0.085226 0.500000 0.872323
O O13 0.500000 0.200374 0.500000
#
# Coordination Sequence:
#
# PCOD9142505 Si02
#       6
#     4   2   4   2   4   4
#     4   9  17  30  49  74  98 116 141 180 227 273
#     4   8  15  26  42  64  86 110 143 190 243 278
#     4  10  19  31  46  67  92 119 154 188 226 271
#     4   8  16  28  43  64  89 116 146 184 226 268
#     4  10  19  31  49  71  95 122 147 179 223 268
#     4  10  18  29  45  64  89 119 154 196 234 266
#
# _framework density 23.501738
#
# number of rings (size 3 to 8) (size 9 to 14) (size 15 to 20)
#    0.000    2.600    0.000    2.700    0.000    2.400 
#    0.000    6.000    0.000    3.600    0.000    4.200 
#    0.000    0.000    0.000    0.000    0.000    0.000 
#
# Total GULP energy -111478.888241 kJ/mol
# GULP energy per Si atom -5573.944412 kJ/mol
# Density = 2.344825 g / cm^3
# Si number density = 23.501738 Si / 1000 Ang^3
#
#
#
# Elastic Constant Matrix: (Units=GPa)
#
#
# Indices 1 2 3 4 5 6 
#
# 1 251.0222 1.2903 11.8620 0.0000 -5.1357 0.0000
# 2 1.2903 74.7611 -5.8662 0.0000 4.9147 0.0000
# 3 11.8620 -5.8662 39.0652 0.0000 -1.2487 0.0000
# 4 0.0000 0.0000 0.0000 11.7671 0.0000 12.7076
# 5 -5.1357 4.9147 -1.2487 0.0000 41.3857 0.0000
# 6 0.0000 0.0000 0.0000 12.7076 0.0000 -13.2246
#
#
#
# Elastic Compliance Matrix: (Units=1/GPa)
#
#
# Indices 1 2 3 4 5 6 
#
# 1 0.004054 -0.000200 -0.001245 0.000000 0.000489 0.000000
# 2 -0.000200 0.013645 0.002059 0.000000 -0.001583 0.000000
# 3 -0.001245 0.002059 0.026298 0.000000 0.000394 0.000000
# 4 0.000000 0.000000 0.000000 0.041705 0.000000 0.040075
# 5 0.000489 -0.001583 0.000394 0.000000 0.024424 0.000000
# 6 0.000000 0.000000 0.000000 0.040075 0.000000 -0.037108
#
#
# Mechanical properties :
#
#
# Convention : Reuss Voigt Hill
#
# Bulk Modulus (GPa) = 22.11176 42.15787 32.13481
# Shear Modulus (GPa) = 57.56147 31.82313 44.69230
#
# Velocity S-wave (km/s) = 4.95435 3.68377 4.36553
# Velocity P-wave (km/s) = 6.49280 6.00589 6.25408
#
# Compressibility (1/GPa) = 0.04522480
#
# Stress axis : x y z
#
# Youngs Moduli (GPa) = 246.69491 73.28681 38.02546
#
# Poissons Ratio (x) = 0.01464 0.04735
# Poissons Ratio (y) = 0.04930 -0.07830
# Poissons Ratio (z) = 0.30719 -0.15090
#
# Static dielectric constant tensor:
#      x y z
#    x 2.031740 0.000000 0.012250 
#    y 0.000000 1.933050 0.000000 
#    z 0.012250 0.000000 1.815350 
# 
# From -- ./inp_files/6729.got.cif
#   From: 2010.05.17/outbox.cif.g08.bks.cpg/sg10_4_cif.got.tgz:6729.got - 2010.06.03 11:33:40.
