data_PCOD9142896
_publ_section_title
;
Structure prediction by ZEFSAII (Michael W. Deem and Ramdas Pophale) SiO2 
 PCOD9142896
Probable space group: P 2/M
;
_chemical_formula_sum "Si O2"
_cell_formula_units_Z 32
_cell_length_a 20.043700
_cell_length_b 12.610092
_cell_length_c 11.446518
_cell_angle_alpha 90.000000
_cell_angle_beta 35.787586
_cell_angle_gamma 90.000000
_cell_volume 1691.856368
_symmetry_space_group_name_H-M "P 2/M"
_symmetry_group_IT_number 10
_symmetry_cell_setting 'monoclinic'
loop_
_space_group_symop_operation_xyz
x,y,z
-x,y,-z
-x,-y,-z
x,-y,z
loop_
_atom_site_type_symbol
_atom_site_label
_atom_site_fract_x
_atom_site_fract_y
_atom_site_fract_z
Si Si1 0.743958 0.382066 0.239311
Si Si2 0.772579 0.785639 0.993418
Si Si3 0.275316 0.618691 0.108728
Si Si4 0.701480 0.622680 0.647815
Si Si5 0.856987 0.245777 0.259711
Si Si6 0.531592 0.332814 0.702029
Si Si7 0.529552 0.879276 0.321824
Si Si8 0.075900 0.877860 0.034690
O O1 0.765373 0.500000 0.166180
O O2 0.738639 0.299351 0.142041
O O3 0.842539 0.344608 0.189890
O O4 0.625174 0.378464 0.479536
O O5 0.664865 0.859459 0.119068
O O6 0.797474 0.711902 0.846837
O O7 0.870610 0.852738 0.916192
O O8 0.230429 0.500000 0.152840
O O9 0.291488 0.635095 0.223860
O O10 0.402800 0.627046 0.872496
O O11 0.737606 0.500000 0.569921
O O12 0.775376 0.713151 0.478018
O O13 0.578061 0.637449 0.763603
O O14 0.972301 0.203142 0.155723
O O15 0.834284 0.150438 0.197984
O O16 0.528897 0.207767 0.677241
O O17 0.500000 0.858763 0.500000
O O18 0.498759 0.000000 0.338612
O O19 0.041556 0.000000 0.074732
#
# Coordination Sequence:
#
# PCOD9142896 Si02
#       8
#     4   4   4   4   4   4   4   4
#     4  10  18  30  48  77 112 138 167 215 271 320
#     4  10  20  34  51  77 107 139 176 217 264 313
#     4  10  20  33  53  77 107 147 182 212 249 306
#     4  10  20  36  54  77 109 144 178 211 255 311
#     4   9  18  33  54  79 103 128 167 216 262 312
#     4  10  18  31  52  78 105 140 181 218 256 306
#     4  10  19  32  48  73 105 137 173 210 259 312
#     4  10  20  37  60  81 102 130 171 220 271 319
#
# _framework density 18.914135999999999
#
# number of rings (size 3 to 8) (size 9 to 14) (size 15 to 20)
#    0.000    2.125    1.250    4.125    0.000    1.000 
#    0.000   18.125    0.000   16.500    0.000    0.000 
#    0.000    0.000    0.000    0.000    0.000    0.000 
#
# Total GULP energy -178141.251363 kJ/mol
# GULP energy per Si atom -5566.914105 kJ/mol
# Density = 1.887109 g / cm^3
# Si number density = 18.914136 Si / 1000 Ang^3
#
#
#
# Elastic Constant Matrix: (Units=GPa)
#
#
# Indices 1 2 3 4 5 6 
#
# 1 77.7861 23.7873 10.3643 0.0000 6.1675 0.0000
# 2 23.7873 92.6507 17.9005 0.0000 -0.8037 0.0000
# 3 10.3643 17.9005 21.4572 0.0000 0.7034 0.0000
# 4 0.0000 0.0000 0.0000 10.4924 0.0000 2.0941
# 5 6.1675 -0.8037 0.7034 0.0000 23.8559 0.0000
# 6 0.0000 0.0000 0.0000 2.0941 0.0000 23.7894
#
#
#
# Elastic Compliance Matrix: (Units=1/GPa)
#
#
# Indices 1 2 3 4 5 6 
#
# 1 0.014648 -0.002921 -0.004516 0.000000 -0.003752 0.000000
# 2 -0.002921 0.013463 -0.009870 0.000000 0.001500 0.000000
# 3 -0.004516 -0.009870 0.057047 0.000000 -0.000847 0.000000
# 4 0.000000 0.000000 0.000000 0.097012 0.000000 -0.008540
# 5 -0.003752 0.001500 -0.000847 0.000000 0.042964 0.000000
# 6 0.000000 0.000000 0.000000 -0.008540 0.000000 0.042787
#
#
# Mechanical properties :
#
#
# Convention : Reuss Voigt Hill
#
# Bulk Modulus (GPa) = 19.78409 32.88869 26.33639
# Shear Modulus (GPa) = 15.65522 20.95032 18.30277
#
# Velocity S-wave (km/s) = 2.88010 3.33175 3.11412
# Velocity P-wave (km/s) = 4.64140 5.67688 5.18505
#
# Compressibility (1/GPa) = 0.05054567
#
# Stress axis : x y z
#
# Youngs Moduli (GPa) = 68.26788 74.27745 17.52942
#
# Poissons Ratio (x) = 0.21696 0.07916
# Poissons Ratio (y) = 0.19940 0.17301
# Poissons Ratio (z) = 0.30827 0.73310
#
# Static dielectric constant tensor:
#      x y z
#    x 1.688350 0.000000 -0.011120 
#    y 0.000000 1.660480 0.000000 
#    z -0.011120 0.000000 1.693500 
# 
# From -- ./inp_files/55678.got.cif
#   From: 2010.05.17/outbox.cif.g08.bks.cpg/sg10_28_cif.got.tgz:55678.got - 2010.06.03 11:33:40.
