data_PCOD9142152
_publ_section_title
;
Structure prediction by ZEFSAII (Michael W. Deem and Ramdas Pophale) SiO2 
 PCOD9142152
Probable space group: P 2/M
;
_chemical_formula_sum "Si O2"
_cell_formula_units_Z 28
_cell_length_a 5.430697
_cell_length_b 21.069643
_cell_length_c 11.891691
_cell_angle_alpha 90.000000
_cell_angle_beta 91.783037
_cell_angle_gamma 90.000000
_cell_volume 1360.022320
_symmetry_space_group_name_H-M "P 2/M"
_symmetry_group_IT_number 10
_symmetry_cell_setting 'monoclinic'
loop_
_space_group_symop_operation_xyz
x,y,z
-x,y,-z
-x,-y,-z
x,-y,z
loop_
_atom_site_type_symbol
_atom_site_label
_atom_site_fract_x
_atom_site_fract_y
_atom_site_fract_z
Si Si1 0.917183 0.605487 0.381303
Si Si2 0.500518 0.105603 0.130958
Si Si3 0.587677 0.364193 0.698937
Si Si4 0.461722 0.236362 0.756338
Si Si5 0.115060 0.500000 0.812123
Si Si6 0.990095 0.071168 0.737127
Si Si7 0.953065 0.203794 0.628146
Si Si8 0.614877 0.500000 0.822081
O O1 0.648093 0.635872 0.386702
O O2 0.891440 0.558361 0.275615
O O3 0.000000 0.574675 0.500000
O O4 0.148634 0.649406 0.353333
O O5 0.507430 0.182017 0.150212
O O6 0.750985 0.080088 0.192577
O O7 0.249718 0.081092 0.186193
O O8 0.500000 0.089755 0.000000
O O9 0.520855 0.309483 0.787275
O O10 0.608552 0.435760 0.746940
O O11 0.183909 0.230744 0.704484
O O12 0.678115 0.220573 0.668420
O O13 0.363498 0.500000 0.883546
O O14 0.875147 0.500000 0.882241
O O15 0.976259 0.127656 0.646855
O O16 0.981780 0.000000 0.690869
O O17 0.000000 0.221075 0.500000
#
# Coordination Sequence:
#
# PCOD9142152 Si02
#       8
#     4   4   4   4   2   4   4   2
#     4  10  18  26  38  57  81 114 153 193 239 287
#     4  10  21  37  56  79 107 136 167 207 256 306
#     4  10  19  30  43  61  87 118 157 204 249 296
#     4  10  21  35  51  73 100 133 176 216 250 298
#     4   8  15  26  36  50  78 110 145 190 235 286
#     4  10  21  36  56  84 111 135 168 206 246 297
#     4  10  21  36  53  74 104 141 177 209 241 285
#     4   8  16  28  41  58  81 114 152 194 252 302
#
# _framework density 20.587900000000001
#
# number of rings (size 3 to 8) (size 9 to 14) (size 15 to 20)
#    0.000    2.286    0.000    2.786    0.000    5.429 
#    0.000    4.286    0.000    5.143    0.000    0.500 
#    0.000    0.000    0.000   22.429    0.000    0.000 
#
# Total GULP energy -155888.937270 kJ/mol
# GULP energy per Si atom -5567.462045 kJ/mol
# Density = 2.054104 g / cm^3
# Si number density = 20.587900 Si / 1000 Ang^3
#
#
#
# Elastic Constant Matrix: (Units=GPa)
#
#
# Indices 1 2 3 4 5 6 
#
# 1 196.7282 0.1907 11.3351 0.0000 -3.4025 0.0000
# 2 0.1907 109.5913 -11.8252 0.0000 0.7892 0.0000
# 3 11.3351 -11.8252 31.1550 0.0000 -2.2827 0.0000
# 4 0.0000 0.0000 0.0000 15.0676 0.0000 -5.3164
# 5 -3.4025 0.7892 -2.2827 0.0000 21.1948 0.0000
# 6 0.0000 0.0000 0.0000 -5.3164 0.0000 20.6156
#
#
#
# Elastic Compliance Matrix: (Units=1/GPa)
#
#
# Indices 1 2 3 4 5 6 
#
# 1 0.005206 -0.000222 -0.001932 0.000000 0.000636 0.000000
# 2 -0.000222 0.009524 0.003696 0.000000 0.000008 0.000000
# 3 -0.001932 0.003696 0.034442 0.000000 0.003262 0.000000
# 4 0.000000 0.000000 0.000000 0.073011 0.000000 0.018828
# 5 0.000636 0.000008 0.003262 0.000000 0.047634 0.000000
# 6 0.000000 0.000000 0.000000 0.018828 0.000000 0.053362
#
#
# Mechanical properties :
#
#
# Convention : Reuss Voigt Hill
#
# Bulk Modulus (GPa) = 19.13619 37.43065 28.28342
# Shear Modulus (GPa) = 21.05141 33.89385 27.47263
#
# Velocity S-wave (km/s) = 3.20115 4.06186 3.65692
# Velocity P-wave (km/s) = 4.79355 6.34182 5.62125
#
# Compressibility (1/GPa) = 0.05225702
#
# Stress axis : x y z
#
# Youngs Moduli (GPa) = 192.09826 104.99810 29.03407
#
# Poissons Ratio (x) = 0.02332 0.05608
# Poissons Ratio (y) = 0.04266 -0.10732
# Poissons Ratio (z) = 0.37107 -0.38810
#
# Static dielectric constant tensor:
#      x y z
#    x 1.787810 0.000000 -0.009020 
#    y 0.000000 1.098330 0.000000 
#    z -0.009020 0.000000 1.652700 
# 
# From -- ./inp_files/39620.got.cif
#   From: 2010.05.17/outbox.cif.g08.bks.cpg/sg10_20_cif.got.tgz:39620.got - 2010.06.03 11:33:40.
