data_PCOD9142241
_publ_section_title
;
Structure prediction by ZEFSAII (Michael W. Deem and Ramdas Pophale) SiO2 
 PCOD9142241
Probable space group: P 2/M
;
_chemical_formula_sum "Si O2"
_cell_formula_units_Z 32
_cell_length_a 12.906835
_cell_length_b 16.650930
_cell_length_c 18.581155
_cell_angle_alpha 90.000000
_cell_angle_beta 27.992352
_cell_angle_gamma 90.000000
_cell_volume 1874.265907
_symmetry_space_group_name_H-M "P 2/M"
_symmetry_group_IT_number 10
_symmetry_cell_setting 'monoclinic'
loop_
_space_group_symop_operation_xyz
x,y,z
-x,y,-z
-x,-y,-z
x,-y,z
loop_
_atom_site_type_symbol
_atom_site_label
_atom_site_fract_x
_atom_site_fract_y
_atom_site_fract_z
Si Si1 0.064974 0.323223 0.042369
Si Si2 0.225423 0.252311 0.404976
Si Si3 0.571341 0.645083 0.382570
Si Si4 0.507407 0.589600 0.260407
Si Si5 0.336649 0.169361 0.899799
Si Si6 0.686304 0.093608 0.241562
Si Si7 0.006509 0.092985 0.808150
Si Si8 0.279379 0.803990 0.532003
O O1 0.834144 0.339720 0.222391
O O2 0.247513 0.393140 0.921759
O O3 0.195880 0.250152 0.997177
O O4 0.000000 0.301720 0.000000
O O5 0.345517 0.339243 0.334580
O O6 0.406810 0.192506 0.258797
O O7 0.190454 0.222712 0.508509
O O8 0.000000 0.254784 0.500000
O O9 0.500000 0.603416 0.500000
O O10 0.526566 0.599983 0.335147
O O11 0.427221 0.727855 0.467384
O O12 0.434613 0.500000 0.286848
O O13 0.280438 0.140098 0.853296
O O14 0.246621 0.107792 0.013776
O O15 0.860485 0.106565 0.198475
O O16 0.454249 0.124344 0.413993
O O17 0.685961 0.000000 0.224601
O O18 0.098217 0.158694 0.696128
O O19 0.043426 0.000000 0.763457
#
# Coordination Sequence:
#
# PCOD9142241 Si02
#       8
#     4   4   4   4   4   4   4   4
#     4   9  16  27  45  67  97 135 163 187 223 274
#     4   9  20  38  57  71  85 120 167 210 256 294
#     4  10  18  28  46  71 103 140 164 180 218 282
#     4   9  19  33  50  76 101 121 153 197 243 290
#     4  10  18  30  48  70  98 129 168 205 233 284
#     4  10  18  27  43  70 104 136 160 188 233 287
#     4  11  20  29  47  76 107 135 160 195 243 286
#     4  10  19  31  48  69  99 130 168 207 235 282
#
# _framework density 17.073350999999999
#
# number of rings (size 3 to 8) (size 9 to 14) (size 15 to 20)
#    0.000    2.250    0.000    6.750    0.000    4.750 
#    0.000    0.625    0.000   14.250    0.000    0.000 
#    0.000    8.000    0.000    0.000    0.000    0.000 
#
# Total GULP energy -178370.524583 kJ/mol
# GULP energy per Si atom -5574.078893 kJ/mol
# Density = 1.703449 g / cm^3
# Si number density = 17.073351 Si / 1000 Ang^3
#
#
#
# Elastic Constant Matrix: (Units=GPa)
#
#
# Indices 1 2 3 4 5 6 
#
# 1 59.9245 25.7116 41.8303 0.0000 -16.8418 0.0000
# 2 25.7116 79.4039 43.3156 0.0000 -4.0281 0.0000
# 3 41.8303 43.3156 97.9193 0.0000 7.8777 0.0000
# 4 0.0000 0.0000 0.0000 13.7329 0.0000 0.4570
# 5 -16.8418 -4.0281 7.8777 0.0000 24.4817 0.0000
# 6 0.0000 0.0000 0.0000 0.4570 0.0000 5.7493
#
#
#
# Elastic Compliance Matrix: (Units=1/GPa)
#
#
# Indices 1 2 3 4 5 6 
#
# 1 0.040128 -0.000584 -0.019605 0.000000 0.033818 0.000000
# 2 -0.000584 0.017287 -0.007796 0.000000 0.004951 0.000000
# 3 -0.019605 -0.007796 0.023842 0.000000 -0.022441 0.000000
# 4 0.000000 0.000000 0.000000 0.073011 0.000000 -0.005803
# 5 0.033818 0.004951 -0.022441 0.000000 0.072147 0.000000
# 6 0.000000 0.000000 0.000000 -0.005803 0.000000 0.174396
#
#
# Mechanical properties :
#
#
# Convention : Reuss Voigt Hill
#
# Bulk Modulus (GPa) = 39.54551 50.99589 45.27070
# Shear Modulus (GPa) = 10.74790 17.21879 13.98334
#
# Velocity S-wave (km/s) = 2.51173 3.17916 2.86495
# Velocity P-wave (km/s) = 5.62353 6.58860 6.12510
#
# Compressibility (1/GPa) = 0.02528732
#
# Stress axis : x y z
#
# Youngs Moduli (GPa) = 24.92052 57.84759 41.94355
#
# Poissons Ratio (x) = 0.03376 0.82229
# Poissons Ratio (y) = 0.01454 0.32700
# Poissons Ratio (z) = 0.48856 0.45098
#
# Static dielectric constant tensor:
#      x y z
#    x 1.558120 0.000000 0.015730 
#    y 0.000000 1.598900 0.000000 
#    z 0.015730 0.000000 1.607210 
# 
# From -- ./inp_files/70836.got.cif
#   From: 2010.05.17/outbox.cif.g08.bks.cpg/sg10_36_cif.got.tgz:70836.got - 2010.06.03 11:33:40.
