data_PCOD9142135
_publ_section_title
;
Structure prediction by ZEFSAII (Michael W. Deem and Ramdas Pophale) SiO2 
 PCOD9142135
Probable space group: P 2/M
;
_chemical_formula_sum "Si O2"
_cell_formula_units_Z 28
_cell_length_a 19.168618
_cell_length_b 14.813911
_cell_length_c 9.124414
_cell_angle_alpha 90.000000
_cell_angle_beta 150.269557
_cell_angle_gamma 90.000000
_cell_volume 1284.923442
_symmetry_space_group_name_H-M "P 2/M"
_symmetry_group_IT_number 10
_symmetry_cell_setting 'monoclinic'
loop_
_space_group_symop_operation_xyz
x,y,z
-x,y,-z
-x,-y,-z
x,-y,z
loop_
_atom_site_type_symbol
_atom_site_label
_atom_site_fract_x
_atom_site_fract_y
_atom_site_fract_z
Si Si1 0.233742 0.104750 0.670713
Si Si2 0.426665 0.209266 0.214427
Si Si3 0.675235 0.206984 0.452733
Si Si4 0.033559 0.793393 0.841499
Si Si5 0.290406 0.597571 0.405755
Si Si6 0.000000 0.648886 0.000000
Si Si7 0.297990 0.397392 0.064299
Si Si8 0.000000 0.322900 0.500000
O O1 0.304243 0.153514 0.659147
O O2 0.066437 0.121002 0.350565
O O3 0.268426 0.000000 0.738366
O O4 0.286764 0.156578 0.912394
O O5 0.500000 0.184175 0.500000
O O6 0.539750 0.181195 0.298815
O O7 0.387649 0.315882 0.157723
O O8 0.655780 0.315638 0.408713
O O9 0.817119 0.192686 0.808413
O O10 0.947783 0.718848 0.780869
O O11 0.050350 0.743173 0.719949
O O12 0.353037 0.500000 0.554555
O O13 0.299846 0.611924 0.246531
O O14 0.125932 0.596733 0.153517
O O15 0.344702 0.500000 0.116270
O O16 0.137121 0.383059 0.717952
#
# Coordination Sequence:
#
# PCOD9142135 Si02
#       8
#     4   4   4   4   4   2   4   2
#     4  12  27  48  75 101 131 178 234 291 356 423
#     4  12  25  46  71  99 142 184 224 285 343 409
#     4  11  23  44  68 102 137 184 222 283 349 404
#     4  11  21  40  73  98 135 173 226 286 348 407
#     4  10  19  34  60  98 135 176 225 271 327 396
#     4  10  17  36  59  96 132 180 215 270 331 394
#     4  11  23  38  67 104 142 188 234 275 333 410
#     4  12  19  40  65 102 144 182 225 284 345 398
#
# _framework density 21.791181000000002
#
# number of rings (size 3 to 8) (size 9 to 14) (size 15 to 20)
#    0.000    0.857    8.571    0.857    0.000    3.429 
#    0.000    2.500    0.000    1.714    0.000    0.000 
#    0.000    0.000    0.000    0.000    0.000    0.000 
#
# Total GULP energy -156332.333486 kJ/mol
# GULP energy per Si atom -5583.297624 kJ/mol
# Density = 2.174158 g / cm^3
# Si number density = 21.791181 Si / 1000 Ang^3
#
#
#
# Elastic Constant Matrix: (Units=GPa)
#
#
# Indices 1 2 3 4 5 6 
#
# 1 51.3442 25.8268 28.0841 0.0000 6.6511 0.0000
# 2 25.8268 132.6589 36.9165 0.0000 -18.0312 0.0000
# 3 28.0841 36.9165 113.7052 0.0000 -3.1748 0.0000
# 4 0.0000 0.0000 0.0000 9.5311 0.0000 -2.2690
# 5 6.6511 -18.0312 -3.1748 0.0000 31.9853 0.0000
# 6 0.0000 0.0000 0.0000 -2.2690 0.0000 13.0520
#
#
#
# Elastic Compliance Matrix: (Units=1/GPa)
#
#
# Indices 1 2 3 4 5 6 
#
# 1 0.025743 -0.004768 -0.005049 0.000000 -0.008542 0.000000
# 2 -0.004768 0.009843 -0.001840 0.000000 0.006357 0.000000
# 3 -0.005049 -0.001840 0.010669 0.000000 0.001071 0.000000
# 4 0.000000 0.000000 0.000000 0.109450 0.000000 0.019027
# 5 -0.008542 0.006357 0.001071 0.000000 0.036731 0.000000
# 6 0.000000 0.000000 0.000000 0.019027 0.000000 0.079924
#
#
# Mechanical properties :
#
#
# Convention : Reuss Voigt Hill
#
# Bulk Modulus (GPa) = 43.59123 53.26258 48.42690
# Shear Modulus (GPa) = 16.48423 24.70574 20.59499
#
# Velocity S-wave (km/s) = 2.75337 3.37077 3.07759
# Velocity P-wave (km/s) = 5.49141 6.29641 5.90764
#
# Compressibility (1/GPa) = 0.02294039
#
# Stress axis : x y z
#
# Youngs Moduli (GPa) = 38.84599 101.59894 93.72842
#
# Poissons Ratio (x) = 0.48440 0.47321
# Poissons Ratio (y) = 0.18521 0.17251
# Poissons Ratio (z) = 0.19612 0.18699
#
# Static dielectric constant tensor:
#      x y z
#    x 1.873640 0.000000 0.027060 
#    y 0.000000 1.799080 0.000000 
#    z 0.027060 0.000000 1.817050 
# 
# From -- ./inp_files/35327.got.cif
#   From: 2010.05.17/outbox.cif.g08.bks.cpg/sg10_18_cif.got.tgz:35327.got - 2010.06.03 11:33:40.
