data_PCOD9142310
_publ_section_title
;
Structure prediction by ZEFSAII (Michael W. Deem and Ramdas Pophale) SiO2 
 PCOD9142310
Probable space group: P 2/M
;
_chemical_formula_sum "Si O2"
_cell_formula_units_Z 32
_cell_length_a 34.472566
_cell_length_b 8.875692
_cell_length_c 23.107569
_cell_angle_alpha 90.000000
_cell_angle_beta 162.239887
_cell_angle_gamma 90.000000
_cell_volume 2156.632080
_symmetry_space_group_name_H-M "P 2/M"
_symmetry_group_IT_number 10
_symmetry_cell_setting 'monoclinic'
loop_
_space_group_symop_operation_xyz
x,y,z
-x,y,-z
-x,-y,-z
x,-y,z
loop_
_atom_site_type_symbol
_atom_site_label
_atom_site_fract_x
_atom_site_fract_y
_atom_site_fract_z
Si Si1 0.257957 0.818384 0.022976
Si Si2 0.184225 0.679999 0.741891
Si Si3 0.695647 0.180090 0.549861
Si Si4 0.579534 0.679952 0.851226
Si Si5 0.022068 0.820157 0.617325
Si Si6 0.059487 0.326412 0.149349
Si Si7 0.189061 0.818425 0.161096
Si Si8 0.645837 0.816303 0.714315
O O1 0.347808 0.744451 0.102063
O O2 0.298498 0.770346 0.144576
O O3 0.273605 0.000000 0.040644
O O4 0.110343 0.785307 0.798019
O O5 0.166695 0.500000 0.718598
O O6 0.107654 0.755516 0.686341
O O7 0.115676 0.745633 0.587654
O O8 0.330363 0.713571 0.965216
O O9 0.559251 0.249273 0.342161
O O10 0.807228 0.240766 0.666954
O O11 0.736243 0.221841 0.673538
O O12 0.690180 0.000000 0.539231
O O13 0.570950 0.500000 0.833670
O O14 0.010389 0.000000 0.595359
O O15 0.079083 0.500000 0.193049
O O16 0.000000 0.321633 0.000000
O O17 0.951709 0.250136 0.035362
O O18 0.268252 0.768068 0.217739
O O19 0.178878 0.000000 0.145826
O O20 0.500000 0.766925 0.500000
O O21 0.645348 0.000000 0.712888
#
# Coordination Sequence:
#
# PCOD9142310 Si02
#       8
#     4   4   4   4   4   4   4   4
#     4   9  17  28  41  58  80 109 144 176 205 237
#     4   9  16  25  37  53  75 104 134 162 198 245
#     4  10  18  28  44  63  82 106 137 170 204 245
#     4  10  19  28  39  58  84 111 137 167 205 247
#     4   9  15  23  37  55  75 100 133 171 204 235
#     4   9  17  29  44  61  82 106 132 167 210 249
#     4   9  17  29  45  62  80 107 143 176 203 236
#     4   9  16  27  43  61  82 110 144 177 204 231
#
# _framework density 14.837949999999999
#
# number of rings (size 3 to 8) (size 9 to 14) (size 15 to 20)
#    0.000    2.750    0.000    3.375    0.000    6.000 
#    0.000    0.625    0.000    1.500    0.000    0.000 
#    0.000    1.000    0.000   11.500    0.000    2.875 
#
# Total GULP energy -178164.463097 kJ/mol
# GULP energy per Si atom -5567.639472 kJ/mol
# Density = 1.480418 g / cm^3
# Si number density = 14.837950 Si / 1000 Ang^3
#
#
#
# Elastic Constant Matrix: (Units=GPa)
#
#
# Indices 1 2 3 4 5 6 
#
# 1 64.0713 21.4242 63.7653 0.0000 5.3927 0.0000
# 2 21.4242 43.2393 52.6267 0.0000 0.5972 0.0000
# 3 63.7653 52.6267 160.8473 0.0000 -0.9268 0.0000
# 4 0.0000 0.0000 0.0000 26.3496 0.0000 5.2255
# 5 5.3927 0.5972 -0.9268 0.0000 23.5460 0.0000
# 6 0.0000 0.0000 0.0000 5.2255 0.0000 35.3348
#
#
#
# Elastic Compliance Matrix: (Units=1/GPa)
#
#
# Indices 1 2 3 4 5 6 
#
# 1 0.026753 -0.000351 -0.010529 0.000000 -0.006533 0.000000
# 2 -0.000351 0.038487 -0.012461 0.000000 -0.001386 0.000000
# 3 -0.010529 -0.012461 0.014487 0.000000 0.003298 0.000000
# 4 0.000000 0.000000 0.000000 0.039098 0.000000 -0.005782
# 5 -0.006533 -0.001386 0.003298 0.000000 0.044131 0.000000
# 6 0.000000 0.000000 0.000000 -0.005782 0.000000 0.029156
#
#
# Mechanical properties :
#
#
# Convention : Reuss Voigt Hill
#
# Bulk Modulus (GPa) = 30.26133 60.42114 45.34123
# Shear Modulus (GPa) = 20.01534 25.73551 22.87543
#
# Velocity S-wave (km/s) = 3.67676 4.16918 3.93069
# Velocity P-wave (km/s) = 6.20190 7.99907 7.15712
#
# Compressibility (1/GPa) = 0.03304548
#
# Stress axis : x y z
#
# Youngs Moduli (GPa) = 37.37868 25.98308 69.02706
#
# Poissons Ratio (x) = 0.00912 0.72677
# Poissons Ratio (y) = 0.01312 0.86015
# Poissons Ratio (z) = 0.39355 0.32378
#
# Static dielectric constant tensor:
#      x y z
#    x 1.470500 0.000000 -0.022340 
#    y 0.000000 1.496480 0.000000 
#    z -0.022340 0.000000 1.521630 
# 
# From -- ./inp_files/87199.got.cif
#   From: 2010.05.17/outbox.cif.g08.bks.cpg/sg10_44_cif.got.tgz:87199.got - 2010.06.03 11:33:40.
