data_PCOD9142568
_publ_section_title
;
Structure prediction by ZEFSAII (Michael W. Deem and Ramdas Pophale) SiO2 
 PCOD9142568
Probable space group: P 2/M
;
_chemical_formula_sum "Si O2"
_cell_formula_units_Z 32
_cell_length_a 12.020303
_cell_length_b 14.856608
_cell_length_c 14.694049
_cell_angle_alpha 90.000000
_cell_angle_beta 133.315301
_cell_angle_gamma 90.000000
_cell_volume 1909.251038
_symmetry_space_group_name_H-M "P 2/M"
_symmetry_group_IT_number 10
_symmetry_cell_setting 'monoclinic'
loop_
_space_group_symop_operation_xyz
x,y,z
-x,y,-z
-x,-y,-z
x,-y,z
loop_
_atom_site_type_symbol
_atom_site_label
_atom_site_fract_x
_atom_site_fract_y
_atom_site_fract_z
Si Si1 0.540775 0.890911 0.124847
Si Si2 0.103321 0.107347 0.649594
Si Si3 0.360038 0.103329 0.190780
Si Si4 0.612289 0.103627 0.483899
Si Si5 0.096425 0.771162 0.336887
Si Si6 0.137476 0.754731 0.146086
Si Si7 0.714297 0.396609 0.529839
Si Si8 0.625476 0.396840 0.694684
O O1 0.714813 0.873112 0.255305
O O2 0.413125 0.857464 0.124075
O O3 0.528870 0.000000 0.119077
O O4 0.500000 0.860578 0.000000
O O5 0.000000 0.119342 0.500000
O O6 0.038901 0.175984 0.689120
O O7 0.088342 0.000000 0.665513
O O8 0.513675 0.104075 0.337513
O O9 0.231151 0.156508 0.171768
O O10 0.311295 0.000000 0.152477
O O11 0.500000 0.137371 0.500000
O O12 0.758247 0.165011 0.563522
O O13 0.654215 0.000000 0.528618
O O14 0.082240 0.760438 0.219824
O O15 0.149485 0.674219 0.405966
O O16 0.257357 0.673774 0.199289
O O17 0.000000 0.743620 0.000000
O O18 0.751455 0.500000 0.526630
O O19 0.668114 0.396026 0.611022
O O20 0.552406 0.370505 0.392694
O O21 0.643397 0.500000 0.735803
#
# Coordination Sequence:
#
# PCOD9142568 Si02
#       8
#     4   4   4   4   4   4   4   4
#     4   9  19  35  53  68  89 132 181 213 240 284
#     4  10  21  36  53  76 102 131 175 221 256 292
#     4  10  20  34  50  69  98 131 166 207 246 292
#     4  10  18  29  46  70  97 127 160 195 245 303
#     4  11  20  31  52  74 105 133 159 204 263 303
#     4  11  23  32  44  74 107 135 167 200 245 307
#     4   8  15  28  50  76  98 125 162 203 252 305
#     4   8  15  30  49  69  98 132 164 201 243 294
#
# _framework density 16.760498999999999
#
# number of rings (size 3 to 8) (size 9 to 14) (size 15 to 20)
#    0.000    2.375    1.250    2.625    3.500    3.000 
#    0.000    0.000    0.000    0.375    0.000    0.875 
#    0.000    1.000    0.000    0.000    0.000    0.000 
#
# Total GULP energy -178295.399621 kJ/mol
# GULP energy per Si atom -5571.731238 kJ/mol
# Density = 1.672235 g / cm^3
# Si number density = 16.760499 Si / 1000 Ang^3
#
#
#
# Elastic Constant Matrix: (Units=GPa)
#
#
# Indices 1 2 3 4 5 6 
#
# 1 47.4343 24.2769 12.4595 0.0000 -4.6581 0.0000
# 2 24.2769 58.5392 27.4979 0.0000 10.9212 0.0000
# 3 12.4595 27.4979 78.4487 0.0000 3.4290 0.0000
# 4 0.0000 0.0000 0.0000 -390.7278 0.0000 88.4834
# 5 -4.6581 10.9212 3.4290 0.0000 17.6811 0.0000
# 6 0.0000 0.0000 0.0000 88.4834 0.0000 -6.3023
#
#
#
# Elastic Compliance Matrix: (Units=1/GPa)
#
#
# Indices 1 2 3 4 5 6 
#
# 1 0.031279 -0.016385 -0.000027 0.000000 0.018366 0.000000
# 2 -0.016385 0.031565 -0.007485 0.000000 -0.022362 0.000000
# 3 -0.000027 -0.007485 0.015303 0.000000 0.001648 0.000000
# 4 0.000000 0.000000 0.000000 0.001174 0.000000 0.016487
# 5 0.018366 -0.022362 0.001648 0.000000 0.074889 0.000000
# 6 0.000000 0.000000 0.000000 0.016487 0.000000 0.072804
#
#
# Mechanical properties :
#
#
# Convention : Reuss Voigt Hill
#
# Bulk Modulus (GPa) = 32.94573 34.76566 33.85570
# Shear Modulus (GPa) = 17.54839 -67.85728 -25.15445
#
# Velocity S-wave (km/s) = 3.23926 -6.36980 -3.87824
# Velocity P-wave (km/s) = 5.80430 5.77161 0.43498
#
# Compressibility (1/GPa) = 0.03035295
#
# Stress axis : x y z
#
# Youngs Moduli (GPa) = 31.97084 31.68023 65.34687
#
# Poissons Ratio (x) = 0.51909 0.00178
# Poissons Ratio (y) = 0.52385 0.48909
# Poissons Ratio (z) = 0.00087 0.23711
#
# Static dielectric constant tensor:
#      x y z
#    x 1.598560 0.000000 0.006850 
#    y 0.000000 1.582950 0.000000 
#    z 0.006850 0.000000 1.605700 
# 
# From -- ./inp_files/65144.got.cif
#   From: 2010.05.17/outbox.cif.g08.bks.cpg/sg10_33_cif.got.tgz:65144.got - 2010.06.03 11:33:40.
