data_PCOD9142989
_publ_section_title
;
Structure prediction by ZEFSAII (Michael W. Deem and Ramdas Pophale) SiO2 
 PCOD9142989
Probable space group: P 2/M
;
_chemical_formula_sum "Si O2"
_cell_formula_units_Z 20
_cell_length_a 9.946847
_cell_length_b 7.831336
_cell_length_c 19.365931
_cell_angle_alpha 90.000000
_cell_angle_beta 136.938492
_cell_angle_gamma 90.000000
_cell_volume 1030.012347
_symmetry_space_group_name_H-M "P 2/M"
_symmetry_group_IT_number 10
_symmetry_cell_setting 'monoclinic'
loop_
_space_group_symop_operation_xyz
x,y,z
-x,y,-z
-x,-y,-z
x,-y,z
loop_
_atom_site_type_symbol
_atom_site_label
_atom_site_fract_x
_atom_site_fract_y
_atom_site_fract_z
Si Si1 0.493760 0.293472 0.168726
Si Si2 0.143415 0.706326 0.937816
Si Si3 0.308643 0.697894 0.392044
Si Si4 0.297992 0.802150 0.233802
Si Si5 0.870780 0.709207 0.226254
O O1 0.492829 0.500000 0.166118
O O2 0.448209 0.240251 0.229401
O O3 0.700358 0.235223 0.214113
O O4 0.314581 0.232542 0.052612
O O5 0.145469 0.500000 0.940059
O O6 0.176501 0.759224 0.870597
O O7 0.923541 0.761939 0.875118
O O8 0.500000 0.776668 0.500000
O O9 0.299907 0.500000 0.411364
O O10 0.330064 0.703185 0.317252
O O11 0.091498 0.770939 0.325830
O O12 0.309223 0.000000 0.255671
O O13 0.874447 0.500000 0.227767
#
# Coordination Sequence:
#
# PCOD9142989 Si02
#       5
#     4   4   4   4   4
#     4  10  18  30  50  74 102 133 163 201 244 284
#     4   9  17  31  51  73  98 132 171 204 237 282
#     4   9  18  36  60  78  92 118 161 209 251 293
#     4  11  22  33  47  71 103 135 165 198 239 291
#     4   8  15  29  51  78 100 121 159 207 249 287
#
# _framework density 19.417242000000002
#
# number of rings (size 3 to 8) (size 9 to 14) (size 15 to 20)
#    0.000    2.600    0.000    4.200    0.000    6.000 
#    0.000    5.000    0.000   12.000    0.000    0.000 
#    0.000    0.000    0.000    0.000    0.000    0.000 
#
# Total GULP energy -111579.712217 kJ/mol
# GULP energy per Si atom -5578.985611 kJ/mol
# Density = 1.937305 g / cm^3
# Si number density = 19.417242 Si / 1000 Ang^3
#
#
#
# Elastic Constant Matrix: (Units=GPa)
#
#
# Indices 1 2 3 4 5 6 
#
# 1 147.3895 -5.9952 40.3322 0.0000 6.4002 0.0000
# 2 -5.9952 26.7949 -4.7148 0.0000 4.0477 0.0000
# 3 40.3322 -4.7148 97.7964 0.0000 17.8515 0.0000
# 4 0.0000 0.0000 0.0000 -19.9207 0.0000 -2.3316
# 5 6.4002 4.0477 17.8515 0.0000 9.0283 0.0000
# 6 0.0000 0.0000 0.0000 -2.3316 0.0000 -39.0600
#
#
#
# Elastic Compliance Matrix: (Units=1/GPa)
#
#
# Indices 1 2 3 4 5 6 
#
# 1 0.007685 0.001109 -0.003177 0.000000 0.000337 0.000000
# 2 0.001109 0.044819 0.008629 0.000000 -0.037942 0.000000
# 3 -0.003177 0.008629 0.019163 0.000000 -0.039507 0.000000
# 4 0.000000 0.000000 0.000000 -0.050552 0.000000 0.003018
# 5 0.000337 -0.037942 -0.039507 0.000000 0.205651 0.000000
# 6 0.000000 0.000000 0.000000 0.003018 0.000000 -0.025782
#
#
# Mechanical properties :
#
#
# Convention : Reuss Voigt Hill
#
# Bulk Modulus (GPa) = 11.79397 36.80278 24.29838
# Shear Modulus (GPa) = 23.13483 6.16677 14.65080
#
# Velocity S-wave (km/s) = 3.45549 1.78405 2.74984
# Velocity P-wave (km/s) = 4.69124 4.82064 4.75638
#
# Compressibility (1/GPa) = 0.08478911
#
# Stress axis : x y z
#
# Youngs Moduli (GPa) = 130.12911 22.31203 52.18326
#
# Poissons Ratio (x) = -0.02475 0.16580
# Poissons Ratio (y) = -0.14436 -0.45030
# Poissons Ratio (z) = 0.41346 -0.19253
#
# Static dielectric constant tensor:
#      x y z
#    x 1.667440 0.000000 0.018580 
#    y 0.000000 1.708410 0.000000 
#    z 0.018580 0.000000 1.673530 
# 
# From -- ./inp_files/22273.got.cif
#   From: 2010.05.17/outbox.cif.g08.bks.cpg/sg10_12_cif.got.tgz:22273.got - 2010.06.03 11:33:40.
