data_PCOD9142330
_publ_section_title
;
Structure prediction by ZEFSAII (Michael W. Deem and Ramdas Pophale) SiO2 
 PCOD9142330
Probable space group: P 2/M
;
_chemical_formula_sum "Si O2"
_cell_formula_units_Z 32
_cell_length_a 22.853869
_cell_length_b 7.651407
_cell_length_c 16.674527
_cell_angle_alpha 90.000000
_cell_angle_beta 147.570281
_cell_angle_gamma 90.000000
_cell_volume 1563.629112
_symmetry_space_group_name_H-M "P 2/M"
_symmetry_group_IT_number 10
_symmetry_cell_setting 'monoclinic'
loop_
_space_group_symop_operation_xyz
x,y,z
-x,y,-z
-x,-y,-z
x,-y,z
loop_
_atom_site_type_symbol
_atom_site_label
_atom_site_fract_x
_atom_site_fract_y
_atom_site_fract_z
Si Si1 0.873324 0.286559 0.596509
Si Si2 0.076550 0.289803 0.936537
Si Si3 0.387445 0.798211 0.322325
Si Si4 0.322807 0.285818 0.526251
Si Si5 0.431748 0.300836 0.195006
Si Si6 0.797478 0.698904 0.772425
Si Si7 0.991341 0.699850 0.577715
Si Si8 0.807639 0.199445 0.091534
O O1 0.879670 0.500000 0.602673
O O2 0.753423 0.239728 0.487147
O O3 0.962512 0.229944 0.766275
O O4 0.912431 0.222870 0.554873
O O5 0.072800 0.500000 0.939454
O O6 0.165519 0.249946 0.969822
O O7 0.108269 0.221684 0.061530
O O8 0.500000 0.805698 0.500000
O O9 0.413164 0.706780 0.268853
O O10 0.301333 0.700562 0.278094
O O11 0.351329 0.000000 0.265985
O O12 0.328779 0.500000 0.526320
O O13 0.447414 0.223102 0.677751
O O14 0.256837 0.223994 0.370533
O O15 0.433703 0.500000 0.168600
O O16 0.319216 0.218828 0.033692
O O17 0.830857 0.500000 0.789749
O O18 0.953016 0.500000 0.521015
O O19 0.109844 0.696234 0.756709
O O20 0.000000 0.782770 0.500000
O O21 0.840242 0.000000 0.138313
#
# Coordination Sequence:
#
# PCOD9142330 Si02
#       8
#     4   4   4   4   4   4   4   4
#     4   8  15  30  49  74 104 128 160 205 251 299
#     4   9  17  29  48  70  97 133 170 214 255 294
#     4  11  21  30  42  64  94 131 174 222 263 290
#     4   9  18  29  45  70  99 135 175 213 249 292
#     4  11  20  31  48  69  97 134 175 213 250 292
#     4  10  18  28  44  67  94 132 177 215 254 294
#     4   9  18  35  61  87 106 126 154 194 246 303
#     4  11  21  32  50  77 106 132 162 205 254 299
#
# _framework density 20.465211
#
# number of rings (size 3 to 8) (size 9 to 14) (size 15 to 20)
#    0.000    2.250    2.500    2.625    0.000    1.250 
#    0.000    2.500    0.000    9.750    0.000    9.625 
#    0.000    0.000    0.000    0.000    0.000    0.000 
#
# Total GULP energy -178414.641516 kJ/mol
# GULP energy per Si atom -5575.457547 kJ/mol
# Density = 2.041863 g / cm^3
# Si number density = 20.465211 Si / 1000 Ang^3
#
#
#
# Elastic Constant Matrix: (Units=GPa)
#
#
# Indices 1 2 3 4 5 6 
#
# 1 119.9599 -4.9918 61.3051 0.0000 20.1204 0.0000
# 2 -4.9918 52.0175 -4.4992 0.0000 0.0991 0.0000
# 3 61.3051 -4.4992 61.6533 0.0000 10.6321 0.0000
# 4 0.0000 0.0000 0.0000 20.4407 0.0000 -26.7135
# 5 20.1204 0.0991 10.6321 0.0000 28.1998 0.0000
# 6 0.0000 0.0000 0.0000 -26.7135 0.0000 -4.3468
#
#
#
# Elastic Compliance Matrix: (Units=1/GPa)
#
#
# Indices 1 2 3 4 5 6 
#
# 1 0.018008 0.000291 -0.016759 0.000000 -0.006531 0.000000
# 2 0.000291 0.019362 0.001253 0.000000 -0.000748 0.000000
# 3 -0.016759 0.001253 0.033064 0.000000 -0.000513 0.000000
# 4 0.000000 0.000000 0.000000 0.005417 0.000000 -0.033289
# 5 -0.006531 -0.000748 -0.000513 0.000000 0.040317 0.000000
# 6 0.000000 0.000000 0.000000 -0.033289 0.000000 -0.025473
#
#
# Mechanical properties :
#
#
# Convention : Reuss Voigt Hill
#
# Bulk Modulus (GPa) = 24.99792 37.47321 31.23556
# Shear Modulus (GPa) = 37.18544 20.97986 29.08265
#
# Velocity S-wave (km/s) = 4.26726 3.20527 3.77381
# Velocity P-wave (km/s) = 6.04324 5.66116 5.85532
#
# Compressibility (1/GPa) = 0.04000334
#
# Stress axis : x y z
#
# Youngs Moduli (GPa) = 55.52983 51.64762 30.24439
#
# Poissons Ratio (x) = -0.01503 0.50687
# Poissons Ratio (y) = -0.01616 -0.03788
# Poissons Ratio (z) = 0.93063 -0.06469
#
# Static dielectric constant tensor:
#      x y z
#    x 1.723180 0.000000 0.015130 
#    y 0.000000 1.792320 0.000000 
#    z 0.015130 0.000000 1.765930 
# 
# From -- ./inp_files/80000.got.cif
#   From: 2010.05.17/outbox.cif.g08.bks.cpg/sg10_40_cif.got.tgz:80000.got - 2010.06.03 11:33:40.
