data_PCOD9142819
_publ_section_title
;
Structure prediction by ZEFSAII (Michael W. Deem and Ramdas Pophale) SiO2 
 PCOD9142819
Probable space group: P 2/M
;
_chemical_formula_sum "Si O2"
_cell_formula_units_Z 24
_cell_length_a 14.569394
_cell_length_b 8.771728
_cell_length_c 22.160686
_cell_angle_alpha 90.000000
_cell_angle_beta 31.815867
_cell_angle_gamma 90.000000
_cell_volume 1493.062353
_symmetry_space_group_name_H-M "P 2/M"
_symmetry_group_IT_number 10
_symmetry_cell_setting 'monoclinic'
loop_
_space_group_symop_operation_xyz
x,y,z
-x,y,-z
-x,-y,-z
x,-y,z
loop_
_atom_site_type_symbol
_atom_site_label
_atom_site_fract_x
_atom_site_fract_y
_atom_site_fract_z
Si Si1 0.489885 0.683027 0.075409
Si Si2 0.576420 0.683413 0.252421
Si Si3 0.788430 0.182174 0.558948
Si Si4 0.728292 0.179932 0.043712
Si Si5 0.151428 0.682617 0.341580
Si Si6 0.930573 0.324155 0.108024
O O1 0.515699 0.500000 0.064880
O O2 0.633101 0.762896 0.037023
O O3 0.301063 0.716416 0.209694
O O4 0.500000 0.728135 0.000000
O O5 0.565117 0.500000 0.257697
O O6 0.390171 0.756558 0.369383
O O7 0.637474 0.738584 0.151936
O O8 0.730697 0.726588 0.212734
O O9 0.794736 0.244261 0.624364
O O10 0.962712 0.249527 0.431619
O O11 0.793381 0.000000 0.556746
O O12 0.708184 0.000000 0.062261
O O13 0.931599 0.225725 0.932156
O O14 0.138837 0.500000 0.356148
O O15 0.936901 0.500000 0.125025
O O16 0.000000 0.322666 0.000000
#
# Coordination Sequence:
#
# PCOD9142819 Si02
#       6
#     4   4   4   4   4   4
#     4  10  21  36  53  70  92 128 170 205 236 278
#     4  10  18  30  47  68  95 129 163 193 234 288
#     4  11  20  29  46  71 100 127 156 196 242 289
#     4  11  20  29  45  69  98 127 156 198 244 286
#     4  10  19  32  49  67  93 128 163 197 237 287
#     4   8  16  29  45  64  91 126 160 193 231 284
#
# _framework density 16.074345000000001
#
# number of rings (size 3 to 8) (size 9 to 14) (size 15 to 20)
#    0.000    2.000    1.667    6.000    0.000    4.667 
#    0.000    0.000    0.000    0.000    0.000    1.167 
#    0.000    9.333    0.000    0.000    0.000    0.000 
#
# Total GULP energy -133865.810059 kJ/mol
# GULP energy per Si atom -5577.742086 kJ/mol
# Density = 1.603776 g / cm^3
# Si number density = 16.074345 Si / 1000 Ang^3
#
#
#
# Elastic Constant Matrix: (Units=GPa)
#
#
# Indices 1 2 3 4 5 6 
#
# 1 85.7212 48.2429 63.4132 0.0000 -24.3222 0.0000
# 2 48.2429 86.3798 49.8362 0.0000 -15.5398 0.0000
# 3 63.4132 49.8362 96.5346 0.0000 -28.8419 0.0000
# 4 0.0000 0.0000 0.0000 5.1549 0.0000 -9.1844
# 5 -24.3222 -15.5398 -28.8419 0.0000 34.1120 0.0000
# 6 0.0000 0.0000 0.0000 -9.1844 0.0000 -88.8871
#
#
#
# Elastic Compliance Matrix: (Units=1/GPa)
#
#
# Indices 1 2 3 4 5 6 
#
# 1 0.025617 -0.006493 -0.011911 0.000000 0.005236 0.000000
# 2 -0.006493 0.018138 -0.005369 0.000000 -0.000907 0.000000
# 3 -0.011911 -0.005369 0.023665 0.000000 0.009070 0.000000
# 4 0.000000 0.000000 0.000000 0.163831 0.000000 -0.016928
# 5 0.005236 -0.000907 0.009070 0.000000 0.040305 0.000000
# 6 0.000000 0.000000 0.000000 -0.016928 0.000000 -0.009501
#
#
# Mechanical properties :
#
#
# Convention : Reuss Voigt Hill
#
# Bulk Modulus (GPa) = 50.31945 65.73557 58.02751
# Shear Modulus (GPa) = 15.81145 -2.78116 6.51514
#
# Velocity S-wave (km/s) = 3.13971 -1.31679 2.01542
# Velocity P-wave (km/s) = 6.67202 6.21865 6.44932
#
# Compressibility (1/GPa) = 0.01987303
#
# Stress axis : x y z
#
# Youngs Moduli (GPa) = 39.03626 55.13357 42.25574
#
# Poissons Ratio (x) = 0.35798 0.50333
# Poissons Ratio (y) = 0.25346 0.22689
# Poissons Ratio (z) = 0.46498 0.29603
#
# Static dielectric constant tensor:
#      x y z
#    x 1.527960 0.000000 -0.039130 
#    y 0.000000 1.533220 0.000000 
#    z -0.039130 0.000000 1.551530 
# 
# From -- ./inp_files/63100.got.cif
#   From: 2010.05.17/outbox.cif.g08.bks.cpg/sg10_32_cif.got.tgz:63100.got - 2010.06.03 11:33:40.
