data_PCOD9142329
_publ_section_title
;
Structure prediction by ZEFSAII (Michael W. Deem and Ramdas Pophale) SiO2 
 PCOD9142329
Probable space group: P 2/M
;
_chemical_formula_sum "Si O2"
_cell_formula_units_Z 32
_cell_length_a 19.386167
_cell_length_b 8.158200
_cell_length_c 28.189491
_cell_angle_alpha 90.000000
_cell_angle_beta 157.689122
_cell_angle_gamma 90.000000
_cell_volume 1692.529034
_symmetry_space_group_name_H-M "P 2/M"
_symmetry_group_IT_number 10
_symmetry_cell_setting 'monoclinic'
loop_
_space_group_symop_operation_xyz
x,y,z
-x,y,-z
-x,-y,-z
x,-y,z
loop_
_atom_site_type_symbol
_atom_site_label
_atom_site_fract_x
_atom_site_fract_y
_atom_site_fract_z
Si Si1 0.928283 0.195658 0.158345
Si Si2 0.422176 0.807675 0.688068
Si Si3 0.584243 0.307970 0.889943
Si Si4 0.878807 0.697018 0.233595
Si Si5 0.339326 0.313164 0.819088
Si Si6 0.293758 0.199097 0.510085
Si Si7 0.001768 0.813681 0.444768
Si Si8 0.660823 0.200164 0.568222
O O1 0.862502 0.242272 0.169437
O O2 0.137406 0.251157 0.287262
O O3 0.923991 0.000000 0.151248
O O4 0.792359 0.271416 0.033983
O O5 0.526409 0.744829 0.800564
O O6 0.425087 0.740606 0.636006
O O7 0.208558 0.786853 0.562589
O O8 0.465366 0.000000 0.713182
O O9 0.546854 0.500000 0.868159
O O10 0.469683 0.234223 0.861963
O O11 0.872421 0.500000 0.229983
O O12 0.718121 0.758567 0.166239
O O13 0.081432 0.749614 0.379461
O O14 0.403540 0.500000 0.868619
O O15 0.142541 0.309845 0.668449
O O16 0.357537 0.250886 0.498369
O O17 0.292569 0.000000 0.510929
O O18 0.000000 0.805794 0.500000
O O19 0.949655 0.000000 0.396999
O O20 0.500000 0.257033 0.500000
O O21 0.659328 0.000000 0.567593
#
# Coordination Sequence:
#
# PCOD9142329 Si02
#       8
#     4   4   4   4   4   4   4   4
#     4  10  21  37  55  75 100 130 165 205 251 304
#     4  10  19  31  48  72 102 135 172 212 253 295
#     4  11  23  36  49  68  99 140 180 213 248 293
#     4  10  19  32  50  71  99 133 170 214 257 295
#     4  10  21  32  45  67  96 134 176 216 254 291
#     4   9  17  30  51  79 107 132 162 205 253 297
#     4  10  18  28  44  66  94 130 171 218 258 288
#     4   8  15  31  58  87 106 121 149 196 252 305
#
# _framework density 18.906618000000002
#
# number of rings (size 3 to 8) (size 9 to 14) (size 15 to 20)
#    0.000    2.250    2.500    1.875    0.000    2.750 
#    0.000    2.500    0.000   10.125    0.000    5.250 
#    0.000    0.000    0.000    0.000    0.000    0.000 
#
# Total GULP energy -178313.685788 kJ/mol
# GULP energy per Si atom -5572.302681 kJ/mol
# Density = 1.886359 g / cm^3
# Si number density = 18.906618 Si / 1000 Ang^3
#
#
#
# Elastic Constant Matrix: (Units=GPa)
#
#
# Indices 1 2 3 4 5 6 
#
# 1 176.6482 -46.4073 169.8114 0.0000 -7.8003 0.0000
# 2 -46.4073 54.4989 -96.2765 0.0000 4.1291 0.0000
# 3 169.8114 -96.2765 299.2462 0.0000 -30.5072 0.0000
# 4 0.0000 0.0000 0.0000 -33.1589 0.0000 -9.3095
# 5 -7.8003 4.1291 -30.5072 0.0000 19.4166 0.0000
# 6 0.0000 0.0000 0.0000 -9.3095 0.0000 10.8122
#
#
#
# Elastic Compliance Matrix: (Units=1/GPa)
#
#
# Indices 1 2 3 4 5 6 
#
# 1 0.014587 -0.007816 -0.011938 0.000000 -0.011234 0.000000
# 2 -0.007816 0.050611 0.022983 0.000000 0.022207 0.000000
# 3 -0.011938 0.022983 0.019674 0.000000 0.021229 0.000000
# 4 0.000000 0.000000 0.000000 -0.024287 0.000000 -0.020911
# 5 -0.011234 0.022207 0.021229 0.000000 0.075622 0.000000
# 6 0.000000 0.000000 0.000000 -0.020911 0.000000 0.074483
#
#
# Mechanical properties :
#
#
# Convention : Reuss Voigt Hill
#
# Bulk Modulus (GPa) = 10.94939 64.96093 37.95516
# Shear Modulus (GPa) = 21.30593 32.96504 27.13549
#
# Velocity S-wave (km/s) = 3.36058 4.18014 3.79256
# Velocity P-wave (km/s) = 4.56748 7.59813 6.26871
#
# Compressibility (1/GPa) = 0.09132932
#
# Stress axis : x y z
#
# Youngs Moduli (GPa) = 68.55349 19.75856 50.82760
#
# Poissons Ratio (x) = 0.15444 0.60677
# Poissons Ratio (y) = 0.53584 -1.16815
# Poissons Ratio (z) = 0.81837 -0.45410
#
# Static dielectric constant tensor:
#      x y z
#    x 1.791310 0.000000 -0.045570 
#    y 0.000000 1.688520 0.000000 
#    z -0.045570 0.000000 1.648710 
# 
# From -- ./inp_files/55275.got.cif
#   From: 2010.05.17/outbox.cif.g08.bks.cpg/sg10_28_cif.got.tgz:55275.got - 2010.06.03 11:33:40.
