data_PCOD9142274
_publ_section_title
;
Structure prediction by ZEFSAII (Michael W. Deem and Ramdas Pophale) SiO2 
 PCOD9142274
Probable space group: P 2/M
;
_chemical_formula_sum "Si O2"
_cell_formula_units_Z 32
_cell_length_a 20.008266
_cell_length_b 9.460785
_cell_length_c 29.591403
_cell_angle_alpha 90.000000
_cell_angle_beta 156.723077
_cell_angle_gamma 90.000000
_cell_volume 2213.564833
_symmetry_space_group_name_H-M "P 2/M"
_symmetry_group_IT_number 10
_symmetry_cell_setting 'monoclinic'
loop_
_space_group_symop_operation_xyz
x,y,z
-x,y,-z
-x,-y,-z
x,-y,z
loop_
_atom_site_type_symbol
_atom_site_label
_atom_site_fract_x
_atom_site_fract_y
_atom_site_fract_z
Si Si1 0.773097 0.166928 0.952573
Si Si2 0.389746 0.831324 0.735040
Si Si3 0.245210 0.161464 0.166229
Si Si4 0.615376 0.164390 0.439686
Si Si5 0.839128 0.169216 0.495471
Si Si6 0.538671 0.330703 0.575301
Si Si7 0.882787 0.337296 0.382098
Si Si8 0.100599 0.668128 0.157158
O O1 0.587439 0.205506 0.855493
O O2 0.766786 0.186564 0.894345
O O3 0.799829 0.000000 0.977475
O O4 0.929936 0.257278 0.067767
O O5 0.299907 0.804439 0.630549
O O6 0.285468 0.744844 0.707409
O O7 0.374418 0.000000 0.733431
O O8 0.440335 0.170643 0.302602
O O9 0.143122 0.268635 0.134109
O O10 0.187866 0.000000 0.140167
O O11 0.760774 0.209889 0.495121
O O12 0.582660 0.255647 0.463830
O O13 0.642877 0.000000 0.468695
O O14 0.006756 0.253544 0.586027
O O15 0.869225 0.000000 0.514057
O O16 0.500000 0.288248 0.500000
O O17 0.518505 0.500000 0.566463
O O18 0.732686 0.297749 0.709671
O O19 0.851643 0.500000 0.350292
O O20 0.000000 0.337011 0.500000
O O21 0.080749 0.500000 0.142996
#
# Coordination Sequence:
#
# PCOD9142274 Si02
#       8
#     4   4   4   4   4   4   4   4
#     4  10  18  28  42  59  82 113 145 173 203 245
#     4   9  16  27  41  56  78 114 151 174 201 242
#     4   9  16  28  42  57  81 112 142 171 204 243
#     4   9  16  27  45  67  85 105 141 182 213 244
#     4   9  15  26  42  59  81 110 144 177 206 243
#     4   9  19  35  49  60  81 112 141 172 216 265
#     4   9  17  26  36  55  82 112 145 179 211 238
#     4  10  20  30  41  60  81 105 139 176 213 249
#
# _framework density 14.456319000000001
#
# number of rings (size 3 to 8) (size 9 to 14) (size 15 to 20)
#    0.000    2.750    1.250    1.125    0.000    5.250 
#    0.000    0.000    0.000    0.000    0.000    0.000 
#    0.000    1.000    0.000   11.250    0.000    5.000 
#
# Total GULP energy -178283.532532 kJ/mol
# GULP energy per Si atom -5571.360392 kJ/mol
# Density = 1.442342 g / cm^3
# Si number density = 14.456319 Si / 1000 Ang^3
#
#
#
# Elastic Constant Matrix: (Units=GPa)
#
#
# Indices 1 2 3 4 5 6 
#
# 1 113.4232 61.0837 58.4480 0.0000 22.6623 0.0000
# 2 61.0837 55.6583 45.0720 0.0000 17.6399 0.0000
# 3 58.4480 45.0720 58.6820 0.0000 21.6036 0.0000
# 4 0.0000 0.0000 0.0000 3.0495 0.0000 -25.8499
# 5 22.6623 17.6399 21.6036 0.0000 26.9520 0.0000
# 6 0.0000 0.0000 0.0000 -25.8499 0.0000 -40.5032
#
#
#
# Elastic Compliance Matrix: (Units=1/GPa)
#
#
# Indices 1 2 3 4 5 6 
#
# 1 0.023396 -0.017984 -0.009336 0.000000 -0.000419 0.000000
# 2 -0.017984 0.061483 -0.028463 0.000000 -0.002304 0.000000
# 3 -0.009336 -0.028463 0.054551 0.000000 -0.017247 0.000000
# 4 0.000000 0.000000 0.000000 0.051158 0.000000 -0.032650
# 5 -0.000419 -0.002304 -0.017247 0.000000 0.052787 0.000000
# 6 0.000000 0.000000 0.000000 -0.032650 0.000000 -0.003852
#
#
# Mechanical properties :
#
#
# Convention : Reuss Voigt Hill
#
# Bulk Modulus (GPa) = 35.88802 61.88564 48.88683
# Shear Modulus (GPa) = 13.87432 2.11032 7.99232
#
# Velocity S-wave (km/s) = 3.10133 1.20953 2.35385
# Velocity P-wave (km/s) = 6.14031 6.69718 6.42478
#
# Compressibility (1/GPa) = 0.02786445
#
# Stress axis : x y z
#
# Youngs Moduli (GPa) = 42.74189 16.26454 18.33160
#
# Poissons Ratio (x) = 0.29250 0.17114
# Poissons Ratio (y) = 0.76867 0.52178
# Poissons Ratio (z) = 0.39903 0.46294
#
# Static dielectric constant tensor:
#      x y z
#    x 1.462600 0.000000 0.017770 
#    y 0.000000 1.482010 0.000000 
#    z 0.017770 0.000000 1.473240 
# 
# From -- ./inp_files/68230.got.cif
#   From: 2010.05.17/outbox.cif.g08.bks.cpg/sg10_35_cif.got.tgz:68230.got - 2010.06.03 11:33:40.
