data_PCOD9142556
_publ_section_title
;
Structure prediction by ZEFSAII (Michael W. Deem and Ramdas Pophale) SiO2 
 PCOD9142556
Probable space group: P 2/M
;
_chemical_formula_sum "Si O2"
_cell_formula_units_Z 32
_cell_length_a 19.044963
_cell_length_b 19.428129
_cell_length_c 7.109166
_cell_angle_alpha 90.000000
_cell_angle_beta 32.622328
_cell_angle_gamma 90.000000
_cell_volume 1418.072156
_symmetry_space_group_name_H-M "P 2/M"
_symmetry_group_IT_number 10
_symmetry_cell_setting 'monoclinic'
loop_
_space_group_symop_operation_xyz
x,y,z
-x,y,-z
-x,-y,-z
x,-y,z
loop_
_atom_site_type_symbol
_atom_site_label
_atom_site_fract_x
_atom_site_fract_y
_atom_site_fract_z
Si Si1 0.753859 0.783276 0.781486
Si Si2 0.888706 0.423670 0.591522
Si Si3 0.607746 0.424676 0.420897
Si Si4 0.492505 0.713664 0.747246
Si Si5 0.255871 0.222618 0.760407
Si Si6 0.680435 0.924085 0.422123
Si Si7 0.000732 0.284158 0.268519
Si Si8 0.611193 0.076613 0.020825
O O1 0.905076 0.772864 0.397305
O O2 0.693643 0.859441 0.910348
O O3 0.655962 0.734708 0.885506
O O4 0.749899 0.759209 0.006582
O O5 0.879270 0.500000 0.522152
O O6 0.937518 0.358217 0.362579
O O7 0.000000 0.428659 0.500000
O O8 0.748657 0.410154 0.007413
O O9 0.500000 0.430330 0.500000
O O10 0.617526 0.500000 0.492488
O O11 0.551960 0.360730 0.663219
O O12 0.500000 0.718773 0.500000
O O13 0.592074 0.765646 0.621616
O O14 0.228126 0.141611 0.808795
O O15 0.151083 0.268458 0.889004
O O16 0.640988 0.924220 0.730382
O O17 0.733644 0.000000 0.258260
O O18 0.545276 0.914596 0.610969
O O19 0.000000 0.280312 0.500000
O O20 0.644884 0.000000 0.016514
#
# Coordination Sequence:
#
# PCOD9142556 Si02
#       8
#     4   4   4   4   4   4   4   4
#     4  10  18  29  46  69  94 123 154 186 229 275
#     4   9  15  24  38  57  86 129 165 183 217 274
#     4   9  15  22  34  55  86 121 152 184 223 266
#     4   9  15  24  39  61  88 115 151 188 221 262
#     4  10  18  29  46  69  94 121 152 188 229 272
#     4   9  18  33  51  70  92 117 148 191 236 275
#     4   9  17  28  41  63  98 129 151 186 234 270
#     4   9  18  33  51  70  92 117 149 191 234 275
#
# _framework density 22.565847000000002
#
# number of rings (size 3 to 8) (size 9 to 14) (size 15 to 20)
#    0.000    2.750    1.250    4.500    0.000    0.500 
#    0.000    2.500    0.000    3.750    0.000    0.000 
#    0.000    6.000    0.000    0.000    0.000    0.000 
#
# Total GULP energy -178328.283303 kJ/mol
# GULP energy per Si atom -5572.758853 kJ/mol
# Density = 2.251449 g / cm^3
# Si number density = 22.565847 Si / 1000 Ang^3
#
#
#
# Elastic Constant Matrix: (Units=GPa)
#
#
# Indices 1 2 3 4 5 6 
#
# 1 64.0384 13.2753 38.5081 0.0000 -6.4985 0.0000
# 2 13.2753 184.4520 44.1783 0.0000 -38.8842 0.0000
# 3 38.5081 44.1783 103.5036 0.0000 -34.1851 0.0000
# 4 0.0000 0.0000 0.0000 -64.2085 0.0000 -115.0895
# 5 -6.4985 -38.8842 -34.1851 0.0000 35.3875 0.0000
# 6 0.0000 0.0000 0.0000 -115.0895 0.0000 -113.9724
#
#
#
# Elastic Compliance Matrix: (Units=1/GPa)
#
#
# Indices 1 2 3 4 5 6 
#
# 1 0.020817 -0.000459 -0.009477 0.000000 -0.005836 0.000000
# 2 -0.000459 0.007097 -0.000456 0.000000 0.007273 0.000000
# 3 -0.009477 -0.000456 0.018565 0.000000 0.015692 0.000000
# 4 0.000000 0.000000 0.000000 0.019227 0.000000 -0.019416
# 5 -0.005836 0.007273 0.015692 0.000000 0.050338 0.000000
# 6 0.000000 0.000000 0.000000 -0.019416 0.000000 0.010832
#
#
# Mechanical properties :
#
#
# Convention : Reuss Voigt Hill
#
# Bulk Modulus (GPa) = 38.91714 60.43528 49.67621
# Shear Modulus (GPa) = 32.00517 -11.48985 10.25766
#
# Velocity S-wave (km/s) = 3.77012 -2.25893 2.13437
# Velocity P-wave (km/s) = 6.01957 4.47618 5.30431
#
# Compressibility (1/GPa) = 0.02569562
#
# Stress axis : x y z
#
# Youngs Moduli (GPa) = 48.03755 140.90373 53.86526
#
# Poissons Ratio (x) = 0.06464 0.51046
# Poissons Ratio (y) = 0.02204 0.02458
# Poissons Ratio (z) = 0.45523 0.06430
#
# Static dielectric constant tensor:
#      x y z
#    x 1.885610 0.000000 0.061450 
#    y 0.000000 1.930360 0.000000 
#    z 0.061450 0.000000 1.886250 
# 
# From -- ./inp_files/35432.got.cif
#   From: 2010.05.17/outbox.cif.g08.bks.cpg/sg10_18_cif.got.tgz:35432.got - 2010.06.03 11:33:40.
