data_PCOD9142204
_publ_section_title
;
Structure prediction by ZEFSAII (Michael W. Deem and Ramdas Pophale) SiO2 
 PCOD9142204
Probable space group: P 2/M
;
_chemical_formula_sum "Si O2"
_cell_formula_units_Z 32
_cell_length_a 22.304232
_cell_length_b 16.236981
_cell_length_c 21.755821
_cell_angle_alpha 90.000000
_cell_angle_beta 166.813763
_cell_angle_gamma 90.000000
_cell_volume 1797.321153
_symmetry_space_group_name_H-M "P 2/M"
_symmetry_group_IT_number 10
_symmetry_cell_setting 'monoclinic'
loop_
_space_group_symop_operation_xyz
x,y,z
-x,y,-z
-x,-y,-z
x,-y,z
loop_
_atom_site_type_symbol
_atom_site_label
_atom_site_fract_x
_atom_site_fract_y
_atom_site_fract_z
Si Si1 0.647840 0.094463 0.514643
Si Si2 0.144336 0.859926 0.086466
Si Si3 0.113993 0.684093 0.349619
Si Si4 0.646399 0.687562 0.717121
Si Si5 0.611277 0.770688 0.817448
Si Si6 0.855288 0.596708 0.753946
Si Si7 0.919844 0.401028 0.277925
Si Si8 0.582715 0.399740 0.150383
O O1 0.909661 0.140774 0.801293
O O2 0.516163 0.141426 0.325580
O O3 0.718805 0.000000 0.573913
O O4 0.408555 0.098174 0.325271
O O5 0.000000 0.900646 0.000000
O O6 0.243169 0.769048 0.205532
O O7 0.402907 0.719713 0.649107
O O8 0.129045 0.632702 0.300453
O O9 0.008430 0.630352 0.300137
O O10 0.905023 0.758746 0.134177
O O11 0.618348 0.726119 0.757908
O O12 0.363650 0.646568 0.425780
O O13 0.864050 0.617238 0.936900
O O14 0.797838 0.500000 0.695100
O O15 0.920393 0.500000 0.276420
O O16 0.634830 0.374653 0.016903
O O17 0.132661 0.374514 0.541452
O O18 0.583709 0.500000 0.149220
O O19 0.500000 0.371526 0.000000
#
# Coordination Sequence:
#
# PCOD9142204 Si02
#       8
#     4   4   4   4   4   4   4   4
#     4  11  22  36  54  76  98 119 149 181 214 271
#     4  11  22  36  54  73  95 122 148 182 228 270
#     4  10  18  29  45  66  92 118 150 189 234 274
#     4   9  18  32  47  64  88 119 149 176 219 281
#     4   9  18  32  47  64  90 121 146 172 218 283
#     4  10  18  29  47  67  88 114 149 193 233 268
#     4  10  18  27  41  63  89 117 159 207 237 259
#     4   9  17  28  40  55  82 123 165 201 236 272
#
# _framework density 17.804275000000001
#
# number of rings (size 3 to 8) (size 9 to 14) (size 15 to 20)
#    0.000    2.125    0.000    6.375    0.000    3.000 
#    0.000    3.750    0.000    2.250    0.000    0.000 
#    0.000    0.000    0.000    0.000    0.000   43.750 
#
# Total GULP energy -178490.514097 kJ/mol
# GULP energy per Si atom -5577.828566 kJ/mol
# Density = 1.776375 g / cm^3
# Si number density = 17.804275 Si / 1000 Ang^3
#
#
#
# Elastic Constant Matrix: (Units=GPa)
#
#
# Indices 1 2 3 4 5 6 
#
# 1 41.6531 8.3931 4.4232 0.0000 3.4998 0.0000
# 2 8.3931 77.9905 22.7651 0.0000 1.4888 0.0000
# 3 4.4232 22.7651 89.1565 0.0000 4.9722 0.0000
# 4 0.0000 0.0000 0.0000 14.7500 0.0000 5.0600
# 5 3.4998 1.4888 4.9722 0.0000 24.6471 0.0000
# 6 0.0000 0.0000 0.0000 5.0600 0.0000 6.6025
#
#
#
# Elastic Compliance Matrix: (Units=1/GPa)
#
#
# Indices 1 2 3 4 5 6 
#
# 1 0.024830 -0.002489 -0.000413 0.000000 -0.003292 0.000000
# 2 -0.002489 0.014105 -0.003489 0.000000 0.000205 0.000000
# 3 -0.000413 -0.003489 0.012250 0.000000 -0.002202 0.000000
# 4 0.000000 0.000000 0.000000 0.091978 0.000000 -0.070490
# 5 -0.003292 0.000205 -0.002202 0.000000 0.041472 0.000000
# 6 0.000000 0.000000 0.000000 -0.070490 0.000000 0.205480
#
#
# Mechanical properties :
#
#
# Convention : Reuss Voigt Hill
#
# Bulk Modulus (GPa) = 26.03974 31.10700 28.57337
# Shear Modulus (GPa) = 12.02798 20.74783 16.38790
#
# Velocity S-wave (km/s) = 2.60199 3.41739 3.03718
# Velocity P-wave (km/s) = 4.86666 5.75161 5.32754
#
# Compressibility (1/GPa) = 0.03840284
#
# Stress axis : x y z
#
# Youngs Moduli (GPa) = 40.27430 70.89921 81.62937
#
# Poissons Ratio (x) = 0.17645 0.03369
# Poissons Ratio (y) = 0.10023 0.28484
# Poissons Ratio (z) = 0.01662 0.24740
#
# Static dielectric constant tensor:
#      x y z
#    x 1.630010 0.000000 -0.013290 
#    y 0.000000 1.623170 0.000000 
#    z -0.013290 0.000000 1.641610 
# 
# From -- ./inp_files/91158.got.cif
#   From: 2010.05.17/outbox.cif.g08.bks.cpg/sg10_46_cif.got.tgz:91158.got - 2010.06.03 11:33:40.
