data_PCOD9142933
_publ_section_title
;
Structure prediction by ZEFSAII (Michael W. Deem and Ramdas Pophale) SiO2 
 PCOD9142933
Probable space group: P 2/M
;
_chemical_formula_sum "Si O2"
_cell_formula_units_Z 32
_cell_length_a 18.069090
_cell_length_b 8.829918
_cell_length_c 12.804043
_cell_angle_alpha 90.000000
_cell_angle_beta 77.230745
_cell_angle_gamma 90.000000
_cell_volume 1992.342932
_symmetry_space_group_name_H-M "P 2/M"
_symmetry_group_IT_number 10
_symmetry_cell_setting 'monoclinic'
loop_
_space_group_symop_operation_xyz
x,y,z
-x,y,-z
-x,-y,-z
x,-y,z
loop_
_atom_site_type_symbol
_atom_site_label
_atom_site_fract_x
_atom_site_fract_y
_atom_site_fract_z
Si Si1 0.316413 0.316606 0.193876
Si Si2 0.995684 0.174941 0.374665
Si Si3 0.579467 0.684019 0.026454
Si Si4 0.588851 0.181561 0.643229
Si Si5 0.574938 0.682218 0.268383
Si Si6 0.837528 0.680414 0.432141
Si Si7 0.683484 0.180990 0.404686
Si Si8 0.846320 0.318402 0.675652
O O1 0.321094 0.500000 0.201250
O O2 0.366516 0.246904 0.271026
O O3 0.228855 0.273484 0.237989
O O4 0.352798 0.271037 0.072105
O O5 0.920206 0.265846 0.368375
O O6 0.000000 0.183269 0.500000
O O7 0.075493 0.242927 0.312640
O O8 0.988149 0.000000 0.347404
O O9 0.577832 0.500000 0.027863
O O10 0.585388 0.731783 0.144518
O O11 0.500000 0.734658 0.000000
O O12 0.505157 0.251974 0.667294
O O13 0.635668 0.219999 0.524178
O O14 0.583631 0.000000 0.652167
O O15 0.572097 0.500000 0.272579
O O16 0.641676 0.742767 0.320504
O O17 0.830718 0.500000 0.425520
O O18 0.768539 0.760226 0.395199
O O19 0.832589 0.720189 0.557542
O O20 0.682821 0.000000 0.393705
O O21 0.855129 0.500000 0.678043
#
# Coordination Sequence:
#
# PCOD9142933 Si02
#       8
#     4   4   4   4   4   4   4   4
#     4  10  18  32  53  75  99 131 168 206 250 294
#     4   9  17  28  44  67 100 137 164 192 241 295
#     4   9  17  32  54  75  96 124 165 214 255 291
#     4  11  22  34  49  71 101 133 165 205 252 297
#     4  11  22  36  54  72  94 130 174 212 248 294
#     4  10  18  30  49  73  99 129 168 203 239 291
#     4  11  23  36  49  70 103 135 166 205 251 299
#     4   9  17  28  46  72 100 128 164 205 240 286
#
# _framework density 16.061492999999999
#
# number of rings (size 3 to 8) (size 9 to 14) (size 15 to 20)
#    0.000    2.000    2.500    2.250    0.000    5.500 
#    0.000    1.875    0.000    0.000    0.000    0.875 
#    0.000    7.000    0.000    0.000    0.000    0.000 
#
# Total GULP energy -178552.984812 kJ/mol
# GULP energy per Si atom -5579.780775 kJ/mol
# Density = 1.602494 g / cm^3
# Si number density = 16.061493 Si / 1000 Ang^3
#
#
#
# Elastic Constant Matrix: (Units=GPa)
#
#
# Indices 1 2 3 4 5 6 
#
# 1 140.8340 37.1877 52.3816 0.0000 -6.2735 0.0000
# 2 37.1877 31.7480 23.2099 0.0000 2.7973 0.0000
# 3 52.3816 23.2099 60.7856 0.0000 9.1663 0.0000
# 4 0.0000 0.0000 0.0000 11.6794 0.0000 -0.5646
# 5 -6.2735 2.7973 9.1663 0.0000 18.8039 0.0000
# 6 0.0000 0.0000 0.0000 -0.5646 0.0000 23.9479
#
#
#
# Elastic Compliance Matrix: (Units=1/GPa)
#
#
# Indices 1 2 3 4 5 6 
#
# 1 0.013872 -0.010084 -0.009744 0.000000 0.010878 0.000000
# 2 -0.010084 0.051079 -0.009888 0.000000 -0.006143 0.000000
# 3 -0.009744 -0.009888 0.031185 0.000000 -0.016981 0.000000
# 4 0.000000 0.000000 0.000000 0.085719 0.000000 0.002021
# 5 0.010878 -0.006143 -0.016981 0.000000 0.066001 0.000000
# 6 0.000000 0.000000 0.000000 0.002021 0.000000 0.041805
#
#
# Mechanical properties :
#
#
# Convention : Reuss Voigt Hill
#
# Bulk Modulus (GPa) = 27.24472 50.99179 39.11826
# Shear Modulus (GPa) = 13.83788 18.92548 16.38168
#
# Velocity S-wave (km/s) = 2.93841 3.43638 3.19711
# Velocity P-wave (km/s) = 5.33966 6.89650 6.16740
#
# Compressibility (1/GPa) = 0.03670436
#
# Stress axis : x y z
#
# Youngs Moduli (GPa) = 72.08750 19.57740 32.06712
#
# Poissons Ratio (x) = 0.19741 0.31247
# Poissons Ratio (y) = 0.72690 0.31708
# Poissons Ratio (z) = 0.70244 0.19358
#
# Static dielectric constant tensor:
#      x y z
#    x 1.526930 0.000000 -0.014340 
#    y 0.000000 1.536870 0.000000 
#    z -0.014340 0.000000 1.521200 
# 
# From -- ./inp_files/49852.got.cif
#   From: 2010.05.17/outbox.cif.g08.bks.cpg/sg10_25_cif.got.tgz:49852.got - 2010.06.03 11:33:40.
