data_PCOD9142459
_publ_section_title
;
Structure prediction by ZEFSAII (Michael W. Deem and Ramdas Pophale) SiO2 
 PCOD9142459
Probable space group: P 2/M
;
_chemical_formula_sum "Si O2"
_cell_formula_units_Z 32
_cell_length_a 15.336838
_cell_length_b 8.990158
_cell_length_c 14.475859
_cell_angle_alpha 90.000000
_cell_angle_beta 87.944066
_cell_angle_gamma 90.000000
_cell_volume 1994.655254
_symmetry_space_group_name_H-M "P 2/M"
_symmetry_group_IT_number 10
_symmetry_cell_setting 'monoclinic'
loop_
_space_group_symop_operation_xyz
x,y,z
-x,y,-z
-x,-y,-z
x,-y,z
loop_
_atom_site_type_symbol
_atom_site_label
_atom_site_fract_x
_atom_site_fract_y
_atom_site_fract_z
Si Si1 0.258511 0.818935 0.888540
Si Si2 0.902308 0.182111 0.979645
Si Si3 0.621441 0.827792 0.954974
Si Si4 0.356434 0.177647 0.710898
Si Si5 0.602089 0.680280 0.484230
Si Si6 0.484124 0.327665 0.192289
Si Si7 0.207557 0.829386 0.184322
Si Si8 0.313348 0.672349 0.330468
O O1 0.277258 0.777814 0.782384
O O2 0.260365 0.000000 0.893196
O O3 0.168679 0.771530 0.940400
O O4 0.339251 0.768750 0.950501
O O5 0.867627 0.232420 0.880332
O O6 0.900494 0.000000 0.977624
O O7 0.000000 0.228721 0.000000
O O8 0.548584 0.735471 0.904306
O O9 0.706588 0.828317 0.884733
O O10 0.594770 0.000000 0.966214
O O11 0.360671 0.256020 0.612115
O O12 0.442482 0.227720 0.763486
O O13 0.355820 0.000000 0.699492
O O14 0.500000 0.723342 0.500000
O O15 0.603600 0.500000 0.481809
O O16 0.657535 0.732185 0.570874
O O17 0.511489 0.500000 0.185248
O O18 0.400059 0.321208 0.263354
O O19 0.236304 0.749357 0.276532
O O20 0.186579 0.000000 0.206608
O O21 0.290596 0.500000 0.342883
#
# Coordination Sequence:
#
# PCOD9142459 Si02
#       8
#     4   4   4   4   4   4   4   4
#     4   8  16  29  42  61  92 120 143 178 222 267
#     4   8  13  25  48  74  96 119 144 171 213 269
#     4   8  14  27  43  58  82 117 149 178 216 259
#     4  11  21  30  42  62  87 117 151 187 227 265
#     4  10  19  34  48  60  82 115 155 198 233 262
#     4  10  18  29  42  59  83 115 154 191 222 255
#     4   8  14  24  42  69  93 110 139 182 216 253
#     4   9  17  29  45  60  82 117 149 183 229 265
#
# _framework density 16.042871999999999
#
# number of rings (size 3 to 8) (size 9 to 14) (size 15 to 20)
#    0.000    3.000    1.250    2.250    0.000    1.750 
#    0.000    3.750    0.000    1.875    0.000    0.875 
#    0.000    7.000    0.000    0.000    0.000    0.000 
#
# Total GULP energy -178219.484198 kJ/mol
# GULP energy per Si atom -5569.358881 kJ/mol
# Density = 1.600636 g / cm^3
# Si number density = 16.042872 Si / 1000 Ang^3
#
#
#
# Elastic Constant Matrix: (Units=GPa)
#
#
# Indices 1 2 3 4 5 6 
#
# 1 81.6972 13.7227 55.9411 0.0000 18.9609 0.0000
# 2 13.7227 16.5185 27.4942 0.0000 4.8916 0.0000
# 3 55.9411 27.4942 146.5612 0.0000 14.9867 0.0000
# 4 0.0000 0.0000 0.0000 -28.1080 0.0000 -9.5010
# 5 18.9609 4.8916 14.9867 0.0000 20.6340 0.0000
# 6 0.0000 0.0000 0.0000 -9.5010 0.0000 4.8144
#
#
#
# Elastic Compliance Matrix: (Units=1/GPa)
#
#
# Indices 1 2 3 4 5 6 
#
# 1 0.019654 -0.003153 -0.005552 0.000000 -0.013280 0.000000
# 2 -0.003153 0.090319 -0.014958 0.000000 -0.007650 0.000000
# 3 -0.005552 -0.014958 0.011736 0.000000 0.000124 0.000000
# 4 0.000000 0.000000 0.000000 -0.021341 0.000000 -0.042116
# 5 -0.013280 -0.007650 0.000124 0.000000 0.062390 0.000000
# 6 0.000000 0.000000 0.000000 -0.042116 0.000000 0.124597
#
#
# Mechanical properties :
#
#
# Convention : Reuss Voigt Hill
#
# Bulk Modulus (GPa) = 13.44403 48.78809 31.11606
# Shear Modulus (GPa) = 13.90915 9.30935 11.60925
#
# Velocity S-wave (km/s) = 2.94768 2.41151 2.69297
# Velocity P-wave (km/s) = 4.47027 6.18312 5.39510
#
# Compressibility (1/GPa) = 0.07438248
#
# Stress axis : x y z
#
# Youngs Moduli (GPa) = 50.88040 11.07182 85.21104
#
# Poissons Ratio (x) = 0.03491 0.47311
# Poissons Ratio (y) = 0.16045 1.27455
# Poissons Ratio (z) = 0.28250 0.16561
#
# Static dielectric constant tensor:
#      x y z
#    x 1.537600 0.000000 -0.002270 
#    y 0.000000 1.540960 0.000000 
#    z -0.002270 0.000000 1.563060 
# 
# From -- ./inp_files/66136.got.cif
#   From: 2010.05.17/outbox.cif.g08.bks.cpg/sg10_34_cif.got.tgz:66136.got - 2010.06.03 11:33:40.
