data_PCOD9142105
_publ_section_title
;
Structure prediction by ZEFSAII (Michael W. Deem and Ramdas Pophale) SiO2 
 PCOD9142105
Probable space group: P 2/M
;
_chemical_formula_sum "Si O2"
_cell_formula_units_Z 28
_cell_length_a 9.203502
_cell_length_b 16.080986
_cell_length_c 21.869266
_cell_angle_alpha 90.000000
_cell_angle_beta 149.612138
_cell_angle_gamma 90.000000
_cell_volume 1637.278773
_symmetry_space_group_name_H-M "P 2/M"
_symmetry_group_IT_number 10
_symmetry_cell_setting 'monoclinic'
loop_
_space_group_symop_operation_xyz
x,y,z
-x,y,-z
-x,-y,-z
x,-y,z
loop_
_atom_site_type_symbol
_atom_site_label
_atom_site_fract_x
_atom_site_fract_y
_atom_site_fract_z
Si Si1 0.818739 0.906724 0.243443
Si Si2 0.215211 0.746417 0.856484
Si Si3 0.734012 0.680414 0.251103
Si Si4 0.326955 0.174067 0.137672
Si Si5 0.688028 0.591866 0.354851
Si Si6 0.624012 0.241875 0.712566
Si Si7 0.734762 0.199034 0.533419
O O1 0.799797 0.835029 0.184967
O O2 0.542167 0.892697 0.186323
O O3 0.102018 0.884109 0.385736
O O4 0.828881 0.000000 0.223185
O O5 0.219771 0.676261 0.804796
O O6 0.934038 0.741979 0.795785
O O7 0.500000 0.742523 0.000000
O O8 0.452020 0.738238 0.157227
O O9 0.712431 0.605090 0.290342
O O10 0.008017 0.733860 0.374135
O O11 0.353341 0.183733 0.219899
O O12 0.000000 0.161007 0.000000
O O13 0.567436 0.500000 0.324083
O O14 0.509990 0.669868 0.315647
O O15 0.000000 0.596044 0.500000
O O16 0.423067 0.200283 0.588330
O O17 0.500000 0.220663 0.500000
#
# Coordination Sequence:
#
# PCOD9142105 Si02
#       7
#     4   4   4   4   4   4   4
#     4  10  22  36  51  76 113 141 170 228 278 315
#     4  10  20  36  59  80  99 142 192 220 255 310
#     4   9  18  32  54  77 109 137 175 219 255 316
#     4   9  19  34  53  75 101 143 186 215 258 313
#     4  10  20  32  53  85 116 139 165 214 274 320
#     4  11  18  33  60  78 105 139 182 222 257 319
#     4  10  17  33  53  80 103 139 178 214 271 317
#
# _framework density 17.101548000000001
#
# number of rings (size 3 to 8) (size 9 to 14) (size 15 to 20)
#    0.000    2.429    4.286    1.714    0.000    0.857 
#    0.000    2.857    0.000   18.857    0.000    0.000 
#    0.000    0.000    0.000    0.000    0.000    0.000 
#
# Total GULP energy -155943.016969 kJ/mol
# GULP energy per Si atom -5569.393463 kJ/mol
# Density = 1.706262 g / cm^3
# Si number density = 17.101548 Si / 1000 Ang^3
#
#
#
# Elastic Constant Matrix: (Units=GPa)
#
#
# Indices 1 2 3 4 5 6 
#
# 1 89.8728 18.7556 25.7920 0.0000 3.8695 0.0000
# 2 18.7556 58.1167 21.0716 0.0000 -5.7734 0.0000
# 3 25.7920 21.0716 96.8073 0.0000 4.5656 0.0000
# 4 0.0000 0.0000 0.0000 5.9079 0.0000 -0.5112
# 5 3.8695 -5.7734 4.5656 0.0000 29.5698 0.0000
# 6 0.0000 0.0000 0.0000 -0.5112 0.0000 6.5532
#
#
#
# Elastic Compliance Matrix: (Units=1/GPa)
#
#
# Indices 1 2 3 4 5 6 
#
# 1 0.012639 -0.003345 -0.002549 0.000000 -0.001913 0.000000
# 2 -0.003345 0.020127 -0.003723 0.000000 0.004942 0.000000
# 3 -0.002549 -0.003723 0.011925 0.000000 -0.002234 0.000000
# 4 0.000000 0.000000 0.000000 0.170414 0.000000 0.013292
# 5 -0.001913 0.004942 -0.002234 0.000000 0.035379 0.000000
# 6 0.000000 0.000000 0.000000 0.013292 0.000000 0.153634
#
#
# Mechanical properties :
#
#
# Convention : Reuss Voigt Hill
#
# Bulk Modulus (GPa) = 39.28173 41.78168 40.53170
# Shear Modulus (GPa) = 11.57847 20.35136 15.96491
#
# Velocity S-wave (km/s) = 2.60483 3.45342 3.05870
# Velocity P-wave (km/s) = 5.66272 6.35500 6.01882
#
# Compressibility (1/GPa) = 0.02545713
#
# Stress axis : x y z
#
# Youngs Moduli (GPa) = 79.12173 49.68459 83.85984
#
# Poissons Ratio (x) = 0.16618 0.21376
# Poissons Ratio (y) = 0.26464 0.31220
# Poissons Ratio (z) = 0.20168 0.18497
#
# Static dielectric constant tensor:
#      x y z
#    x 1.600510 0.000000 -0.012240 
#    y 0.000000 1.562280 0.000000 
#    z -0.012240 0.000000 1.579000 
# 
# From -- ./inp_files/83021.got.cif
#   From: 2010.05.17/outbox.cif.g08.bks.cpg/sg10_42_cif.got.tgz:83021.got - 2010.06.03 11:33:40.
