data_PCOD9142049
_publ_section_title
;
Structure prediction by ZEFSAII (Michael W. Deem and Ramdas Pophale) SiO2 
 PCOD9142049
Probable space group: P 2/M
;
_chemical_formula_sum "Si O2"
_cell_formula_units_Z 24
_cell_length_a 14.282566
_cell_length_b 14.675641
_cell_length_c 8.868621
_cell_angle_alpha 90.000000
_cell_angle_beta 44.370746
_cell_angle_gamma 90.000000
_cell_volume 1299.936037
_symmetry_space_group_name_H-M "P 2/M"
_symmetry_group_IT_number 10
_symmetry_cell_setting 'monoclinic'
loop_
_space_group_symop_operation_xyz
x,y,z
-x,y,-z
-x,-y,-z
x,-y,z
loop_
_atom_site_type_symbol
_atom_site_label
_atom_site_fract_x
_atom_site_fract_y
_atom_site_fract_z
Si Si1 0.680894 0.109079 0.426464
Si Si2 0.791274 0.211900 0.004892
Si Si3 0.471629 0.205212 0.870590
Si Si4 0.040241 0.104473 0.775271
Si Si5 0.548391 0.601145 0.688234
Si Si6 0.724121 0.399985 0.197791
O O1 0.720979 0.156612 0.223564
O O2 0.548210 0.150635 0.651068
O O3 0.803590 0.128633 0.401032
O O4 0.673047 0.000000 0.415059
O O5 0.684550 0.210170 0.992675
O O6 0.808141 0.314759 0.045273
O O7 0.934609 0.166921 0.811412
O O8 0.534616 0.307219 0.798616
O O9 0.500000 0.162422 0.000000
O O10 0.024290 0.000000 0.744992
O O11 0.000000 0.108223 0.000000
O O12 0.559127 0.500000 0.747095
O O13 0.412093 0.600548 0.745302
O O14 0.670445 0.611433 0.429793
O O15 0.786504 0.500000 0.110338
#
# Coordination Sequence:
#
# PCOD9142049 Si02
#       6
#     4   4   4   4   4   4
#     4  10  20  35  53  71  94 127 163 201 245 288
#     4  10  17  31  54  74  95 128 161 199 237 285
#     4  11  22  32  46  75 105 127 159 200 242 282
#     4   8  16  31  52  74  91 118 164 204 235 283
#     4   8  14  27  45  67  97 128 158 192 232 282
#     4   8  13  23  45  74  97 120 154 196 239 280
#
# _framework density 18.462446
#
# number of rings (size 3 to 8) (size 9 to 14) (size 15 to 20)
#    0.000    2.833    1.667    3.000    0.000    2.667 
#    0.000    0.833    0.000    7.500    0.000    0.000 
#    0.000    6.667    0.000    0.000    0.000    0.000 
#
# Total GULP energy -133686.270784 kJ/mol
# GULP energy per Si atom -5570.261283 kJ/mol
# Density = 1.842042 g / cm^3
# Si number density = 18.462446 Si / 1000 Ang^3
#
#
#
# Elastic Constant Matrix: (Units=GPa)
#
#
# Indices 1 2 3 4 5 6 
#
# 1 56.1111 29.2142 10.6257 0.0000 -11.0326 0.0000
# 2 29.2142 85.3678 4.6106 0.0000 -11.6563 0.0000
# 3 10.6257 4.6106 8.5228 0.0000 -4.5653 0.0000
# 4 0.0000 0.0000 0.0000 -20.2200 0.0000 13.0481
# 5 -11.0326 -11.6563 -4.5653 0.0000 25.7170 0.0000
# 6 0.0000 0.0000 0.0000 13.0481 0.0000 3.2964
#
#
#
# Elastic Compliance Matrix: (Units=1/GPa)
#
#
# Indices 1 2 3 4 5 6 
#
# 1 0.027869 -0.007511 -0.028845 0.000000 0.003431 0.000000
# 2 -0.007511 0.014643 0.003616 0.000000 0.004057 0.000000
# 3 -0.028845 0.003616 0.160885 0.000000 0.017825 0.000000
# 4 0.000000 0.000000 0.000000 -0.013914 0.000000 0.055077
# 5 0.003431 0.004057 0.017825 0.000000 0.045360 0.000000
# 6 0.000000 0.000000 0.000000 0.055077 0.000000 0.085350
#
#
# Mechanical properties :
#
#
# Convention : Reuss Voigt Hill
#
# Bulk Modulus (GPa) = 7.25070 26.54475 16.89773
# Shear Modulus (GPa) = 11.58360 8.79543 10.18952
#
# Velocity S-wave (km/s) = 2.50754 2.18502 2.35181
# Velocity P-wave (km/s) = 3.50991 4.55792 4.06781
#
# Compressibility (1/GPa) = 0.13791778
#
# Stress axis : x y z
#
# Youngs Moduli (GPa) = 35.88183 68.29203 6.21562
#
# Poissons Ratio (x) = 0.51294 0.17929
# Poissons Ratio (y) = 0.26951 -0.02247
# Poissons Ratio (z) = 1.03499 -0.24692
#
# Static dielectric constant tensor:
#      x y z
#    x 1.651800 0.000000 0.005810 
#    y 0.000000 1.669420 0.000000 
#    z 0.005810 0.000000 1.622170 
# 
# From -- ./inp_files/29260.got.cif
#   From: 2010.05.17/outbox.cif.g08.bks.cpg/sg10_15_cif.got.tgz:29260.got - 2010.06.03 11:33:40.
