data_PCOD9142776
_publ_section_title
;
Structure prediction by ZEFSAII (Michael W. Deem and Ramdas Pophale) SiO2 
 PCOD9142776
Probable space group: P 2/M
;
_chemical_formula_sum "Si O2"
_cell_formula_units_Z 18
_cell_length_a 6.866608
_cell_length_b 20.134232
_cell_length_c 5.474636
_cell_angle_alpha 90.000000
_cell_angle_beta 77.251073
_cell_angle_gamma 90.000000
_cell_volume 738.229646
_symmetry_space_group_name_H-M "P 2/M"
_symmetry_group_IT_number 10
_symmetry_cell_setting 'monoclinic'
loop_
_space_group_symop_operation_xyz
x,y,z
-x,y,-z
-x,-y,-z
x,-y,z
loop_
_atom_site_type_symbol
_atom_site_label
_atom_site_fract_x
_atom_site_fract_y
_atom_site_fract_z
Si Si1 0.632060 0.000000 0.212325
Si Si2 0.756856 0.424085 0.075562
Si Si3 0.711260 0.799062 0.689995
Si Si4 0.242982 0.352489 0.423178
Si Si5 0.259801 0.853388 0.816307
O O1 0.500000 0.000000 0.500000
O O2 0.757939 0.067577 0.173588
O O3 0.500000 0.000000 0.000000
O O4 0.695094 0.500000 0.136418
O O5 0.698375 0.378701 0.323935
O O6 0.699145 0.399351 0.820854
O O7 0.000000 0.423306 0.000000
O O8 0.682625 0.720752 0.665440
O O9 0.497568 0.836170 0.751004
O O10 0.813820 0.824148 0.416580
O O11 0.810052 0.818220 0.918104
O O12 0.000000 0.348809 0.500000
#
# Coordination Sequence:
#
# PCOD9142776 Si02
#       5
#     2   4   4   4   4
#     4  12  16  30  48  74  96 110 152 204 240 264
#     4   9  17  30  47  68  92 117 153 197 234 265
#     4  10  18  30  44  69  98 120 150 184 230 282
#     4  10  19  30  47  71  96 123 150 184 232 281
#     4  10  19  30  48  72  91 120 152 192 236 264
#
# _framework density 24.382656000000001
#
# number of rings (size 3 to 8) (size 9 to 14) (size 15 to 20)
#    0.000    2.000    4.444    2.000    0.000    2.667 
#    0.000    0.000    0.000    0.000    0.000   70.778 
#    0.000    0.000    0.000    0.000    0.000    0.000 
#
# Total GULP energy -100747.788439 kJ/mol
# GULP energy per Si atom -5597.099358 kJ/mol
# Density = 2.432716 g / cm^3
# Si number density = 24.382656 Si / 1000 Ang^3
#
#
#
# Elastic Constant Matrix: (Units=GPa)
#
#
# Indices 1 2 3 4 5 6 
#
# 1 75.7174 -5.9260 39.4442 0.0000 2.4024 0.0000
# 2 -5.9260 213.2716 87.9466 0.0000 13.4782 0.0000
# 3 39.4442 87.9466 254.3969 0.0000 30.0774 0.0000
# 4 0.0000 0.0000 0.0000 -189.4596 0.0000 650.2604
# 5 2.4024 13.4782 30.0774 0.0000 58.4931 0.0000
# 6 0.0000 0.0000 0.0000 650.2604 0.0000-1714.3488
#
#
#
# Elastic Compliance Matrix: (Units=1/GPa)
#
#
# Indices 1 2 3 4 5 6 
#
# 1 0.014828 0.001577 -0.002906 0.000000 0.000522 0.000000
# 2 0.001577 0.005641 -0.002165 0.000000 -0.000251 0.000000
# 3 -0.002906 -0.002165 0.005384 0.000000 -0.002150 0.000000
# 4 0.000000 0.000000 0.000000 0.017486 0.000000 0.006633
# 5 0.000522 -0.000251 -0.002150 0.000000 0.018238 0.000000
# 6 0.000000 0.000000 0.000000 0.006633 0.000000 0.001932
#
#
# Mechanical properties :
#
#
# Convention : Reuss Voigt Hill
#
# Bulk Modulus (GPa) = 53.00598 87.36839 70.18719
# Shear Modulus (GPa) = 65.11543 -340.93500 -137.90978
#
# Velocity S-wave (km/s) = 5.17336 -11.83767 -7.52884
# Velocity P-wave (km/s) = 7.58098 12.28538 6.83591
#
# Compressibility (1/GPa) = 0.01886580
#
# Stress axis : x y z
#
# Youngs Moduli (GPa) = 67.44097 177.26087 185.72929
#
# Poissons Ratio (x) = -0.27961 0.53974
# Poissons Ratio (y) = -0.10638 0.40213
# Poissons Ratio (z) = 0.19599 0.38379
#
# Static dielectric constant tensor:
#      x y z
#    x 2.047380 0.000000 -0.032950 
#    y 0.000000 1.841470 0.000000 
#    z -0.032950 0.000000 1.914800 
# 
# From -- ./inp_files/4032.got.cif
#   From: 2010.05.17/outbox.cif.g08.bks.cpg/sg10_3_cif.got.tgz:4032.got - 2010.06.03 11:33:40.
