data_PCOD9142349
_publ_section_title
;
Structure prediction by ZEFSAII (Michael W. Deem and Ramdas Pophale) SiO2 
 PCOD9142349
Probable space group: P 2/M
;
_chemical_formula_sum "Si O2"
_cell_formula_units_Z 32
_cell_length_a 14.536609
_cell_length_b 7.357903
_cell_length_c 21.033338
_cell_angle_alpha 90.000000
_cell_angle_beta 143.115454
_cell_angle_gamma 90.000000
_cell_volume 1350.282449
_symmetry_space_group_name_H-M "P 2/M"
_symmetry_group_IT_number 10
_symmetry_cell_setting 'monoclinic'
loop_
_space_group_symop_operation_xyz
x,y,z
-x,y,-z
-x,-y,-z
x,-y,z
loop_
_atom_site_type_symbol
_atom_site_label
_atom_site_fract_x
_atom_site_fract_y
_atom_site_fract_z
Si Si1 0.545378 0.791124 0.931244
Si Si2 0.199380 0.221949 0.718005
Si Si3 0.143341 0.778314 0.279377
Si Si4 0.718007 0.777200 0.508480
Si Si5 0.631784 0.782945 0.705369
Si Si6 0.797675 0.207084 0.418035
Si Si7 0.556291 0.286808 0.800206
Si Si8 0.165244 0.778299 0.837890
O O1 0.375328 0.715754 0.826834
O O2 0.618393 0.785294 0.901176
O O3 0.519616 0.000000 0.935669
O O4 0.667363 0.713353 0.047882
O O5 0.145162 0.284539 0.618225
O O6 0.122041 0.271509 0.741781
O O7 0.198366 0.000000 0.713194
O O8 0.218411 0.724349 0.388050
O O9 0.242461 0.714305 0.274541
O O10 0.967008 0.721139 0.187015
O O11 0.144545 0.000000 0.278722
O O12 0.540679 0.718385 0.405310
O O13 0.807381 0.713316 0.494312
O O14 0.722408 0.000000 0.508528
O O15 0.657247 0.744827 0.793694
O O16 0.626785 0.000000 0.695253
O O17 0.611888 0.201374 0.304877
O O18 0.853345 0.000000 0.453819
O O19 0.531147 0.500000 0.793121
O O20 0.171359 0.000000 0.842170
#
# Coordination Sequence:
#
# PCOD9142349 Si02
#       8
#     4   4   4   4   4   4   4   4
#     4   9  16  28  46  65  87 116 145 174 215 264
#     4   8  13  23  41  64  88 115 145 174 210 256
#     4   9  16  25  40  65  92 115 145 184 215 243
#     4   8  13  23  41  64  88 115 145 174 210 256
#     4   9  16  28  46  65  87 116 145 174 215 264
#     4   8  14  26  45  67  91 118 143 169 210 262
#     4  10  18  28  45  68  89 108 139 186 226 254
#     4   9  16  25  40  65  92 115 145 184 215 243
#
# _framework density 23.698744999999999
#
# number of rings (size 3 to 8) (size 9 to 14) (size 15 to 20)
#    0.000    3.250    0.000    3.375    0.000    3.000 
#    0.000    1.250    0.000   20.250    0.000    0.000 
#    0.000   16.000    0.000    0.000    0.000    0.000 
#
# Total GULP energy -178603.531939 kJ/mol
# GULP energy per Si atom -5581.360373 kJ/mol
# Density = 2.364481 g / cm^3
# Si number density = 23.698745 Si / 1000 Ang^3
#
#
#
# Elastic Constant Matrix: (Units=GPa)
#
#
# Indices 1 2 3 4 5 6 
#
# 1 167.0819 1.6183 38.8147 0.0000 -19.9726 0.0000
# 2 1.6183 94.8490 -1.7035 0.0000 5.4006 0.0000
# 3 38.8147 -1.7035 91.8836 0.0000 -15.9903 0.0000
# 4 0.0000 0.0000 0.0000 -95.3650 0.0000 37.3977
# 5 -19.9726 5.4006 -15.9903 0.0000 34.0373 0.0000
# 6 0.0000 0.0000 0.0000 37.3977 0.0000 -44.2462
#
#
#
# Elastic Compliance Matrix: (Units=1/GPa)
#
#
# Indices 1 2 3 4 5 6 
#
# 1 0.006902 -0.000330 -0.002404 0.000000 0.002973 0.000000
# 2 -0.000330 0.010656 0.000010 0.000000 -0.001880 0.000000
# 3 -0.002404 0.000010 0.012691 0.000000 0.004550 0.000000
# 4 0.000000 0.000000 0.000000 -0.015685 0.000000 -0.013257
# 5 0.002973 -0.001880 0.004550 0.000000 0.033560 0.000000
# 6 0.000000 0.000000 0.000000 -0.013257 0.000000 -0.033806
#
#
# Mechanical properties :
#
#
# Convention : Reuss Voigt Hill
#
# Bulk Modulus (GPa) = 40.32329 47.91927 44.12128
# Shear Modulus (GPa) = 178.35413 -0.10911 89.12251
#
# Velocity S-wave (km/s) = 8.68460 -0.21481 6.13906
# Velocity P-wave (km/s) = 10.84504 4.49472 8.30113
#
# Compressibility (1/GPa) = 0.02479956
#
# Stress axis : x y z
#
# Youngs Moduli (GPa) = 144.88028 93.84449 78.79599
#
# Poissons Ratio (x) = 0.03099 0.18946
# Poissons Ratio (y) = 0.04784 -0.00078
# Poissons Ratio (z) = 0.34836 -0.00093
#
# Static dielectric constant tensor:
#      x y z
#    x 1.927270 0.000000 -0.004960 
#    y 0.000000 1.965530 0.000000 
#    z -0.004960 0.000000 1.875820 
# 
# From -- ./inp_files/70054.got.cif
#   From: 2010.05.17/outbox.cif.g08.bks.cpg/sg10_36_cif.got.tgz:70054.got - 2010.06.03 11:33:40.
