data_PCOD9142892
_publ_section_title
;
Structure prediction by ZEFSAII (Michael W. Deem and Ramdas Pophale) SiO2 
 PCOD9142892
Probable space group: P 2/M
;
_chemical_formula_sum "Si O2"
_cell_formula_units_Z 32
_cell_length_a 21.198845
_cell_length_b 7.716608
_cell_length_c 14.557671
_cell_angle_alpha 90.000000
_cell_angle_beta 142.906137
_cell_angle_gamma 90.000000
_cell_volume 1436.270062
_symmetry_space_group_name_H-M "P 2/M"
_symmetry_group_IT_number 10
_symmetry_cell_setting 'monoclinic'
loop_
_space_group_symop_operation_xyz
x,y,z
-x,y,-z
-x,-y,-z
x,-y,z
loop_
_atom_site_type_symbol
_atom_site_label
_atom_site_fract_x
_atom_site_fract_y
_atom_site_fract_z
Si Si1 0.334647 0.708263 0.157496
Si Si2 0.121171 0.702418 0.994875
Si Si3 0.564325 0.792330 0.430411
Si Si4 0.775428 0.699287 0.351078
Si Si5 0.425099 0.204993 0.769919
Si Si6 0.211101 0.795084 0.279305
Si Si7 0.657059 0.710191 0.044142
Si Si8 0.901276 0.710801 0.665868
O O1 0.330417 0.500000 0.151939
O O2 0.231330 0.777186 0.087257
O O3 0.448294 0.752356 0.330660
O O4 0.331302 0.769185 0.047459
O O5 0.120689 0.500000 0.969242
O O6 0.128561 0.715650 0.113096
O O7 0.015621 0.775596 0.828764
O O8 0.569738 0.733041 0.330087
O O9 0.670915 0.725924 0.600275
O O10 0.572422 0.000000 0.439207
O O11 0.806677 0.500000 0.371122
O O12 0.666295 0.703542 0.280615
O O13 0.744933 0.775556 0.216822
O O14 0.860049 0.775636 0.519607
O O15 0.402107 0.000000 0.743658
O O16 0.541808 0.234261 0.942632
O O17 0.178377 0.761597 0.345864
O O18 0.209458 0.000000 0.261798
O O19 0.659600 0.500000 0.047640
O O20 0.901730 0.500000 0.663757
#
# Coordination Sequence:
#
# PCOD9142892 Si02
#       8
#     4   4   4   4   4   4   4   4
#     4   9  19  36  56  76 105 142 179 216 255 308
#     4  10  22  39  56  77 104 139 181 221 262 311
#     4   9  19  34  52  77 109 138 168 214 265 314
#     4  10  19  31  50  76 105 138 174 212 258 310
#     4  10  18  30  48  74 108 141 171 209 260 312
#     4  11  22  37  57  82 108 135 172 219 270 319
#     4   9  18  32  50  75 105 138 176 213 253 307
#     4  10  21  37  56  78 108 141 174 217 266 313
#
# _framework density 22.279934000000001
#
# number of rings (size 3 to 8) (size 9 to 14) (size 15 to 20)
#    0.000    2.250    1.250    1.500    0.000    6.500 
#    0.000    3.125    0.000    3.750    0.000    0.000 
#    0.000    7.000    0.000    0.000    0.000    0.000 
#
# Total GULP energy -178675.502884 kJ/mol
# GULP energy per Si atom -5583.609465 kJ/mol
# Density = 2.222922 g / cm^3
# Si number density = 22.279934 Si / 1000 Ang^3
#
#
#
# Elastic Constant Matrix: (Units=GPa)
#
#
# Indices 1 2 3 4 5 6 
#
# 1 42.7400 -1.4505 26.6018 0.0000 12.6689 0.0000
# 2 -1.4505 40.3505 1.1447 0.0000 3.4470 0.0000
# 3 26.6018 1.1447 187.5053 0.0000 9.1679 0.0000
# 4 0.0000 0.0000 0.0000 25.4656 0.0000 29.3204
# 5 12.6689 3.4470 9.1679 0.0000 29.1029 0.0000
# 6 0.0000 0.0000 0.0000 29.3204 0.0000 44.4073
#
#
#
# Elastic Compliance Matrix: (Units=1/GPa)
#
#
# Indices 1 2 3 4 5 6 
#
# 1 0.029208 0.002163 -0.003578 0.000000 -0.011844 0.000000
# 2 0.002163 0.025196 -0.000273 0.000000 -0.003840 0.000000
# 3 -0.003578 -0.000273 0.005855 0.000000 -0.000255 0.000000
# 4 0.000000 0.000000 0.000000 0.163760 0.000000 -0.108124
# 5 -0.011844 -0.003840 -0.000255 0.000000 0.040052 0.000000
# 6 0.000000 0.000000 0.000000 -0.108124 0.000000 0.093909
#
#
# Mechanical properties :
#
#
# Convention : Reuss Voigt Hill
#
# Bulk Modulus (GPa) = 17.57953 35.90979 26.74466
# Shear Modulus (GPa) = 13.14693 36.08181 24.61437
#
# Velocity S-wave (km/s) = 2.43179 4.02864 3.32743
# Velocity P-wave (km/s) = 3.97394 6.14755 5.17613
#
# Compressibility (1/GPa) = 0.05688434
#
# Stress axis : x y z
#
# Youngs Moduli (GPa) = 34.23670 39.68818 170.79687
#
# Poissons Ratio (x) = -0.08586 0.61111
# Poissons Ratio (y) = -0.07406 0.04662
# Poissons Ratio (z) = 0.12250 0.01083
#
# Static dielectric constant tensor:
#      x y z
#    x 1.809760 0.000000 -0.007510 
#    y 0.000000 1.810190 0.000000 
#    z -0.007510 0.000000 1.863670 
# 
# From -- ./inp_files/71414.got.cif
#   From: 2010.05.17/outbox.cif.g08.bks.cpg/sg10_36_cif.got.tgz:71414.got - 2010.06.03 11:33:40.
