data_PCOD9142255
_publ_section_title
;
Structure prediction by ZEFSAII (Michael W. Deem and Ramdas Pophale) SiO2 
 PCOD9142255
Probable space group: P 2/M
;
_chemical_formula_sum "Si O2"
_cell_formula_units_Z 32
_cell_length_a 23.906561
_cell_length_b 7.593228
_cell_length_c 14.922734
_cell_angle_alpha 90.000000
_cell_angle_beta 143.760434
_cell_angle_gamma 90.000000
_cell_volume 1601.397060
_symmetry_space_group_name_H-M "P 2/M"
_symmetry_group_IT_number 10
_symmetry_cell_setting 'monoclinic'
loop_
_space_group_symop_operation_xyz
x,y,z
-x,y,-z
-x,-y,-z
x,-y,z
loop_
_atom_site_type_symbol
_atom_site_label
_atom_site_fract_x
_atom_site_fract_y
_atom_site_fract_z
Si Si1 0.514984 0.205921 0.617968
Si Si2 0.998793 0.715646 0.103441
Si Si3 0.807229 0.711152 0.951723
Si Si4 0.382136 0.715826 0.750699
Si Si5 0.795435 0.714097 0.595860
Si Si6 0.592736 0.708173 0.013770
Si Si7 0.690199 0.288110 0.635445
Si Si8 0.686067 0.208304 0.955730
O O1 0.500000 0.286725 0.500000
O O2 0.411420 0.220471 0.526122
O O3 0.597560 0.285546 0.784467
O O4 0.537744 0.000000 0.635041
O O5 0.996698 0.500000 0.099609
O O6 0.096617 0.771577 0.277049
O O7 0.906504 0.774537 0.039239
O O8 0.000000 0.768751 0.000000
O O9 0.808344 0.500000 0.945741
O O10 0.724628 0.775850 0.777166
O O11 0.778605 0.752398 0.016404
O O12 0.379684 0.500000 0.742862
O O13 0.289728 0.776956 0.577557
O O14 0.486633 0.773441 0.851387
O O15 0.379510 0.772580 0.851484
O O16 0.795818 0.500000 0.590664
O O17 0.767053 0.759723 0.660803
O O18 0.581454 0.500000 0.010055
O O19 0.669924 0.735114 0.036653
O O20 0.683939 0.500000 0.629512
O O21 0.676418 0.000000 0.945851
#
# Coordination Sequence:
#
# PCOD9142255 Si02
#       8
#     4   4   4   4   4   4   4   4
#     4  10  20  32  42  58  91 129 157 186 228 276
#     4   9  15  26  44  69 101 129 155 195 242 281
#     4  10  19  30  46  70  97 127 161 196 234 276
#     4   8  15  28  49  75 100 125 152 193 245 288
#     4   9  15  25  45  73 100 123 152 192 240 289
#     4   9  17  32  52  74 100 125 156 197 240 286
#     4  10  18  27  45  71  95 122 158 193 226 275
#     4  11  22  34  48  66  93 132 167 196 236 284
#
# _framework density 19.982551999999998
#
# number of rings (size 3 to 8) (size 9 to 14) (size 15 to 20)
#    0.000    2.500    2.500    1.875    0.000    2.250 
#    0.000    1.250    0.000    2.625    0.000    5.250 
#    0.000    0.000    0.000    0.000    0.000    0.000 
#
# Total GULP energy -178445.879460 kJ/mol
# GULP energy per Si atom -5576.433733 kJ/mol
# Density = 1.993707 g / cm^3
# Si number density = 19.982552 Si / 1000 Ang^3
#
#
#
# Elastic Constant Matrix: (Units=GPa)
#
#
# Indices 1 2 3 4 5 6 
#
# 1 129.6582 -4.9021 43.4417 0.0000 7.8027 0.0000
# 2 -4.9021 39.1104 1.2203 0.0000 -4.5755 0.0000
# 3 43.4417 1.2203 85.0486 0.0000 7.4603 0.0000
# 4 0.0000 0.0000 0.0000 4.5901 0.0000 11.3046
# 5 7.8027 -4.5755 7.4603 0.0000 26.3717 0.0000
# 6 0.0000 0.0000 0.0000 11.3046 0.0000 29.6850
#
#
#
# Elastic Compliance Matrix: (Units=1/GPa)
#
#
# Indices 1 2 3 4 5 6 
#
# 1 0.009412 0.001181 -0.004715 0.000000 -0.001246 0.000000
# 2 0.001181 0.026299 -0.001385 0.000000 0.004605 0.000000
# 3 -0.004715 -0.001385 0.014443 0.000000 -0.002931 0.000000
# 4 0.000000 0.000000 0.000000 3.507231 0.000000 -1.335622
# 5 -0.001246 0.004605 -0.002931 0.000000 0.039916 0.000000
# 6 0.000000 0.000000 0.000000 -1.335622 0.000000 0.542318
#
#
# Mechanical properties :
#
#
# Convention : Reuss Voigt Hill
#
# Bulk Modulus (GPa) = 24.80364 37.03745 30.92055
# Shear Modulus (GPa) = 1.20109 26.39985 13.80047
#
# Velocity S-wave (km/s) = 0.77613 3.63870 2.63083
# Velocity P-wave (km/s) = 3.63906 6.01902 4.97350
#
# Compressibility (1/GPa) = 0.04031666
#
# Stress axis : x y z
#
# Youngs Moduli (GPa) = 106.24686 38.02484 69.23574
#
# Poissons Ratio (x) = -0.04491 0.32646
# Poissons Ratio (y) = -0.12549 0.09586
# Poissons Ratio (z) = 0.50098 0.05265
#
# Static dielectric constant tensor:
#      x y z
#    x 1.756520 0.000000 0.001160 
#    y 0.000000 1.739140 0.000000 
#    z 0.001160 0.000000 1.718120 
# 
# From -- ./inp_files/70005.got.cif
#   From: 2010.05.17/outbox.cif.g08.bks.cpg/sg10_36_cif.got.tgz:70005.got - 2010.06.03 11:33:40.
