data_PCOD9142690
_publ_section_title
;
Structure prediction by ZEFSAII (Michael W. Deem and Ramdas Pophale) SiO2 
 PCOD9142690
Probable space group: P 2/M
;
_chemical_formula_sum "Si O2"
_cell_formula_units_Z 32
_cell_length_a 22.097710
_cell_length_b 9.145592
_cell_length_c 20.791148
_cell_angle_alpha 90.000000
_cell_angle_beta 152.411627
_cell_angle_gamma 90.000000
_cell_volume 1945.931396
_symmetry_space_group_name_H-M "P 2/M"
_symmetry_group_IT_number 10
_symmetry_cell_setting 'monoclinic'
loop_
_space_group_symop_operation_xyz
x,y,z
-x,y,-z
-x,-y,-z
x,-y,z
loop_
_atom_site_type_symbol
_atom_site_label
_atom_site_fract_x
_atom_site_fract_y
_atom_site_fract_z
Si Si1 0.453317 0.831628 0.262462
Si Si2 0.137287 0.167454 0.949242
Si Si3 0.872958 0.175806 0.341823
Si Si4 0.527008 0.675118 0.848790
Si Si5 0.887949 0.675812 0.943928
Si Si6 0.806328 0.176892 0.135820
Si Si7 0.415175 0.324044 0.357522
Si Si8 0.380531 0.674386 0.839981
O O1 0.508609 0.745434 0.253268
O O2 0.473687 0.752123 0.349379
O O3 0.496153 0.000000 0.303751
O O4 0.295586 0.831046 0.104172
O O5 0.114310 0.217149 0.854179
O O6 0.093155 0.000000 0.915130
O O7 0.087426 0.262709 0.961431
O O8 0.873263 0.213661 0.266391
O O9 0.745938 0.242394 0.255210
O O10 0.000000 0.225973 0.500000
O O11 0.866318 0.000000 0.339316
O O12 0.540465 0.500000 0.855804
O O13 0.424909 0.708194 0.809227
O O14 0.666229 0.743921 0.000732
O O15 0.891286 0.500000 0.949296
O O16 0.739166 0.717427 0.783326
O O17 0.000000 0.725575 0.000000
O O18 0.786186 0.000000 0.113764
O O19 0.500000 0.285726 0.500000
O O20 0.419665 0.500000 0.353797
O O21 0.359601 0.500000 0.825109
O O22 0.500000 0.711759 0.000000
#
# Coordination Sequence:
#
# PCOD9142690 Si02
#       8
#     4   4   4   4   4   4   4   4
#     4   9  17  29  46  71 100 126 158 200 243 284
#     4   8  15  27  44  67  92 120 153 193 234 277
#     4  10  21  35  52  74 100 135 171 203 245 301
#     4  10  18  29  49  74 100 126 160 206 251 293
#     4   9  17  29  46  69  94 118 149 192 233 272
#     4   9  17  30  48  71  98 126 161 203 245 287
#     4   9  17  30  49  71  95 128 162 192 233 285
#     4  10  20  34  51  76 103 128 164 210 254 297
#
# _framework density 16.444566999999999
#
# number of rings (size 3 to 8) (size 9 to 14) (size 15 to 20)
#    0.000    2.750    1.250    1.500    0.000    5.000 
#    0.000    0.000    2.750    0.000    0.000    0.000 
#    0.000    0.000    0.000    0.000    0.000    0.000 
#
# Total GULP energy -178254.286334 kJ/mol
# GULP energy per Si atom -5570.446448 kJ/mol
# Density = 1.640714 g / cm^3
# Si number density = 16.444567 Si / 1000 Ang^3
#
#
#
# Elastic Constant Matrix: (Units=GPa)
#
#
# Indices 1 2 3 4 5 6 
#
# 1 167.4381 51.0364 70.1450 0.0000 -26.1372 0.0000
# 2 51.0364 28.6691 29.1859 0.0000 -10.8527 0.0000
# 3 70.1450 29.1859 82.0531 0.0000 -20.8316 0.0000
# 4 0.0000 0.0000 0.0000 15.1036 0.0000 -2.4626
# 5 -26.1372 -10.8527 -20.8316 0.0000 26.8417 0.0000
# 6 0.0000 0.0000 0.0000 -2.4626 0.0000 29.3135
#
#
#
# Elastic Compliance Matrix: (Units=1/GPa)
#
#
# Indices 1 2 3 4 5 6 
#
# 1 0.014346 -0.020022 -0.004547 0.000000 0.002345 0.000000
# 2 -0.020022 0.084321 -0.011421 0.000000 0.005733 0.000000
# 3 -0.004547 -0.011421 0.022218 0.000000 0.008198 0.000000
# 4 0.000000 0.000000 0.000000 0.067129 0.000000 0.005640
# 5 0.002345 0.005733 0.008198 0.000000 0.048220 0.000000
# 6 0.000000 0.000000 0.000000 0.005640 0.000000 0.034588
#
#
# Mechanical properties :
#
#
# Convention : Reuss Voigt Hill
#
# Bulk Modulus (GPa) = 20.44764 64.32166 42.38465
# Shear Modulus (GPa) = 13.92356 22.77126 18.34741
#
# Velocity S-wave (km/s) = 2.91296 3.72523 3.34385
# Velocity P-wave (km/s) = 4.87597 7.59620 6.38269
#
# Compressibility (1/GPa) = 0.04890541
#
# Stress axis : x y z
#
# Youngs Moduli (GPa) = 69.70421 11.85941 45.00891
#
# Poissons Ratio (x) = 0.23745 0.20465
# Poissons Ratio (y) = 1.39565 0.51403
# Poissons Ratio (z) = 0.31694 0.13544
#
# Static dielectric constant tensor:
#      x y z
#    x 1.559200 0.000000 -0.020010 
#    y 0.000000 1.551370 0.000000 
#    z -0.020010 0.000000 1.540260 
# 
# From -- ./inp_files/86148.got.cif
#   From: 2010.05.17/outbox.cif.g08.bks.cpg/sg10_44_cif.got.tgz:86148.got - 2010.06.03 11:33:40.
