data_PCOD9142542
_publ_section_title
;
Structure prediction by ZEFSAII (Michael W. Deem and Ramdas Pophale) SiO2 
 PCOD9142542
Probable space group: P 2/M
;
_chemical_formula_sum "Si O2"
_cell_formula_units_Z 32
_cell_length_a 15.235046
_cell_length_b 8.803425
_cell_length_c 21.133266
_cell_angle_alpha 90.000000
_cell_angle_beta 43.388756
_cell_angle_gamma 90.000000
_cell_volume 1947.080774
_symmetry_space_group_name_H-M "P 2/M"
_symmetry_group_IT_number 10
_symmetry_cell_setting 'monoclinic'
loop_
_space_group_symop_operation_xyz
x,y,z
-x,y,-z
-x,-y,-z
x,-y,z
loop_
_atom_site_type_symbol
_atom_site_label
_atom_site_fract_x
_atom_site_fract_y
_atom_site_fract_z
Si Si1 0.721640 0.818351 0.302729
Si Si2 0.042481 0.174195 0.668365
Si Si3 0.368377 0.185238 0.379933
Si Si4 0.090046 0.681515 0.511349
Si Si5 0.886479 0.316988 0.011679
Si Si6 0.001932 0.681223 0.819586
Si Si7 0.350540 0.825431 0.528702
Si Si8 0.363003 0.179602 0.796933
O O1 0.632874 0.767232 0.408254
O O2 0.666222 0.800129 0.262310
O O3 0.854197 0.729415 0.237332
O O4 0.744529 0.000000 0.299978
O O5 0.976216 0.245035 0.764779
O O6 0.030373 0.263581 0.609170
O O7 0.195186 0.174645 0.603255
O O8 0.003900 0.000000 0.680028
O O9 0.230609 0.245161 0.431679
O O10 0.391608 0.243073 0.440133
O O11 0.489425 0.228960 0.273639
O O12 0.363882 0.000000 0.384890
O O13 0.103345 0.500000 0.505611
O O14 0.000000 0.724913 0.500000
O O15 0.889626 0.500000 0.011464
O O16 0.748765 0.261974 0.106852
O O17 0.917026 0.268364 0.923827
O O18 0.000000 0.263631 0.000000
O O19 0.994593 0.500000 0.817606
O O20 0.396484 0.000000 0.503417
O O21 0.355175 0.000000 0.814732
#
# Coordination Sequence:
#
# PCOD9142542 Si02
#       8
#     4   4   4   4   4   4   4   4
#     4   9  16  26  41  63  89 124 165 203 245 283
#     4   9  17  30  49  73  99 126 157 195 243 292
#     4   9  18  32  47  68  98 130 162 198 243 291
#     4  10  20  34  54  80 105 128 156 189 230 288
#     4  10  20  33  46  64  92 132 176 214 255 294
#     4  10  18  29  46  66  93 128 168 212 249 286
#     4   7  12  24  41  59  85 119 153 188 226 274
#     4  10  20  30  44  67  94 127 170 214 249 285
#
# _framework density 16.434861000000001
#
# number of rings (size 3 to 8) (size 9 to 14) (size 15 to 20)
#    0.000    2.750    1.250    2.625    0.000    3.250 
#    0.000    2.500    0.000    0.000    0.000    7.000 
#    0.000    7.000    0.000    0.000    0.000    0.000 
#
# Total GULP energy -178245.516999 kJ/mol
# GULP energy per Si atom -5570.172406 kJ/mol
# Density = 1.639745 g / cm^3
# Si number density = 16.434861 Si / 1000 Ang^3
#
#
#
# Elastic Constant Matrix: (Units=GPa)
#
#
# Indices 1 2 3 4 5 6 
#
# 1 70.6877 21.3074 45.7150 0.0000 9.0039 0.0000
# 2 21.3074 23.9400 30.5808 0.0000 3.4933 0.0000
# 3 45.7150 30.5808 145.6574 0.0000 5.9523 0.0000
# 4 0.0000 0.0000 0.0000 15.4091 0.0000 7.4636
# 5 9.0039 3.4933 5.9523 0.0000 16.8982 0.0000
# 6 0.0000 0.0000 0.0000 7.4636 0.0000 13.7130
#
#
#
# Elastic Compliance Matrix: (Units=1/GPa)
#
#
# Indices 1 2 3 4 5 6 
#
# 1 0.021472 -0.013404 -0.003623 0.000000 -0.007394 0.000000
# 2 -0.013404 0.066449 -0.009613 0.000000 -0.003209 0.000000
# 3 -0.003623 -0.009613 0.010005 0.000000 0.000393 0.000000
# 4 0.000000 0.000000 0.000000 0.088130 0.000000 -0.047967
# 5 -0.007394 -0.003209 0.000393 0.000000 0.063642 0.000000
# 6 0.000000 0.000000 0.000000 -0.047967 0.000000 0.099030
#
#
# Mechanical properties :
#
#
# Convention : Reuss Voigt Hill
#
# Bulk Modulus (GPa) = 22.39854 48.38795 35.39324
# Shear Modulus (GPa) = 11.99359 18.71618 15.35489
#
# Velocity S-wave (km/s) = 2.70435 3.37829 3.05993
# Velocity P-wave (km/s) = 4.83835 6.68755 5.83665
#
# Compressibility (1/GPa) = 0.04464578
#
# Stress axis : x y z
#
# Youngs Moduli (GPa) = 46.57274 15.04916 99.95451
#
# Poissons Ratio (x) = 0.20172 0.36210
# Poissons Ratio (y) = 0.62427 0.96085
# Poissons Ratio (z) = 0.16872 0.14467
#
# Static dielectric constant tensor:
#      x y z
#    x 1.559260 0.000000 0.006740 
#    y 0.000000 1.557210 0.000000 
#    z 0.006740 0.000000 1.583090 
# 
# From -- ./inp_files/84731.got.cif
#   From: 2010.05.17/outbox.cif.g08.bks.cpg/sg10_43_cif.got.tgz:84731.got - 2010.06.03 11:33:40.
