data_PCOD9142943
_publ_section_title
;
Structure prediction by ZEFSAII (Michael W. Deem and Ramdas Pophale) SiO2 
 PCOD9142943
Probable space group: P 2/M
;
_chemical_formula_sum "Si O2"
_cell_formula_units_Z 28
_cell_length_a 9.798072
_cell_length_b 9.265748
_cell_length_c 27.958075
_cell_angle_alpha 90.000000
_cell_angle_beta 36.316266
_cell_angle_gamma 90.000000
_cell_volume 1503.237309
_symmetry_space_group_name_H-M "P 2/M"
_symmetry_group_IT_number 10
_symmetry_cell_setting 'monoclinic'
loop_
_space_group_symop_operation_xyz
x,y,z
-x,y,-z
-x,-y,-z
x,-y,z
loop_
_atom_site_type_symbol
_atom_site_label
_atom_site_fract_x
_atom_site_fract_y
_atom_site_fract_z
Si Si1 0.439381 0.328673 0.295127
Si Si2 0.363394 0.329273 0.429180
Si Si3 0.374228 0.833479 0.983371
Si Si4 0.766949 0.168611 0.369254
Si Si5 0.036392 0.672574 0.859103
Si Si6 0.851895 0.828676 0.816770
Si Si7 0.984393 0.170574 0.409400
O O1 0.403596 0.500000 0.297644
O O2 0.421189 0.301761 0.357419
O O3 0.234843 0.237886 0.329885
O O4 0.697540 0.290833 0.205883
O O5 0.334463 0.500000 0.443622
O O6 0.573139 0.269122 0.401620
O O7 0.136962 0.248972 0.511991
O O8 0.582046 0.788185 0.889676
O O9 0.310780 0.000000 0.992384
O O10 0.500000 0.827313 0.000000
O O11 0.148470 0.736629 0.051545
O O12 0.999257 0.189254 0.272740
O O13 0.825225 0.195281 0.407859
O O14 0.695770 0.000000 0.384160
O O15 0.016574 0.500000 0.861953
O O16 0.968881 0.740799 0.826800
O O17 0.855903 0.000000 0.828232
O O18 0.001197 0.000000 0.412715
#
# Coordination Sequence:
#
# PCOD9142943 Si02
#       7
#     4   4   4   4   4   4   4
#     4  10  22  38  54  76 107 140 176 217 259 311
#     4  11  22  38  58  79 104 137 177 218 264 315
#     4   8  15  27  45  73 104 134 168 206 255 308
#     4  10  21  37  56  79 108 138 174 220 261 307
#     4  10  18  30  49  76 106 134 170 214 257 302
#     4   9  17  31  51  74 104 138 169 208 258 307
#     4  11  24  38  54  79 106 137 178 219 264 313
#
# _framework density 18.626467999999999
#
# number of rings (size 3 to 8) (size 9 to 14) (size 15 to 20)
#    0.000    2.143    1.429    3.000    0.000    9.429 
#    0.000    0.000    0.000    0.857    0.000    6.000 
#    0.000    0.000    0.000    0.000    0.000    0.000 
#
# Total GULP energy -156284.657918 kJ/mol
# GULP energy per Si atom -5581.594926 kJ/mol
# Density = 1.858407 g / cm^3
# Si number density = 18.626468 Si / 1000 Ang^3
#
#
#
# Elastic Constant Matrix: (Units=GPa)
#
#
# Indices 1 2 3 4 5 6 
#
# 1 35.3014 22.1189 -0.7797 0.0000 -12.9900 0.0000
# 2 22.1189 34.9176 15.0691 0.0000 -11.4973 0.0000
# 3 -0.7797 15.0691 79.4043 0.0000 -20.8506 0.0000
# 4 0.0000 0.0000 0.0000 34.6357 0.0000 -9.2000
# 5 -12.9900 -11.4973 -20.8506 0.0000 23.9002 0.0000
# 6 0.0000 0.0000 0.0000 -9.2000 0.0000 23.9840
#
#
#
# Elastic Compliance Matrix: (Units=1/GPa)
#
#
# Indices 1 2 3 4 5 6 
#
# 1 0.062402 -0.036330 0.015338 0.000000 0.029820 0.000000
# 2 -0.036330 0.055666 -0.011770 0.000000 -0.003235 0.000000
# 3 0.015338 -0.011770 0.020340 0.000000 0.020418 0.000000
# 4 0.000000 0.000000 0.000000 0.032147 0.000000 0.012331
# 5 0.029820 -0.003235 0.020418 0.000000 0.074305 0.000000
# 6 0.000000 0.000000 0.000000 0.012331 0.000000 0.046425
#
#
# Mechanical properties :
#
#
# Convention : Reuss Voigt Hill
#
# Bulk Modulus (GPa) = 13.72048 24.71556 19.21802
# Shear Modulus (GPa) = 13.11975 24.05166 18.58571
#
# Velocity S-wave (km/s) = 2.65686 3.59731 3.16224
# Velocity P-wave (km/s) = 4.09805 5.52739 4.86549
#
# Compressibility (1/GPa) = 0.07288377
#
# Stress axis : x y z
#
# Youngs Moduli (GPa) = 16.02505 17.96413 49.16495
#
# Poissons Ratio (x) = 0.65263 -0.75407
# Poissons Ratio (y) = 0.58218 0.57869
# Poissons Ratio (z) = -0.24579 0.21145
#
# Static dielectric constant tensor:
#      x y z
#    x 1.619560 0.000000 -0.011350 
#    y 0.000000 1.618550 0.000000 
#    z -0.011350 0.000000 1.688350 
# 
# From -- ./inp_files/37037.got.cif
#   From: 2010.05.17/outbox.cif.g08.bks.cpg/sg10_19_cif.got.tgz:37037.got - 2010.06.03 11:33:40.
