data_PCOD9142883
_publ_section_title
;
Structure prediction by ZEFSAII (Michael W. Deem and Ramdas Pophale) SiO2 
 PCOD9142883
Probable space group: P 2/M
;
_chemical_formula_sum "Si O2"
_cell_formula_units_Z 32
_cell_length_a 24.291429
_cell_length_b 8.990645
_cell_length_c 17.982419
_cell_angle_alpha 90.000000
_cell_angle_beta 30.933350
_cell_angle_gamma 90.000000
_cell_volume 2018.782178
_symmetry_space_group_name_H-M "P 2/M"
_symmetry_group_IT_number 10
_symmetry_cell_setting 'monoclinic'
loop_
_space_group_symop_operation_xyz
x,y,z
-x,y,-z
-x,-y,-z
x,-y,z
loop_
_atom_site_type_symbol
_atom_site_label
_atom_site_fract_x
_atom_site_fract_y
_atom_site_fract_z
Si Si1 0.258798 0.677783 0.818757
Si Si2 0.403027 0.821454 0.773846
Si Si3 0.191559 0.822140 0.617920
Si Si4 0.551897 0.177340 0.110228
Si Si5 0.641555 0.821623 0.443032
Si Si6 0.322929 0.320927 0.337695
Si Si7 0.013373 0.678386 0.071931
Si Si8 0.623758 0.671389 0.884717
O O1 0.266758 0.500000 0.808282
O O2 0.313782 0.742231 0.828404
O O3 0.319975 0.743173 0.676301
O O4 0.133541 0.717753 0.957088
O O5 0.401741 0.784245 0.862689
O O6 0.520816 0.781271 0.605880
O O7 0.392099 0.000000 0.779318
O O8 0.277509 0.785236 0.583446
O O9 0.232531 0.744888 0.495473
O O10 0.077339 0.762193 0.776853
O O11 0.190875 0.000000 0.610035
O O12 0.436511 0.255321 0.233909
O O13 0.535605 0.000000 0.126283
O O14 0.625158 0.230311 0.956803
O O15 0.644815 0.000000 0.428356
O O16 0.326974 0.500000 0.337047
O O17 0.311578 0.280314 0.263498
O O18 0.998987 0.500000 0.096555
O O19 0.000000 0.714084 0.000000
O O20 0.649623 0.500000 0.872745
O O21 0.500000 0.673731 0.000000
#
# Coordination Sequence:
#
# PCOD9142883 Si02
#       8
#     4   4   4   4   4   4   4   4
#     4  11  23  36  52  74  96 128 175 214 248 299
#     4  10  21  36  50  70 104 138 167 205 252 296
#     4  11  21  33  53  78 100 129 173 210 247 301
#     4  10  18  30  48  72 101 135 170 204 245 295
#     4  10  20  35  51  70 101 135 165 205 253 298
#     4  10  19  31  48  71 104 137 165 203 251 298
#     4  10  21  38  54  71  99 130 165 213 261 298
#     4   8  16  29  44  68 100 135 167 197 243 299
#
# _framework density 15.851141
#
# number of rings (size 3 to 8) (size 9 to 14) (size 15 to 20)
#    0.000    2.000    2.500    2.625    0.000    7.500 
#    0.000    0.000    0.000    0.000    0.000    0.875 
#    0.000    7.000    0.000    0.000    0.000    0.000 
#
# Total GULP energy -178558.790988 kJ/mol
# GULP energy per Si atom -5579.962218 kJ/mol
# Density = 1.581506 g / cm^3
# Si number density = 15.851141 Si / 1000 Ang^3
#
#
#
# Elastic Constant Matrix: (Units=GPa)
#
#
# Indices 1 2 3 4 5 6 
#
# 1 112.5872 53.4832 85.2926 0.0000 8.5237 0.0000
# 2 53.4832 45.2341 49.0922 0.0000 10.2615 0.0000
# 3 85.2926 49.0922 105.8638 0.0000 21.8998 0.0000
# 4 0.0000 0.0000 0.0000 26.2694 0.0000 -1.6427
# 5 8.5237 10.2615 21.8998 0.0000 29.0408 0.0000
# 6 0.0000 0.0000 0.0000 -1.6427 0.0000 6.5119
#
#
#
# Elastic Compliance Matrix: (Units=1/GPa)
#
#
# Indices 1 2 3 4 5 6 
#
# 1 0.031458 -0.019559 -0.018714 0.000000 0.011790 0.000000
# 2 -0.019559 0.056669 -0.008964 0.000000 -0.007523 0.000000
# 3 -0.018714 -0.008964 0.031859 0.000000 -0.015365 0.000000
# 4 0.000000 0.000000 0.000000 0.038677 0.000000 0.009757
# 5 0.011790 -0.007523 -0.015365 0.000000 0.045219 0.000000
# 6 0.000000 0.000000 0.000000 0.009757 0.000000 0.156025
#
#
# Mechanical properties :
#
#
# Convention : Reuss Voigt Hill
#
# Bulk Modulus (GPa) = 39.19879 71.04677 55.12278
# Shear Modulus (GPa) = 10.80183 17.41890 14.11036
#
# Velocity S-wave (km/s) = 2.61330 3.31857 2.98682
# Velocity P-wave (km/s) = 5.82141 7.72026 6.83708
#
# Compressibility (1/GPa) = 0.02551099
#
# Stress axis : x y z
#
# Youngs Moduli (GPa) = 31.78863 17.64644 31.38842
#
# Poissons Ratio (x) = 0.34515 0.58740
# Poissons Ratio (y) = 0.62176 0.28137
# Poissons Ratio (z) = 0.59489 0.15818
#
# Static dielectric constant tensor:
#      x y z
#    x 1.518860 0.000000 0.017880 
#    y 0.000000 1.528220 0.000000 
#    z 0.017880 0.000000 1.520020 
# 
# From -- ./inp_files/52663.got.cif
#   From: 2010.05.17/outbox.cif.g08.bks.cpg/sg10_27_cif.got.tgz:52663.got - 2010.06.03 11:33:40.
