data_PCOD9142017
_publ_section_title
;
Structure prediction by ZEFSAII (Michael W. Deem and Ramdas Pophale) SiO2 
 PCOD9142017
Probable space group: P 2/M
;
_chemical_formula_sum "Si O2"
_cell_formula_units_Z 22
_cell_length_a 15.130075
_cell_length_b 12.763876
_cell_length_c 7.168082
_cell_angle_alpha 90.000000
_cell_angle_beta 140.640542
_cell_angle_gamma 90.000000
_cell_volume 877.893052
_symmetry_space_group_name_H-M "P 2/M"
_symmetry_group_IT_number 10
_symmetry_cell_setting 'monoclinic'
loop_
_space_group_symop_operation_xyz
x,y,z
-x,y,-z
-x,-y,-z
x,-y,z
loop_
_atom_site_type_symbol
_atom_site_label
_atom_site_fract_x
_atom_site_fract_y
_atom_site_fract_z
Si Si1 0.144805 0.383724 0.356873
Si Si2 0.774761 0.383292 0.910716
Si Si3 0.195328 0.165271 0.624128
Si Si4 0.118980 0.161723 0.907769
Si Si5 0.373908 0.116629 0.583357
Si Si6 0.500000 0.274885 0.500000
O O1 0.143674 0.500000 0.439634
O O2 0.251072 0.382325 0.355624
O O3 0.182495 0.289447 0.554436
O O4 0.000000 0.372944 0.000000
O O5 0.819265 0.500000 0.034369
O O6 0.630653 0.346918 0.763625
O O7 0.880777 0.288383 0.117788
O O8 0.193430 0.130711 0.836148
O O9 0.329691 0.129362 0.727132
O O10 0.038249 0.126574 0.313917
O O11 0.220582 0.130530 0.238062
O O12 0.462626 0.201371 0.614954
O O13 0.426111 0.000000 0.634218
#
# Coordination Sequence:
#
# PCOD9142017 Si02
#       6
#     4   4   4   4   4   2
#     4  10  17  30  56  85 116 153 189 221 273 339
#     4  10  19  34  57  85 117 153 188 228 273 329
#     4  11  20  37  58  87 120 153 180 227 286 337
#     4  10  22  35  59  89 119 147 187 225 279 353
#     4  11  23  41  61  81 110 148 192 244 292 332
#     4  10  20  38  62  84 106 148 200 238 280 334
#
# _framework density 25.059999000000001
#
# number of rings (size 3 to 8) (size 9 to 14) (size 15 to 20)
#    0.000    1.636    5.455    1.091    0.000    2.909 
#    0.000    7.273    0.000    6.545    0.000    0.000 
#    0.000    0.000    0.000    0.000    0.000    0.000 
#
# Total GULP energy -122877.587611 kJ/mol
# GULP energy per Si atom -5585.344891 kJ/mol
# Density = 2.500296 g / cm^3
# Si number density = 25.059999 Si / 1000 Ang^3
#
#
#
# Elastic Constant Matrix: (Units=GPa)
#
#
# Indices 1 2 3 4 5 6 
#
# 1 152.3245 13.0549 2.4466 0.0000 1.7479 0.0000
# 2 13.0549 142.6323 -2.3453 0.0000 5.0682 0.0000
# 3 2.4466 -2.3453 26.4527 0.0000 -6.3558 0.0000
# 4 0.0000 0.0000 0.0000 -15.0857 0.0000 -4.2374
# 5 1.7479 5.0682 -6.3558 0.0000 40.8057 0.0000
# 6 0.0000 0.0000 0.0000 -4.2374 0.0000 -7.5887
#
#
#
# Elastic Compliance Matrix: (Units=1/GPa)
#
#
# Indices 1 2 3 4 5 6 
#
# 1 0.006633 -0.000608 -0.000745 0.000000 -0.000325 0.000000
# 2 -0.000608 0.007103 0.000499 0.000000 -0.000778 0.000000
# 3 -0.000745 0.000499 0.039383 0.000000 0.006104 0.000000
# 4 0.000000 0.000000 0.000000 -0.078619 0.000000 0.043899
# 5 -0.000325 -0.000778 0.006104 0.000000 0.025568 0.000000
# 6 0.000000 0.000000 0.000000 0.043899 0.000000 -0.156287
#
#
# Mechanical properties :
#
#
# Convention : Reuss Voigt Hill
#
# Bulk Modulus (GPa) = 19.45150 38.63576 29.04363
# Shear Modulus (GPa) = -36.39690 24.17648 -6.11021
#
# Velocity S-wave (km/s) = -3.81516 3.10940 -1.56318
# Velocity P-wave (km/s) = 3.41005 5.32372 2.89081
#
# Compressibility (1/GPa) = 0.05140991
#
# Stress axis : x y z
#
# Youngs Moduli (GPa) = 150.76764 140.79495 25.39154
#
# Poissons Ratio (x) = 0.08558 0.01893
# Poissons Ratio (y) = 0.09164 -0.01267
# Poissons Ratio (z) = 0.11238 -0.07024
#
# Static dielectric constant tensor:
#      x y z
#    x 2.072740 0.000000 0.005030 
#    y 0.000000 2.015880 0.000000 
#    z 0.005030 0.000000 1.984990 
# 
# From -- ./inp_files/28892.got.cif
#   From: 2010.05.17/outbox.cif.g08.bks.cpg/sg10_15_cif.got.tgz:28892.got - 2010.06.03 11:33:40.
