data_PCOD9142315
_publ_section_title
;
Structure prediction by ZEFSAII (Michael W. Deem and Ramdas Pophale) SiO2 
 PCOD9142315
Probable space group: P 2/M
;
_chemical_formula_sum "Si O2"
_cell_formula_units_Z 28
_cell_length_a 32.728851
_cell_length_b 9.331385
_cell_length_c 10.444482
_cell_angle_alpha 90.000000
_cell_angle_beta 33.146013
_cell_angle_gamma 90.000000
_cell_volume 1744.102705
_symmetry_space_group_name_H-M "P 2/M"
_symmetry_group_IT_number 10
_symmetry_cell_setting 'monoclinic'
loop_
_space_group_symop_operation_xyz
x,y,z
-x,y,-z
-x,-y,-z
x,-y,z
loop_
_atom_site_type_symbol
_atom_site_label
_atom_site_fract_x
_atom_site_fract_y
_atom_site_fract_z
Si Si1 0.633530 0.663963 0.965979
Si Si2 0.970068 0.171270 0.440336
Si Si3 0.804502 0.828880 0.784721
Si Si4 0.489279 0.164638 0.372955
Si Si5 0.201097 0.671846 0.472274
Si Si6 0.047105 0.670831 0.003738
Si Si7 0.342882 0.665464 0.786435
O O1 0.615870 0.500000 0.976783
O O2 0.715191 0.704468 0.698704
O O3 0.564307 0.766190 0.119030
O O4 0.645244 0.666087 0.089883
O O5 0.881859 0.199434 0.654661
O O6 0.000000 0.217250 0.500000
O O7 0.014435 0.247662 0.210335
O O8 0.980539 0.000000 0.401401
O O9 0.811863 0.759630 0.624053
O O10 0.792928 0.000000 0.805115
O O11 0.732814 0.753847 0.036649
O O12 0.500000 0.166844 0.500000
O O13 0.415822 0.257970 0.538257
O O14 0.479608 0.000000 0.360283
O O15 0.199651 0.500000 0.446612
O O16 0.133747 0.701572 0.745620
O O17 0.038703 0.500000 0.044316
O O18 0.000000 0.709205 0.000000
O O19 0.336490 0.500000 0.763866
#
# Coordination Sequence:
#
# PCOD9142315 Si02
#       7
#     4   4   4   4   4   4   4
#     4   8  14  23  35  52  80 116 147 177 223 275
#     4  10  22  37  50  68  97 130 162 199 244 290
#     4  10  18  28  44  64  87 117 156 196 234 277
#     4   9  15  22  33  52  80 112 148 185 221 265
#     4   9  17  29  44  65  92 120 151 192 237 280
#     4  10  19  32  52  74  96 122 160 204 242 285
#     4   9  16  25  38  55  80 114 150 186 228 277
#
# _framework density 16.054100999999999
#
# number of rings (size 3 to 8) (size 9 to 14) (size 15 to 20)
#    0.000    2.714    1.429    2.143    0.000    6.857 
#    0.000    0.000    0.000    0.000    0.000    0.000 
#    0.000    1.143    0.000   13.143    0.000    6.714 
#
# Total GULP energy -155983.259616 kJ/mol
# GULP energy per Si atom -5570.830701 kJ/mol
# Density = 1.601756 g / cm^3
# Si number density = 16.054101 Si / 1000 Ang^3
#
#
#
# Elastic Constant Matrix: (Units=GPa)
#
#
# Indices 1 2 3 4 5 6 
#
# 1 63.1465 51.6890 64.6377 0.0000 -15.8682 0.0000
# 2 51.6890 86.5943 67.8008 0.0000 -25.2425 0.0000
# 3 64.6377 67.8008 122.7295 0.0000 -37.1413 0.0000
# 4 0.0000 0.0000 0.0000 24.3172 0.0000 -6.4147
# 5 -15.8682 -25.2425 -37.1413 0.0000 27.1060 0.0000
# 6 0.0000 0.0000 0.0000 -6.4147 0.0000 13.3418
#
#
#
# Elastic Compliance Matrix: (Units=1/GPa)
#
#
# Indices 1 2 3 4 5 6 
#
# 1 0.045182 -0.016168 -0.019504 0.000000 -0.015331 0.000000
# 2 -0.016168 0.026736 -0.002707 0.000000 0.011724 0.000000
# 3 -0.019504 -0.002707 0.026818 0.000000 0.022808 0.000000
# 4 0.000000 0.000000 0.000000 0.047096 0.000000 0.022644
# 5 -0.015331 0.011724 0.022808 0.000000 0.070087 0.000000
# 6 0.000000 0.000000 0.000000 0.022644 0.000000 0.085839
#
#
# Mechanical properties :
#
#
# Convention : Reuss Voigt Hill
#
# Bulk Modulus (GPa) = 45.49847 71.19172 58.34509
# Shear Modulus (GPa) = 12.95866 18.84251 15.90058
#
# Velocity S-wave (km/s) = 2.84419 3.42963 3.15054
# Velocity P-wave (km/s) = 6.26004 7.75399 7.04672
#
# Compressibility (1/GPa) = 0.02197876
#
# Stress axis : x y z
#
# Youngs Moduli (GPa) = 22.13250 37.40294 37.28879
#
# Poissons Ratio (x) = 0.60472 0.72728
# Poissons Ratio (y) = 0.35783 0.10094
# Poissons Ratio (z) = 0.43167 0.10125
#
# Static dielectric constant tensor:
#      x y z
#    x 1.516670 0.000000 -0.032630 
#    y 0.000000 1.537980 0.000000 
#    z -0.032630 0.000000 1.538870 
# 
# From -- ./inp_files/37971.got.cif
#   From: 2010.05.17/outbox.cif.g08.bks.cpg/sg10_19_cif.got.tgz:37971.got - 2010.06.03 11:33:40.
