data_PCOD9142689
_publ_section_title
;
Structure prediction by ZEFSAII (Michael W. Deem and Ramdas Pophale) SiO2 
 PCOD9142689
Probable space group: P 2/M
;
_chemical_formula_sum "Si O2"
_cell_formula_units_Z 32
_cell_length_a 15.553721
_cell_length_b 8.120131
_cell_length_c 31.949425
_cell_angle_alpha 90.000000
_cell_angle_beta 28.504880
_cell_angle_gamma 90.000000
_cell_volume 1925.712315
_symmetry_space_group_name_H-M "P 2/M"
_symmetry_group_IT_number 10
_symmetry_cell_setting 'monoclinic'
loop_
_space_group_symop_operation_xyz
x,y,z
-x,y,-z
-x,-y,-z
x,-y,z
loop_
_atom_site_type_symbol
_atom_site_label
_atom_site_fract_x
_atom_site_fract_y
_atom_site_fract_z
Si Si1 0.727715 0.189554 0.112091
Si Si2 0.357496 0.298829 0.382315
Si Si3 0.665558 0.699426 0.704766
Si Si4 0.984141 0.691740 0.073268
Si Si5 0.739345 0.801363 0.435578
Si Si6 0.668965 0.198640 0.372942
Si Si7 0.043766 0.697914 0.579142
Si Si8 0.746638 0.697903 0.249176
O O1 0.520564 0.237378 0.196380
O O2 0.822405 0.293853 0.108454
O O3 0.743517 0.000000 0.117929
O O4 0.846727 0.218461 0.019854
O O5 0.357913 0.500000 0.383137
O O6 0.329692 0.250184 0.346111
O O7 0.196176 0.241695 0.481326
O O8 0.551479 0.241924 0.316301
O O9 0.661680 0.500000 0.707356
O O10 0.845832 0.757274 0.650947
O O11 0.031722 0.500000 0.057456
O O12 0.903488 0.758087 0.151150
O O13 0.541057 0.746462 0.536469
O O14 0.753343 0.747901 0.381191
O O15 0.890156 0.741835 0.402853
O O16 0.738370 0.000000 0.436284
O O17 0.762621 0.258758 0.290867
O O18 0.668043 0.000000 0.373003
O O19 0.040791 0.500000 0.576839
O O20 0.744871 0.500000 0.245708
#
# Coordination Sequence:
#
# PCOD9142689 Si02
#       8
#     4   4   4   4   4   4   4   4
#     4  11  21  32  47  70  95 123 161 202 235 273
#     4   9  16  29  45  67  96 126 162 196 228 271
#     4  10  19  33  49  66  94 132 165 196 236 282
#     4  10  19  33  51  69  94 126 156 192 243 291
#     4   9  18  32  46  64  94 129 161 194 237 282
#     4   9  18  31  47  66  93 129 160 191 237 287
#     4  10  19  30  49  71  92 125 168 204 233 268
#     4  10  18  29  49  73  95 123 158 195 236 279
#
# _framework density 16.617228000000001
#
# number of rings (size 3 to 8) (size 9 to 14) (size 15 to 20)
#    0.000    2.250    2.500    3.375    0.000    3.500 
#    0.000    1.875    0.000    1.500    0.000    0.875 
#    0.000    7.000    0.000    0.000    0.000    0.000 
#
# Total GULP energy -178499.409625 kJ/mol
# GULP energy per Si atom -5578.106551 kJ/mol
# Density = 1.657941 g / cm^3
# Si number density = 16.617228 Si / 1000 Ang^3
#
#
#
# Elastic Constant Matrix: (Units=GPa)
#
#
# Indices 1 2 3 4 5 6 
#
# 1 106.5961 1.9987 68.5603 0.0000 9.1874 0.0000
# 2 1.9987 11.4772 3.2601 0.0000 -1.0923 0.0000
# 3 68.5603 3.2601 112.1901 0.0000 12.4873 0.0000
# 4 0.0000 0.0000 0.0000 9.9029 0.0000 6.9924
# 5 9.1874 -1.0923 12.4873 0.0000 26.3315 0.0000
# 6 0.0000 0.0000 0.0000 6.9924 0.0000 30.5113
#
#
#
# Elastic Compliance Matrix: (Units=1/GPa)
#
#
# Indices 1 2 3 4 5 6 
#
# 1 0.015480 -0.000133 -0.009348 0.000000 -0.000974 0.000000
# 2 -0.000133 0.088516 -0.003066 0.000000 0.005173 0.000000
# 3 -0.009348 -0.003066 0.015167 0.000000 -0.004058 0.000000
# 4 0.000000 0.000000 0.000000 0.120476 0.000000 -0.027610
# 5 -0.000974 0.005173 -0.004058 0.000000 0.040456 0.000000
# 6 0.000000 0.000000 0.000000 -0.027610 0.000000 0.039102
#
#
# Mechanical properties :
#
#
# Convention : Reuss Voigt Hill
#
# Bulk Modulus (GPa) = 10.63066 41.98908 26.30987
# Shear Modulus (GPa) = 13.31035 23.77874 18.54455
#
# Velocity S-wave (km/s) = 2.83326 3.78692 3.34426
# Velocity P-wave (km/s) = 4.13696 6.66665 5.54791
#
# Compressibility (1/GPa) = 0.09406757
#
# Stress axis : x y z
#
# Youngs Moduli (GPa) = 64.60038 11.29743 65.93419
#
# Poissons Ratio (x) = 0.00151 0.61632
# Poissons Ratio (y) = 0.00861 0.20218
# Poissons Ratio (z) = 0.60386 0.03464
#
# Static dielectric constant tensor:
#      x y z
#    x 1.546090 0.000000 0.011690 
#    y 0.000000 1.584920 0.000000 
#    z 0.011690 0.000000 1.562330 
# 
# From -- ./inp_files/95252.got.cif
#   From: 2010.05.17/outbox.cif.g08.bks.cpg/sg10_48_cif.got.tgz:95252.got - 2010.06.03 11:33:40.
