data_PCOD9142791
_publ_section_title
;
Structure prediction by ZEFSAII (Michael W. Deem and Ramdas Pophale) SiO2 
 PCOD9142791
Probable space group: P 2/M
;
_chemical_formula_sum "Si O2"
_cell_formula_units_Z 32
_cell_length_a 22.013968
_cell_length_b 8.917061
_cell_length_c 31.759099
_cell_angle_alpha 90.000000
_cell_angle_beta 19.205486
_cell_angle_gamma 90.000000
_cell_volume 2050.819620
_symmetry_space_group_name_H-M "P 2/M"
_symmetry_group_IT_number 10
_symmetry_cell_setting 'monoclinic'
loop_
_space_group_symop_operation_xyz
x,y,z
-x,y,-z
-x,-y,-z
x,-y,z
loop_
_atom_site_type_symbol
_atom_site_label
_atom_site_fract_x
_atom_site_fract_y
_atom_site_fract_z
Si Si1 0.702091 0.318570 0.708289
Si Si2 0.330547 0.820435 0.986257
Si Si3 0.939231 0.318066 0.473869
Si Si4 0.312485 0.679670 0.532932
Si Si5 0.369128 0.826926 0.627214
Si Si6 0.682530 0.819332 0.906520
Si Si7 0.944012 0.681629 0.374958
Si Si8 0.056328 0.321299 0.781416
O O1 0.686136 0.500000 0.719439
O O2 0.509255 0.245951 0.846451
O O3 0.783654 0.272659 0.609378
O O4 0.861310 0.275126 0.637707
O O5 0.330937 0.000000 0.983380
O O6 0.336449 0.777994 0.031963
O O7 0.141667 0.756128 0.090834
O O8 0.937208 0.500000 0.475083
O O9 0.913994 0.267554 0.442595
O O10 0.338031 0.500000 0.516651
O O11 0.505029 0.756699 0.418688
O O12 0.219242 0.725633 0.550148
O O13 0.165685 0.715082 0.666300
O O14 0.500000 0.820221 0.500000
O O15 0.186456 0.737183 0.733808
O O16 0.326037 0.000000 0.663741
O O17 0.863932 0.745048 0.768243
O O18 0.700610 0.000000 0.892200
O O19 0.500000 0.775543 0.000000
O O20 0.953823 0.500000 0.367948
O O21 0.036663 0.500000 0.796464
#
# Coordination Sequence:
#
# PCOD9142791 Si02
#       8
#     4   4   4   4   4   4   4   4
#     4   9  17  32  51  69  90 121 161 202 243 278
#     4  11  21  31  45  67  96 126 158 195 235 279
#     4   8  16  31  51  71  91 118 158 206 243 275
#     4   9  17  28  43  66  94 122 154 190 227 273
#     4   9  17  28  44  65  91 124 156 185 225 273
#     4  10  21  33  43  61  94 130 158 188 232 282
#     4  10  18  30  48  70  93 121 158 196 233 275
#     4  10  18  30  46  66  93 124 157 191 229 274
#
# _framework density 15.603517999999999
#
# number of rings (size 3 to 8) (size 9 to 14) (size 15 to 20)
#    0.000    2.500    1.250    2.625    0.000    3.250 
#    0.000    1.875    0.000    0.000    0.000    0.875 
#    0.000    7.000    0.000    0.000    0.000    0.000 
#
# Total GULP energy -178415.091836 kJ/mol
# GULP energy per Si atom -5575.471620 kJ/mol
# Density = 1.556800 g / cm^3
# Si number density = 15.603518 Si / 1000 Ang^3
#
#
#
# Elastic Constant Matrix: (Units=GPa)
#
#
# Indices 1 2 3 4 5 6 
#
# 1 131.9177 38.9270 84.8975 0.0000 -17.6254 0.0000
# 2 38.9270 30.1750 41.6166 0.0000 -6.5272 0.0000
# 3 84.8975 41.6166 113.1338 0.0000 -12.6483 0.0000
# 4 0.0000 0.0000 0.0000 6.6379 0.0000 -2.6404
# 5 -17.6254 -6.5272 -12.6483 0.0000 22.1359 0.0000
# 6 0.0000 0.0000 0.0000 -2.6404 0.0000 15.7307
#
#
#
# Elastic Compliance Matrix: (Units=1/GPa)
#
#
# Indices 1 2 3 4 5 6 
#
# 1 0.016202 -0.007675 -0.008702 0.000000 0.005666 0.000000
# 2 -0.007675 0.071678 -0.020220 0.000000 0.003471 0.000000
# 3 -0.008702 -0.020220 0.022824 0.000000 0.000150 0.000000
# 4 0.000000 0.000000 0.000000 0.161428 0.000000 0.027096
# 5 0.005666 0.003471 0.000150 0.000000 0.050796 0.000000
# 6 0.000000 0.000000 0.000000 0.027096 0.000000 0.068118
#
#
# Mechanical properties :
#
#
# Convention : Reuss Voigt Hill
#
# Bulk Modulus (GPa) = 26.65843 67.34542 47.00192
# Shear Modulus (GPa) = 10.48782 16.21991 13.35387
#
# Velocity S-wave (km/s) = 2.59539 3.22763 2.92862
# Velocity P-wave (km/s) = 5.10914 7.55938 6.45165
#
# Compressibility (1/GPa) = 0.03751159
#
# Stress axis : x y z
#
# Youngs Moduli (GPa) = 61.71896 13.95129 43.81367
#
# Poissons Ratio (x) = 0.10707 0.38127
# Poissons Ratio (y) = 0.47367 0.88590
# Poissons Ratio (z) = 0.53708 0.28209
#
# Static dielectric constant tensor:
#      x y z
#    x 1.526960 0.000000 -0.001020 
#    y 0.000000 1.518610 0.000000 
#    z -0.001020 0.000000 1.486890 
# 
# From -- ./inp_files/55188.got.cif
#   From: 2010.05.17/outbox.cif.g08.bks.cpg/sg10_28_cif.got.tgz:55188.got - 2010.06.03 11:33:40.
