data_PCOD9142169
_publ_section_title
;
Structure prediction by ZEFSAII (Michael W. Deem and Ramdas Pophale) SiO2 
 PCOD9142169
Probable space group: P 2/M
;
_chemical_formula_sum "Si O2"
_cell_formula_units_Z 28
_cell_length_a 18.283261
_cell_length_b 17.516258
_cell_length_c 9.997726
_cell_angle_alpha 90.000000
_cell_angle_beta 156.686131
_cell_angle_gamma 90.000000
_cell_volume 1267.175274
_symmetry_space_group_name_H-M "P 2/M"
_symmetry_group_IT_number 10
_symmetry_cell_setting 'monoclinic'
loop_
_space_group_symop_operation_xyz
x,y,z
-x,y,-z
-x,-y,-z
x,-y,z
loop_
_atom_site_type_symbol
_atom_site_label
_atom_site_fract_x
_atom_site_fract_y
_atom_site_fract_z
Si Si1 0.295635 0.833505 0.691145
Si Si2 0.697937 0.835076 0.601878
Si Si3 0.216408 0.000000 0.541882
Si Si4 0.222834 0.000000 0.234809
Si Si5 0.489647 0.417990 0.320845
Si Si6 0.626830 0.257236 0.849103
Si Si7 0.036809 0.260897 0.765968
Si Si8 0.076890 0.587930 0.983051
O O1 0.223804 0.840598 0.416760
O O2 0.293830 0.921974 0.735248
O O3 0.158509 0.781281 0.545779
O O4 0.500000 0.804196 0.000000
O O5 0.488006 0.803913 0.258430
O O6 0.702792 0.917367 0.682522
O O7 0.832977 0.776523 0.901417
O O8 0.262190 0.000000 0.460705
O O9 0.993673 0.000000 0.167133
O O10 0.500000 0.420278 0.500000
O O11 0.413293 0.500000 0.147230
O O12 0.385339 0.341265 0.107138
O O13 0.701313 0.410768 0.632284
O O14 0.500000 0.260078 0.500000
O O15 0.834418 0.246275 0.146833
O O16 0.022105 0.350100 0.779538
O O17 0.023227 0.500000 0.861709
O O18 0.000000 0.608670 0.000000
#
# Coordination Sequence:
#
# PCOD9142169 Si02
#       8
#     4   4   2   2   4   4   4   4
#     4  11  22  34  52  74  98 132 171 207 245 292
#     4  10  18  33  52  74 102 128 163 201 251 300
#     4   9  17  32  51  75 100 124 166 203 247 291
#     4   9  16  28  52  78  98 130 155 199 254 302
#     4   9  14  24  41  66 103 131 154 195 251 299
#     4   9  17  29  45  73 102 130 160 201 248 296
#     4  11  19  32  51  74 103 131 165 210 248 293
#     4  10  18  26  42  73 106 133 160 200 254 299
#
# _framework density 22.09639
#
# number of rings (size 3 to 8) (size 9 to 14) (size 15 to 20)
#    0.000    2.143    5.714    1.500    0.000    0.000 
#    0.000    4.643    0.000    0.429    0.000    4.000 
#    0.000    2.286    0.000    0.000    0.000    0.000 
#
# Total GULP energy -156174.468679 kJ/mol
# GULP energy per Si atom -5577.659596 kJ/mol
# Density = 2.204610 g / cm^3
# Si number density = 22.096390 Si / 1000 Ang^3
#
#
#
# Elastic Constant Matrix: (Units=GPa)
#
#
# Indices 1 2 3 4 5 6 
#
# 1 93.8382 34.9556 20.4155 0.0000 39.3104 0.0000
# 2 34.9556 129.5605 24.2039 0.0000 28.0341 0.0000
# 3 20.4155 24.2039 94.8101 0.0000 35.0113 0.0000
# 4 0.0000 0.0000 0.0000 64.0734 0.0000 31.0569
# 5 39.3104 28.0341 35.0113 0.0000 38.9521 0.0000
# 6 0.0000 0.0000 0.0000 31.0569 0.0000 29.9685
#
#
#
# Elastic Compliance Matrix: (Units=1/GPa)
#
#
# Indices 1 2 3 4 5 6 
#
# 1 0.019891 -0.001169 0.004666 0.000000 -0.023426 0.000000
# 2 -0.001169 0.009212 -0.000131 0.000000 -0.005332 0.000000
# 3 0.004666 -0.000131 0.016884 0.000000 -0.019791 0.000000
# 4 0.000000 0.000000 0.000000 0.031359 0.000000 -0.032498
# 5 -0.023426 -0.005332 -0.019791 0.000000 0.070941 0.000000
# 6 0.000000 0.000000 0.000000 -0.032498 0.000000 0.067047
#
#
# Mechanical properties :
#
#
# Convention : Reuss Voigt Hill
#
# Bulk Modulus (GPa) = 18.96837 53.03987 36.00412
# Shear Modulus (GPa) = 22.10673 42.50772 32.30723
#
# Velocity S-wave (km/s) = 3.16645 4.39080 3.82790
# Velocity P-wave (km/s) = 4.68738 7.05419 5.98887
#
# Compressibility (1/GPa) = 0.05271935
#
# Stress axis : x y z
#
# Youngs Moduli (GPa) = 50.27488 108.55243 59.22600
#
# Poissons Ratio (x) = 0.12693 -0.27636
# Poissons Ratio (y) = 0.05879 0.00775
# Poissons Ratio (z) = -0.23459 0.01420
#
# Static dielectric constant tensor:
#      x y z
#    x 1.814360 0.000000 -0.059690 
#    y 0.000000 1.877740 0.000000 
#    z -0.059690 0.000000 1.858930 
# 
# From -- ./inp_files/56129.got.cif
#   From: 2010.05.17/outbox.cif.g08.bks.cpg/sg10_29_cif.got.tgz:56129.got - 2010.06.03 11:33:40.
