data_PCOD9142950
_publ_section_title
;
Structure prediction by ZEFSAII (Michael W. Deem and Ramdas Pophale) SiO2 
 PCOD9142950
Probable space group: P 2/M
;
_chemical_formula_sum "Si O2"
_cell_formula_units_Z 32
_cell_length_a 8.339115
_cell_length_b 21.573564
_cell_length_c 15.733087
_cell_angle_alpha 90.000000
_cell_angle_beta 148.996103
_cell_angle_gamma 90.000000
_cell_volume 1457.955598
_symmetry_space_group_name_H-M "P 2/M"
_symmetry_group_IT_number 10
_symmetry_cell_setting 'monoclinic'
loop_
_space_group_symop_operation_xyz
x,y,z
-x,y,-z
-x,-y,-z
x,-y,z
loop_
_atom_site_type_symbol
_atom_site_label
_atom_site_fract_x
_atom_site_fract_y
_atom_site_fract_z
Si Si1 0.517806 0.713915 0.273063
Si Si2 0.131256 0.570722 0.811284
Si Si3 0.941156 0.886142 0.163247
Si Si4 0.153699 0.256994 0.872068
Si Si5 0.005748 0.629937 0.929014
Si Si6 0.334839 0.857443 0.198746
Si Si7 0.335672 0.929087 0.794138
Si Si8 0.052337 0.687195 0.382242
O O1 0.279266 0.659979 0.136378
O O2 0.405555 0.784159 0.233478
O O3 0.779218 0.712483 0.319225
O O4 0.651476 0.689582 0.423008
O O5 0.065451 0.500000 0.757517
O O6 0.036334 0.620261 0.695965
O O7 0.500000 0.576717 0.000000
O O8 0.972932 0.590955 0.827294
O O9 0.839851 0.814710 0.102492
O O10 0.907955 0.900985 0.248055
O O11 0.266448 0.888267 0.259884
O O12 0.671780 0.926265 0.995476
O O13 0.929453 0.268184 0.690486
O O14 0.500000 0.275013 0.000000
O O15 0.063510 0.302782 0.905391
O O16 0.000000 0.575358 0.000000
O O17 0.597993 0.890055 0.261004
O O18 0.000000 0.864976 0.000000
O O19 0.257594 0.000000 0.740024
#
# Coordination Sequence:
#
# PCOD9142950 Si02
#       8
#     4   4   4   4   4   4   4   4
#     4  11  21  37  55  85 120 149 199 246 309 352
#     4  10  22  42  62  86 118 159 199 231 282 357
#     4  10  18  30  49  79 109 153 191 237 301 356
#     4  11  19  32  54  82 113 150 186 236 307 357
#     4  11  21  33  59  87 115 149 193 248 295 347
#     4  10  21  33  55  84 118 157 197 253 303 363
#     4  10  20  32  50  79 123 159 193 244 301 359
#     4  10  23  37  57  83 118 158 189 247 299 354
#
# _framework density 21.948542
#
# number of rings (size 3 to 8) (size 9 to 14) (size 15 to 20)
#    0.000    1.625    2.500    4.875    3.500    5.000 
#    0.000    3.125    0.000    0.000    0.000    7.875 
#    0.000   26.000    0.000    0.000    0.000    0.000 
#
# Total GULP energy -178176.833884 kJ/mol
# GULP energy per Si atom -5568.026059 kJ/mol
# Density = 2.189859 g / cm^3
# Si number density = 21.948542 Si / 1000 Ang^3
#
#
#
# Elastic Constant Matrix: (Units=GPa)
#
#
# Indices 1 2 3 4 5 6 
#
# 1 148.1317 31.4754 18.5285 0.0000 -28.1899 0.0000
# 2 31.4754 115.3247 3.1007 0.0000 -7.7749 0.0000
# 3 18.5285 3.1007 69.2534 0.0000 -18.2288 0.0000
# 4 0.0000 0.0000 0.0000 110.6190 0.0000 -80.2327
# 5 -28.1899 -7.7749 -18.2288 0.0000 28.9324 0.0000
# 6 0.0000 0.0000 0.0000 -80.2327 0.0000 79.8376
#
#
#
# Elastic Compliance Matrix: (Units=1/GPa)
#
#
# Indices 1 2 3 4 5 6 
#
# 1 0.008651 -0.001829 -0.000172 0.000000 0.007829 0.000000
# 2 -0.001829 0.009222 0.000311 0.000000 0.000893 0.000000
# 3 -0.000172 0.000311 0.017322 0.000000 0.010830 0.000000
# 4 0.000000 0.000000 0.000000 0.033345 0.000000 0.033510
# 5 0.007829 0.000893 0.010830 0.000000 0.049255 0.000000
# 6 0.000000 0.000000 0.000000 0.033510 0.000000 0.046201
#
#
# Mechanical properties :
#
#
# Convention : Reuss Voigt Hill
#
# Bulk Modulus (GPa) = 31.42980 48.76879 40.09929
# Shear Modulus (GPa) = 28.09295 62.51816 45.30555
#
# Velocity S-wave (km/s) = 3.58151 5.34283 4.54824
# Velocity P-wave (km/s) = 5.60837 7.76717 6.77432
#
# Compressibility (1/GPa) = 0.03181694
#
# Stress axis : x y z
#
# Youngs Moduli (GPa) = 115.59807 108.43571 57.72850
#
# Poissons Ratio (x) = 0.19828 0.00992
# Poissons Ratio (y) = 0.21138 -0.01797
# Poissons Ratio (z) = 0.01986 -0.03376
#
# Static dielectric constant tensor:
#      x y z
#    x 1.930120 0.000000 0.006860 
#    y 0.000000 1.731270 0.000000 
#    z 0.006860 0.000000 1.898550 
# 
# From -- ./inp_files/62504.got.cif
#   From: 2010.05.17/outbox.cif.g08.bks.cpg/sg10_32_cif.got.tgz:62504.got - 2010.06.03 11:33:40.
