data_PCOD9142501
_publ_section_title
;
Structure prediction by ZEFSAII (Michael W. Deem and Ramdas Pophale) SiO2 
 PCOD9142501
Probable space group: P 2/M
;
_chemical_formula_sum "Si O2"
_cell_formula_units_Z 32
_cell_length_a 22.478113
_cell_length_b 7.559018
_cell_length_c 12.170350
_cell_angle_alpha 90.000000
_cell_angle_beta 128.714200
_cell_angle_gamma 90.000000
_cell_volume 1613.526962
_symmetry_space_group_name_H-M "P 2/M"
_symmetry_group_IT_number 10
_symmetry_cell_setting 'monoclinic'
loop_
_space_group_symop_operation_xyz
x,y,z
-x,y,-z
-x,-y,-z
x,-y,z
loop_
_atom_site_type_symbol
_atom_site_label
_atom_site_fract_x
_atom_site_fract_y
_atom_site_fract_z
Si Si1 0.814098 0.288146 0.499704
Si Si2 0.336625 0.203063 0.809149
Si Si3 0.539379 0.216782 0.660178
Si Si4 0.273779 0.291976 0.399852
Si Si5 0.576150 0.205116 0.294825
Si Si6 0.768640 0.782402 0.128295
Si Si7 0.916841 0.790774 0.430793
Si Si8 0.712788 0.787465 0.835220
O O1 0.808530 0.500000 0.482916
O O2 0.742736 0.205547 0.351333
O O3 0.797555 0.238071 0.606325
O O4 0.890487 0.232447 0.526307
O O5 0.396983 0.282774 0.791906
O O6 0.306484 0.277807 0.889878
O O7 0.360097 0.000000 0.856811
O O8 0.500000 0.269386 0.500000
O O9 0.492629 0.280698 0.712500
O O10 0.626490 0.274290 0.756308
O O11 0.537373 0.000000 0.660721
O O12 0.285638 0.500000 0.430302
O O13 0.350425 0.207398 0.538815
O O14 0.263195 0.260105 0.259657
O O15 0.557749 0.000000 0.251316
O O16 0.846035 0.720482 0.276659
O O17 0.767498 0.000000 0.132578
O O18 0.763333 0.727751 0.996015
O O19 0.000000 0.716556 0.500000
O O20 0.919662 0.000000 0.410926
O O21 0.710966 0.000000 0.836916
#
# Coordination Sequence:
#
# PCOD9142501 Si02
#       8
#     4   4   4   4   4   4   4   4
#     4   9  17  28  44  68  94 116 143 182 219 257
#     4   8  14  26  44  63  85 114 149 187 222 263
#     4   9  15  24  39  62  87 112 151 193 223 257
#     4  10  19  29  42  64  91 116 150 192 224 252
#     4   9  15  26  44  62  83 115 152 188 229 269
#     4   8  15  28  45  67  90 113 145 180 216 262
#     4   9  17  31  52  75  96 115 138 175 218 260
#     4  10  18  29  45  61  86 123 153 181 221 267
#
# _framework density 19.832329000000001
#
# number of rings (size 3 to 8) (size 9 to 14) (size 15 to 20)
#    0.000    3.000    1.250    1.500    0.000    1.750 
#    0.000    4.375    0.000    4.500    0.000    5.250 
#    0.000   14.000    0.000    0.000    0.000    0.000 
#
# Total GULP energy -178254.199284 kJ/mol
# GULP energy per Si atom -5570.443728 kJ/mol
# Density = 1.978719 g / cm^3
# Si number density = 19.832329 Si / 1000 Ang^3
#
#
#
# Elastic Constant Matrix: (Units=GPa)
#
#
# Indices 1 2 3 4 5 6 
#
# 1 136.3408 -12.0350 34.0582 0.0000 -11.1758 0.0000
# 2 -12.0350 40.8197 -7.8999 0.0000 8.8117 0.0000
# 3 34.0582 -7.8999 50.4834 0.0000 -10.4378 0.0000
# 4 0.0000 0.0000 0.0000 -147.4200 0.0000 37.9842
# 5 -11.1758 8.8117 -10.4378 0.0000 20.8009 0.0000
# 6 0.0000 0.0000 0.0000 37.9842 0.0000 -3.6117
#
#
#
# Elastic Compliance Matrix: (Units=1/GPa)
#
#
# Indices 1 2 3 4 5 6 
#
# 1 0.008950 0.001243 -0.005532 0.000000 0.001506 0.000000
# 2 0.001243 0.027332 0.001320 0.000000 -0.010248 0.000000
# 3 -0.005532 0.001320 0.025681 0.000000 0.009356 0.000000
# 4 0.000000 0.000000 0.000000 0.003967 0.000000 0.041724
# 5 0.001506 -0.010248 0.009356 0.000000 0.057920 0.000000
# 6 0.000000 0.000000 0.000000 0.041724 0.000000 0.161935
#
#
# Mechanical properties :
#
#
# Convention : Reuss Voigt Hill
#
# Bulk Modulus (GPa) = 17.84935 28.43226 23.14080
# Shear Modulus (GPa) = 16.10830 -11.81145 2.14843
#
# Velocity S-wave (km/s) = 2.85305 -2.44307 1.04194
# Velocity P-wave (km/s) = 4.45790 2.53167 3.62506
#
# Compressibility (1/GPa) = 0.05602446
#
# Stress axis : x y z
#
# Youngs Moduli (GPa) = 111.73681 36.58697 38.93872
#
# Poissons Ratio (x) = -0.04548 0.21540
# Poissons Ratio (y) = -0.13888 -0.05138
# Poissons Ratio (z) = 0.61812 -0.04828
#
# Static dielectric constant tensor:
#      x y z
#    x 1.736460 0.000000 -0.035780 
#    y 0.000000 1.878840 0.000000 
#    z -0.035780 0.000000 1.687330 
# 
# From -- ./inp_files/54902.got.cif
#   From: 2010.05.17/outbox.cif.g08.bks.cpg/sg10_28_cif.got.tgz:54902.got - 2010.06.03 11:33:40.
