data_PCOD9142074
_publ_section_title
;
Structure prediction by ZEFSAII (Michael W. Deem and Ramdas Pophale) SiO2 
 PCOD9142074
Probable space group: P 2/M
;
_chemical_formula_sum "Si O2"
_cell_formula_units_Z 26
_cell_length_a 8.543850
_cell_length_b 15.833591
_cell_length_c 11.619052
_cell_angle_alpha 90.000000
_cell_angle_beta 86.782460
_cell_angle_gamma 90.000000
_cell_volume 1569.345561
_symmetry_space_group_name_H-M "P 2/M"
_symmetry_group_IT_number 10
_symmetry_cell_setting 'monoclinic'
loop_
_space_group_symop_operation_xyz
x,y,z
-x,y,-z
-x,-y,-z
x,-y,z
loop_
_atom_site_type_symbol
_atom_site_label
_atom_site_fract_x
_atom_site_fract_y
_atom_site_fract_z
Si Si1 0.000000 0.837996 0.000000
Si Si2 0.926602 0.406749 0.820140
Si Si3 0.465858 0.240331 0.873533
Si Si4 0.819001 0.762531 0.789338
Si Si5 0.242030 0.905497 0.808746
Si Si6 0.025312 0.902850 0.365683
Si Si7 0.739777 0.594488 0.066070
O O1 0.878689 0.892083 0.079951
O O2 0.098552 0.783896 0.089800
O O3 0.908334 0.500000 0.769463
O O4 0.894620 0.325312 0.745367
O O5 0.101043 0.400781 0.865616
O O6 0.803866 0.400353 0.932371
O O7 0.634593 0.250022 0.809652
O O8 0.362067 0.171364 0.812731
O O9 0.373831 0.328783 0.896204
O O10 0.500000 0.205836 0.000000
O O11 0.860192 0.838852 0.703561
O O12 0.137183 0.898530 0.698542
O O13 0.310456 0.000000 0.812041
O O14 0.000000 0.882442 0.500000
O O15 0.081126 0.000000 0.355004
O O16 0.671069 0.500000 0.084614
#
# Coordination Sequence:
#
# PCOD9142074 Si02
#       7
#     2   4   4   4   4   4   4
#     4  10  17  32  47  70  98 136 171 206 239 296
#     4   9  16  28  47  70  98 140 183 211 240 285
#     4  12  21  30  43  76 115 144 161 194 251 320
#     4  11  20  31  51  74 106 135 168 209 255 303
#     4  10  20  33  50  72 102 133 164 204 252 304
#     4   9  20  40  62  76  89 124 180 227 256 290
#     4   9  17  29  45  67 104 146 178 206 238 289
#
# _framework density 16.567416000000001
#
# number of rings (size 3 to 8) (size 9 to 14) (size 15 to 20)
#    0.000    2.000    3.077    3.923    0.000    2.462 
#    0.000    0.769    0.000    3.231    0.000    0.000 
#    0.000    4.923    0.000    0.000    0.000    0.000 
#
# Total GULP energy -144955.711251 kJ/mol
# GULP energy per Si atom -5575.219663 kJ/mol
# Density = 1.652971 g / cm^3
# Si number density = 16.567416 Si / 1000 Ang^3
#
#
#
# Elastic Constant Matrix: (Units=GPa)
#
#
# Indices 1 2 3 4 5 6 
#
# 1 74.8196 53.0926 20.3596 0.0000 -6.3751 0.0000
# 2 53.0926 119.5378 36.5282 0.0000 -1.2433 0.0000
# 3 20.3596 36.5282 59.5266 0.0000 3.9832 0.0000
# 4 0.0000 0.0000 0.0000 9.1752 0.0000 -6.5580
# 5 -6.3751 -1.2433 3.9832 0.0000 8.0895 0.0000
# 6 0.0000 0.0000 0.0000 -6.5580 0.0000 4.8598
#
#
#
# Elastic Compliance Matrix: (Units=1/GPa)
#
#
# Indices 1 2 3 4 5 6 
#
# 1 0.021792 -0.008442 -0.003449 0.000000 0.017574 0.000000
# 2 -0.008442 0.013754 -0.005428 0.000000 -0.001866 0.000000
# 3 -0.003449 -0.005428 0.022282 0.000000 -0.014523 0.000000
# 4 0.000000 0.000000 0.000000 3.071748 0.000000 4.145138
# 5 0.017574 -0.001866 -0.014523 0.000000 0.144331 0.000000
# 6 0.000000 0.000000 0.000000 4.145138 0.000000 5.799382
#
#
# Mechanical properties :
#
#
# Convention : Reuss Voigt Hill
#
# Bulk Modulus (GPa) = 43.12242 52.64942 47.88592
# Shear Modulus (GPa) = 0.54851 14.01848 7.28349
#
# Velocity S-wave (km/s) = 0.57602 2.91202 2.09900
# Velocity P-wave (km/s) = 5.15047 6.56920 5.90261
#
# Compressibility (1/GPa) = 0.02318979
#
# Stress axis : x y z
#
# Youngs Moduli (GPa) = 45.88817 72.70379 44.88023
#
# Poissons Ratio (x) = 0.61378 0.15479
# Poissons Ratio (y) = 0.38740 0.24361
# Poissons Ratio (z) = 0.15826 0.39463
#
# Static dielectric constant tensor:
#      x y z
#    x 1.563360 0.000000 0.007770 
#    y 0.000000 1.607950 0.000000 
#    z 0.007770 0.000000 1.524200 
# 
# From -- ./inp_files/42437.got.cif
#   From: 2010.05.17/outbox.cif.g08.bks.cpg/sg10_22_cif.got.tgz:42437.got - 2010.06.03 11:33:40.
