data_PCOD9142811
_publ_section_title
;
Structure prediction by ZEFSAII (Michael W. Deem and Ramdas Pophale) SiO2 
 PCOD9142811
Probable space group: P 2/M
;
_chemical_formula_sum "Si O2"
_cell_formula_units_Z 32
_cell_length_a 21.274178
_cell_length_b 9.032308
_cell_length_c 15.298744
_cell_angle_alpha 90.000000
_cell_angle_beta 41.832163
_cell_angle_gamma 90.000000
_cell_volume 1960.654757
_symmetry_space_group_name_H-M "P 2/M"
_symmetry_group_IT_number 10
_symmetry_cell_setting 'monoclinic'
loop_
_space_group_symop_operation_xyz
x,y,z
-x,y,-z
-x,-y,-z
x,-y,z
loop_
_atom_site_type_symbol
_atom_site_label
_atom_site_fract_x
_atom_site_fract_y
_atom_site_fract_z
Si Si1 0.122232 0.179956 0.620699
Si Si2 0.020272 0.180340 0.077221
Si Si3 0.667458 0.670493 0.014297
Si Si4 0.962589 0.169827 0.659319
Si Si5 0.814283 0.828643 0.975071
Si Si6 0.488626 0.177414 0.114937
Si Si7 0.184211 0.669768 0.299715
Si Si8 0.708193 0.678499 0.637470
O O1 0.223639 0.254847 0.507154
O O2 0.063084 0.219508 0.768747
O O3 0.056993 0.232112 0.606197
O O4 0.129190 0.000000 0.609653
O O5 0.023905 0.000000 0.073903
O O6 0.121175 0.228604 0.012119
O O7 0.000000 0.230093 0.000000
O O8 0.639962 0.500000 0.057025
O O9 0.724367 0.735971 0.037684
O O10 0.578927 0.766151 0.074934
O O11 0.741653 0.673567 0.857034
O O12 0.907887 0.245143 0.636859
O O13 0.981110 0.000000 0.618531
O O14 0.887530 0.171354 0.817580
O O15 0.787567 0.000000 0.018181
O O16 0.395497 0.253643 0.250097
O O17 0.480860 0.000000 0.127460
O O18 0.500000 0.218429 0.000000
O O19 0.157763 0.500000 0.343552
O O20 0.240342 0.726063 0.325419
O O21 0.704164 0.500000 0.638100
#
# Coordination Sequence:
#
# PCOD9142811 Si02
#       8
#     4   4   4   4   4   4   4   4
#     4   9  18  32  47  68  96 124 159 199 237 282
#     4   8  14  28  53  80 103 128 158 195 238 285
#     4  10  18  30  47  66  94 128 162 201 244 284
#     4   8  15  27  43  61  87 122 157 195 233 270
#     4   8  14  26  45  71  98 123 158 197 235 282
#     4  11  22  34  50  70  90 120 165 213 251 281
#     4   9  18  29  42  61  86 121 162 199 232 274
#     4  11  22  34  46  63  92 128 164 200 242 286
#
# _framework density 16.321079000000001
#
# number of rings (size 3 to 8) (size 9 to 14) (size 15 to 20)
#    0.000    2.750    1.250    2.625    0.000    3.000 
#    0.000    4.375    0.000    1.500    0.000    0.875 
#    0.000    7.000    0.000    0.000    0.000    0.000 
#
# Total GULP energy -178330.947552 kJ/mol
# GULP energy per Si atom -5572.842111 kJ/mol
# Density = 1.628393 g / cm^3
# Si number density = 16.321079 Si / 1000 Ang^3
#
#
#
# Elastic Constant Matrix: (Units=GPa)
#
#
# Indices 1 2 3 4 5 6 
#
# 1 114.6789 32.4850 49.0637 0.0000 -5.5308 0.0000
# 2 32.4850 40.3866 29.0253 0.0000 -11.3162 0.0000
# 3 49.0637 29.0253 66.1977 0.0000 -15.7433 0.0000
# 4 0.0000 0.0000 0.0000 2.9977 0.0000 12.7507
# 5 -5.5308 -11.3162 -15.7433 0.0000 27.2353 0.0000
# 6 0.0000 0.0000 0.0000 12.7507 0.0000 -8.6136
#
#
#
# Elastic Compliance Matrix: (Units=1/GPa)
#
#
# Indices 1 2 3 4 5 6 
#
# 1 0.014039 -0.006344 -0.008779 0.000000 -0.004860 0.000000
# 2 -0.006344 0.040138 -0.010709 0.000000 0.009198 0.000000
# 3 -0.008779 -0.010709 0.028783 0.000000 0.010406 0.000000
# 4 0.000000 0.000000 0.000000 0.045719 0.000000 0.067678
# 5 -0.004860 0.009198 0.010406 0.000000 0.045567 0.000000
# 6 0.000000 0.000000 0.000000 0.067678 0.000000 -0.015911
#
#
# Mechanical properties :
#
#
# Convention : Reuss Voigt Hill
#
# Bulk Modulus (GPa) = 31.95438 49.15679 40.55559
# Shear Modulus (GPa) = 22.68275 11.70316 17.19296
#
# Velocity S-wave (km/s) = 3.73202 2.68070 3.24916
# Velocity P-wave (km/s) = 6.17995 6.30599 6.24329
#
# Compressibility (1/GPa) = 0.03129461
#
# Stress axis : x y z
#
# Youngs Moduli (GPa) = 71.23103 24.91428 34.74231
#
# Poissons Ratio (x) = 0.15807 0.30501
# Poissons Ratio (y) = 0.45192 0.37206
# Poissons Ratio (z) = 0.62535 0.26681
#
# Static dielectric constant tensor:
#      x y z
#    x 1.557920 0.000000 0.003120 
#    y 0.000000 1.550440 0.000000 
#    z 0.003120 0.000000 1.555830 
# 
# From -- ./inp_files/69989.got.cif
#   From: 2010.05.17/outbox.cif.g08.bks.cpg/sg10_35_cif.got.tgz:69989.got - 2010.06.03 11:33:40.
