data_PCOD9142634
_publ_section_title
;
Structure prediction by ZEFSAII (Michael W. Deem and Ramdas Pophale) SiO2 
 PCOD9142634
Probable space group: P 2/M
;
_chemical_formula_sum "Si O2"
_cell_formula_units_Z 28
_cell_length_a 11.917468
_cell_length_b 13.198475
_cell_length_c 10.233951
_cell_angle_alpha 90.000000
_cell_angle_beta 97.216045
_cell_angle_gamma 90.000000
_cell_volume 1596.973044
_symmetry_space_group_name_H-M "P 2/M"
_symmetry_group_IT_number 10
_symmetry_cell_setting 'monoclinic'
loop_
_space_group_symop_operation_xyz
x,y,z
-x,y,-z
-x,-y,-z
x,-y,z
loop_
_atom_site_type_symbol
_atom_site_label
_atom_site_fract_x
_atom_site_fract_y
_atom_site_fract_z
Si Si1 0.340589 0.755581 0.694967
Si Si2 0.341315 0.885453 0.454633
Si Si3 0.537153 0.887234 0.809309
Si Si4 0.372330 0.381542 0.923813
Si Si5 0.138616 0.117109 0.758571
Si Si6 0.242592 0.800412 0.032661
Si Si7 0.875960 0.117027 0.741916
O O1 0.370250 0.791930 0.553187
O O2 0.427866 0.818432 0.797708
O O3 0.356608 0.647562 0.766985
O O4 0.216625 0.803294 0.694247
O O5 0.411434 0.882436 0.330270
O O6 0.211086 0.877646 0.390706
O O7 0.359497 0.000000 0.514470
O O8 0.640058 0.855325 0.915133
O O9 0.501834 0.000000 0.833547
O O10 0.349233 0.500000 0.939856
O O11 0.500000 0.363455 0.000000
O O12 0.282923 0.309075 0.986037
O O13 0.005264 0.133589 0.722755
O O14 0.164375 0.000000 0.728237
O O15 0.173360 0.139301 0.913067
O O16 0.168035 0.806989 0.153074
O O17 0.866453 0.000000 0.791049
#
# Coordination Sequence:
#
# PCOD9142634 Si02
#       7
#     4   4   4   4   4   4   4
#     4  11  20  31  49  73  97 133 170 202 244 295
#     4   9  18  31  48  71 104 141 170 194 229 285
#     4  10  18  29  47  75 108 136 160 192 239 297
#     4  10  21  38  54  71  96 125 161 212 267 303
#     4  10  19  28  45  74 108 139 167 200 235 284
#     4  10  18  31  51  73  95 132 167 200 248 298
#     4   9  18  32  49  73 107 143 169 193 231 284
#
# _framework density 17.533169999999998
#
# number of rings (size 3 to 8) (size 9 to 14) (size 15 to 20)
#    0.000    2.143    1.429    4.286    0.000    2.857 
#    0.000    4.286    0.000   12.000    0.000    4.000 
#    0.000    0.000    0.000    0.000    0.000    0.000 
#
# Total GULP energy -156033.669910 kJ/mol
# GULP energy per Si atom -5572.631068 kJ/mol
# Density = 1.749326 g / cm^3
# Si number density = 17.533170 Si / 1000 Ang^3
#
#
#
# Elastic Constant Matrix: (Units=GPa)
#
#
# Indices 1 2 3 4 5 6 
#
# 1 87.3638 18.7360 8.2367 0.0000 16.7123 0.0000
# 2 18.7360 64.0699 8.9622 0.0000 1.8763 0.0000
# 3 8.2367 8.9622 57.1504 0.0000 1.4288 0.0000
# 4 0.0000 0.0000 0.0000 21.5049 0.0000 -0.2780
# 5 16.7123 1.8763 1.4288 0.0000 16.1731 0.0000
# 6 0.0000 0.0000 0.0000 -0.2780 0.0000 18.1746
#
#
#
# Elastic Compliance Matrix: (Units=1/GPa)
#
#
# Indices 1 2 3 4 5 6 
#
# 1 0.015309 -0.003859 -0.001220 0.000000 -0.015264 0.000000
# 2 -0.003859 0.016974 -0.002161 0.000000 0.002210 0.000000
# 3 -0.001220 -0.002161 0.018014 0.000000 -0.000081 0.000000
# 4 0.000000 0.000000 0.000000 0.046510 0.000000 0.000711
# 5 -0.015264 0.002210 -0.000081 0.000000 0.077355 0.000000
# 6 0.000000 0.000000 0.000000 0.000711 0.000000 0.055033
#
#
# Mechanical properties :
#
#
# Convention : Reuss Voigt Hill
#
# Bulk Modulus (GPa) = 27.91889 31.16154 29.54021
# Shear Modulus (GPa) = 19.56077 22.68046 21.12061
#
# Velocity S-wave (km/s) = 3.34375 3.60053 3.47451
# Velocity P-wave (km/s) = 5.55568 5.92424 5.74292
#
# Compressibility (1/GPa) = 0.03581804
#
# Stress axis : x y z
#
# Youngs Moduli (GPa) = 65.32134 58.91346 55.51135
#
# Poissons Ratio (x) = 0.22736 0.06770
# Poissons Ratio (y) = 0.25209 0.11995
# Poissons Ratio (z) = 0.07966 0.12730
#
# Static dielectric constant tensor:
#      x y z
#    x 1.617960 0.000000 -0.025270 
#    y 0.000000 1.583630 0.000000 
#    z -0.025270 0.000000 1.668860 
# 
# From -- ./inp_files/46034.got.cif
#   From: 2010.05.17/outbox.cif.g08.bks.cpg/sg10_24_cif.got.tgz:46034.got - 2010.06.03 11:33:40.
