data_PCOD9142345
_publ_section_title
;
Structure prediction by ZEFSAII (Michael W. Deem and Ramdas Pophale) SiO2 
 PCOD9142345
Probable space group: P 2/M
;
_chemical_formula_sum "Si O2"
_cell_formula_units_Z 28
_cell_length_a 18.566500
_cell_length_b 7.645782
_cell_length_c 12.043071
_cell_angle_alpha 90.000000
_cell_angle_beta 125.678310
_cell_angle_gamma 90.000000
_cell_volume 1388.698582
_symmetry_space_group_name_H-M "P 2/M"
_symmetry_group_IT_number 10
_symmetry_cell_setting 'monoclinic'
loop_
_space_group_symop_operation_xyz
x,y,z
-x,y,-z
-x,-y,-z
x,-y,z
loop_
_atom_site_type_symbol
_atom_site_label
_atom_site_fract_x
_atom_site_fract_y
_atom_site_fract_z
Si Si1 0.917146 0.200846 0.861182
Si Si2 0.373641 0.795013 0.433700
Si Si3 0.800386 0.207684 0.565544
Si Si4 0.757254 0.301364 0.864191
Si Si5 0.666000 0.209658 0.999412
Si Si6 0.519442 0.214170 0.268447
Si Si7 0.688097 0.785701 0.269659
O O1 0.879131 0.281562 0.712609
O O2 0.832920 0.196145 0.868138
O O3 0.942703 0.000000 0.857997
O O4 0.000000 0.282638 0.000000
O O5 0.289120 0.778654 0.440916
O O6 0.335467 0.716994 0.286438
O O7 0.454126 0.728012 0.582709
O O8 0.389101 0.000000 0.424608
O O9 0.771107 0.275746 0.419087
O O10 0.817378 0.000000 0.569053
O O11 0.786384 0.500000 0.883462
O O12 0.740049 0.249308 0.974746
O O13 0.572910 0.275252 0.865408
O O14 0.657319 0.000000 0.999631
O O15 0.685348 0.274641 0.140533
O O16 0.598216 0.262517 0.254356
O O17 0.518366 0.000000 0.272685
O O18 0.690344 0.000000 0.271921
#
# Coordination Sequence:
#
# PCOD9142345 Si02
#       7
#     4   4   4   4   4   4   4
#     4   9  17  32  56  79  94 110 138 181 231 281
#     4   8  14  28  47  64  87 118 153 193 233 270
#     4   7  11  22  43  71  95 111 135 179 229 269
#     4  11  22  33  44  63  95 127 153 183 224 274
#     4  10  18  28  45  67  92 124 160 193 227 268
#     4   8  14  25  45  71  91 113 155 207 241 259
#     4   8  13  23  43  70  95 118 150 193 232 264
#
# _framework density 20.162763000000002
#
# number of rings (size 3 to 8) (size 9 to 14) (size 15 to 20)
#    0.000    3.286    0.000    4.286    0.000    2.571 
#    0.000    3.571    0.000   10.286    0.000    6.000 
#    0.000    0.000    0.000    0.000    0.000    0.000 
#
# Total GULP energy -156002.492455 kJ/mol
# GULP energy per Si atom -5571.517588 kJ/mol
# Density = 2.011687 g / cm^3
# Si number density = 20.162763 Si / 1000 Ang^3
#
#
#
# Elastic Constant Matrix: (Units=GPa)
#
#
# Indices 1 2 3 4 5 6 
#
# 1 37.0164 -5.8028 52.9824 0.0000 -9.5365 0.0000
# 2 -5.8028 33.4495 14.0415 0.0000 1.0080 0.0000
# 3 52.9824 14.0415 177.2316 0.0000 -4.3294 0.0000
# 4 0.0000 0.0000 0.0000 -87.6482 0.0000 41.4783
# 5 -9.5365 1.0080 -4.3294 0.0000 37.3450 0.0000
# 6 0.0000 0.0000 0.0000 41.4783 0.0000 -202.4919
#
#
#
# Elastic Compliance Matrix: (Units=1/GPa)
#
#
# Indices 1 2 3 4 5 6 
#
# 1 0.060833 0.018278 -0.019321 0.000000 0.012801 0.000000
# 2 0.018278 0.036463 -0.008287 0.000000 0.002723 0.000000
# 3 -0.019321 -0.008287 0.011994 0.000000 -0.003320 0.000000
# 4 0.000000 0.000000 0.000000 -0.012634 0.000000 -0.002588
# 5 0.012801 0.002723 -0.003320 0.000000 0.029588 0.000000
# 6 0.000000 0.000000 0.000000 -0.002588 0.000000 -0.005469
#
#
# Mechanical properties :
#
#
# Convention : Reuss Voigt Hill
#
# Bulk Modulus (GPa) = 11.03372 41.12664 26.08018
# Shear Modulus (GPa) = 29.47328 -38.12727 -4.32699
#
# Velocity S-wave (km/s) = 3.82746 -4.35325 -1.46652
# Velocity P-wave (km/s) = 5.00168 2.19684 3.17731
#
# Compressibility (1/GPa) = 0.09063126
#
# Stress axis : x y z
#
# Youngs Moduli (GPa) = 16.43836 27.42489 83.37691
#
# Poissons Ratio (x) = -0.50128 1.61094
# Poissons Ratio (y) = -0.30046 0.69091
# Poissons Ratio (z) = 0.31761 0.22726
#
# Static dielectric constant tensor:
#      x y z
#    x 1.690620 0.000000 0.005150 
#    y 0.000000 1.746750 0.000000 
#    z 0.005150 0.000000 1.775910 
# 
# From -- ./inp_files/54997.got.cif
#   From: 2010.05.17/outbox.cif.g08.bks.cpg/sg10_28_cif.got.tgz:54997.got - 2010.06.03 11:33:40.
