data_PCOD9142696
_publ_section_title
;
Structure prediction by ZEFSAII (Michael W. Deem and Ramdas Pophale) SiO2 
 PCOD9142696
Probable space group: P 2/M
;
_chemical_formula_sum "Si O2"
_cell_formula_units_Z 32
_cell_length_a 14.538569
_cell_length_b 8.128129
_cell_length_c 15.278294
_cell_angle_alpha 90.000000
_cell_angle_beta 88.792811
_cell_angle_gamma 90.000000
_cell_volume 1805.056121
_symmetry_space_group_name_H-M "P 2/M"
_symmetry_group_IT_number 10
_symmetry_cell_setting 'monoclinic'
loop_
_space_group_symop_operation_xyz
x,y,z
-x,y,-z
-x,-y,-z
x,-y,z
loop_
_atom_site_type_symbol
_atom_site_label
_atom_site_fract_x
_atom_site_fract_y
_atom_site_fract_z
Si Si1 0.828980 0.803615 0.820279
Si Si2 0.529344 0.805796 0.594926
Si Si3 0.304870 0.199228 0.016290
Si Si4 0.215120 0.695024 0.839287
Si Si5 0.532892 0.189332 0.873568
Si Si6 0.388674 0.693787 0.743895
Si Si7 0.333019 0.689241 0.274139
Si Si8 0.016608 0.698437 0.899214
O O1 0.767009 0.755437 0.905831
O O2 0.773678 0.729476 0.739124
O O3 0.930845 0.744164 0.840121
O O4 0.828455 0.000000 0.813109
O O5 0.500000 0.744549 0.500000
O O6 0.446586 0.776944 0.665592
O O7 0.619814 0.721227 0.633789
O O8 0.547655 0.000000 0.588830
O O9 0.407227 0.249317 0.045131
O O10 0.305163 0.000000 0.008826
O O11 0.267588 0.277538 0.929464
O O12 0.206650 0.500000 0.823200
O O13 0.286189 0.760160 0.764823
O O14 0.112638 0.762198 0.856932
O O15 0.448106 0.282355 0.831858
O O16 0.609696 0.197093 0.794380
O O17 0.505569 0.000000 0.888591
O O18 0.384907 0.500000 0.725091
O O19 0.350237 0.500000 0.248945
O O20 0.022751 0.500000 0.904206
O O21 0.000000 0.757928 0.000000
#
# Coordination Sequence:
#
# PCOD9142696 Si02
#       8
#     4   4   4   4   4   4   4   4
#     4  10  19  31  47  69  98 130 168 213 253 289
#     4  10  20  35  56  80 104 128 155 191 237 293
#     4   9  18  29  43  63  88 124 166 206 246 285
#     4  10  21  33  45  65  94 127 167 210 249 287
#     4   9  17  30  45  64  92 126 164 203 240 283
#     4  10  20  33  48  69  97 128 160 198 241 291
#     4  10  18  29  49  75 101 129 160 196 241 292
#     4  10  19  32  49  68  92 129 175 219 256 289
#
# _framework density 17.727981
#
# number of rings (size 3 to 8) (size 9 to 14) (size 15 to 20)
#    0.000    2.250    1.250    4.875    0.000    5.750 
#    0.000    2.500    0.000    0.000    0.000    0.875 
#    0.000    7.000    0.000    0.000    0.000    0.000 
#
# Total GULP energy -178440.736241 kJ/mol
# GULP energy per Si atom -5576.273008 kJ/mol
# Density = 1.768763 g / cm^3
# Si number density = 17.727981 Si / 1000 Ang^3
#
#
#
# Elastic Constant Matrix: (Units=GPa)
#
#
# Indices 1 2 3 4 5 6 
#
# 1 139.4981 3.8345 49.9844 0.0000 14.5815 0.0000
# 2 3.8345 23.2765 4.2577 0.0000 0.4351 0.0000
# 3 49.9844 4.2577 71.6879 0.0000 16.3380 0.0000
# 4 0.0000 0.0000 0.0000 21.4783 0.0000 9.3814
# 5 14.5815 0.4351 16.3380 0.0000 19.0090 0.0000
# 6 0.0000 0.0000 0.0000 9.3814 0.0000 3.5804
#
#
#
# Elastic Compliance Matrix: (Units=1/GPa)
#
#
# Indices 1 2 3 4 5 6 
#
# 1 0.009621 -0.000409 -0.006223 0.000000 -0.002022 0.000000
# 2 -0.000409 0.043486 -0.002664 0.000000 0.001608 0.000000
# 3 -0.006223 -0.002664 0.021570 0.000000 -0.013704 0.000000
# 4 0.000000 0.000000 0.000000 -0.322271 0.000000 0.844419
# 5 -0.002022 0.001608 -0.013704 0.000000 0.065900 0.000000
# 6 0.000000 0.000000 0.000000 0.844419 0.000000 -1.933260
#
#
# Mechanical properties :
#
#
# Convention : Reuss Voigt Hill
#
# Bulk Modulus (GPa) = 17.83008 38.95733 28.39371
# Shear Modulus (GPa) = -2.40655 20.57260 9.08303
#
# Velocity S-wave (km/s) = -1.16638 3.41025 2.26598
# Velocity P-wave (km/s) = 2.87498 6.12610 4.78512
#
# Compressibility (1/GPa) = 0.05608498
#
# Stress axis : x y z
#
# Youngs Moduli (GPa) = 103.93923 22.99570 46.36077
#
# Poissons Ratio (x) = 0.00940 0.28851
# Poissons Ratio (y) = 0.04249 0.12352
# Poissons Ratio (z) = 0.64683 0.06127
#
# Static dielectric constant tensor:
#      x y z
#    x 1.652670 0.000000 -0.004980 
#    y 0.000000 1.610950 0.000000 
#    z -0.004980 0.000000 1.614810 
# 
# From -- ./inp_files/66189.got.cif
#   From: 2010.05.17/outbox.cif.g08.bks.cpg/sg10_34_cif.got.tgz:66189.got - 2010.06.03 11:33:40.
