data_PCOD9142947
_publ_section_title
;
Structure prediction by ZEFSAII (Michael W. Deem and Ramdas Pophale) SiO2 
 PCOD9142947
Probable space group: P 2/M
;
_chemical_formula_sum "Si O2"
_cell_formula_units_Z 32
_cell_length_a 23.687274
_cell_length_b 13.656681
_cell_length_c 10.475345
_cell_angle_alpha 90.000000
_cell_angle_beta 31.413062
_cell_angle_gamma 90.000000
_cell_volume 1766.186236
_symmetry_space_group_name_H-M "P 2/M"
_symmetry_group_IT_number 10
_symmetry_cell_setting 'monoclinic'
loop_
_space_group_symop_operation_xyz
x,y,z
-x,y,-z
-x,-y,-z
x,-y,z
loop_
_atom_site_type_symbol
_atom_site_label
_atom_site_fract_x
_atom_site_fract_y
_atom_site_fract_z
Si Si1 0.876722 0.799696 0.416811
Si Si2 0.078073 0.888900 0.176148
Si Si3 0.337623 0.883683 0.045555
Si Si4 0.957114 0.386291 0.380849
Si Si5 0.381357 0.234477 0.703662
Si Si6 0.421565 0.883494 0.367374
Si Si7 0.149914 0.307301 0.153138
Si Si8 0.208438 0.887076 0.663484
O O1 0.912579 0.687752 0.361967
O O2 0.865254 0.829056 0.292237
O O3 0.964451 0.861296 0.328944
O O4 0.760789 0.825304 0.702098
O O5 0.112122 0.806444 0.211950
O O6 0.078699 0.000000 0.223801
O O7 0.162046 0.882268 0.896030
O O8 0.357884 0.840996 0.864836
O O9 0.451146 0.869111 0.901328
O O10 0.314833 0.000000 0.085741
O O11 0.942980 0.500000 0.382559
O O12 0.891877 0.354047 0.634889
O O13 0.082222 0.361539 0.173038
O O14 0.500000 0.279897 0.500000
O O15 0.391665 0.174589 0.553003
O O16 0.278942 0.306419 0.894615
O O17 0.333719 0.855439 0.430208
O O18 0.406352 0.000000 0.418859
O O19 0.204946 0.000000 0.627300
#
# Coordination Sequence:
#
# PCOD9142947 Si02
#       8
#     4   4   4   4   4   4   4   4
#     4  11  21  34  50  76  99 138 185 218 260 306
#     4  10  20  32  49  76 114 146 169 204 253 309
#     4  10  19  30  47  75 113 143 176 216 245 297
#     4  10  22  40  58  75 100 129 169 228 287 326
#     4  10  18  30  49  77 111 139 172 207 249 306
#     4   9  18  31  47  72 107 156 183 197 243 297
#     4  10  18  34  56  81  99 134 175 204 259 325
#     4  10  19  32  50  74 111 150 181 206 242 300
#
# _framework density 18.118134000000001
#
# number of rings (size 3 to 8) (size 9 to 14) (size 15 to 20)
#    0.000    2.000    2.500    2.625    0.000    3.500 
#    0.000    3.750    0.000    8.250    0.000    1.750 
#    0.000    0.000    0.000    0.000    0.000    0.000 
#
# Total GULP energy -178598.850308 kJ/mol
# GULP energy per Si atom -5581.214072 kJ/mol
# Density = 1.807690 g / cm^3
# Si number density = 18.118134 Si / 1000 Ang^3
#
#
#
# Elastic Constant Matrix: (Units=GPa)
#
#
# Indices 1 2 3 4 5 6 
#
# 1 63.5727 25.6919 28.2323 0.0000 -23.5975 0.0000
# 2 25.6919 91.7596 20.9353 0.0000 -13.3219 0.0000
# 3 28.2323 20.9353 96.9297 0.0000 -35.4766 0.0000
# 4 0.0000 0.0000 0.0000 8.9879 0.0000 0.9175
# 5 -23.5975 -13.3219 -35.4766 0.0000 32.8949 0.0000
# 6 0.0000 0.0000 0.0000 0.9175 0.0000 12.6734
#
#
#
# Elastic Compliance Matrix: (Units=1/GPa)
#
#
# Indices 1 2 3 4 5 6 
#
# 1 0.022942 -0.004239 -0.000614 0.000000 0.014079 0.000000
# 2 -0.004239 0.012462 -0.001194 0.000000 0.000718 0.000000
# 3 -0.000614 -0.001194 0.017208 0.000000 0.017634 0.000000
# 4 0.000000 0.000000 0.000000 0.112089 0.000000 -0.008115
# 5 0.014079 0.000718 0.017634 0.000000 0.059809 0.000000
# 6 0.000000 0.000000 0.000000 -0.008115 0.000000 0.079493
#
#
# Mechanical properties :
#
#
# Convention : Reuss Voigt Hill
#
# Bulk Modulus (GPa) = 24.68099 44.66453 34.67276
# Shear Modulus (GPa) = 15.16984 22.73807 18.95395
#
# Velocity S-wave (km/s) = 2.89671 3.54643 3.23790
# Velocity P-wave (km/s) = 4.98395 6.44010 5.75824
#
# Compressibility (1/GPa) = 0.04051701
#
# Stress axis : x y z
#
# Youngs Moduli (GPa) = 43.58867 80.24592 58.11376
#
# Poissons Ratio (x) = 0.34020 0.03566
# Poissons Ratio (y) = 0.18479 0.06939
# Poissons Ratio (z) = 0.02674 0.09581
#
# Static dielectric constant tensor:
#      x y z
#    x 1.656070 0.000000 -0.011830 
#    y 0.000000 1.589260 0.000000 
#    z -0.011830 0.000000 1.674050 
# 
# From -- ./inp_files/56952.got.cif
#   From: 2010.05.17/outbox.cif.g08.bks.cpg/sg10_29_cif.got.tgz:56952.got - 2010.06.03 11:33:40.
