data_PCOD9142086
_publ_section_title
;
Structure prediction by ZEFSAII (Michael W. Deem and Ramdas Pophale) SiO2 
 PCOD9142086
Probable space group: P 2/M
;
_chemical_formula_sum "Si O2"
_cell_formula_units_Z 28
_cell_length_a 16.302578
_cell_length_b 7.352693
_cell_length_c 12.702739
_cell_angle_alpha 90.000000
_cell_angle_beta 132.926939
_cell_angle_gamma 90.000000
_cell_volume 1114.919006
_symmetry_space_group_name_H-M "P 2/M"
_symmetry_group_IT_number 10
_symmetry_cell_setting 'monoclinic'
loop_
_space_group_symop_operation_xyz
x,y,z
-x,y,-z
-x,-y,-z
x,-y,z
loop_
_atom_site_type_symbol
_atom_site_label
_atom_site_fract_x
_atom_site_fract_y
_atom_site_fract_z
Si Si1 0.786463 0.278137 0.128890
Si Si2 0.851934 0.707595 0.415322
Si Si3 0.661377 0.208044 0.409091
Si Si4 0.981141 0.721427 0.721464
Si Si5 0.123046 0.721535 0.156095
Si Si6 0.537228 0.279718 0.914507
Si Si7 0.627920 0.703987 0.614591
O O1 0.783022 0.500000 0.126009
O O2 0.815681 0.214043 0.272663
O O3 0.890370 0.226323 0.146536
O O4 0.662177 0.218289 0.997149
O O5 0.882855 0.500000 0.418799
O O6 0.746195 0.706664 0.400166
O O7 0.946087 0.786253 0.574594
O O8 0.544151 0.213169 0.246622
O O9 0.654416 0.305133 0.513809
O O10 0.693654 0.000000 0.455394
O O11 0.976373 0.500000 0.714723
O O12 0.897925 0.776654 0.740527
O O13 0.126508 0.500000 0.150646
O O14 0.250986 0.779077 0.235311
O O15 0.000000 0.773425 0.000000
O O16 0.533254 0.500000 0.911334
O O17 0.500000 0.223067 0.000000
O O18 0.500000 0.786170 0.500000
O O19 0.614801 0.500000 0.649216
#
# Coordination Sequence:
#
# PCOD9142086 Si02
#       7
#     4   4   4   4   4   4   4
#     4   9  17  28  49  82 111 140 181 231 279 324
#     4  10  17  32  55  79 107 141 187 229 273 322
#     4  12  24  36  55  81 112 151 192 227 276 336
#     4   9  16  27  50  82 113 138 172 226 279 330
#     4   9  17  30  52  85 116 138 168 224 290 338
#     4  10  19  34  55  80 112 148 188 233 278 324
#     4  10  21  39  63  88 110 140 186 239 291 342
#
# _framework density 25.113931000000001
#
# number of rings (size 3 to 8) (size 9 to 14) (size 15 to 20)
#    0.000    2.143    2.857    1.714    0.000    3.429 
#    0.000    4.286    0.000    3.000    0.000    0.000 
#    0.000    0.000    0.000    0.000    0.000    0.000 
#
# Total GULP energy -156256.539899 kJ/mol
# GULP energy per Si atom -5580.590711 kJ/mol
# Density = 2.505677 g / cm^3
# Si number density = 25.113931 Si / 1000 Ang^3
#
#
#
# Elastic Constant Matrix: (Units=GPa)
#
#
# Indices 1 2 3 4 5 6 
#
# 1 97.0350 -2.9571 31.4491 0.0000 52.5739 0.0000
# 2 -2.9571 103.6436 1.1230 0.0000 4.8736 0.0000
# 3 31.4491 1.1230 150.8217 0.0000 53.4066 0.0000
# 4 0.0000 0.0000 0.0000 215.8733 0.0000 41.6130
# 5 52.5739 4.8736 53.4066 0.0000 56.2428 0.0000
# 6 0.0000 0.0000 0.0000 41.6130 0.0000 -2.3994
#
#
#
# Elastic Compliance Matrix: (Units=1/GPa)
#
#
# Indices 1 2 3 4 5 6 
#
# 1 0.022812 0.001805 0.004273 0.000000 -0.025538 0.000000
# 2 0.001805 0.009842 0.000678 0.000000 -0.003184 0.000000
# 3 0.004273 0.000678 0.010801 0.000000 -0.014310 0.000000
# 4 0.000000 0.000000 0.000000 0.001067 0.000000 0.018498
# 5 -0.025538 -0.003184 -0.014310 0.000000 0.055516 0.000000
# 6 0.000000 0.000000 0.000000 0.018498 0.000000 -0.095960
#
#
# Mechanical properties :
#
#
# Convention : Reuss Voigt Hill
#
# Bulk Modulus (GPa) = 17.55358 45.63671 31.59515
# Shear Modulus (GPa) = 523.24007 75.40235 299.32121
#
# Velocity S-wave (km/s) = 14.44987 5.48537 10.92905
# Velocity P-wave (km/s) = 16.89388 7.63743 13.10980
#
# Compressibility (1/GPa) = 0.05696843
#
# Stress axis : x y z
#
# Youngs Moduli (GPa) = 43.83583 101.60183 92.58034
#
# Poissons Ratio (x) = -0.18344 -0.39559
# Poissons Ratio (y) = -0.07914 -0.06275
# Poissons Ratio (z) = -0.18731 -0.06886
#
# Static dielectric constant tensor:
#      x y z
#    x 2.042340 0.000000 0.110490 
#    y 0.000000 2.137280 0.000000 
#    z 0.110490 0.000000 2.068970 
# 
# From -- ./inp_files/68663.got.cif
#   From: 2010.05.17/outbox.cif.g08.bks.cpg/sg10_35_cif.got.tgz:68663.got - 2010.06.03 11:33:40.
