data_PCOD9142570
_publ_section_title
;
Structure prediction by ZEFSAII (Michael W. Deem and Ramdas Pophale) SiO2 
 PCOD9142570
Probable space group: P 2/M
;
_chemical_formula_sum "Si O2"
_cell_formula_units_Z 24
_cell_length_a 15.298608
_cell_length_b 8.092555
_cell_length_c 12.437705
_cell_angle_alpha 90.000000
_cell_angle_beta 105.709041
_cell_angle_gamma 90.000000
_cell_volume 1482.333106
_symmetry_space_group_name_H-M "P 2/M"
_symmetry_group_IT_number 10
_symmetry_cell_setting 'monoclinic'
loop_
_space_group_symop_operation_xyz
x,y,z
-x,y,-z
-x,-y,-z
x,-y,z
loop_
_atom_site_type_symbol
_atom_site_label
_atom_site_fract_x
_atom_site_fract_y
_atom_site_fract_z
Si Si1 0.937689 0.000000 0.814238
Si Si2 0.824907 0.314821 0.730565
Si Si3 0.134389 0.000000 0.962307
Si Si4 0.246566 0.685218 0.047552
Si Si5 0.352478 0.194175 0.432196
Si Si6 0.549581 0.196831 0.906068
Si Si7 0.478551 0.696569 0.658598
O O1 0.896501 0.834273 0.748203
O O2 0.046208 0.000000 0.857784
O O3 0.902234 0.000000 0.926437
O O4 0.862716 0.500000 0.730575
O O5 0.781084 0.304927 0.835772
O O6 0.741535 0.285303 0.621878
O O7 0.194010 0.834231 0.971694
O O8 0.222578 0.500000 0.002196
O O9 0.353853 0.713908 0.073368
O O10 0.428950 0.255318 0.373563
O O11 0.396545 0.225907 0.563081
O O12 0.338429 0.000000 0.409553
O O13 0.488765 0.240838 0.782847
O O14 0.566402 0.000000 0.911774
O O15 0.500000 0.242358 0.000000
O O16 0.469688 0.500000 0.653141
#
# Coordination Sequence:
#
# PCOD9142570 Si02
#       7
#     2   4   2   4   4   4   4
#     4   9  18  30  46  68  92 129 155 199 248 292
#     4  10  18  29  46  70  98 127 162 198 239 294
#     4   9  18  32  47  65  95 122 164 200 242 296
#     4  10  19  31  49  68  93 129 165 202 242 288
#     4  11  19  30  47  68  96 132 167 199 239 291
#     4  11  22  35  50  69  97 133 172 209 242 283
#     4  11  21  31  45  69  96 128 169 204 242 285
#
# _framework density 16.190694000000001
#
# number of rings (size 3 to 8) (size 9 to 14) (size 15 to 20)
#    0.000    1.667    3.333    4.500    0.000    2.000 
#    0.000    3.333    0.000    0.000    0.000    0.000 
#    0.000    2.667    0.000    4.667    0.000    0.333 
#
# Total GULP energy -133915.477793 kJ/mol
# GULP energy per Si atom -5579.811575 kJ/mol
# Density = 1.615384 g / cm^3
# Si number density = 16.190694 Si / 1000 Ang^3
#
#
#
# Elastic Constant Matrix: (Units=GPa)
#
#
# Indices 1 2 3 4 5 6 
#
# 1 33.2287 29.4159 29.2775 0.0000 20.0647 0.0000
# 2 29.4159 110.0303 22.1540 0.0000 17.7885 0.0000
# 3 29.2775 22.1540 80.5470 0.0000 15.4159 0.0000
# 4 0.0000 0.0000 0.0000 -2.3078 0.0000 17.2633
# 5 20.0647 17.7885 15.4159 0.0000 28.1488 0.0000
# 6 0.0000 0.0000 0.0000 17.2633 0.0000 -15.0700
#
#
#
# Elastic Compliance Matrix: (Units=1/GPa)
#
#
# Indices 1 2 3 4 5 6 
#
# 1 0.080794 -0.011358 -0.018538 0.000000 -0.040260 0.000000
# 2 -0.011358 0.011943 0.000825 0.000000 0.000097 0.000000
# 3 -0.018538 0.000825 0.018429 0.000000 0.002600 0.000000
# 4 0.000000 0.000000 0.000000 0.057247 0.000000 0.065579
# 5 -0.040260 0.000097 0.002600 0.000000 0.062738 0.000000
# 6 0.000000 0.000000 0.000000 0.065579 0.000000 0.008767
#
#
# Mechanical properties :
#
#
# Convention : Reuss Voigt Hill
#
# Bulk Modulus (GPa) = 18.85949 42.83343 30.84646
# Shear Modulus (GPa) = 15.83606 11.68478 13.76042
#
# Velocity S-wave (km/s) = 3.13085 2.68936 2.91846
# Velocity P-wave (km/s) = 4.97426 6.01303 5.51814
#
# Compressibility (1/GPa) = 0.05302370
#
# Stress axis : x y z
#
# Youngs Moduli (GPa) = 12.37717 83.72976 54.26302
#
# Poissons Ratio (x) = 0.95104 1.00592
# Poissons Ratio (y) = 0.14059 -0.04477
# Poissons Ratio (z) = 0.22945 -0.06909
#
# Static dielectric constant tensor:
#      x y z
#    x 1.508610 0.000000 0.016040 
#    y 0.000000 1.569440 0.000000 
#    z 0.016040 0.000000 1.535850 
# 
# From -- ./inp_files/48897.got.cif
#   From: 2010.05.17/outbox.cif.g08.bks.cpg/sg10_25_cif.got.tgz:48897.got - 2010.06.03 11:33:40.
