data_PCOD9142328
_publ_section_title
;
Structure prediction by ZEFSAII (Michael W. Deem and Ramdas Pophale) SiO2 
 PCOD9142328
Probable space group: P 2/M
;
_chemical_formula_sum "Si O2"
_cell_formula_units_Z 32
_cell_length_a 19.953490
_cell_length_b 8.664606
_cell_length_c 12.928577
_cell_angle_alpha 90.000000
_cell_angle_beta 116.908433
_cell_angle_gamma 90.000000
_cell_volume 1993.206263
_symmetry_space_group_name_H-M "P 2/M"
_symmetry_group_IT_number 10
_symmetry_cell_setting 'monoclinic'
loop_
_space_group_symop_operation_xyz
x,y,z
-x,y,-z
-x,-y,-z
x,-y,z
loop_
_atom_site_type_symbol
_atom_site_label
_atom_site_fract_x
_atom_site_fract_y
_atom_site_fract_z
Si Si1 0.664686 0.316172 0.216605
Si Si2 0.911354 0.814545 0.271227
Si Si3 0.074271 0.685022 0.329978
Si Si4 0.824892 0.686356 0.409342
Si Si5 0.655510 0.812902 0.978583
Si Si6 0.812008 0.187734 0.002743
Si Si7 0.508580 0.820723 0.131224
Si Si8 0.080824 0.186591 0.105506
O O1 0.665662 0.500000 0.205246
O O2 0.738165 0.267915 0.332057
O O3 0.585092 0.266940 0.209632
O O4 0.669518 0.241976 0.105745
O O5 0.873259 0.754346 0.348949
O O6 0.994572 0.749421 0.313796
O O7 0.914273 0.000000 0.274727
O O8 0.860557 0.766468 0.137199
O O9 0.070685 0.500000 0.325708
O O10 0.138250 0.733074 0.456447
O O11 0.088332 0.746244 0.224769
O O12 0.828685 0.500000 0.405472
O O13 0.726075 0.762307 0.959085
O O14 0.572169 0.760845 0.886017
O O15 0.653306 0.000000 0.979043
O O16 0.854480 0.238174 0.928910
O O17 0.812034 0.000000 0.001595
O O18 0.517316 0.000000 0.166150
O O19 0.500000 0.814838 0.000000
O O20 0.082174 0.000000 0.113098
O O21 0.000000 0.229157 0.000000
#
# Coordination Sequence:
#
# PCOD9142328 Si02
#       8
#     4   4   4   4   4   4   4   4
#     4  10  18  28  44  66  94 127 159 190 231 276
#     4  11  20  33  53  74  95 125 165 201 238 284
#     4  11  23  37  50  67  97 131 164 200 242 286
#     4  10  22  36  47  67 100 134 162 197 240 284
#     4   9  16  29  46  67  95 127 156 185 234 289
#     4   9  17  30  50  72  96 124 153 196 243 280
#     4   8  15  26  42  64  93 125 155 186 227 284
#     4  10  19  35  54  72  94 120 159 206 246 282
#
# _framework density 16.054535999999999
#
# number of rings (size 3 to 8) (size 9 to 14) (size 15 to 20)
#    0.000    2.250    2.500    2.250    0.000    5.500 
#    0.000    0.625    0.000    0.000    0.000    0.875 
#    0.000    7.000    0.000    0.000    0.000    0.000 
#
# Total GULP energy -178416.513579 kJ/mol
# GULP energy per Si atom -5575.516049 kJ/mol
# Density = 1.601800 g / cm^3
# Si number density = 16.054536 Si / 1000 Ang^3
#
#
#
# Elastic Constant Matrix: (Units=GPa)
#
#
# Indices 1 2 3 4 5 6 
#
# 1 161.5047 27.9876 83.2750 0.0000 21.5050 0.0000
# 2 27.9876 13.2224 25.0556 0.0000 1.0224 0.0000
# 3 83.2750 25.0556 113.3570 0.0000 1.4572 0.0000
# 4 0.0000 0.0000 0.0000 19.9176 0.0000 14.9932
# 5 21.5050 1.0224 1.4572 0.0000 14.6525 0.0000
# 6 0.0000 0.0000 0.0000 14.9932 0.0000 86.3965
#
#
#
# Elastic Compliance Matrix: (Units=1/GPa)
#
#
# Indices 1 2 3 4 5 6 
#
# 1 0.016098 -0.018102 -0.007547 0.000000 -0.021613 0.000000
# 2 -0.018102 0.151061 -0.020323 0.000000 0.018048 0.000000
# 3 -0.007547 -0.020323 0.018721 0.000000 0.010633 0.000000
# 4 0.000000 0.000000 0.000000 0.057751 0.000000 -0.010022
# 5 -0.021613 0.018048 0.010633 0.000000 0.097651 0.000000
# 6 0.000000 0.000000 0.000000 -0.010022 0.000000 0.013314
#
#
# Mechanical properties :
#
#
# Convention : Reuss Voigt Hill
#
# Bulk Modulus (GPa) = 10.64553 62.30226 36.47389
# Shear Modulus (GPa) = 10.46347 34.31105 22.38726
#
# Velocity S-wave (km/s) = 2.55570 4.62795 3.73829
# Velocity P-wave (km/s) = 3.91842 8.21268 6.43437
#
# Compressibility (1/GPa) = 0.09393615
#
# Stress axis : x y z
#
# Youngs Moduli (GPa) = 62.12003 6.61983 53.41486
#
# Poissons Ratio (x) = 0.11983 0.40312
# Poissons Ratio (y) = 1.12448 1.08557
# Poissons Ratio (z) = 0.46882 0.13454
#
# Static dielectric constant tensor:
#      x y z
#    x 1.558390 0.000000 0.023170 
#    y 0.000000 1.544890 0.000000 
#    z 0.023170 0.000000 1.514530 
# 
# From -- ./inp_files/52757.got.cif
#   From: 2010.05.17/outbox.cif.g08.bks.cpg/sg10_27_cif.got.tgz:52757.got - 2010.06.03 11:33:40.
