data_PCOD9142571
_publ_section_title
;
Structure prediction by ZEFSAII (Michael W. Deem and Ramdas Pophale) SiO2 
 PCOD9142571
Probable space group: P 2/M
;
_chemical_formula_sum "Si O2"
_cell_formula_units_Z 32
_cell_length_a 18.578848
_cell_length_b 13.792655
_cell_length_c 18.448791
_cell_angle_alpha 90.000000
_cell_angle_beta 155.885409
_cell_angle_gamma 90.000000
_cell_volume 1931.494627
_symmetry_space_group_name_H-M "P 2/M"
_symmetry_group_IT_number 10
_symmetry_cell_setting 'monoclinic'
loop_
_space_group_symop_operation_xyz
x,y,z
-x,y,-z
-x,-y,-z
x,-y,z
loop_
_atom_site_type_symbol
_atom_site_label
_atom_site_fract_x
_atom_site_fract_y
_atom_site_fract_z
Si Si1 0.837480 0.383705 0.255481
Si Si2 0.171497 0.193142 0.252351
Si Si3 0.749537 0.384052 0.329927
Si Si4 0.411371 0.696524 0.675666
Si Si5 0.840712 0.611780 0.678192
Si Si6 0.792367 0.114873 0.873270
Si Si7 0.583932 0.110695 0.397655
Si Si8 0.771470 0.385084 0.032608
O O1 0.813643 0.500000 0.232289
O O2 0.735145 0.350007 0.233340
O O3 0.785485 0.348108 0.128473
O O4 0.045819 0.368900 0.459893
O O5 0.189803 0.306463 0.289171
O O6 0.230557 0.166287 0.225608
O O7 0.287790 0.134891 0.417222
O O8 0.967326 0.160442 0.069332
O O9 0.715056 0.500000 0.300908
O O10 0.633781 0.332884 0.283949
O O11 0.288421 0.635849 0.507697
O O12 0.379720 0.808803 0.629383
O O13 0.613933 0.669216 0.848300
O O14 0.817428 0.500000 0.679598
O O15 0.039476 0.624311 0.831251
O O16 0.615869 0.123775 0.757661
O O17 0.822967 0.000000 0.889182
O O18 0.608014 0.000000 0.396535
O O19 0.729201 0.500000 0.995584
#
# Coordination Sequence:
#
# PCOD9142571 Si02
#       8
#     4   4   4   4   4   4   4   4
#     4   8  15  26  44  68  97 126 157 196 233 268
#     4  10  19  32  54  76  96 123 159 189 237 291
#     4   9  15  27  45  69  98 127 156 192 234 274
#     4  11  20  30  49  70  94 128 164 193 234 285
#     4  10  20  33  46  67 102 135 159 189 225 273
#     4  10  19  34  55  76  96 116 150 206 252 283
#     4  10  21  35  51  73  97 120 152 200 249 285
#     4  10  18  29  46  70  98 129 162 193 228 274
#
# _framework density 16.56748
#
# number of rings (size 3 to 8) (size 9 to 14) (size 15 to 20)
#    0.000    2.250    1.250    4.500    0.000    1.500 
#    0.000    3.125    0.000    7.500    0.000    3.500 
#    0.000    0.000    0.000    0.000    0.000    0.000 
#
# Total GULP energy -178459.635781 kJ/mol
# GULP energy per Si atom -5576.863618 kJ/mol
# Density = 1.652977 g / cm^3
# Si number density = 16.567480 Si / 1000 Ang^3
#
#
#
# Elastic Constant Matrix: (Units=GPa)
#
#
# Indices 1 2 3 4 5 6 
#
# 1 20.7557 20.2713 -12.8515 0.0000 8.9722 0.0000
# 2 20.2713 88.1556 6.2350 0.0000 4.9691 0.0000
# 3 -12.8515 6.2350 40.3852 0.0000 11.0333 0.0000
# 4 0.0000 0.0000 0.0000 17.0936 0.0000 0.2387
# 5 8.9722 4.9691 11.0333 0.0000 4.2863 0.0000
# 6 0.0000 0.0000 0.0000 0.2387 0.0000 3.5623
#
#
#
# Elastic Compliance Matrix: (Units=1/GPa)
#
#
# Indices 1 2 3 4 5 6 
#
# 1 -0.009340 -0.001161 -0.028651 0.000000 0.094647 0.000000
# 2 -0.001161 0.012545 0.003381 0.000000 -0.020815 0.000000
# 3 -0.028651 0.003381 -0.000646 0.000000 0.057716 0.000000
# 4 0.000000 0.000000 0.000000 0.058556 0.000000 -0.003924
# 5 0.094647 -0.020815 0.057716 0.000000 -0.089251 0.000000
# 6 0.000000 0.000000 0.000000 -0.003924 0.000000 0.280982
#
#
# Mechanical properties :
#
#
# Convention : Reuss Voigt Hill
#
# Bulk Modulus (GPa) = -19.87956 19.62290 -0.12833
# Shear Modulus (GPa) = 17.30462 14.03120 15.66791
#
# Velocity S-wave (km/s) = 3.23537 2.91333 3.07856
# Velocity P-wave (km/s) = 1.38983 4.81525 3.54388
#
# Compressibility (1/GPa) = -0.05030293
#
# Stress axis : x y z
#
# Youngs Moduli (GPa) = -107.06266 79.71497 -1548.81688
#
# Poissons Ratio (x) = 0.09253 -44.37460
# Poissons Ratio (y) = -0.12428 5.23592
# Poissons Ratio (z) = -3.06741 -0.26948
#
# Static dielectric constant tensor:
#      x y z
#    x 1.565560 0.000000 0.009460 
#    y 0.000000 1.542600 0.000000 
#    z 0.009460 0.000000 1.579080 
# 
# From -- ./inp_files/86293.got.cif
#   From: 2010.05.17/outbox.cif.g08.bks.cpg/sg10_44_cif.got.tgz:86293.got - 2010.06.03 11:33:40.
