data_PCOD9142403
_publ_section_title
;
Structure prediction by ZEFSAII (Michael W. Deem and Ramdas Pophale) SiO2 
 PCOD9142403
Probable space group: P 2/M
;
_chemical_formula_sum "Si O2"
_cell_formula_units_Z 32
_cell_length_a 10.953617
_cell_length_b 7.306323
_cell_length_c 24.746365
_cell_angle_alpha 90.000000
_cell_angle_beta 143.943214
_cell_angle_gamma 90.000000
_cell_volume 1165.677298
_symmetry_space_group_name_H-M "P 2/M"
_symmetry_group_IT_number 10
_symmetry_cell_setting 'monoclinic'
loop_
_space_group_symop_operation_xyz
x,y,z
-x,y,-z
-x,-y,-z
x,-y,z
loop_
_atom_site_type_symbol
_atom_site_label
_atom_site_fract_x
_atom_site_fract_y
_atom_site_fract_z
Si Si1 0.346976 0.723713 0.773723
Si Si2 0.056614 0.716796 0.891498
Si Si3 0.493711 0.277203 0.936239
Si Si4 0.150666 0.288984 0.598722
Si Si5 0.797439 0.277401 0.892288
Si Si6 0.550189 0.778741 0.383560
Si Si7 0.883510 0.217815 0.720211
Si Si8 0.731660 0.217107 0.557277
O O1 0.340177 0.500000 0.771035
O O2 0.182418 0.788227 0.670026
O O3 0.573691 0.781526 0.832896
O O4 0.341608 0.785247 0.834178
O O5 0.051894 0.500000 0.895239
O O6 0.860272 0.787407 0.854500
O O7 0.055812 0.749368 0.827055
O O8 0.270666 0.772770 0.995899
O O9 0.475808 0.500000 0.931628
O O10 0.500000 0.212172 0.000000
O O11 0.090939 0.500000 0.583696
O O12 0.370931 0.286391 0.645932
O O13 0.000000 0.201762 0.500000
O O14 0.787124 0.500000 0.890032
O O15 0.000000 0.227497 0.000000
O O16 0.325805 0.716202 0.324096
O O17 0.709820 0.715724 0.488212
O O18 0.548315 0.000000 0.382162
O O19 0.880661 0.291726 0.657947
O O20 0.864174 0.000000 0.708048
O O21 0.500000 0.240188 0.500000
O O22 0.765013 0.000000 0.564512
#
# Coordination Sequence:
#
# PCOD9142403 Si02
#       8
#     4   4   4   4   4   4   4   4
#     4   9  16  29  48  67  94 134 168 201 249 299
#     4  10  18  28  46  75 102 123 162 212 250 292
#     4   9  17  30  47  69  97 130 172 212 241 283
#     4  10  21  35  49  72 104 135 166 204 258 313
#     4   9  14  23  43  70  94 117 157 208 245 284
#     4   9  17  32  54  74  95 129 172 211 244 287
#     4   9  17  30  49  74 103 131 160 198 252 310
#     4   7  12  26  47  67  89 124 164 194 227 285
#
# _framework density 27.45185
#
# number of rings (size 3 to 8) (size 9 to 14) (size 15 to 20)
#    0.000    3.000    1.250    2.250    0.000    1.750 
#    2.250    0.625    0.000    3.750    0.000    0.000 
#    0.000    0.000    0.000    0.000    0.000    0.000 
#
# Total GULP energy -178880.612580 kJ/mol
# GULP energy per Si atom -5590.019143 kJ/mol
# Density = 2.738937 g / cm^3
# Si number density = 27.451850 Si / 1000 Ang^3
#
#
#
# Elastic Constant Matrix: (Units=GPa)
#
#
# Indices 1 2 3 4 5 6 
#
# 1 101.9072 3.1848 45.2874 0.0000 -30.9097 0.0000
# 2 3.1848 118.6998 -0.1431 0.0000 4.3727 0.0000
# 3 45.2874 -0.1431 238.6849 0.0000 -34.9128 0.0000
# 4 0.0000 0.0000 0.0000 13.1634 0.0000 0.0330
# 5 -30.9097 4.3727 -34.9128 0.0000 51.1857 0.0000
# 6 0.0000 0.0000 0.0000 0.0330 0.0000 11.5650
#
#
#
# Elastic Compliance Matrix: (Units=1/GPa)
#
#
# Indices 1 2 3 4 5 6 
#
# 1 0.012460 -0.000580 -0.001396 0.000000 0.006622 0.000000
# 2 -0.000580 0.008481 -0.000047 0.000000 -0.001107 0.000000
# 3 -0.001396 -0.000047 0.004812 0.000000 0.002443 0.000000
# 4 0.000000 0.000000 0.000000 0.075969 0.000000 -0.000217
# 5 0.006622 -0.001107 0.002443 0.000000 0.025296 0.000000
# 6 0.000000 0.000000 0.000000 -0.000217 0.000000 0.086468
#
#
# Mechanical properties :
#
#
# Convention : Reuss Voigt Hill
#
# Bulk Modulus (GPa) = 46.06741 61.77223 53.91982
# Shear Modulus (GPa) = 22.24531 42.58034 32.41282
#
# Velocity S-wave (km/s) = 2.84973 3.94266 3.43988
# Velocity P-wave (km/s) = 5.25791 6.57853 5.95494
#
# Compressibility (1/GPa) = 0.02170732
#
# Stress axis : x y z
#
# Youngs Moduli (GPa) = 80.25885 117.91226 207.82242
#
# Poissons Ratio (x) = 0.06838 0.29009
# Poissons Ratio (y) = 0.04654 0.00972
# Poissons Ratio (z) = 0.11203 0.00551
#
# Static dielectric constant tensor:
#      x y z
#    x 2.183520 0.000000 0.013750 
#    y 0.000000 2.015100 0.000000 
#    z 0.013750 0.000000 2.180130 
# 
# From -- ./inp_files/50713.got.cif
#   From: 2010.05.17/outbox.cif.g08.bks.cpg/sg10_26_cif.got.tgz:50713.got - 2010.06.03 11:33:40.
