data_PCOD9142782
_publ_section_title
;
Structure prediction by ZEFSAII (Michael W. Deem and Ramdas Pophale) SiO2 
 PCOD9142782
Probable space group: P 2/M
;
_chemical_formula_sum "Si O2"
_cell_formula_units_Z 32
_cell_length_a 16.291941
_cell_length_b 8.890024
_cell_length_c 16.480470
_cell_angle_alpha 90.000000
_cell_angle_beta 109.586778
_cell_angle_gamma 90.000000
_cell_volume 2248.839282
_symmetry_space_group_name_H-M "P 2/M"
_symmetry_group_IT_number 10
_symmetry_cell_setting 'monoclinic'
loop_
_space_group_symop_operation_xyz
x,y,z
-x,y,-z
-x,-y,-z
x,-y,z
loop_
_atom_site_type_symbol
_atom_site_label
_atom_site_fract_x
_atom_site_fract_y
_atom_site_fract_z
Si Si1 0.488074 0.827041 0.093915
Si Si2 0.833910 0.318789 0.327750
Si Si3 0.020405 0.319469 0.315510
Si Si4 0.867922 0.180180 0.978395
Si Si5 0.025566 0.318475 0.129441
Si Si6 0.692371 0.320931 0.983491
Si Si7 0.902860 0.825885 0.506683
Si Si8 0.330890 0.680573 0.833123
O O1 0.577222 0.756992 0.156869
O O2 0.477148 0.000000 0.115219
O O3 0.500000 0.824249 0.000000
O O4 0.401013 0.732526 0.081192
O O5 0.833730 0.500000 0.330956
O O6 0.841814 0.255436 0.421107
O O7 0.748243 0.270388 0.250631
O O8 0.921958 0.273485 0.308621
O O9 0.024511 0.500000 0.324594
O O10 0.036945 0.280585 0.227620
O O11 0.086664 0.248555 0.401970
O O12 0.771461 0.233985 0.968175
O O13 0.934741 0.251486 0.066040
O O14 0.875292 0.000000 0.981018
O O15 0.901035 0.247257 0.903862
O O16 0.024177 0.500000 0.120154
O O17 0.702984 0.500000 0.977433
O O18 0.692135 0.287181 0.080270
O O19 0.000000 0.815264 0.500000
O O20 0.879584 0.000000 0.505985
O O21 0.340566 0.500000 0.830340
#
# Coordination Sequence:
#
# PCOD9142782 Si02
#       8
#     4   4   4   4   4   4   4   4
#     4   9  17  28  41  60  85 110 137 172 213 252
#     4   9  16  27  42  60  83 110 142 175 206 244
#     4   9  17  29  45  61  79 109 145 177 208 244
#     4  11  21  31  43  62  87 112 140 176 217 251
#     4  10  19  32  47  62  82 110 145 179 211 248
#     4  10  18  30  46  61  81 112 148 178 207 247
#     4   9  17  27  39  58  83 109 137 170 209 250
#     4   9  17  28  43  62  83 111 145 177 208 246
#
# _framework density 14.229563000000001
#
# number of rings (size 3 to 8) (size 9 to 14) (size 15 to 20)
#    0.000    2.500    0.000    4.125    0.000    7.000 
#    0.000    2.500    0.000    0.000    0.000    0.000 
#    0.000    1.000    0.000   10.500    0.000    5.000 
#
# Total GULP energy -178360.034516 kJ/mol
# GULP energy per Si atom -5573.751079 kJ/mol
# Density = 1.419718 g / cm^3
# Si number density = 14.229563 Si / 1000 Ang^3
#
#
#
# Elastic Constant Matrix: (Units=GPa)
#
#
# Indices 1 2 3 4 5 6 
#
# 1 82.3286 37.5855 45.7743 0.0000 10.2947 0.0000
# 2 37.5855 59.6391 42.6990 0.0000 1.1897 0.0000
# 3 45.7743 42.6990 108.7571 0.0000 8.5871 0.0000
# 4 0.0000 0.0000 0.0000 5.4101 0.0000 -1.9288
# 5 10.2947 1.1897 8.5871 0.0000 21.7265 0.0000
# 6 0.0000 0.0000 0.0000 -1.9288 0.0000 18.9513
#
#
#
# Elastic Compliance Matrix: (Units=1/GPa)
#
#
# Indices 1 2 3 4 5 6 
#
# 1 0.019503 -0.009286 -0.003998 0.000000 -0.007153 0.000000
# 2 -0.009286 0.027869 -0.007494 0.000000 0.005836 0.000000
# 3 -0.003998 -0.007494 0.014077 0.000000 -0.003259 0.000000
# 4 0.000000 0.000000 0.000000 0.191800 0.000000 0.019520
# 5 -0.007153 0.005836 -0.003259 0.000000 0.050384 0.000000
# 6 0.000000 0.000000 0.000000 0.019520 0.000000 0.054753
#
#
# Mechanical properties :
#
#
# Convention : Reuss Voigt Hill
#
# Bulk Modulus (GPa) = 50.26956 55.87138 53.07047
# Shear Modulus (GPa) = 12.29791 17.52863 14.91327
#
# Velocity S-wave (km/s) = 2.94300 3.51357 3.24087
# Velocity P-wave (km/s) = 6.85220 7.47060 7.16807
#
# Compressibility (1/GPa) = 0.01989275
#
# Stress axis : x y z
#
# Youngs Moduli (GPa) = 51.27393 35.88262 71.03779
#
# Poissons Ratio (x) = 0.33321 0.28401
# Poissons Ratio (y) = 0.47613 0.53235
# Poissons Ratio (z) = 0.20499 0.26890
#
# Static dielectric constant tensor:
#      x y z
#    x 1.454100 0.000000 0.004090 
#    y 0.000000 1.475670 0.000000 
#    z 0.004090 0.000000 1.457450 
# 
# From -- ./inp_files/66192.got.cif
#   From: 2010.05.17/outbox.cif.g08.bks.cpg/sg10_34_cif.got.tgz:66192.got - 2010.06.03 11:33:40.
