data_PCOD9142211
_publ_section_title
;
Structure prediction by ZEFSAII (Michael W. Deem and Ramdas Pophale) SiO2 
 PCOD9142211
Probable space group: P 2/M
;
_chemical_formula_sum "Si O2"
_cell_formula_units_Z 32
_cell_length_a 31.076913
_cell_length_b 9.128246
_cell_length_c 16.283318
_cell_angle_alpha 90.000000
_cell_angle_beta 150.250989
_cell_angle_gamma 90.000000
_cell_volume 2292.061149
_symmetry_space_group_name_H-M "P 2/M"
_symmetry_group_IT_number 10
_symmetry_cell_setting 'monoclinic'
loop_
_space_group_symop_operation_xyz
x,y,z
-x,y,-z
-x,-y,-z
x,-y,z
loop_
_atom_site_type_symbol
_atom_site_label
_atom_site_fract_x
_atom_site_fract_y
_atom_site_fract_z
Si Si1 0.976527 0.825558 0.095432
Si Si2 0.325784 0.174378 0.806570
Si Si3 0.858275 0.174434 0.742876
Si Si4 0.309098 0.675993 0.601681
Si Si5 0.013272 0.674225 0.715441
Si Si6 0.500383 0.668247 0.900800
Si Si7 0.093399 0.168002 0.700987
Si Si8 0.840599 0.824006 0.359505
O O1 0.069390 0.792846 0.206862
O O2 0.964755 0.735838 0.158574
O O3 0.975285 0.000000 0.110854
O O4 0.904428 0.795928 0.906421
O O5 0.305742 0.252658 0.686715
O O6 0.248885 0.207163 0.742818
O O7 0.328957 0.000000 0.798792
O O8 0.419131 0.232342 0.991271
O O9 0.771910 0.264448 0.583226
O O10 0.840619 0.000000 0.709156
O O11 0.307279 0.500000 0.606560
O O12 0.402682 0.715314 0.717312
O O13 0.008730 0.500000 0.707338
O O14 0.920122 0.742084 0.535051
O O15 0.081263 0.731495 0.759843
O O16 0.514601 0.500000 0.898504
O O17 0.500000 0.669140 0.000000
O O18 0.158159 0.213696 0.735347
O O19 0.000000 0.168891 0.500000
O O20 0.110968 0.000000 0.754849
O O21 0.856999 0.000000 0.391673
#
# Coordination Sequence:
#
# PCOD9142211 Si02
#       8
#     4   4   4   4   4   4   4   4
#     4   9  18  32  45  58  80 108 136 169 207 239
#     4  10  18  27  42  62  81 104 139 175 199 231
#     4   9  18  31  46  61  77 103 141 176 200 231
#     4  10  19  29  41  58  83 112 137 164 203 245
#     4  11  20  27  40  62  83 106 138 170 199 236
#     4   8  16  29  40  54  80 110 135 161 199 243
#     4   8  15  29  44  55  75 108 137 163 200 241
#     4   9  18  30  42  58  81 109 138 167 203 242
#
# _framework density 13.961232000000001
#
# number of rings (size 3 to 8) (size 9 to 14) (size 15 to 20)
#    0.000    2.750    0.000    4.875    0.000   10.000 
#    0.000    1.250    0.000    0.000    0.000    0.000 
#    0.000    1.000    0.000   11.250    0.000    5.625 
#
# Total GULP energy -178273.592684 kJ/mol
# GULP energy per Si atom -5571.049771 kJ/mol
# Density = 1.392946 g / cm^3
# Si number density = 13.961232 Si / 1000 Ang^3
#
#
#
# Elastic Constant Matrix: (Units=GPa)
#
#
# Indices 1 2 3 4 5 6 
#
# 1 96.6974 53.0506 38.9386 0.0000 1.4969 0.0000
# 2 53.0506 58.2236 40.9793 0.0000 1.3113 0.0000
# 3 38.9386 40.9793 70.8852 0.0000 11.0048 0.0000
# 4 0.0000 0.0000 0.0000 18.3483 0.0000 7.2578
# 5 1.4969 1.3113 11.0048 0.0000 20.5100 0.0000
# 6 0.0000 0.0000 0.0000 7.2578 0.0000 0.2526
#
#
#
# Elastic Compliance Matrix: (Units=1/GPa)
#
#
# Indices 1 2 3 4 5 6 
#
# 1 0.020704 -0.018297 -0.000810 0.000000 0.000094 0.000000
# 2 -0.018297 0.046311 -0.017966 0.000000 0.008014 0.000000
# 3 -0.000810 -0.017966 0.027001 0.000000 -0.013280 0.000000
# 4 0.000000 0.000000 0.000000 -0.005259 0.000000 0.151078
# 5 0.000094 0.008014 -0.013280 0.000000 0.055363 0.000000
# 6 0.000000 0.000000 0.000000 0.151078 0.000000 -0.381937
#
#
# Mechanical properties :
#
#
# Convention : Reuss Voigt Hill
#
# Bulk Modulus (GPa) = 50.32896 54.63811 52.48353
# Shear Modulus (GPa) = -31.83727 14.01137 -8.91295
#
# Velocity S-wave (km/s) = -4.78054 3.17139 -2.52941
# Velocity P-wave (km/s) = 2.37822 7.25471 5.39846
#
# Compressibility (1/GPa) = 0.01986928
#
# Stress axis : x y z
#
# Youngs Moduli (GPa) = 48.29894 21.59330 37.03633
#
# Poissons Ratio (x) = 0.39508 0.03002
# Poissons Ratio (y) = 0.88370 0.66540
# Poissons Ratio (z) = 0.03915 0.38795
#
# Static dielectric constant tensor:
#      x y z
#    x 1.465040 0.000000 0.010700 
#    y 0.000000 1.462730 0.000000 
#    z 0.010700 0.000000 1.451280 
# 
# From -- ./inp_files/72567.got.cif
#   From: 2010.05.17/outbox.cif.g08.bks.cpg/sg10_37_cif.got.tgz:72567.got - 2010.06.03 11:33:40.
