data_PCOD9142243
_publ_section_title
;
Structure prediction by ZEFSAII (Michael W. Deem and Ramdas Pophale) SiO2 
 PCOD9142243
Probable space group: P 2/M
;
_chemical_formula_sum "Si O2"
_cell_formula_units_Z 28
_cell_length_a 7.999055
_cell_length_b 18.888600
_cell_length_c 21.549500
_cell_angle_alpha 90.000000
_cell_angle_beta 25.833576
_cell_angle_gamma 90.000000
_cell_volume 1418.801502
_symmetry_space_group_name_H-M "P 2/M"
_symmetry_group_IT_number 10
_symmetry_cell_setting 'monoclinic'
loop_
_space_group_symop_operation_xyz
x,y,z
-x,y,-z
-x,-y,-z
x,-y,z
loop_
_atom_site_type_symbol
_atom_site_label
_atom_site_fract_x
_atom_site_fract_y
_atom_site_fract_z
Si Si1 0.267023 0.332417 0.811590
Si Si2 0.417480 0.180398 0.326376
Si Si3 0.552947 0.420020 0.055698
Si Si4 0.101739 0.919184 0.328343
Si Si5 0.595763 0.580214 0.596238
Si Si6 0.895031 0.583638 0.679797
Si Si7 0.730290 0.918666 0.326341
O O1 0.375862 0.251491 0.764858
O O2 0.330414 0.368312 0.723151
O O3 0.567656 0.369755 0.757113
O O4 0.850307 0.357936 0.972087
O O5 0.673926 0.135803 0.289315
O O6 0.000000 0.194653 0.500000
O O7 0.341221 0.132878 0.291183
O O8 0.702496 0.500000 0.021643
O O9 0.500000 0.419235 0.000000
O O10 0.172952 0.410305 0.224266
O O11 0.030029 0.898878 0.280548
O O12 0.683168 0.920396 0.501079
O O13 0.247472 0.000000 0.281407
O O14 0.446275 0.500000 0.647069
O O15 0.000000 0.580174 0.500000
O O16 0.718095 0.601942 0.486271
O O17 0.839954 0.500000 0.683136
O O18 0.806887 0.000000 0.280457
#
# Coordination Sequence:
#
# PCOD9142243 Si02
#       7
#     4   4   4   4   4   4   4
#     4  11  19  30  48  75 104 133 165 207 264 315
#     4  10  18  27  43  71 107 140 170 205 257 316
#     4  10  21  37  54  71  94 131 179 224 260 301
#     4   8  14  26  44  66  95 136 180 212 242 295
#     4   8  14  26  47  72  96 123 161 207 251 302
#     4   9  17  32  54  73  91 125 172 214 253 301
#     4   8  14  26  44  65  96 139 178 209 245 294
#
# _framework density 19.734966
#
# number of rings (size 3 to 8) (size 9 to 14) (size 15 to 20)
#    0.000    2.857    0.000    5.143    0.000    2.857 
#    2.571    0.714    3.143    3.429    0.000    0.000 
#    0.000   11.429    0.000    1.143    0.000    0.143 
#
# Total GULP energy -156091.615302 kJ/mol
# GULP energy per Si atom -5574.700547 kJ/mol
# Density = 1.969005 g / cm^3
# Si number density = 19.734966 Si / 1000 Ang^3
#
#
#
# Elastic Constant Matrix: (Units=GPa)
#
#
# Indices 1 2 3 4 5 6 
#
# 1 96.7994 54.6290 34.7321 0.0000 20.8179 0.0000
# 2 54.6290 86.6549 41.8758 0.0000 2.9053 0.0000
# 3 34.7321 41.8758 81.3649 0.0000 19.1107 0.0000
# 4 0.0000 0.0000 0.0000 25.2503 0.0000 1.8537
# 5 20.8179 2.9053 19.1107 0.0000 25.8738 0.0000
# 6 0.0000 0.0000 0.0000 1.8537 0.0000 3.6807
#
#
#
# Elastic Compliance Matrix: (Units=1/GPa)
#
#
# Indices 1 2 3 4 5 6 
#
# 1 0.020867 -0.013563 0.002007 0.000000 -0.016749 0.000000
# 2 -0.013563 0.024725 -0.010703 0.000000 0.016042 0.000000
# 3 0.002007 -0.010703 0.020616 0.000000 -0.015640 0.000000
# 4 0.000000 0.000000 0.000000 0.041124 0.000000 -0.020711
# 5 -0.016749 0.016042 -0.015640 0.000000 0.061876 0.000000
# 6 0.000000 0.000000 0.000000 -0.020711 0.000000 0.282120
#
#
# Mechanical properties :
#
#
# Convention : Reuss Voigt Hill
#
# Bulk Modulus (GPa) = 46.10735 58.58810 52.34773
# Shear Modulus (GPa) = 9.93884 19.86646 14.90265
#
# Velocity S-wave (km/s) = 2.24657 3.17624 2.75096
# Velocity P-wave (km/s) = 5.49031 6.57292 6.05585
#
# Compressibility (1/GPa) = 0.02168852
#
# Stress axis : x y z
#
# Youngs Moduli (GPa) = 47.92227 40.44451 48.50668
#
# Poissons Ratio (x) = 0.54857 -0.09736
# Poissons Ratio (y) = 0.64999 0.51919
# Poissons Ratio (z) = -0.09618 0.43289
#
# Static dielectric constant tensor:
#      x y z
#    x 1.758730 0.000000 0.016120 
#    y 0.000000 1.662200 0.000000 
#    z 0.016120 0.000000 1.719730 
# 
# From -- ./inp_files/82885.got.cif
#   From: 2010.05.17/outbox.cif.g08.bks.cpg/sg10_42_cif.got.tgz:82885.got - 2010.06.03 11:33:40.
