data_PCOD9142804
_publ_section_title
;
Structure prediction by ZEFSAII (Michael W. Deem and Ramdas Pophale) SiO2 
 PCOD9142804
Probable space group: P 2/M
;
_chemical_formula_sum "Si O2"
_cell_formula_units_Z 30
_cell_length_a 11.984200
_cell_length_b 9.696493
_cell_length_c 30.349190
_cell_angle_alpha 90.000000
_cell_angle_beta 151.284226
_cell_angle_gamma 90.000000
_cell_volume 1694.464856
_symmetry_space_group_name_H-M "P 2/M"
_symmetry_group_IT_number 10
_symmetry_cell_setting 'monoclinic'
loop_
_space_group_symop_operation_xyz
x,y,z
-x,y,-z
-x,-y,-z
x,-y,z
loop_
_atom_site_type_symbol
_atom_site_label
_atom_site_fract_x
_atom_site_fract_y
_atom_site_fract_z
Si Si1 0.000000 0.738123 0.500000
Si Si2 0.222263 0.152410 0.488038
Si Si3 0.753437 0.160994 0.109196
Si Si4 0.724879 0.159222 0.269485
Si Si5 0.431647 0.654131 0.707701
Si Si6 0.355318 0.656423 0.382557
Si Si7 0.142380 0.656069 0.210553
Si Si8 0.155347 0.333156 0.771259
O O1 0.862098 0.817666 0.491036
O O2 0.796559 0.660794 0.402759
O O3 0.416096 0.253441 0.536605
O O4 0.990273 0.158379 0.378761
O O5 0.323592 0.000000 0.522002
O O6 0.764795 0.257229 0.156427
O O7 0.944746 0.228635 0.143173
O O8 0.807845 0.000000 0.138029
O O9 0.500000 0.166579 0.000000
O O10 0.586828 0.229349 0.261758
O O11 0.717243 0.258707 0.224823
O O12 0.658777 0.000000 0.237788
O O13 0.436728 0.500000 0.729114
O O14 0.659782 0.674211 0.757294
O O15 0.416016 0.500000 0.414805
O O16 0.269795 0.661463 0.302063
O O17 0.123041 0.694940 0.328658
O O18 0.044499 0.500000 0.172550
O O19 0.183745 0.500000 0.782954
#
# Coordination Sequence:
#
# PCOD9142804 Si02
#       8
#     2   4   4   4   4   4   4   4
#     4  10  18  30  46  72 104 142 186 234 264 300
#     4  10  20  31  45  68 101 141 184 225 267 312
#     4  10  21  37  60  89 113 135 165 207 267 330
#     4  10  22  36  49  72 105 144 185 222 264 315
#     4  10  19  32  52  76 105 144 187 227 265 309
#     4   9  18  32  49  72 100 133 178 226 268 309
#     4   9  18  33  52  80 111 140 178 221 267 316
#     4  10  21  38  57  77 103 137 176 217 264 319
#
# _framework density 17.704705000000001
#
# number of rings (size 3 to 8) (size 9 to 14) (size 15 to 20)
#    0.000    2.267    1.333    2.400    0.000    8.000 
#    0.000    2.667    0.000    0.800    0.000    5.600 
#    0.000    0.000    0.000    0.000    0.000    0.000 
#
# Total GULP energy -167224.148542 kJ/mol
# GULP energy per Si atom -5574.138285 kJ/mol
# Density = 1.766441 g / cm^3
# Si number density = 17.704705 Si / 1000 Ang^3
#
#
#
# Elastic Constant Matrix: (Units=GPa)
#
#
# Indices 1 2 3 4 5 6 
#
# 1 78.3194 54.6970 16.3626 0.0000 -1.8315 0.0000
# 2 54.6970 116.2923 33.5937 0.0000 4.6579 0.0000
# 3 16.3626 33.5937 33.1091 0.0000 6.6815 0.0000
# 4 0.0000 0.0000 0.0000 36.6424 0.0000 -6.0038
# 5 -1.8315 4.6579 6.6815 0.0000 16.0883 0.0000
# 6 0.0000 0.0000 0.0000 -6.0038 0.0000 27.0395
#
#
#
# Elastic Compliance Matrix: (Units=1/GPa)
#
#
# Indices 1 2 3 4 5 6 
#
# 1 0.019453 -0.008873 -0.001721 0.000000 0.005498 0.000000
# 2 -0.008873 0.016257 -0.011958 0.000000 -0.000750 0.000000
# 3 -0.001721 -0.011958 0.046418 0.000000 -0.016011 0.000000
# 4 0.000000 0.000000 0.000000 0.028321 0.000000 0.006288
# 5 0.005498 -0.000750 -0.016011 0.000000 0.069649 0.000000
# 6 0.000000 0.000000 0.000000 0.006288 0.000000 0.038379
#
#
# Mechanical properties :
#
#
# Convention : Reuss Voigt Hill
#
# Bulk Modulus (GPa) = 27.00935 48.55861 37.78398
# Shear Modulus (GPa) = 18.12111 24.15856 21.13984
#
# Velocity S-wave (km/s) = 3.20272 3.69796 3.45921
# Velocity P-wave (km/s) = 5.38193 6.76163 6.11084
#
# Compressibility (1/GPa) = 0.03702422
#
# Stress axis : x y z
#
# Youngs Moduli (GPa) = 51.40666 61.51339 21.54345
#
# Poissons Ratio (x) = 0.54578 0.03707
# Poissons Ratio (y) = 0.45611 0.25762
# Poissons Ratio (z) = 0.08845 0.73559
#
# Static dielectric constant tensor:
#      x y z
#    x 1.608250 0.000000 -0.008800 
#    y 0.000000 1.615930 0.000000 
#    z -0.008800 0.000000 1.578760 
# 
# From -- ./inp_files/76185.got.cif
#   From: 2010.05.17/outbox.cif.g08.bks.cpg/sg10_39_cif.got.tgz:76185.got - 2010.06.03 11:33:40.
