data_PCOD9142307
_publ_section_title
;
Structure prediction by ZEFSAII (Michael W. Deem and Ramdas Pophale) SiO2 
 PCOD9142307
Probable space group: P 2/M
;
_chemical_formula_sum "Si O2"
_cell_formula_units_Z 28
_cell_length_a 8.210480
_cell_length_b 18.074763
_cell_length_c 14.571227
_cell_angle_alpha 90.000000
_cell_angle_beta 39.982119
_cell_angle_gamma 90.000000
_cell_volume 1389.450897
_symmetry_space_group_name_H-M "P 2/M"
_symmetry_group_IT_number 10
_symmetry_cell_setting 'monoclinic'
loop_
_space_group_symop_operation_xyz
x,y,z
-x,y,-z
-x,-y,-z
x,-y,z
loop_
_atom_site_type_symbol
_atom_site_label
_atom_site_fract_x
_atom_site_fract_y
_atom_site_fract_z
Si Si1 0.949879 0.911173 0.154502
Si Si2 0.905178 0.413500 0.675093
Si Si3 0.277231 0.085763 0.173868
Si Si4 0.384697 0.158627 0.835979
Si Si5 0.596059 0.333448 0.175853
Si Si6 0.778825 0.416093 0.928084
Si Si7 0.520821 0.587179 0.595443
O O1 0.023140 0.894909 0.227927
O O2 0.686372 0.881693 0.228285
O O3 0.971624 0.000000 0.132295
O O4 0.165922 0.871019 0.000034
O O5 0.820556 0.500000 0.701994
O O6 0.685071 0.359662 0.735907
O O7 0.948788 0.401020 0.765731
O O8 0.178721 0.406729 0.511165
O O9 0.357560 0.134352 0.225282
O O10 0.270011 0.000000 0.204875
O O11 0.500000 0.091271 0.000000
O O12 0.377256 0.246029 0.828775
O O13 0.630298 0.371488 0.259752
O O14 0.774009 0.363150 0.017141
O O15 0.820846 0.500000 0.941770
O O16 0.500000 0.413257 0.000000
O O17 0.500000 0.614587 0.500000
O O18 0.455824 0.500000 0.624183
#
# Coordination Sequence:
#
# PCOD9142307 Si02
#       7
#     4   4   4   4   4   4   4
#     4   9  17  32  51  70 109 158 188 214 258 325
#     4   9  18  35  58  76  97 139 192 234 272 327
#     4   8  14  26  46  68  96 140 184 215 250 312
#     4  10  18  28  43  76 111 142 175 217 275 329
#     4  11  20  31  50  82 111 141 174 228 291 336
#     4   8  15  29  49  75 102 133 173 221 275 332
#     4  10  21  39  57  74  98 144 203 244 269 320
#
# _framework density 20.151847
#
# number of rings (size 3 to 8) (size 9 to 14) (size 15 to 20)
#    0.000    2.714    0.000    5.143    0.000    6.286 
#    7.714    0.000    0.000    3.429    0.000    0.000 
#    0.000   25.714    0.000    0.000    0.000    0.000 
#
# Total GULP energy -156156.209616 kJ/mol
# GULP energy per Si atom -5577.007486 kJ/mol
# Density = 2.010598 g / cm^3
# Si number density = 20.151847 Si / 1000 Ang^3
#
#
#
# Elastic Constant Matrix: (Units=GPa)
#
#
# Indices 1 2 3 4 5 6 
#
# 1 118.2726 57.4826 20.8978 0.0000 21.5412 0.0000
# 2 57.4826 111.7712 32.7160 0.0000 20.8310 0.0000
# 3 20.8978 32.7160 64.1126 0.0000 8.3567 0.0000
# 4 0.0000 0.0000 0.0000 10.8101 0.0000 4.6792
# 5 21.5412 20.8310 8.3567 0.0000 30.1382 0.0000
# 6 0.0000 0.0000 0.0000 4.6792 0.0000 2.1050
#
#
#
# Elastic Compliance Matrix: (Units=1/GPa)
#
#
# Indices 1 2 3 4 5 6 
#
# 1 0.011896 -0.005013 -0.000688 0.000000 -0.004847 0.000000
# 2 -0.005013 0.013791 -0.004801 0.000000 -0.004618 0.000000
# 3 -0.000688 -0.004801 0.018442 0.000000 -0.001303 0.000000
# 4 0.000000 0.000000 0.000000 2.446609 0.000000 -5.438518
# 5 -0.004847 -0.004618 -0.001303 0.000000 0.040198 0.000000
# 6 0.000000 0.000000 0.000000 -5.438518 0.000000 12.564227
#
#
# Mechanical properties :
#
#
# Convention : Reuss Voigt Hill
#
# Bulk Modulus (GPa) = 43.24514 57.37213 50.30864
# Shear Modulus (GPa) = 0.33060 20.81467 10.57264
#
# Velocity S-wave (km/s) = 0.40548 3.21735 2.29301
# Velocity P-wave (km/s) = 4.66106 6.50642 5.65946
#
# Compressibility (1/GPa) = 0.02312398
#
# Stress axis : x y z
#
# Youngs Moduli (GPa) = 84.06294 72.51027 54.22501
#
# Poissons Ratio (x) = 0.36352 0.03728
# Poissons Ratio (y) = 0.42144 0.26036
# Poissons Ratio (z) = 0.05779 0.34816
#
# Static dielectric constant tensor:
#      x y z
#    x 1.849140 0.000000 -0.025310 
#    y 0.000000 1.648890 0.000000 
#    z -0.025310 0.000000 1.738300 
# 
# From -- ./inp_files/61785.got.cif
#   From: 2010.05.17/outbox.cif.g08.bks.cpg/sg10_31_cif.got.tgz:61785.got - 2010.06.03 11:33:40.
