data_PCOD9142752
_publ_section_title
;
Structure prediction by ZEFSAII (Michael W. Deem and Ramdas Pophale) SiO2 
 PCOD9142752
Probable space group: P 2/M
;
_chemical_formula_sum "Si O2"
_cell_formula_units_Z 28
_cell_length_a 15.730195
_cell_length_b 7.581032
_cell_length_c 12.872437
_cell_angle_alpha 90.000000
_cell_angle_beta 73.524656
_cell_angle_gamma 90.000000
_cell_volume 1472.026034
_symmetry_space_group_name_H-M "P 2/M"
_symmetry_group_IT_number 10
_symmetry_cell_setting 'monoclinic'
loop_
_space_group_symop_operation_xyz
x,y,z
-x,y,-z
-x,-y,-z
x,-y,z
loop_
_atom_site_type_symbol
_atom_site_label
_atom_site_fract_x
_atom_site_fract_y
_atom_site_fract_z
Si Si1 0.398016 0.785325 0.653295
Si Si2 0.099679 0.214104 0.635859
Si Si3 0.789417 0.213245 0.200115
Si Si4 0.913496 0.291635 0.971293
Si Si5 0.220200 0.206248 0.404845
Si Si6 0.406601 0.214553 0.406742
Si Si7 0.898274 0.294181 0.744874
O O1 0.310498 0.724458 0.743179
O O2 0.494771 0.723826 0.657549
O O3 0.391317 0.740621 0.533391
O O4 0.397302 0.000000 0.657844
O O5 0.147303 0.270271 0.726343
O O6 0.156995 0.278940 0.517983
O O7 0.998347 0.273702 0.668619
O O8 0.098039 0.000000 0.635105
O O9 0.831645 0.270716 0.077302
O O10 0.788922 0.000000 0.201873
O O11 0.931095 0.500000 0.950015
O O12 0.897888 0.217549 0.861728
O O13 0.000000 0.216363 0.000000
O O14 0.320288 0.277969 0.374839
O O15 0.170923 0.217873 0.312816
O O16 0.229495 0.000000 0.428100
O O17 0.410856 0.000000 0.399461
O O18 0.876471 0.500000 0.758685
#
# Coordination Sequence:
#
# PCOD9142752 Si02
#       7
#     4   4   4   4   4   4   4
#     4   8  13  24  45  76 104 125 153 190 235 287
#     4  10  19  31  48  74 104 129 154 193 241 289
#     4  10  18  29  51  79 102 122 156 201 241 283
#     4  10  21  37  51  65  91 129 169 207 245 283
#     4  10  19  32  50  74 103 132 159 191 238 290
#     4   8  13  24  46  73 103 131 152 184 236 291
#     4  11  23  36  49  66  93 132 173 204 236 284
#
# _framework density 19.021401999999998
#
# number of rings (size 3 to 8) (size 9 to 14) (size 15 to 20)
#    0.000    2.429    2.857    1.714    0.000    3.714 
#    0.000    0.000    0.000    1.714    0.000    8.000 
#    0.000    0.000    0.000    0.000    0.000    0.000 
#
# Total GULP energy -156208.299735 kJ/mol
# GULP energy per Si atom -5578.867848 kJ/mol
# Density = 1.897811 g / cm^3
# Si number density = 19.021402 Si / 1000 Ang^3
#
#
#
# Elastic Constant Matrix: (Units=GPa)
#
#
# Indices 1 2 3 4 5 6 
#
# 1 171.1568 -11.8433 61.2405 0.0000 -4.0851 0.0000
# 2 -11.8433 33.1637 -8.5835 0.0000 3.7822 0.0000
# 3 61.2405 -8.5835 67.5475 0.0000 2.9108 0.0000
# 4 0.0000 0.0000 0.0000 23.3197 0.0000 -6.3741
# 5 -4.0851 3.7822 2.9108 0.0000 29.1891 0.0000
# 6 0.0000 0.0000 0.0000 -6.3741 0.0000 -19.5521
#
#
#
# Elastic Compliance Matrix: (Units=1/GPa)
#
#
# Indices 1 2 3 4 5 6 
#
# 1 0.008789 0.000866 -0.007941 0.000000 0.001910 0.000000
# 2 0.000866 0.031852 0.003450 0.000000 -0.004350 0.000000
# 3 -0.007941 0.003450 0.022607 0.000000 -0.003813 0.000000
# 4 0.000000 0.000000 0.000000 0.039374 0.000000 -0.012836
# 5 0.001910 -0.004350 -0.003813 0.000000 0.035470 0.000000
# 6 0.000000 0.000000 0.000000 -0.012836 0.000000 -0.046961
#
#
# Mechanical properties :
#
#
# Convention : Reuss Voigt Hill
#
# Bulk Modulus (GPa) = 17.85804 39.27728 28.56766
# Shear Modulus (GPa) = 42.71778 21.99496 32.35637
#
# Velocity S-wave (km/s) = 4.74410 3.40417 4.12885
# Velocity P-wave (km/s) = 6.27833 6.01207 6.14664
#
# Compressibility (1/GPa) = 0.05599719
#
# Stress axis : x y z
#
# Youngs Moduli (GPa) = 113.77343 31.39558 44.23480
#
# Poissons Ratio (x) = -0.02718 0.35127
# Poissons Ratio (y) = -0.09850 -0.15261
# Poissons Ratio (z) = 0.90347 -0.10832
#
# Static dielectric constant tensor:
#      x y z
#    x 1.671610 0.000000 -0.004790 
#    y 0.000000 1.718730 0.000000 
#    z -0.004790 0.000000 1.638590 
# 
# From -- ./inp_files/48832.got.cif
#   From: 2010.05.17/outbox.cif.g08.bks.cpg/sg10_25_cif.got.tgz:48832.got - 2010.06.03 11:33:40.
