data_PCOD9142658
_publ_section_title
;
Structure prediction by ZEFSAII (Michael W. Deem and Ramdas Pophale) SiO2 
 PCOD9142658
Probable space group: P 2/M
;
_chemical_formula_sum "Si O2"
_cell_formula_units_Z 24
_cell_length_a 18.119095
_cell_length_b 12.891720
_cell_length_c 13.050639
_cell_angle_alpha 90.000000
_cell_angle_beta 19.268284
_cell_angle_gamma 90.000000
_cell_volume 1005.963969
_symmetry_space_group_name_H-M "P 2/M"
_symmetry_group_IT_number 10
_symmetry_cell_setting 'monoclinic'
loop_
_space_group_symop_operation_xyz
x,y,z
-x,y,-z
-x,-y,-z
x,-y,z
loop_
_atom_site_type_symbol
_atom_site_label
_atom_site_fract_x
_atom_site_fract_y
_atom_site_fract_z
Si Si1 0.256867 0.840236 0.782523
Si Si2 0.248810 0.611272 0.719600
Si Si3 0.255374 0.296293 0.300409
Si Si4 0.406357 0.888069 0.371678
Si Si5 0.923487 0.114338 0.769360
Si Si6 0.426246 0.660967 0.271265
O O1 0.500000 0.877183 0.500000
O O2 0.266916 0.715000 0.762172
O O3 0.247965 0.881217 0.679067
O O4 0.090066 0.875622 0.089190
O O5 0.279308 0.500000 0.731936
O O6 0.400521 0.616314 0.418140
O O7 0.000000 0.614737 0.000000
O O8 0.254745 0.368749 0.403246
O O9 0.065864 0.211047 0.542558
O O10 0.500000 0.242145 0.000000
O O11 0.326624 0.352539 0.101750
O O12 0.366781 0.781753 0.366333
O O13 0.379731 0.000000 0.355697
O O14 0.667359 0.879859 0.065407
O O15 0.010996 0.000000 0.626125
#
# Coordination Sequence:
#
# PCOD9142658 Si02
#       6
#     4   4   4   4   4   4
#     4   9  18  32  49  72 101 128 154 195 243 287
#     4  10  19  32  54  76  93 118 157 201 246 294
#     4   8  19  33  46  63  94 134 163 193 229 277
#     4   9  17  29  47  71  97 127 163 199 234 277
#     4  10  18  29  48  72  99 133 166 193 226 273
#     4   8  18  34  46  66  97 124 155 198 241 276
#
# _framework density 23.857714000000001
#
# number of rings (size 3 to 8) (size 9 to 14) (size 15 to 20)
#    1.000    1.833    0.000    1.500    0.000    4.667 
#    0.000    3.333    0.000    6.500    0.000   10.500 
#    0.000    0.000    0.000    0.000    0.000    0.000 
#
# Total GULP energy -133676.248303 kJ/mol
# GULP energy per Si atom -5569.843679 kJ/mol
# Density = 2.380341 g / cm^3
# Si number density = 23.857714 Si / 1000 Ang^3
#
#
#
# Elastic Constant Matrix: (Units=GPa)
#
#
# Indices 1 2 3 4 5 6 
#
# 1 33.9890 -6.1998 6.3974 0.0000 6.2552 0.0000
# 2 -6.1998 113.6231 -5.0607 0.0000 -2.9960 0.0000
# 3 6.3974 -5.0607 64.2096 0.0000 -7.9411 0.0000
# 4 0.0000 0.0000 0.0000 -172.3387 0.0000 -81.6813
# 5 6.2552 -2.9960 -7.9411 0.0000 33.6651 0.0000
# 6 0.0000 0.0000 0.0000 -81.6813 0.0000 -25.6146
#
#
#
# Elastic Compliance Matrix: (Units=1/GPa)
#
#
# Indices 1 2 3 4 5 6 
#
# 1 0.031627 0.001378 -0.003867 0.000000 -0.006666 0.000000
# 2 0.001378 0.008923 0.000652 0.000000 0.000692 0.000000
# 3 -0.003867 0.000652 0.016591 0.000000 0.004690 0.000000
# 4 0.000000 0.000000 0.000000 0.011347 0.000000 -0.036183
# 5 -0.006666 0.000692 0.004690 0.000000 0.032111 0.000000
# 6 0.000000 0.000000 0.000000 -0.036183 0.000000 0.076342
#
#
# Mechanical properties :
#
#
# Convention : Reuss Voigt Hill
#
# Bulk Modulus (GPa) = 18.70342 22.45504 20.57923
# Shear Modulus (GPa) = 25.19670 -18.41198 3.39236
#
# Velocity S-wave (km/s) = 3.25333 -2.78104 1.19373
# Velocity P-wave (km/s) = 4.68709 0.93793 3.24724
#
# Compressibility (1/GPa) = 0.05346615
#
# Stress axis : x y z
#
# Youngs Moduli (GPa) = 31.61830 112.06402 60.27493
#
# Poissons Ratio (x) = -0.15440 0.23308
# Poissons Ratio (y) = -0.04356 -0.03928
# Poissons Ratio (z) = 0.12227 -0.07302
#
# Static dielectric constant tensor:
#      x y z
#    x 2.032740 0.000000 0.057020 
#    y 0.000000 1.892000 0.000000 
#    z 0.057020 0.000000 1.971010 
# 
# From -- ./inp_files/41990.got.cif
#   From: 2010.05.17/outbox.cif.g08.bks.cpg/sg10_21_cif.got.tgz:41990.got - 2010.06.03 11:33:40.
