data_PCOD9142214
_publ_section_title
;
Structure prediction by ZEFSAII (Michael W. Deem and Ramdas Pophale) SiO2 
 PCOD9142214
Probable space group: P 2/M
;
_chemical_formula_sum "Si O2"
_cell_formula_units_Z 32
_cell_length_a 32.107850
_cell_length_b 8.868846
_cell_length_c 20.645455
_cell_angle_alpha 90.000000
_cell_angle_beta 19.521957
_cell_angle_gamma 90.000000
_cell_volume 1964.571120
_symmetry_space_group_name_H-M "P 2/M"
_symmetry_group_IT_number 10
_symmetry_cell_setting 'monoclinic'
loop_
_space_group_symop_operation_xyz
x,y,z
-x,y,-z
-x,-y,-z
x,-y,z
loop_
_atom_site_type_symbol
_atom_site_label
_atom_site_fract_x
_atom_site_fract_y
_atom_site_fract_z
Si Si1 0.088256 0.179544 0.810800
Si Si2 0.057748 0.318404 0.091977
Si Si3 0.390932 0.681696 0.888791
Si Si4 0.885667 0.682458 0.710277
Si Si5 0.334833 0.675255 0.645564
Si Si6 0.150384 0.318388 0.089153
Si Si7 0.657455 0.325879 0.522404
Si Si8 0.410732 0.177571 0.717613
O O1 0.230069 0.227978 0.615753
O O2 0.078580 0.000000 0.823191
O O3 0.000000 0.234504 0.000000
O O4 0.038058 0.246159 0.817187
O O5 0.049324 0.500000 0.098745
O O6 0.197107 0.272631 0.865741
O O7 0.054439 0.277333 0.172820
O O8 0.396813 0.500000 0.865186
O O9 0.514373 0.715421 0.749363
O O10 0.401720 0.774637 0.806653
O O11 0.251686 0.713271 0.117790
O O12 0.896798 0.500000 0.696356
O O13 0.884877 0.733475 0.786668
O O14 0.000000 0.740895 0.500000
O O15 0.348641 0.500000 0.644325
O O16 0.339652 0.682137 0.560197
O O17 0.451576 0.765712 0.502726
O O18 0.159167 0.500000 0.077729
O O19 0.288028 0.258099 0.869668
O O20 0.679367 0.500000 0.508701
O O21 0.401446 0.000000 0.722321
#
# Coordination Sequence:
#
# PCOD9142214 Si02
#       8
#     4   4   4   4   4   4   4   4
#     4  11  22  32  44  65  91 117 150 197 242 273
#     4  10  20  33  48  62  82 119 161 195 224 264
#     4   8  15  28  45  68  94 120 152 185 219 266
#     4   8  13  25  49  77 100 118 139 176 227 276
#     4   9  17  29  44  61  82 115 157 194 225 257
#     4   9  18  32  47  65  90 119 153 186 219 268
#     4   9  16  28  46  63  85 118 157 195 223 261
#     4  10  18  27  42  62  88 121 152 185 226 265
#
# _framework density 16.288542
#
# number of rings (size 3 to 8) (size 9 to 14) (size 15 to 20)
#    0.000    2.750    1.250    3.000    0.000    4.000 
#    0.000    2.500    0.000    6.000    0.000    0.875 
#    0.000    7.000    0.000    0.000    0.000    0.000 
#
# Total GULP energy -178224.434802 kJ/mol
# GULP energy per Si atom -5569.513588 kJ/mol
# Density = 1.625147 g / cm^3
# Si number density = 16.288542 Si / 1000 Ang^3
#
#
#
# Elastic Constant Matrix: (Units=GPa)
#
#
# Indices 1 2 3 4 5 6 
#
# 1 78.0727 24.7001 51.4294 0.0000 -21.0167 0.0000
# 2 24.7001 21.9950 18.4382 0.0000 -9.7892 0.0000
# 3 51.4294 18.4382 107.8662 0.0000 -7.8314 0.0000
# 4 0.0000 0.0000 0.0000 -0.0970 0.0000 4.7713
# 5 -21.0167 -9.7892 -7.8314 0.0000 25.0530 0.0000
# 6 0.0000 0.0000 0.0000 4.7713 0.0000 2.1324
#
#
#
# Elastic Compliance Matrix: (Units=1/GPa)
#
#
# Indices 1 2 3 4 5 6 
#
# 1 0.028455 -0.017766 -0.009517 0.000000 0.013954 0.000000
# 2 -0.017766 0.073880 -0.003217 0.000000 0.012959 0.000000
# 3 -0.009517 -0.003217 0.014005 0.000000 -0.004863 0.000000
# 4 0.000000 0.000000 0.000000 -0.092822 0.000000 0.207699
# 5 0.013954 0.012959 -0.004863 0.000000 0.055164 0.000000
# 6 0.000000 0.000000 0.000000 0.207699 0.000000 0.004221
#
#
# Mechanical properties :
#
#
# Convention : Reuss Voigt Hill
#
# Bulk Modulus (GPa) = 18.07023 44.11882 31.09452
# Shear Modulus (GPa) = 30.79761 12.97541 21.88651
#
# Velocity S-wave (km/s) = 4.35300 2.82547 3.66959
# Velocity P-wave (km/s) = 6.03181 6.14727 6.08981
#
# Compressibility (1/GPa) = 0.05533965
#
# Stress axis : x y z
#
# Youngs Moduli (GPa) = 35.14369 13.53540 71.40193
#
# Poissons Ratio (x) = 0.24047 0.67953
# Poissons Ratio (y) = 0.62436 0.22973
# Poissons Ratio (z) = 0.33446 0.04355
#
# Static dielectric constant tensor:
#      x y z
#    x 1.569320 0.000000 0.004930 
#    y 0.000000 1.541890 0.000000 
#    z 0.004930 0.000000 1.570360 
# 
# From -- ./inp_files/52711.got.cif
#   From: 2010.05.17/outbox.cif.g08.bks.cpg/sg10_27_cif.got.tgz:52711.got - 2010.06.03 11:33:40.
