data_PCOD9142650
_publ_section_title
;
Structure prediction by ZEFSAII (Michael W. Deem and Ramdas Pophale) SiO2 
 PCOD9142650
Probable space group: P 2/M
;
_chemical_formula_sum "Si O2"
_cell_formula_units_Z 32
_cell_length_a 15.860093
_cell_length_b 7.623081
_cell_length_c 26.736496
_cell_angle_alpha 90.000000
_cell_angle_beta 149.857445
_cell_angle_gamma 90.000000
_cell_volume 1623.218413
_symmetry_space_group_name_H-M "P 2/M"
_symmetry_group_IT_number 10
_symmetry_cell_setting 'monoclinic'
loop_
_space_group_symop_operation_xyz
x,y,z
-x,y,-z
-x,-y,-z
x,-y,z
loop_
_atom_site_type_symbol
_atom_site_label
_atom_site_fract_x
_atom_site_fract_y
_atom_site_fract_z
Si Si1 0.866533 0.292169 0.643585
Si Si2 0.287335 0.205236 0.073879
Si Si3 0.427184 0.285566 0.577356
Si Si4 0.920865 0.797127 0.885795
Si Si5 0.245448 0.211173 0.844380
Si Si6 0.412441 0.214633 0.031581
Si Si7 0.782735 0.712757 0.711605
Si Si8 0.570995 0.699393 0.752114
O O1 0.833243 0.500000 0.629204
O O2 0.738665 0.223590 0.536152
O O3 0.826884 0.223415 0.678919
O O4 0.062104 0.266721 0.733249
O O5 0.358438 0.277933 0.058451
O O6 0.411004 0.218736 0.184153
O O7 0.254387 0.000000 0.047771
O O8 0.102823 0.277370 0.992876
O O9 0.425439 0.500000 0.579342
O O10 0.592562 0.240325 0.629882
O O11 0.457193 0.221631 0.649473
O O12 0.902583 0.786349 0.816354
O O13 0.758455 0.703060 0.824645
O O14 0.905507 0.000000 0.894484
O O15 0.401030 0.269650 0.889803
O O16 0.248512 0.000000 0.846369
O O17 0.287214 0.269206 0.922651
O O18 0.413560 0.000000 0.032746
O O19 0.795815 0.500000 0.719921
O O20 0.517924 0.500000 0.732808
#
# Coordination Sequence:
#
# PCOD9142650 Si02
#       8
#     4   4   4   4   4   4   4   4
#     4  10  18  29  48  71  94 121 153 191 234 273
#     4  10  19  31  48  69  92 121 156 190 229 274
#     4   8  16  31  47  63  89 126 161 188 222 271
#     4  10  19  30  46  69  97 125 152 187 230 273
#     4   9  17  32  52  72  94 121 153 184 222 277
#     4   8  16  32  52  70  93 125 152 180 225 280
#     4   9  17  29  46  68  94 125 158 188 221 269
#     4  10  20  33  48  66  91 125 161 193 225 266
#
# _framework density 19.713922
#
# number of rings (size 3 to 8) (size 9 to 14) (size 15 to 20)
#    0.000    2.750    0.000    3.750    0.000    5.500 
#    0.000    5.625    0.000    4.500    0.000    5.250 
#    0.000    0.000    0.000    0.000    0.000    0.000 
#
# Total GULP energy -178528.017639 kJ/mol
# GULP energy per Si atom -5579.000551 kJ/mol
# Density = 1.966905 g / cm^3
# Si number density = 19.713922 Si / 1000 Ang^3
#
#
#
# Elastic Constant Matrix: (Units=GPa)
#
#
# Indices 1 2 3 4 5 6 
#
# 1 59.8983 -3.7756 29.0187 0.0000 -18.4034 0.0000
# 2 -3.7756 37.8023 -4.2053 0.0000 -0.9537 0.0000
# 3 29.0187 -4.2053 124.2332 0.0000 -16.5471 0.0000
# 4 0.0000 0.0000 0.0000 19.5604 0.0000 -2.7305
# 5 -18.4034 -0.9537 -16.5471 0.0000 21.4995 0.0000
# 6 0.0000 0.0000 0.0000 -2.7305 0.0000 14.4562
#
#
#
# Elastic Compliance Matrix: (Units=1/GPa)
#
#
# Indices 1 2 3 4 5 6 
#
# 1 0.023950 0.002510 -0.003080 0.000000 0.018242 0.000000
# 2 0.002510 0.026900 0.000857 0.000000 0.004001 0.000000
# 3 -0.003080 0.000857 0.009417 0.000000 0.004650 0.000000
# 4 0.000000 0.000000 0.000000 0.052508 0.000000 0.009918
# 5 0.018242 0.004001 0.004650 0.000000 0.065884 0.000000
# 6 0.000000 0.000000 0.000000 0.009918 0.000000 0.071048
#
#
# Mechanical properties :
#
#
# Convention : Reuss Voigt Hill
#
# Bulk Modulus (GPa) = 16.43598 29.33440 22.88519
# Shear Modulus (GPa) = 18.55886 24.49628 21.52757
#
# Velocity S-wave (km/s) = 3.07157 3.52886 3.30812
# Velocity P-wave (km/s) = 4.57545 5.61392 5.12108
#
# Compressibility (1/GPa) = 0.06084211
#
# Stress axis : x y z
#
# Youngs Moduli (GPa) = 41.75380 37.17416 106.19034
#
# Poissons Ratio (x) = -0.09329 0.32702
# Poissons Ratio (y) = -0.10479 -0.09104
# Poissons Ratio (z) = 0.12859 -0.03187
#
# Static dielectric constant tensor:
#      x y z
#    x 1.692270 0.000000 -0.022510 
#    y 0.000000 1.734480 0.000000 
#    z -0.022510 0.000000 1.694260 
# 
# From -- ./inp_files/66510.got.cif
#   From: 2010.05.17/outbox.cif.g08.bks.cpg/sg10_34_cif.got.tgz:66510.got - 2010.06.03 11:33:40.
