data_PCOD9142234
_publ_section_title
;
Structure prediction by ZEFSAII (Michael W. Deem and Ramdas Pophale) SiO2 
 PCOD9142234
Probable space group: P 2/M
;
_chemical_formula_sum "Si O2"
_cell_formula_units_Z 20
_cell_length_a 18.971980
_cell_length_b 7.393127
_cell_length_c 17.166996
_cell_angle_alpha 90.000000
_cell_angle_beta 156.502258
_cell_angle_gamma 90.000000
_cell_volume 960.053528
_symmetry_space_group_name_H-M "P 2/M"
_symmetry_group_IT_number 10
_symmetry_cell_setting 'monoclinic'
loop_
_space_group_symop_operation_xyz
x,y,z
-x,y,-z
-x,-y,-z
x,-y,z
loop_
_atom_site_type_symbol
_atom_site_label
_atom_site_fract_x
_atom_site_fract_y
_atom_site_fract_z
Si Si1 0.170950 0.779789 0.574416
Si Si2 0.507322 0.285706 0.625419
Si Si3 0.526798 0.216870 0.227479
Si Si4 0.229746 0.220629 0.807167
Si Si5 0.796872 0.720992 0.798190
O O1 0.287768 0.718376 0.620452
O O2 0.256120 0.726451 0.743783
O O3 0.967601 0.722272 0.368944
O O4 0.167897 0.000000 0.570985
O O5 0.507160 0.500000 0.612393
O O6 0.503897 0.256000 0.713620
O O7 0.329194 0.220348 0.401418
O O8 0.683754 0.220580 0.759557
O O9 0.527355 0.000000 0.221315
O O10 0.373434 0.283884 0.014424
O O11 0.233006 0.000000 0.810854
O O12 0.804493 0.500000 0.805660
O O13 0.000000 0.782977 0.000000
#
# Coordination Sequence:
#
# PCOD9142234 Si02
#       5
#     4   4   4   4   4
#     4   8  14  25  41  61  85 115 151 183 207 240
#     4   9  18  31  47  68  88 108 141 178 211 254
#     4  10  18  27  43  67  92 114 138 175 220 256
#     4   8  14  25  41  61  85 115 151 183 207 240
#     4   8  15  31  52  66  80 110 148 178 204 246
#
# _framework density 20.832172
#
# number of rings (size 3 to 8) (size 9 to 14) (size 15 to 20)
#    0.000    3.400    0.000    3.000    0.000    4.000 
#    0.000    2.000    0.000    3.600    0.000    2.800 
#    0.000    0.000    0.000    0.000    0.000    0.000 
#
# Total GULP energy -111531.855299 kJ/mol
# GULP energy per Si atom -5576.592765 kJ/mol
# Density = 2.078476 g / cm^3
# Si number density = 20.832172 Si / 1000 Ang^3
#
#
#
# Elastic Constant Matrix: (Units=GPa)
#
#
# Indices 1 2 3 4 5 6 
#
# 1 159.9291 -0.2476 67.2438 0.0000 6.7980 0.0000
# 2 -0.2476 67.3730 2.6923 0.0000 4.2949 0.0000
# 3 67.2438 2.6923 67.7297 0.0000 19.5334 0.0000
# 4 0.0000 0.0000 0.0000 -0.1705 0.0000 -12.6157
# 5 6.7980 4.2949 19.5334 0.0000 28.0383 0.0000
# 6 0.0000 0.0000 0.0000 -12.6157 0.0000 17.5687
#
#
#
# Elastic Compliance Matrix: (Units=1/GPa)
#
#
# Indices 1 2 3 4 5 6 
#
# 1 0.011618 0.000164 -0.013417 0.000000 0.006505 0.000000
# 2 0.000164 0.014992 -0.000107 0.000000 -0.002262 0.000000
# 3 -0.013417 -0.000107 0.033973 0.000000 -0.020398 0.000000
# 4 0.000000 0.000000 0.000000 -0.108347 0.000000 -0.077802
# 5 0.006505 -0.002262 -0.020398 0.000000 0.048646 0.000000
# 6 0.000000 0.000000 0.000000 -0.077802 0.000000 0.001052
#
#
# Mechanical properties :
#
#
# Convention : Reuss Voigt Hill
#
# Bulk Modulus (GPa) = 29.53065 48.26764 38.89915
# Shear Modulus (GPa) = 125.18878 24.11017 74.64947
#
# Velocity S-wave (km/s) = 7.76044 3.40568 5.99262
# Velocity P-wave (km/s) = 9.72139 6.21972 8.16059
#
# Compressibility (1/GPa) = 0.03386312
#
# Stress axis : x y z
#
# Youngs Moduli (GPa) = 86.07381 66.70313 29.43535
#
# Poissons Ratio (x) = -0.01095 0.39494
# Poissons Ratio (y) = -0.01413 0.00314
# Poissons Ratio (z) = 1.15488 0.00711
#
# Static dielectric constant tensor:
#      x y z
#    x 1.737970 0.000000 0.011660 
#    y 0.000000 1.820170 0.000000 
#    z 0.011660 0.000000 1.723670 
# 
# From -- ./inp_files/31151.got.cif
#   From: 2010.05.17/outbox.cif.g08.bks.cpg/sg10_16_cif.got.tgz:31151.got - 2010.06.03 11:33:40.
