data_PCOD9142886
_publ_section_title
;
Structure prediction by ZEFSAII (Michael W. Deem and Ramdas Pophale) SiO2 
 PCOD9142886
Probable space group: P 2/M
;
_chemical_formula_sum "Si O2"
_cell_formula_units_Z 32
_cell_length_a 15.868700
_cell_length_b 8.814343
_cell_length_c 14.681918
_cell_angle_alpha 90.000000
_cell_angle_beta 91.514238
_cell_angle_gamma 90.000000
_cell_volume 2052.874517
_symmetry_space_group_name_H-M "P 2/M"
_symmetry_group_IT_number 10
_symmetry_cell_setting 'monoclinic'
loop_
_space_group_symop_operation_xyz
x,y,z
-x,y,-z
-x,-y,-z
x,-y,z
loop_
_atom_site_type_symbol
_atom_site_label
_atom_site_fract_x
_atom_site_fract_y
_atom_site_fract_z
Si Si1 0.097910 0.683870 0.902757
Si Si2 0.900778 0.316457 0.892572
Si Si3 0.685964 0.679961 0.592784
Si Si4 0.999813 0.681678 0.392705
Si Si5 0.173800 0.316898 0.716560
Si Si6 0.673643 0.817630 0.390454
Si Si7 0.487449 0.174410 0.389900
Si Si8 0.159008 0.819595 0.292725
O O1 0.098801 0.500000 0.902628
O O2 0.153780 0.733430 0.819249
O O3 0.999858 0.725114 0.884632
O O4 0.123737 0.730255 0.005341
O O5 0.895154 0.500000 0.885426
O O6 0.849309 0.241182 0.810345
O O7 0.694244 0.500000 0.587949
O O8 0.690181 0.747794 0.490752
O O9 0.594674 0.726272 0.630263
O O10 0.760689 0.749067 0.654469
O O11 0.012844 0.500000 0.382472
O O12 0.909637 0.718008 0.345373
O O13 0.000000 0.716757 0.500000
O O14 0.075210 0.764966 0.343400
O O15 0.184231 0.500000 0.715271
O O16 0.254790 0.239647 0.675169
O O17 0.578672 0.773674 0.356900
O O18 0.674371 0.000000 0.398650
O O19 0.500000 0.173969 0.500000
O O20 0.471581 0.000000 0.361798
O O21 0.164205 0.000000 0.294280
#
# Coordination Sequence:
#
# PCOD9142886 Si02
#       8
#     4   4   4   4   4   4   4   4
#     4   8  15  29  52  73  91 123 163 206 246 282
#     4   9  16  32  53  70  91 123 165 204 244 288
#     4  11  21  33  51  72  95 127 167 206 239 281
#     4  10  20  33  48  66  93 131 170 202 233 275
#     4  10  18  30  48  72  99 129 167 203 237 279
#     4  10  20  33  49  72 103 134 160 194 242 290
#     4   8  16  32  50  69  97 128 157 195 243 288
#     4  12  23  33  47  70  99 129 160 198 247 295
#
# _framework density 15.587899
#
# number of rings (size 3 to 8) (size 9 to 14) (size 15 to 20)
#    0.000    2.250    1.250    4.875    0.000    4.500 
#    0.000    1.875    0.000    0.000    0.000    0.875 
#    0.000    7.000    0.000    0.000    0.000    0.000 
#
# Total GULP energy -178479.335739 kJ/mol
# GULP energy per Si atom -5577.479242 kJ/mol
# Density = 1.555242 g / cm^3
# Si number density = 15.587899 Si / 1000 Ang^3
#
#
#
# Elastic Constant Matrix: (Units=GPa)
#
#
# Indices 1 2 3 4 5 6 
#
# 1 124.0508 47.5434 63.2233 0.0000 -15.8509 0.0000
# 2 47.5434 55.9212 37.7841 0.0000 -6.5625 0.0000
# 3 63.2233 37.7841 99.0871 0.0000 -18.5806 0.0000
# 4 0.0000 0.0000 0.0000 80.3071 0.0000 5.0685
# 5 -15.8509 -6.5625 -18.5806 0.0000 9.1946 0.0000
# 6 0.0000 0.0000 0.0000 5.0685 0.0000 25.7347
#
#
#
# Elastic Compliance Matrix: (Units=1/GPa)
#
#
# Indices 1 2 3 4 5 6 
#
# 1 0.014869 -0.008535 -0.004135 0.000000 0.011185 0.000000
# 2 -0.008535 0.029015 -0.007236 0.000000 -0.008628 0.000000
# 3 -0.004135 -0.007236 0.021230 0.000000 0.030607 0.000000
# 4 0.000000 0.000000 0.000000 0.012609 0.000000 -0.002483
# 5 0.011185 -0.008628 0.030607 0.000000 0.183734 0.000000
# 6 0.000000 0.000000 0.000000 -0.002483 0.000000 0.039347
#
#
# Mechanical properties :
#
#
# Convention : Reuss Voigt Hill
#
# Bulk Modulus (GPa) = 39.52452 64.01788 51.77120
# Shear Modulus (GPa) = 14.32456 31.74785 23.03620
#
# Velocity S-wave (km/s) = 3.03471 4.51788 3.84842
# Velocity P-wave (km/s) = 6.13924 8.26880 7.28228
#
# Compressibility (1/GPa) = 0.02530075
#
# Stress axis : x y z
#
# Youngs Moduli (GPa) = 67.25386 34.46457 47.10411
#
# Poissons Ratio (x) = 0.29414 0.19480
# Poissons Ratio (y) = 0.57399 0.34086
# Poissons Ratio (z) = 0.27813 0.24940
#
# Static dielectric constant tensor:
#      x y z
#    x 1.516200 0.000000 -0.009320 
#    y 0.000000 1.521020 0.000000 
#    z -0.009320 0.000000 1.513280 
# 
# From -- ./inp_files/66141.got.cif
#   From: 2010.05.17/outbox.cif.g08.bks.cpg/sg10_34_cif.got.tgz:66141.got - 2010.06.03 11:33:40.
