data_PCOD9142914
_publ_section_title
;
Structure prediction by ZEFSAII (Michael W. Deem and Ramdas Pophale) SiO2 
 PCOD9142914
Probable space group: P 2/M
;
_chemical_formula_sum "Si O2"
_cell_formula_units_Z 32
_cell_length_a 14.760018
_cell_length_b 8.954988
_cell_length_c 16.280330
_cell_angle_alpha 90.000000
_cell_angle_beta 63.053280
_cell_angle_gamma 90.000000
_cell_volume 1918.233721
_symmetry_space_group_name_H-M "P 2/M"
_symmetry_group_IT_number 10
_symmetry_cell_setting 'monoclinic'
loop_
_space_group_symop_operation_xyz
x,y,z
-x,y,-z
-x,-y,-z
x,-y,z
loop_
_atom_site_type_symbol
_atom_site_label
_atom_site_fract_x
_atom_site_fract_y
_atom_site_fract_z
Si Si1 0.114868 0.824038 0.050511
Si Si2 0.220024 0.677830 0.854609
Si Si3 0.650826 0.678216 0.768862
Si Si4 0.677710 0.175739 0.935096
Si Si5 0.047534 0.818577 0.606723
Si Si6 0.578673 0.320713 0.131964
Si Si7 0.092662 0.180179 0.771984
Si Si8 0.159013 0.180411 0.395030
O O1 0.208309 0.806895 0.075587
O O2 0.010523 0.779524 0.136753
O O3 0.108537 0.000000 0.031268
O O4 0.143886 0.733665 0.957450
O O5 0.215216 0.500000 0.849937
O O6 0.332333 0.720640 0.840822
O O7 0.185677 0.752105 0.784192
O O8 0.661207 0.500000 0.764088
O O9 0.666757 0.739114 0.854384
O O10 0.534721 0.716322 0.792964
O O11 0.735788 0.749926 0.676294
O O12 0.658551 0.000000 0.931111
O O13 0.604342 0.241328 0.035394
O O14 0.081479 0.768073 0.682563
O O15 0.121330 0.775342 0.501523
O O16 0.932858 0.774484 0.628765
O O17 0.046650 0.000000 0.608321
O O18 0.584474 0.500000 0.116721
O O19 0.099546 0.000000 0.769384
O O20 0.166127 0.000000 0.389501
#
# Coordination Sequence:
#
# PCOD9142914 Si02
#       8
#     4   4   4   4   4   4   4   4
#     4   9  18  31  47  69  98 128 155 187 231 282
#     4  10  20  33  47  65  92 127 165 200 231 268
#     4  11  21  32  48  70  97 129 160 193 239 286
#     4  10  19  31  49  73  98 125 161 199 232 277
#     4   8  16  32  54  76  99 125 150 186 239 289
#     4   9  20  36  48  62  94 134 164 195 239 282
#     4  10  18  30  49  71  95 124 156 189 233 285
#     4   9  17  33  55  76  97 123 156 190 229 283
#
# _framework density 16.682013000000001
#
# number of rings (size 3 to 8) (size 9 to 14) (size 15 to 20)
#    0.000    2.500    0.000    3.375    0.000    7.500 
#    0.000    3.750    0.000    0.750    0.000    5.250 
#    0.000    0.000    0.000    0.000    0.000    0.000 
#
# Total GULP energy -178541.550848 kJ/mol
# GULP energy per Si atom -5579.423464 kJ/mol
# Density = 1.664404 g / cm^3
# Si number density = 16.682013 Si / 1000 Ang^3
#
#
#
# Elastic Constant Matrix: (Units=GPa)
#
#
# Indices 1 2 3 4 5 6 
#
# 1 103.8501 38.3680 86.2644 0.0000 -0.2655 0.0000
# 2 38.3680 25.5153 34.8982 0.0000 -2.0907 0.0000
# 3 86.2644 34.8982 102.3035 0.0000 -0.9007 0.0000
# 4 0.0000 0.0000 0.0000 -7.9965 0.0000 -2.7199
# 5 -0.2655 -2.0907 -0.9007 0.0000 32.0232 0.0000
# 6 0.0000 0.0000 0.0000 -2.7199 0.0000 26.0356
#
#
#
# Elastic Compliance Matrix: (Units=1/GPa)
#
#
# Indices 1 2 3 4 5 6 
#
# 1 0.039762 -0.026394 -0.024543 0.000000 -0.002084 0.000000
# 2 -0.026394 0.091531 -0.008920 0.000000 0.005506 0.000000
# 3 -0.024543 -0.008920 0.033514 0.000000 0.000157 0.000000
# 4 0.000000 0.000000 0.000000 -0.120764 0.000000 -0.012616
# 5 -0.002084 0.005506 0.000157 0.000000 0.031574 0.000000
# 6 0.000000 0.000000 0.000000 -0.012616 0.000000 0.037091
#
#
# Mechanical properties :
#
#
# Convention : Reuss Voigt Hill
#
# Bulk Modulus (GPa) = 22.17526 61.19224 41.68375
# Shear Modulus (GPa) = 20.20576 14.82168 17.51372
#
# Velocity S-wave (km/s) = 3.48405 2.98398 3.24366
# Velocity P-wave (km/s) = 5.43200 6.97376 6.25060
#
# Compressibility (1/GPa) = 0.04509529
#
# Stress axis : x y z
#
# Youngs Moduli (GPa) = 25.14941 10.92520 29.83800
#
# Poissons Ratio (x) = 0.28836 0.73232
# Poissons Ratio (y) = 0.66378 0.26614
# Poissons Ratio (z) = 0.61725 0.09745
#
# Static dielectric constant tensor:
#      x y z
#    x 1.577020 0.000000 0.000560 
#    y 0.000000 1.557630 0.000000 
#    z 0.000560 0.000000 1.538190 
# 
# From -- ./inp_files/66462.got.cif
#   From: 2010.05.17/outbox.cif.g08.bks.cpg/sg10_34_cif.got.tgz:66462.got - 2010.06.03 11:33:40.
