data_PCOD9142171
_publ_section_title
;
Structure prediction by ZEFSAII (Michael W. Deem and Ramdas Pophale) SiO2 
 PCOD9142171
Probable space group: P 2/M
;
_chemical_formula_sum "Si O2"
_cell_formula_units_Z 28
_cell_length_a 26.121205
_cell_length_b 14.971293
_cell_length_c 23.954417
_cell_angle_alpha 90.000000
_cell_angle_beta 10.997665
_cell_angle_gamma 90.000000
_cell_volume 1787.087860
_symmetry_space_group_name_H-M "P 2/M"
_symmetry_group_IT_number 10
_symmetry_cell_setting 'monoclinic'
loop_
_space_group_symop_operation_xyz
x,y,z
-x,y,-z
-x,-y,-z
x,-y,z
loop_
_atom_site_type_symbol
_atom_site_label
_atom_site_fract_x
_atom_site_fract_y
_atom_site_fract_z
Si Si1 0.980045 0.167346 0.168941
Si Si2 0.132954 0.675236 0.638500
Si Si3 0.430886 0.098392 0.474270
Si Si4 0.127183 0.608250 0.305724
Si Si5 0.185812 0.276675 0.753328
Si Si6 0.266143 0.608338 0.373691
Si Si7 0.537688 0.394843 0.299245
O O1 0.742585 0.107993 0.397008
O O2 0.995125 0.245756 0.105667
O O3 0.902949 0.220337 0.307143
O O4 0.259875 0.116751 0.870458
O O5 0.204060 0.654156 0.498881
O O6 0.364527 0.635761 0.430726
O O7 0.846846 0.630090 0.958706
O O8 0.318253 0.182020 0.630501
O O9 0.392321 0.000000 0.540019
O O10 0.119545 0.500000 0.316050
O O11 0.000000 0.640706 0.500000
O O12 0.948724 0.633683 0.443529
O O13 0.436652 0.632280 0.965706
O O14 0.410597 0.340500 0.487066
O O15 0.000000 0.315505 0.000000
O O16 0.255451 0.500000 0.392803
O O17 0.508730 0.500000 0.338368
#
# Coordination Sequence:
#
# PCOD9142171 Si02
#       7
#     4   4   4   4   4   4   4
#     4   9  19  35  50  70  94 120 143 192 240 287
#     4  11  19  35  49  68  95 119 160 204 241 269
#     4  10  19  35  54  72  91 117 150 184 239 299
#     4   9  17  28  39  58  90 121 155 198 233 259
#     4   9  21  36  50  70  95 119 155 194 240 289
#     4  10  18  26  43  65  83 119 164 195 224 265
#     4  11  21  34  50  67  92 126 157 202 243 275
#
# _framework density 15.667949
#
# number of rings (size 3 to 8) (size 9 to 14) (size 15 to 20)
#    0.857    1.286    1.429    3.000    0.000    4.000 
#    0.000    0.714    0.000    2.571    0.000    0.000 
#    0.000    0.000    0.000    0.000    0.000   50.000 
#
# Total GULP energy -155956.175561 kJ/mol
# GULP energy per Si atom -5569.863413 kJ/mol
# Density = 1.563229 g / cm^3
# Si number density = 15.667949 Si / 1000 Ang^3
#
#
#
# Elastic Constant Matrix: (Units=GPa)
#
#
# Indices 1 2 3 4 5 6 
#
# 1 36.1559 -3.7212 7.2904 0.0000 1.7954 0.0000
# 2 -3.7212 23.3986 3.7327 0.0000 1.2057 0.0000
# 3 7.2904 3.7327 59.0085 0.0000 -10.9037 0.0000
# 4 0.0000 0.0000 0.0000 32.9756 0.0000 -17.2620
# 5 1.7954 1.2057 -10.9037 0.0000 37.1658 0.0000
# 6 0.0000 0.0000 0.0000 -17.2620 0.0000 15.3472
#
#
#
# Elastic Compliance Matrix: (Units=1/GPa)
#
#
# Indices 1 2 3 4 5 6 
#
# 1 0.029280 0.005526 -0.004506 0.000000 -0.002916 0.000000
# 2 0.005526 0.044407 -0.004025 0.000000 -0.002889 0.000000
# 3 -0.004506 -0.004025 0.018844 0.000000 0.005877 0.000000
# 4 0.000000 0.000000 0.000000 0.073747 0.000000 0.082948
# 5 -0.002916 -0.002889 0.005877 0.000000 0.028865 0.000000
# 6 0.000000 0.000000 0.000000 0.082948 0.000000 0.158456
#
#
# Mechanical properties :
#
#
# Convention : Reuss Voigt Hill
#
# Bulk Modulus (GPa) = 11.55804 14.79632 13.17718
# Shear Modulus (GPa) = 12.87164 24.51513 18.69338
#
# Velocity S-wave (km/s) = 2.86934 3.95988 3.45787
# Velocity P-wave (km/s) = 4.28607 5.51105 4.93670
#
# Compressibility (1/GPa) = 0.08651985
#
# Stress axis : x y z
#
# Youngs Moduli (GPa) = 34.15301 22.51878 53.06746
#
# Poissons Ratio (x) = -0.12443 0.23911
# Poissons Ratio (y) = -0.18871 0.21362
# Poissons Ratio (z) = 0.15389 0.09065
#
# Static dielectric constant tensor:
#      x y z
#    x 1.533610 0.000000 -0.019180 
#    y 0.000000 1.525390 0.000000 
#    z -0.019180 0.000000 1.523960 
# 
# From -- ./inp_files/91272.got.cif
#   From: 2010.05.17/outbox.cif.g08.bks.cpg/sg10_46_cif.got.tgz:91272.got - 2010.06.03 11:33:40.
