data_PCOD9142156
_publ_section_title
;
Structure prediction by ZEFSAII (Michael W. Deem and Ramdas Pophale) SiO2 
 PCOD9142156
Probable space group: P 2/M
;
_chemical_formula_sum "Si O2"
_cell_formula_units_Z 28
_cell_length_a 16.272220
_cell_length_b 7.256875
_cell_length_c 13.954092
_cell_angle_alpha 90.000000
_cell_angle_beta 142.098171
_cell_angle_gamma 90.000000
_cell_volume 1012.245586
_symmetry_space_group_name_H-M "P 2/M"
_symmetry_group_IT_number 10
_symmetry_cell_setting 'monoclinic'
loop_
_space_group_symop_operation_xyz
x,y,z
-x,y,-z
-x,-y,-z
x,-y,z
loop_
_atom_site_type_symbol
_atom_site_label
_atom_site_fract_x
_atom_site_fract_y
_atom_site_fract_z
Si Si1 0.023316 0.789456 0.834917
Si Si2 0.195072 0.775407 0.154438
Si Si3 0.439408 0.723507 0.838132
Si Si4 0.845296 0.717796 0.373449
Si Si5 0.280114 0.717937 0.952477
Si Si6 0.752721 0.219973 0.572688
Si Si7 0.475995 0.221375 0.363967
O O1 0.157645 0.795353 0.898817
O O2 0.894183 0.714298 0.659512
O O3 0.985231 0.000000 0.820916
O O4 0.070039 0.706838 0.978340
O O5 0.214657 0.736921 0.284365
O O6 0.325821 0.710814 0.215708
O O7 0.192326 0.000000 0.147951
O O8 0.434087 0.500000 0.830027
O O9 0.284043 0.785858 0.680328
O O10 0.500000 0.768634 0.000000
O O11 0.567980 0.787914 0.893987
O O12 0.859999 0.500000 0.408046
O O13 0.773106 0.741912 0.204760
O O14 0.000000 0.787475 0.500000
O O15 0.284279 0.500000 0.972528
O O16 0.603635 0.296115 0.423631
O O17 0.737242 0.000000 0.544364
O O18 0.500000 0.253938 0.500000
O O19 0.472906 0.000000 0.351029
#
# Coordination Sequence:
#
# PCOD9142156 Si02
#       7
#     4   4   4   4   4   4   4
#     4  10  18  26  39  60  85 109 134 168 204 238
#     4   8  13  22  37  56  76 102 140 178 204 231
#     4   7  11  22  41  61  78  99 127 157 190 229
#     4   8  13  24  46  70  82  95 132 177 200 220
#     4   9  17  29  43  60  85 111 131 158 201 246
#     4   8  13  22  37  56  77 104 139 176 208 233
#     4   7  10  18  33  52  72  93 123 167 210 237
#
# _framework density 27.661272
#
# number of rings (size 3 to 8) (size 9 to 14) (size 15 to 20)
#    0.000    3.857    0.000    3.857    0.000    1.714 
#    0.000    1.429    0.000    6.000    0.000    0.000 
#    0.000    3.429    0.000    0.000    0.000    0.000 
#
# Total GULP energy -156056.671668 kJ/mol
# GULP energy per Si atom -5573.452560 kJ/mol
# Density = 2.759831 g / cm^3
# Si number density = 27.661272 Si / 1000 Ang^3
#
#
#
# Elastic Constant Matrix: (Units=GPa)
#
#
# Indices 1 2 3 4 5 6 
#
# 1 127.4878 11.8567 48.6388 0.0000 65.0670 0.0000
# 2 11.8567 107.1177 22.1452 0.0000 6.5470 0.0000
# 3 48.6388 22.1452 195.7539 0.0000 63.0227 0.0000
# 4 0.0000 0.0000 0.0000 -4.6163 0.0000 1.2083
# 5 65.0670 6.5470 63.0227 0.0000 76.7687 0.0000
# 6 0.0000 0.0000 0.0000 1.2083 0.0000 1.0414
#
#
#
# Elastic Compliance Matrix: (Units=1/GPa)
#
#
# Indices 1 2 3 4 5 6 
#
# 1 0.013941 -0.000915 0.000569 0.000000 -0.012205 0.000000
# 2 -0.000915 0.009620 -0.001151 0.000000 0.000899 0.000000
# 3 0.000569 -0.001151 0.007097 0.000000 -0.006210 0.000000
# 4 0.000000 0.000000 0.000000 -0.166159 0.000000 0.192795
# 5 -0.012205 0.000899 -0.006210 0.000000 0.028392 0.000000
# 6 0.000000 0.000000 0.000000 0.192795 0.000000 0.736548
#
#
# Mechanical properties :
#
#
# Convention : Reuss Voigt Hill
#
# Bulk Modulus (GPa) = 36.14714 66.18232 51.16473
# Shear Modulus (GPa) = 7.79238 37.82001 22.80619
#
# Velocity S-wave (km/s) = 1.68023 3.70165 2.87449
# Velocity P-wave (km/s) = 4.10614 6.49981 5.43636
#
# Compressibility (1/GPa) = 0.02766471
#
# Stress axis : x y z
#
# Youngs Moduli (GPa) = 71.72999 103.95376 140.91389
#
# Poissons Ratio (x) = 0.09509 -0.08018
# Poissons Ratio (y) = 0.06562 0.16213
# Poissons Ratio (z) = -0.04081 0.11960
#
# Static dielectric constant tensor:
#      x y z
#    x 2.425610 0.000000 0.000210 
#    y 0.000000 2.105530 0.000000 
#    z 0.000210 0.000000 2.187070 
# 
# From -- ./inp_files/67144.got.cif
#   From: 2010.05.17/outbox.cif.g08.bks.cpg/sg10_34_cif.got.tgz:67144.got - 2010.06.03 11:33:40.
