data_PCOD9142638
_publ_section_title
;
Structure prediction by ZEFSAII (Michael W. Deem and Ramdas Pophale) SiO2 
 PCOD9142638
Probable space group: P 2/M
;
_chemical_formula_sum "Si O2"
_cell_formula_units_Z 32
_cell_length_a 14.729631
_cell_length_b 20.566018
_cell_length_c 15.675002
_cell_angle_alpha 90.000000
_cell_angle_beta 20.008284
_cell_angle_gamma 90.000000
_cell_volume 1624.702498
_symmetry_space_group_name_H-M "P 2/M"
_symmetry_group_IT_number 10
_symmetry_cell_setting 'monoclinic'
loop_
_space_group_symop_operation_xyz
x,y,z
-x,y,-z
-x,-y,-z
x,-y,z
loop_
_atom_site_type_symbol
_atom_site_label
_atom_site_fract_x
_atom_site_fract_y
_atom_site_fract_z
Si Si1 0.842121 0.234624 0.999844
Si Si2 0.389301 0.424316 0.999979
Si Si3 0.897548 0.623905 0.999847
Si Si4 0.721642 0.071516 0.500101
Si Si5 0.395721 0.423384 0.499836
Si Si6 0.896623 0.908189 0.999971
Si Si7 0.109093 0.655118 0.500018
Si Si8 0.226130 0.217537 0.499789
O O1 0.899367 0.169616 0.000026
O O2 0.532618 0.232832 0.249389
O O3 0.900005 0.299442 0.999684
O O4 0.031802 0.232788 0.750227
O O5 0.357803 0.500000 0.000048
O O6 0.613495 0.384566 0.749851
O O7 0.500000 0.426832 0.000000
O O8 0.113352 0.384523 0.249989
O O9 0.100162 0.600395 0.750541
O O10 0.601450 0.600492 0.249247
O O11 0.000000 0.594879 0.000000
O O12 0.409827 0.073959 0.748976
O O13 0.782420 0.137859 0.500242
O O14 0.767721 0.000000 0.500089
O O15 0.907681 0.073978 0.251137
O O16 0.500000 0.396215 0.500000
O O17 0.401158 0.500000 0.499583
O O18 0.000000 0.931830 0.000000
O O19 0.000000 0.657647 0.500000
O O20 0.145842 0.729336 0.499883
#
# Coordination Sequence:
#
# PCOD9142638 Si02
#       8
#     4   4   4   4   4   4   4   4
#     4  10  20  34  50  70  98 131 162 198 252 305
#     4   9  17  30  52  83 112 135 164 205 252 303
#     4  10  18  29  48  67  85 116 158 201 240 286
#     4  10  21  35  52  75 104 141 175 208 260 312
#     4   9  17  28  43  64  86 112 155 208 251 283
#     4  10  20  33  51  76 104 132 170 217 255 297
#     4  10  19  33  56  81 104 135 175 214 250 296
#     4  10  21  36  53  73 102 135 167 206 249 302
#
# _framework density 19.695913000000001
#
# number of rings (size 3 to 8) (size 9 to 14) (size 15 to 20)
#    0.000    2.250    0.000    3.375    0.000    4.500 
#    0.000    3.750    0.000   15.375    0.000    0.000 
#    0.000    9.000    0.000    0.000    0.000    1.500 
#
# Total GULP energy -178414.765533 kJ/mol
# GULP energy per Si atom -5575.461423 kJ/mol
# Density = 1.965108 g / cm^3
# Si number density = 19.695913 Si / 1000 Ang^3
#
#
#
# Elastic Constant Matrix: (Units=GPa)
#
#
# Indices 1 2 3 4 5 6 
#
# 1 59.9913 34.5324 26.0521 0.0000 0.7161 0.0000
# 2 34.5324 171.7397 58.3667 0.0000 -2.2761 0.0000
# 3 26.0521 58.3667 193.4929 0.0000 -12.5741 0.0000
# 4 0.0000 0.0000 0.0000 104.9097 0.0000 -6.8518
# 5 0.7161 -2.2761 -12.5741 0.0000 13.3056 0.0000
# 6 0.0000 0.0000 0.0000 -6.8518 0.0000 25.6271
#
#
#
# Elastic Compliance Matrix: (Units=1/GPa)
#
#
# Indices 1 2 3 4 5 6 
#
# 1 0.019418 -0.003328 -0.001828 0.000000 -0.003342 0.000000
# 2 -0.003328 0.007066 -0.001697 0.000000 -0.000216 0.000000
# 3 -0.001828 -0.001697 0.006301 0.000000 0.005762 0.000000
# 4 0.000000 0.000000 0.000000 0.009701 0.000000 0.002594
# 5 -0.003342 -0.000216 0.005762 0.000000 0.080745 0.000000
# 6 0.000000 0.000000 0.000000 0.002594 0.000000 0.039715
#
#
# Mechanical properties :
#
#
# Convention : Reuss Voigt Hill
#
# Bulk Modulus (GPa) = 52.41357 73.68071 63.04714
# Shear Modulus (GPa) = 27.32077 49.18666 38.25372
#
# Velocity S-wave (km/s) = 3.72846 5.00272 4.41184
# Velocity P-wave (km/s) = 6.72342 8.41784 7.61789
#
# Compressibility (1/GPa) = 0.01907903
#
# Stress axis : x y z
#
# Youngs Moduli (GPa) = 51.49812 141.52549 158.71118
#
# Poissons Ratio (x) = 0.47093 0.29011
# Poissons Ratio (y) = 0.17136 0.26940
# Poissons Ratio (z) = 0.09413 0.24023
#
# Static dielectric constant tensor:
#      x y z
#    x 1.684710 0.000000 -0.003860 
#    y 0.000000 1.698410 0.000000 
#    z -0.003860 0.000000 1.729260 
# 
# From -- ./inp_files/67919.got.cif
#   From: 2010.05.17/outbox.cif.g08.bks.cpg/sg10_34_cif.got.tgz:67919.got - 2010.06.03 11:33:40.
