data_PCOD9142574
_publ_section_title
;
Structure prediction by ZEFSAII (Michael W. Deem and Ramdas Pophale) SiO2 
 PCOD9142574
Probable space group: P 2/M
;
_chemical_formula_sum "Si O2"
_cell_formula_units_Z 32
_cell_length_a 8.358907
_cell_length_b 14.232464
_cell_length_c 15.360100
_cell_angle_alpha 90.000000
_cell_angle_beta 112.133183
_cell_angle_gamma 90.000000
_cell_volume 1692.701024
_symmetry_space_group_name_H-M "P 2/M"
_symmetry_group_IT_number 10
_symmetry_cell_setting 'monoclinic'
loop_
_space_group_symop_operation_xyz
x,y,z
-x,y,-z
-x,-y,-z
x,-y,z
loop_
_atom_site_type_symbol
_atom_site_label
_atom_site_fract_x
_atom_site_fract_y
_atom_site_fract_z
Si Si1 0.859322 0.390282 0.789707
Si Si2 0.871162 0.307351 0.046727
Si Si3 0.427112 0.106366 0.836001
Si Si4 0.584962 0.611884 0.880853
Si Si5 0.620112 0.610220 0.441260
Si Si6 0.689882 0.708518 0.281166
Si Si7 0.048963 0.608690 0.379406
Si Si8 0.239178 0.894380 0.985767
O O1 0.883494 0.500000 0.812711
O O2 0.708436 0.359520 0.824044
O O3 0.039727 0.340303 0.847619
O O4 0.830581 0.380197 0.681685
O O5 0.879807 0.195695 0.043151
O O6 0.680663 0.342318 0.983314
O O7 0.000000 0.349602 0.000000
O O8 0.351092 0.184999 0.756600
O O9 0.332839 0.108386 0.910726
O O10 0.411377 0.000000 0.798312
O O11 0.625294 0.121901 0.907399
O O12 0.583498 0.500000 0.890159
O O13 0.398922 0.649299 0.815200
O O14 0.500000 0.631225 0.500000
O O15 0.588896 0.500000 0.410891
O O16 0.600701 0.675809 0.353406
O O17 0.819343 0.618841 0.513900
O O18 0.888694 0.678858 0.336727
O O19 0.983859 0.500000 0.365739
O O20 0.169145 0.000000 0.980567
#
# Coordination Sequence:
#
# PCOD9142574 Si02
#       8
#     4   4   4   4   4   4   4   4
#     4   9  18  32  47  65 102 148 177 202 247 305
#     4  10  18  29  46  71 101 137 175 213 248 300
#     4   9  19  34  54  74  98 134 171 211 261 316
#     4  10  19  30  45  70 104 142 176 204 247 309
#     4  10  21  37  56  79 108 141 172 204 250 309
#     4  12  20  32  55  80 102 130 173 221 260 299
#     4  10  20  33  50  77 106 132 169 215 254 291
#     4   9  17  33  51  71 100 133 172 216 262 305
#
# _framework density 18.904698
#
# number of rings (size 3 to 8) (size 9 to 14) (size 15 to 20)
#    0.000    2.125    1.250    4.125    0.000    4.750 
#    0.000    0.000    0.000    4.875    0.000    0.000 
#    0.000    0.000    0.000    0.000    0.000    0.000 
#
# Total GULP energy -178467.842214 kJ/mol
# GULP energy per Si atom -5577.120069 kJ/mol
# Density = 1.886167 g / cm^3
# Si number density = 18.904698 Si / 1000 Ang^3
#
#
#
# Elastic Constant Matrix: (Units=GPa)
#
#
# Indices 1 2 3 4 5 6 
#
# 1 52.9752 10.2202 14.4438 0.0000 0.3530 0.0000
# 2 10.2202 74.2282 53.3680 0.0000 -0.4799 0.0000
# 3 14.4438 53.3680 95.7021 0.0000 8.6235 0.0000
# 4 0.0000 0.0000 0.0000 -139.2882 0.0000 -19.5311
# 5 0.3530 -0.4799 8.6235 0.0000 23.5126 0.0000
# 6 0.0000 0.0000 0.0000 -19.5311 0.0000 13.7835
#
#
#
# Elastic Compliance Matrix: (Units=1/GPa)
#
#
# Indices 1 2 3 4 5 6 
#
# 1 0.019736 -0.000888 -0.002539 0.000000 0.000617 0.000000
# 2 -0.000888 0.023168 -0.013268 0.000000 0.005352 0.000000
# 3 -0.002539 -0.013268 0.018876 0.000000 -0.007156 0.000000
# 4 0.000000 0.000000 0.000000 -0.005989 0.000000 -0.008487
# 5 0.000617 0.005352 -0.007156 0.000000 0.045255 0.000000
# 6 0.000000 0.000000 0.000000 -0.008487 0.000000 0.060525
#
#
# Mechanical properties :
#
#
# Convention : Reuss Voigt Hill
#
# Bulk Modulus (GPa) = 35.22315 42.10771 38.66543
# Shear Modulus (GPa) = 24.45903 -10.74018 6.85942
#
# Velocity S-wave (km/s) = 3.60085 -2.38612 1.90691
# Velocity P-wave (km/s) = 5.99672 3.83805 5.03444
#
# Compressibility (1/GPa) = 0.02839042
#
# Stress axis : x y z
#
# Youngs Moduli (GPa) = 50.66819 43.16291 52.97765
#
# Poissons Ratio (x) = 0.03832 0.13452
# Poissons Ratio (y) = 0.04498 0.70290
# Poissons Ratio (z) = 0.12866 0.57268
#
# Static dielectric constant tensor:
#      x y z
#    x 1.744170 0.000000 -0.008250 
#    y 0.000000 1.629390 0.000000 
#    z -0.008250 0.000000 1.680610 
# 
# From -- ./inp_files/61868.got.cif
#   From: 2010.05.17/outbox.cif.g08.bks.cpg/sg10_31_cif.got.tgz:61868.got - 2010.06.03 11:33:40.
