data_PCOD9142545
_publ_section_title
;
Structure prediction by ZEFSAII (Michael W. Deem and Ramdas Pophale) SiO2 
 PCOD9142545
Probable space group: P 2/M
;
_chemical_formula_sum "Si O2"
_cell_formula_units_Z 32
_cell_length_a 13.690947
_cell_length_b 7.300794
_cell_length_c 16.198261
_cell_angle_alpha 90.000000
_cell_angle_beta 113.941543
_cell_angle_gamma 90.000000
_cell_volume 1479.786794
_symmetry_space_group_name_H-M "P 2/M"
_symmetry_group_IT_number 10
_symmetry_cell_setting 'monoclinic'
loop_
_space_group_symop_operation_xyz
x,y,z
-x,y,-z
-x,-y,-z
x,-y,z
loop_
_atom_site_type_symbol
_atom_site_label
_atom_site_fract_x
_atom_site_fract_y
_atom_site_fract_z
Si Si1 0.671997 0.776765 0.767251
Si Si2 0.101444 0.205214 0.782913
Si Si3 0.341452 0.777228 0.890454
Si Si4 0.138652 0.223791 0.290222
Si Si5 0.478726 0.777563 0.585207
Si Si6 0.237309 0.221891 0.503325
Si Si7 0.082869 0.291923 0.591318
Si Si8 0.437157 0.222216 0.102029
O O1 0.779466 0.720715 0.754757
O O2 0.571654 0.717691 0.677294
O O3 0.637581 0.717827 0.847570
O O4 0.676694 0.000000 0.770236
O O5 0.219072 0.288670 0.839156
O O6 0.095715 0.195991 0.681839
O O7 0.984478 0.284355 0.765898
O O8 0.104008 0.000000 0.820116
O O9 0.437406 0.719308 0.860825
O O10 0.337006 0.000000 0.882076
O O11 0.383757 0.730567 0.996238
O O12 0.184022 0.278455 0.397028
O O13 0.136762 0.000000 0.291292
O O14 0.500000 0.721116 0.500000
O O15 0.358586 0.720877 0.556889
O O16 0.481407 0.000000 0.589433
O O17 0.183762 0.293403 0.567593
O O18 0.232356 0.000000 0.501225
O O19 0.047776 0.500000 0.598069
O O20 0.000000 0.203262 0.500000
O O21 0.440592 0.000000 0.107409
#
# Coordination Sequence:
#
# PCOD9142545 Si02
#       8
#     4   4   4   4   4   4   4   4
#     4   9  15  23  37  62  96 128 154 186 233 280
#     4  10  19  31  49  70  93 122 158 197 236 277
#     4   8  15  27  42  64  93 123 154 190 235 282
#     4   9  16  26  40  63  94 123 152 192 234 270
#     4   9  15  23  38  65  95 120 154 194 228 270
#     4  10  18  29  46  67  93 123 156 197 236 270
#     4  11  23  35  46  65  95 127 159 192 230 281
#     4   8  14  25  40  61  95 128 151 186 237 287
#
# _framework density 21.624737
#
# number of rings (size 3 to 8) (size 9 to 14) (size 15 to 20)
#    0.000    2.750    2.500    1.125    1.750    0.500 
#    0.000    0.625    0.000    4.125    0.000    1.750 
#    0.000    1.000    0.000    0.000    0.000    0.000 
#
# Total GULP energy -178318.054908 kJ/mol
# GULP energy per Si atom -5572.439216 kJ/mol
# Density = 2.157552 g / cm^3
# Si number density = 21.624737 Si / 1000 Ang^3
#
#
#
# Elastic Constant Matrix: (Units=GPa)
#
#
# Indices 1 2 3 4 5 6 
#
# 1 224.9621 4.2081 70.0735 0.0000 8.8810 0.0000
# 2 4.2081 88.9196 0.5974 0.0000 3.2505 0.0000
# 3 70.0735 0.5974 75.7016 0.0000 5.4522 0.0000
# 4 0.0000 0.0000 0.0000 -29.2357 0.0000 15.9994
# 5 8.8810 3.2505 5.4522 0.0000 43.7327 0.0000
# 6 0.0000 0.0000 0.0000 15.9994 0.0000 -46.5947
#
#
#
# Elastic Compliance Matrix: (Units=1/GPa)
#
#
# Indices 1 2 3 4 5 6 
#
# 1 0.006264 -0.000238 -0.005758 0.000000 -0.000537 0.000000
# 2 -0.000238 0.011286 0.000190 0.000000 -0.000814 0.000000
# 3 -0.005758 0.000190 0.018622 0.000000 -0.001166 0.000000
# 4 0.000000 0.000000 0.000000 -0.042120 0.000000 -0.014463
# 5 -0.000537 -0.000814 -0.001166 0.000000 0.023181 0.000000
# 6 0.000000 0.000000 0.000000 -0.014463 0.000000 -0.026428
#
#
# Mechanical properties :
#
#
# Convention : Reuss Voigt Hill
#
# Bulk Modulus (GPa) = 40.71655 59.92682 50.32169
# Shear Modulus (GPa) = 471.43812 14.56074 242.99943
#
# Velocity S-wave (km/s) = 14.78114 2.59769 10.61202
# Velocity P-wave (km/s) = 17.61190 6.06380 13.17096
#
# Compressibility (1/GPa) = 0.02456004
#
# Stress axis : x y z
#
# Youngs Moduli (GPa) = 159.63084 88.60638 53.69884
#
# Poissons Ratio (x) = 0.02110 0.30921
# Poissons Ratio (y) = 0.03802 -0.01020
# Poissons Ratio (z) = 0.91919 -0.01684
#
# Static dielectric constant tensor:
#      x y z
#    x 1.781600 0.000000 0.004040 
#    y 0.000000 1.946160 0.000000 
#    z 0.004040 0.000000 1.729880 
# 
# From -- ./inp_files/56799.got.cif
#   From: 2010.05.17/outbox.cif.g08.bks.cpg/sg10_29_cif.got.tgz:56799.got - 2010.06.03 11:33:40.
