data_PCOD9142361
_publ_section_title
;
Structure prediction by ZEFSAII (Michael W. Deem and Ramdas Pophale) SiO2 
 PCOD9142361
Probable space group: P 2/M
;
_chemical_formula_sum "Si O2"
_cell_formula_units_Z 32
_cell_length_a 17.518952
_cell_length_b 7.552025
_cell_length_c 12.177711
_cell_angle_alpha 90.000000
_cell_angle_beta 84.883761
_cell_angle_gamma 90.000000
_cell_volume 1604.735448
_symmetry_space_group_name_H-M "P 2/M"
_symmetry_group_IT_number 10
_symmetry_cell_setting 'monoclinic'
loop_
_space_group_symop_operation_xyz
x,y,z
-x,y,-z
-x,-y,-z
x,-y,z
loop_
_atom_site_type_symbol
_atom_site_label
_atom_site_fract_x
_atom_site_fract_y
_atom_site_fract_z
Si Si1 0.596113 0.204325 0.587021
Si Si2 0.246158 0.216939 0.333793
Si Si3 0.971438 0.216912 0.266418
Si Si4 0.861484 0.212226 0.084002
Si Si5 0.267353 0.711224 0.733704
Si Si6 0.847602 0.795463 0.446493
Si Si7 0.430604 0.700742 0.656919
Si Si8 0.864808 0.216452 0.834424
O O1 0.667515 0.271681 0.648317
O O2 0.588355 0.299298 0.471063
O O3 0.513728 0.212442 0.656094
O O4 0.611593 0.000000 0.556438
O O5 0.190212 0.279522 0.439149
O O6 0.209950 0.272335 0.223286
O O7 0.245999 0.000000 0.334788
O O8 0.925211 0.274646 0.163077
O O9 0.923342 0.280128 0.378177
O O10 0.059083 0.269383 0.241860
O O11 0.968788 0.000000 0.269251
O O12 0.780042 0.252739 0.150178
O O13 0.870150 0.000000 0.078326
O O14 0.868653 0.279026 0.959376
O O15 0.270213 0.500000 0.714660
O O16 0.217541 0.789509 0.639968
O O17 0.354440 0.778711 0.721803
O O18 0.865466 0.000000 0.470063
O O19 0.439766 0.500000 0.694314
O O20 0.865131 0.000000 0.837547
#
# Coordination Sequence:
#
# PCOD9142361 Si02
#       8
#     4   4   4   4   4   4   4   4
#     4  10  18  28  45  69  97 124 147 181 225 272
#     4   9  17  27  42  67 100 128 151 184 225 275
#     4   8  14  24  43  69  94 120 153 194 233 268
#     4   9  17  29  48  70  92 120 157 198 233 268
#     4  10  19  30  47  69  93 119 150 193 237 275
#     4   9  16  28  45  68  96 123 153 187 227 276
#     4  10  19  30  46  69  93 118 151 187 227 275
#     4   9  16  27  44  69  97 124 155 192 232 269
#
# _framework density 19.940981000000001
#
# number of rings (size 3 to 8) (size 9 to 14) (size 15 to 20)
#    0.000    2.750    1.250    3.000    0.000    3.500 
#    0.000    2.500    0.000    9.000    0.000    8.750 
#    0.000    0.000    0.000    0.000    0.000    0.000 
#
# Total GULP energy -178464.213757 kJ/mol
# GULP energy per Si atom -5577.006680 kJ/mol
# Density = 1.989559 g / cm^3
# Si number density = 19.940981 Si / 1000 Ang^3
#
#
#
# Elastic Constant Matrix: (Units=GPa)
#
#
# Indices 1 2 3 4 5 6 
#
# 1 114.3413 -8.7136 13.2267 0.0000 4.0070 0.0000
# 2 -8.7136 47.1378 -7.6592 0.0000 3.8553 0.0000
# 3 13.2267 -7.6592 8.8529 0.0000 5.7030 0.0000
# 4 0.0000 0.0000 0.0000 307.2105 0.0000 121.2250
# 5 4.0070 3.8553 5.7030 0.0000 17.9630 0.0000
# 6 0.0000 0.0000 0.0000 121.2250 0.0000 -52.4352
#
#
#
# Elastic Compliance Matrix: (Units=1/GPa)
#
#
# Indices 1 2 3 4 5 6 
#
# 1 0.010835 -0.001699 -0.020537 0.000000 0.004468 0.000000
# 2 -0.001699 0.028753 0.039154 0.000000 -0.018223 0.000000
# 3 -0.020537 0.039154 0.226252 0.000000 -0.075653 0.000000
# 4 0.000000 0.000000 0.000000 0.001702 0.000000 0.003935
# 5 0.004468 -0.018223 -0.075653 0.000000 0.082603 0.000000
# 6 0.000000 0.000000 0.000000 0.003935 0.000000 -0.009973
#
#
# Mechanical properties :
#
#
# Convention : Reuss Voigt Hill
#
# Bulk Modulus (GPa) = 3.33697 18.22666 10.78181
# Shear Modulus (GPa) = 12.30834 66.11286 39.21060
#
# Velocity S-wave (km/s) = 2.48712 5.76422 4.43915
# Velocity P-wave (km/s) = 3.15036 7.31176 5.62968
#
# Compressibility (1/GPa) = 0.29967342
#
# Stress axis : x y z
#
# Youngs Moduli (GPa) = 92.29043 34.77956 4.41986
#
# Poissons Ratio (x) = 0.05911 0.09077
# Poissons Ratio (y) = 0.15685 -0.17305
# Poissons Ratio (z) = 1.89539 -1.36175
#
# Static dielectric constant tensor:
#      x y z
#    x 1.721200 0.000000 -0.016260 
#    y 0.000000 1.762350 0.000000 
#    z -0.016260 0.000000 1.673720 
# 
# From -- ./inp_files/52797.got.cif
#   From: 2010.05.17/outbox.cif.g08.bks.cpg/sg10_27_cif.got.tgz:52797.got - 2010.06.03 11:33:40.
