data_PCOD9142873
_publ_section_title
;
Structure prediction by ZEFSAII (Michael W. Deem and Ramdas Pophale) SiO2 
 PCOD9142873
Probable space group: P 2/M
;
_chemical_formula_sum "Si O2"
_cell_formula_units_Z 28
_cell_length_a 20.373288
_cell_length_b 7.766127
_cell_length_c 17.469979
_cell_angle_alpha 90.000000
_cell_angle_beta 31.479820
_cell_angle_gamma 90.000000
_cell_volume 1443.422225
_symmetry_space_group_name_H-M "P 2/M"
_symmetry_group_IT_number 10
_symmetry_cell_setting 'monoclinic'
loop_
_space_group_symop_operation_xyz
x,y,z
-x,y,-z
-x,-y,-z
x,-y,z
loop_
_atom_site_type_symbol
_atom_site_label
_atom_site_fract_x
_atom_site_fract_y
_atom_site_fract_z
Si Si1 0.840385 0.203232 0.820643
Si Si2 0.499739 0.211035 0.589315
Si Si3 0.247647 0.205109 0.579518
Si Si4 0.749042 0.211112 0.072667
Si Si5 0.999260 0.789311 0.912813
Si Si6 0.848062 0.799396 0.646759
Si Si7 0.869936 0.698150 0.457844
O O1 0.807874 0.276472 0.768873
O O2 0.991425 0.216202 0.683958
O O3 0.813505 0.000000 0.842300
O O4 0.767111 0.271369 0.967283
O O5 0.500000 0.264206 0.500000
O O6 0.624219 0.270783 0.510321
O O7 0.375641 0.265802 0.758792
O O8 0.499033 0.000000 0.589697
O O9 0.223892 0.235021 0.513566
O O10 0.123811 0.272023 0.745843
O O11 0.249684 0.000000 0.589532
O O12 0.748440 0.000000 0.071718
O O13 0.873059 0.264725 0.995514
O O14 0.000070 0.000000 0.910535
O O15 0.000000 0.735953 0.000000
O O16 0.816234 0.718255 0.596978
O O17 0.000000 0.792798 0.500000
O O18 0.811633 0.000000 0.678758
O O19 0.893822 0.500000 0.418660
#
# Coordination Sequence:
#
# PCOD9142873 Si02
#       7
#     4   4   4   4   4   4   4
#     4   9  16  29  48  71  98 129 159 193 243 292
#     4   9  17  28  45  74 103 124 156 203 244 280
#     4  10  18  30  48  70  99 129 158 195 242 288
#     4   9  15  25  43  68  99 126 154 193 237 285
#     4   9  15  23  41  69  95 120 151 191 238 282
#     4   8  15  27  45  68  96 126 157 193 240 293
#     4  11  20  29  45  70  99 127 162 200 238 283
#
# _framework density 19.398344000000002
#
# number of rings (size 3 to 8) (size 9 to 14) (size 15 to 20)
#    0.000    2.714    1.429    3.000    0.000    6.000 
#    0.000    0.000    0.000    2.571    0.000    6.000 
#    0.000    0.000    0.000    0.000    0.000    0.000 
#
# Total GULP energy -156092.265368 kJ/mol
# GULP energy per Si atom -5574.723763 kJ/mol
# Density = 1.935419 g / cm^3
# Si number density = 19.398344 Si / 1000 Ang^3
#
#
#
# Elastic Constant Matrix: (Units=GPa)
#
#
# Indices 1 2 3 4 5 6 
#
# 1 152.4624 -0.7651 105.0920 0.0000 11.6823 0.0000
# 2 -0.7651 20.8126 7.6060 0.0000 0.8797 0.0000
# 3 105.0920 7.6060 150.3788 0.0000 16.3831 0.0000
# 4 0.0000 0.0000 0.0000 -8.5012 0.0000 -5.7513
# 5 11.6823 0.8797 16.3831 0.0000 27.6692 0.0000
# 6 0.0000 0.0000 0.0000 -5.7513 0.0000 -48.4658
#
#
#
# Elastic Compliance Matrix: (Units=1/GPa)
#
#
# Indices 1 2 3 4 5 6 
#
# 1 0.012952 0.003856 -0.009233 0.000000 -0.000124 0.000000
# 2 0.003856 0.050101 -0.005214 0.000000 -0.000134 0.000000
# 3 -0.009233 -0.005214 0.013815 0.000000 -0.004116 0.000000
# 4 0.000000 0.000000 0.000000 -0.127898 0.000000 0.015177
# 5 -0.000124 -0.000134 -0.004116 0.000000 0.038635 0.000000
# 6 0.000000 0.000000 0.000000 0.015177 0.000000 -0.022434
#
#
# Mechanical properties :
#
#
# Convention : Reuss Voigt Hill
#
# Bulk Modulus (GPa) = 17.95835 60.83553 39.39694
# Shear Modulus (GPa) = 1017.36677 8.25516 512.81096
#
# Velocity S-wave (km/s) = 22.92595 2.06515 16.27673
# Velocity P-wave (km/s) = 26.64726 6.09227 19.32864
#
# Compressibility (1/GPa) = 0.05568441
#
# Stress axis : x y z
#
# Youngs Moduli (GPa) = 77.20671 19.95983 72.38758
#
# Poissons Ratio (x) = -0.07696 0.66836
# Poissons Ratio (y) = -0.29768 0.37743
# Poissons Ratio (z) = 0.71286 0.10407
#
# Static dielectric constant tensor:
#      x y z
#    x 1.697360 0.000000 0.029260 
#    y 0.000000 1.685600 0.000000 
#    z 0.029260 0.000000 1.670090 
# 
# From -- ./inp_files/79252.got.cif
#   From: 2010.05.17/outbox.cif.g08.bks.cpg/sg10_40_cif.got.tgz:79252.got - 2010.06.03 11:33:40.
