data_PCOD9142377
_publ_section_title
;
Structure prediction by ZEFSAII (Michael W. Deem and Ramdas Pophale) SiO2 
 PCOD9142377
Probable space group: P 2/M
;
_chemical_formula_sum "Si O2"
_cell_formula_units_Z 32
_cell_length_a 29.901727
_cell_length_b 8.784415
_cell_length_c 13.900248
_cell_angle_alpha 90.000000
_cell_angle_beta 35.334135
_cell_angle_gamma 90.000000
_cell_volume 2111.629462
_symmetry_space_group_name_H-M "P 2/M"
_symmetry_group_IT_number 10
_symmetry_cell_setting 'monoclinic'
loop_
_space_group_symop_operation_xyz
x,y,z
-x,y,-z
-x,-y,-z
x,-y,z
loop_
_atom_site_type_symbol
_atom_site_label
_atom_site_fract_x
_atom_site_fract_y
_atom_site_fract_z
Si Si1 0.166050 0.183305 0.097485
Si Si2 0.555616 0.817284 0.604178
Si Si3 0.994434 0.174894 0.393242
Si Si4 0.684941 0.680778 0.259594
Si Si5 0.592840 0.318633 0.224511
Si Si6 0.317202 0.182286 0.113365
Si Si7 0.530509 0.814963 0.049006
Si Si8 0.834479 0.680007 0.686158
O O1 0.079875 0.226561 0.212413
O O2 0.175715 0.248127 0.188915
O O3 0.168797 0.000000 0.098747
O O4 0.233279 0.245761 0.911615
O O5 0.639138 0.754472 0.428640
O O6 0.492365 0.747589 0.642061
O O7 0.524550 0.772143 0.764697
O O8 0.554216 0.000000 0.600012
O O9 0.000000 0.174293 0.500000
O O10 0.919728 0.273757 0.500426
O O11 0.981627 0.000000 0.385375
O O12 0.692994 0.500000 0.258189
O O13 0.630579 0.707678 0.261598
O O14 0.591749 0.500000 0.209175
O O15 0.645462 0.236203 0.052771
O O16 0.232887 0.255535 0.263532
O O17 0.310778 0.000000 0.125636
O O18 0.381551 0.230005 0.078926
O O19 0.530349 0.000000 0.047113
O O20 0.500000 0.759492 0.000000
O O21 0.827185 0.500000 0.708146
#
# Coordination Sequence:
#
# PCOD9142377 Si02
#       8
#     4   4   4   4   4   4   4   4
#     4  10  19  30  44  60  84 118 156 190 219 255
#     4  10  20  31  46  65  84 113 148 183 221 263
#     4   8  16  29  42  58  81 114 152 189 221 252
#     4  11  21  30  42  61  89 121 150 184 218 255
#     4  10  19  30  42  59  86 117 148 183 219 254
#     4  10  18  28  46  67  87 116 150 186 223 263
#     4   8  16  32  51  69  87 109 143 186 229 267
#     4  11  19  27  41  62  89 119 150 186 220 259
#
# _framework density 15.154173999999999
#
# number of rings (size 3 to 8) (size 9 to 14) (size 15 to 20)
#    0.000    2.250    1.250    4.875    0.000    5.750 
#    0.000    0.000    0.000   13.500    0.000    0.000 
#    0.000    1.000    0.000   11.500    0.000    3.250 
#
# Total GULP energy -178381.181248 kJ/mol
# GULP energy per Si atom -5574.411914 kJ/mol
# Density = 1.511968 g / cm^3
# Si number density = 15.154174 Si / 1000 Ang^3
#
#
#
# Elastic Constant Matrix: (Units=GPa)
#
#
# Indices 1 2 3 4 5 6 
#
# 1 68.0853 32.3964 47.6966 0.0000 -16.0010 0.0000
# 2 32.3964 51.6568 40.0437 0.0000 -12.2012 0.0000
# 3 47.6966 40.0437 123.0619 0.0000 -29.0421 0.0000
# 4 0.0000 0.0000 0.0000 13.6216 0.0000 5.6891
# 5 -16.0010 -12.2012 -29.0421 0.0000 15.9792 0.0000
# 6 0.0000 0.0000 0.0000 5.6891 0.0000 -124.9759
#
#
#
# Elastic Compliance Matrix: (Units=1/GPa)
#
#
# Indices 1 2 3 4 5 6 
#
# 1 0.024498 -0.010011 -0.003944 0.000000 0.009720 0.000000
# 2 -0.010011 0.030548 -0.005115 0.000000 0.004004 0.000000
# 3 -0.003944 -0.005115 0.016574 0.000000 0.022269 0.000000
# 4 0.000000 0.000000 0.000000 0.072043 0.000000 0.003280
# 5 0.009720 0.004004 0.022269 0.000000 0.115845 0.000000
# 6 0.000000 0.000000 0.000000 0.003280 0.000000 -0.007852
#
#
# Mechanical properties :
#
#
# Convention : Reuss Voigt Hill
#
# Bulk Modulus (GPa) = 29.86807 53.67527 41.77167
# Shear Modulus (GPa) = 16.61378 -10.89719 2.85829
#
# Velocity S-wave (km/s) = 3.31466 -2.68449 1.37486
# Velocity P-wave (km/s) = 5.86528 5.08800 5.49041
#
# Compressibility (1/GPa) = 0.03348057
#
# Stress axis : x y z
#
# Youngs Moduli (GPa) = 40.81999 32.73566 60.33456
#
# Poissons Ratio (x) = 0.32771 0.23794
# Poissons Ratio (y) = 0.40865 0.30862
# Poissons Ratio (z) = 0.16098 0.16745
#
# Static dielectric constant tensor:
#      x y z
#    x 1.490620 0.000000 -0.025940 
#    y 0.000000 1.503800 0.000000 
#    z -0.025940 0.000000 1.533490 
# 
# From -- ./inp_files/72557.got.cif
#   From: 2010.05.17/outbox.cif.g08.bks.cpg/sg10_37_cif.got.tgz:72557.got - 2010.06.03 11:33:40.
