data_PCOD9142279
_publ_section_title
;
Structure prediction by ZEFSAII (Michael W. Deem and Ramdas Pophale) SiO2 
 PCOD9142279
Probable space group: P 2/M
;
_chemical_formula_sum "Si O2"
_cell_formula_units_Z 32
_cell_length_a 20.156790
_cell_length_b 7.543640
_cell_length_c 13.049849
_cell_angle_alpha 90.000000
_cell_angle_beta 62.079573
_cell_angle_gamma 90.000000
_cell_volume 1753.326934
_symmetry_space_group_name_H-M "P 2/M"
_symmetry_group_IT_number 10
_symmetry_cell_setting 'monoclinic'
loop_
_space_group_symop_operation_xyz
x,y,z
-x,y,-z
-x,-y,-z
x,-y,z
loop_
_atom_site_type_symbol
_atom_site_label
_atom_site_fract_x
_atom_site_fract_y
_atom_site_fract_z
Si Si1 0.671395 0.287219 0.409862
Si Si2 0.849135 0.703018 0.954349
Si Si3 0.416480 0.716825 0.331949
Si Si4 0.582693 0.283552 0.901716
Si Si5 0.310920 0.717334 0.991776
Si Si6 0.008394 0.286205 0.875853
Si Si7 0.168691 0.796369 0.799474
Si Si8 0.583865 0.716346 0.273844
O O1 0.664495 0.500000 0.416123
O O2 0.643896 0.223587 0.540385
O O3 0.756194 0.246852 0.316120
O O4 0.616416 0.223003 0.358949
O O5 0.852569 0.500000 0.915580
O O6 0.774294 0.782164 0.959330
O O7 0.932503 0.780412 0.876562
O O8 0.836321 0.697990 0.087340
O O9 0.416227 0.500000 0.330279
O O10 0.404196 0.774816 0.224186
O O11 0.499340 0.771218 0.309820
O O12 0.582373 0.500000 0.902317
O O13 0.645544 0.227555 0.937526
O O14 0.500000 0.229023 0.000000
O O15 0.309396 0.500000 0.991366
O O16 0.360032 0.770554 0.857610
O O17 0.005121 0.500000 0.877011
O O18 0.093277 0.235811 0.788024
O O19 0.000000 0.226703 0.000000
O O20 0.170829 0.000000 0.827774
O O21 0.583538 0.500000 0.275323
#
# Coordination Sequence:
#
# PCOD9142279 Si02
#       8
#     4   4   4   4   4   4   4   4
#     4  10  18  28  42  60  88 119 150 180 209 254
#     4   9  16  28  44  64  88 116 145 171 210 261
#     4   9  16  24  37  61  87 116 149 182 216 249
#     4   9  14  21  34  58  92 117 137 175 223 256
#     4   9  14  21  38  61  87 117 142 170 211 255
#     4   8  15  27  43  61  85 114 142 170 208 262
#     4  11  20  28  41  62  88 115 144 176 216 258
#     4   9  14  22  38  59  83 114 149 178 207 247
#
# _framework density 18.251017999999998
#
# number of rings (size 3 to 8) (size 9 to 14) (size 15 to 20)
#    0.000    2.750    2.500    2.250    0.000    3.750 
#    0.000    0.000    0.000    1.500    0.000    1.750 
#    0.000    9.000    0.000    0.000    0.000    0.000 
#
# Total GULP energy -178383.118913 kJ/mol
# GULP energy per Si atom -5574.472466 kJ/mol
# Density = 1.820948 g / cm^3
# Si number density = 18.251018 Si / 1000 Ang^3
#
#
#
# Elastic Constant Matrix: (Units=GPa)
#
#
# Indices 1 2 3 4 5 6 
#
# 1 161.2727 -0.9011 64.1747 0.0000 -2.9782 0.0000
# 2 -0.9011 44.6021 -0.1547 0.0000 5.0608 0.0000
# 3 64.1747 -0.1547 90.6541 0.0000 13.2952 0.0000
# 4 0.0000 0.0000 0.0000 -25.6210 0.0000 22.8129
# 5 -2.9782 5.0608 13.2952 0.0000 14.1473 0.0000
# 6 0.0000 0.0000 0.0000 22.8129 0.0000 -44.5734
#
#
#
# Elastic Compliance Matrix: (Units=1/GPa)
#
#
# Indices 1 2 3 4 5 6 
#
# 1 0.009727 -0.001001 -0.008398 0.000000 0.010298 0.000000
# 2 -0.001001 0.023642 0.002343 0.000000 -0.010870 0.000000
# 3 -0.008398 0.002343 0.020137 0.000000 -0.021531 0.000000
# 4 0.000000 0.000000 0.000000 -0.071709 0.000000 -0.036701
# 5 0.010298 -0.010870 -0.021531 0.000000 0.096975 0.000000
# 6 0.000000 0.000000 0.000000 -0.036701 0.000000 -0.041219
#
#
# Mechanical properties :
#
#
# Convention : Reuss Voigt Hill
#
# Bulk Modulus (GPa) = 25.38402 46.97408 36.17905
# Shear Modulus (GPa) = 77.16577 4.35126 40.75851
#
# Velocity S-wave (km/s) = 6.50938 1.54573 4.73082
# Velocity P-wave (km/s) = 8.39253 5.38325 7.05032
#
# Compressibility (1/GPa) = 0.03939487
#
# Stress axis : x y z
#
# Youngs Moduli (GPa) = 102.80734 42.29806 49.65884
#
# Poissons Ratio (x) = 0.04234 0.41702
# Poissons Ratio (y) = 0.10291 -0.11636
# Poissons Ratio (z) = 0.86335 -0.09911
#
# Static dielectric constant tensor:
#      x y z
#    x 1.654180 0.000000 -0.017520 
#    y 0.000000 1.679140 0.000000 
#    z -0.017520 0.000000 1.599400 
# 
# From -- ./inp_files/54857.got.cif
#   From: 2010.05.17/outbox.cif.g08.bks.cpg/sg10_28_cif.got.tgz:54857.got - 2010.06.03 11:33:40.
