data_PCOD9142301
_publ_section_title
;
Structure prediction by ZEFSAII (Michael W. Deem and Ramdas Pophale) SiO2 
 PCOD9142301
Probable space group: P 2/M
;
_chemical_formula_sum "Si O2"
_cell_formula_units_Z 32
_cell_length_a 21.240913
_cell_length_b 7.489605
_cell_length_c 12.842190
_cell_angle_alpha 90.000000
_cell_angle_beta 124.347110
_cell_angle_gamma 90.000000
_cell_volume 1686.782577
_symmetry_space_group_name_H-M "P 2/M"
_symmetry_group_IT_number 10
_symmetry_cell_setting 'monoclinic'
loop_
_space_group_symop_operation_xyz
x,y,z
-x,y,-z
-x,-y,-z
x,-y,z
loop_
_atom_site_type_symbol
_atom_site_label
_atom_site_fract_x
_atom_site_fract_y
_atom_site_fract_z
Si Si1 0.658403 0.291312 0.306684
Si Si2 0.422317 0.796603 0.973349
Si Si3 0.434151 0.281881 0.580705
Si Si4 0.008559 0.789327 0.382174
Si Si5 0.172756 0.215760 0.562268
Si Si6 0.396331 0.285500 0.317919
Si Si7 0.156832 0.781412 0.788754
Si Si8 0.690777 0.788829 0.962356
O O1 0.641057 0.500000 0.276420
O O2 0.636783 0.201105 0.177634
O O3 0.607489 0.220855 0.354059
O O4 0.747842 0.272581 0.413149
O O5 0.443227 0.000000 0.023133
O O6 0.500000 0.713545 0.000000
O O7 0.377821 0.713551 0.029528
O O8 0.433328 0.500000 0.582083
O O9 0.393387 0.225818 0.435072
O O10 0.522085 0.225031 0.652549
O O11 0.093170 0.717962 0.438459
O O12 0.000000 0.776386 0.500000
O O13 0.928720 0.718072 0.263482
O O14 0.010501 0.000000 0.358605
O O15 0.173540 0.270633 0.684700
O O16 0.170524 0.000000 0.559415
O O17 0.398930 0.500000 0.322805
O O18 0.330345 0.233478 0.177301
O O19 0.154200 0.000000 0.787863
O O20 0.226789 0.720225 0.925178
O O21 0.692328 0.000000 0.987231
#
# Coordination Sequence:
#
# PCOD9142301 Si02
#       8
#     4   4   4   4   4   4   4   4
#     4  11  20  29  44  66  91 116 146 180 219 262
#     4  10  20  32  44  61  90 124 149 172 212 263
#     4   8  17  33  49  63  81 111 149 190 225 254
#     4   7  11  20  40  63  80 110 152 179 200 248
#     4   9  15  27  44  63  88 117 148 177 211 257
#     4   9  17  33  52  63  78 110 153 190 221 256
#     4   8  13  24  41  62  89 117 144 176 212 254
#     4  10  18  28  43  66  94 116 138 176 222 260
#
# _framework density 18.971026999999999
#
# number of rings (size 3 to 8) (size 9 to 14) (size 15 to 20)
#    0.000    3.000    1.250    3.375    0.000    0.750 
#    0.000    3.125    0.000    4.125    0.000    0.875 
#    0.000    7.000    0.000    0.000    0.000    0.000 
#
# Total GULP energy -178346.704927 kJ/mol
# GULP energy per Si atom -5573.334529 kJ/mol
# Density = 1.892785 g / cm^3
# Si number density = 18.971027 Si / 1000 Ang^3
#
#
#
# Elastic Constant Matrix: (Units=GPa)
#
#
# Indices 1 2 3 4 5 6 
#
# 1 26.8759 -1.1992 7.1822 0.0000 12.5905 0.0000
# 2 -1.1992 52.6445 -1.6475 0.0000 1.0588 0.0000
# 3 7.1822 -1.6475 81.5136 0.0000 15.0788 0.0000
# 4 0.0000 0.0000 0.0000 48.5771 0.0000 27.1753
# 5 12.5905 1.0588 15.0788 0.0000 31.9355 0.0000
# 6 0.0000 0.0000 0.0000 27.1753 0.0000 22.3968
#
#
#
# Elastic Compliance Matrix: (Units=1/GPa)
#
#
# Indices 1 2 3 4 5 6 
#
# 1 0.045779 0.001377 -0.000722 0.000000 -0.017753 0.000000
# 2 0.001377 0.019072 0.000528 0.000000 -0.001424 0.000000
# 3 -0.000722 0.000528 0.013469 0.000000 -0.006093 0.000000
# 4 0.000000 0.000000 0.000000 0.064087 0.000000 -0.077761
# 5 -0.017753 -0.001424 -0.006093 0.000000 0.041236 0.000000
# 6 0.000000 0.000000 0.000000 -0.077761 0.000000 0.139001
#
#
# Mechanical properties :
#
#
# Convention : Reuss Voigt Hill
#
# Bulk Modulus (GPa) = 12.39364 18.85613 15.62488
# Shear Modulus (GPa) = 14.40199 31.02843 22.71521
#
# Velocity S-wave (km/s) = 2.75827 4.04860 3.46405
# Velocity P-wave (km/s) = 4.08548 5.64056 4.92479
#
# Compressibility (1/GPa) = 0.08068655
#
# Stress axis : x y z
#
# Youngs Moduli (GPa) = 21.84398 52.43329 74.24347
#
# Poissons Ratio (x) = -0.07221 0.05358
# Poissons Ratio (y) = -0.03008 -0.03917
# Poissons Ratio (z) = 0.01577 -0.02766
#
# Static dielectric constant tensor:
#      x y z
#    x 1.679670 0.000000 0.041010 
#    y 0.000000 1.729680 0.000000 
#    z 0.041010 0.000000 1.658220 
# 
# From -- ./inp_files/54891.got.cif
#   From: 2010.05.17/outbox.cif.g08.bks.cpg/sg10_28_cif.got.tgz:54891.got - 2010.06.03 11:33:40.
