data_PCOD9142837
_publ_section_title
;
Structure prediction by ZEFSAII (Michael W. Deem and Ramdas Pophale) SiO2 
 PCOD9142837
Probable space group: P 2/M
;
_chemical_formula_sum "Si O2"
_cell_formula_units_Z 18
_cell_length_a 4.952163
_cell_length_b 19.977927
_cell_length_c 6.979243
_cell_angle_alpha 90.000000
_cell_angle_beta 92.605358
_cell_angle_gamma 90.000000
_cell_volume 689.770347
_symmetry_space_group_name_H-M "P 2/M"
_symmetry_group_IT_number 10
_symmetry_cell_setting 'monoclinic'
loop_
_space_group_symop_operation_xyz
x,y,z
-x,y,-z
-x,-y,-z
x,-y,z
loop_
_atom_site_type_symbol
_atom_site_label
_atom_site_fract_x
_atom_site_fract_y
_atom_site_fract_z
Si Si1 0.240921 0.000000 0.355159
Si Si2 0.994729 0.347004 0.232248
Si Si3 0.112034 0.143496 0.286534
Si Si4 0.629120 0.226069 0.200655
Si Si5 0.499382 0.425819 0.232175
O O1 0.500000 0.000000 0.500000
O O2 0.216856 0.930631 0.240255
O O3 0.000000 0.000000 0.500000
O O4 0.827799 0.282110 0.295250
O O5 0.806172 0.408396 0.287927
O O6 0.297665 0.367473 0.294615
O O7 0.000000 0.341070 0.000000
O O8 0.366643 0.194144 0.290960
O O9 0.000000 0.141941 0.500000
O O10 0.845877 0.167636 0.164686
O O11 0.500000 0.253647 0.000000
O O12 0.416018 0.500000 0.289638
O O13 0.500000 0.425371 0.000000
#
# Coordination Sequence:
#
# PCOD9142837 Si02
#       5
#     2   4   4   4   4
#     4  10  20  40  65  88 113 150 193 240 295 342
#     4  10  18  30  47  72 111 155 187 225 290 351
#     4  11  23  41  64  88 114 151 199 243 284 343
#     4  12  23  38  58  87 124 159 190 232 296 357
#     4   9  16  26  43  69 104 148 194 234 277 336
#
# _framework density 26.095644
#
# number of rings (size 3 to 8) (size 9 to 14) (size 15 to 20)
#    0.000    1.556    0.000    9.333    0.000    2.667 
#    0.000    3.333    0.000    0.000    0.000    0.000 
#    0.000   62.222    0.000    0.000    0.000    0.000 
#
# Total GULP energy -100652.320342 kJ/mol
# GULP energy per Si atom -5591.795575 kJ/mol
# Density = 2.603625 g / cm^3
# Si number density = 26.095644 Si / 1000 Ang^3
#
#
#
# Elastic Constant Matrix: (Units=GPa)
#
#
# Indices 1 2 3 4 5 6 
#
# 1 219.3571 73.2499 9.1829 0.0000 -7.4681 0.0000
# 2 73.2499 173.3477 0.0473 0.0000 -16.7674 0.0000
# 3 9.1829 0.0473 73.3158 0.0000 -7.6070 0.0000
# 4 0.0000 0.0000 0.0000 -52.9284 0.0000 -56.0389
# 5 -7.4681 -16.7674 -7.6070 0.0000 32.5935 0.0000
# 6 0.0000 0.0000 0.0000 -56.0389 0.0000 8.9612
#
#
#
# Elastic Compliance Matrix: (Units=1/GPa)
#
#
# Indices 1 2 3 4 5 6 
#
# 1 0.005340 -0.002266 -0.000678 0.000000 -0.000100 0.000000
# 2 -0.002266 0.007040 0.000616 0.000000 0.003246 0.000000
# 3 -0.000678 0.000616 0.014082 0.000000 0.003448 0.000000
# 4 0.000000 0.000000 0.000000 -0.002479 0.000000 -0.015503
# 5 -0.000100 0.003246 0.003448 0.000000 0.033133 0.000000
# 6 0.000000 0.000000 0.000000 -0.015503 0.000000 0.014643
#
#
# Mechanical properties :
#
#
# Convention : Reuss Voigt Hill
#
# Bulk Modulus (GPa) = 45.85742 70.10899 57.98320
# Shear Modulus (GPa) = 59.74881 23.29464 41.52172
#
# Velocity S-wave (km/s) = 4.79018 2.99099 3.99323
# Velocity P-wave (km/s) = 6.94301 6.23318 6.59765
#
# Compressibility (1/GPa) = 0.02180672
#
# Stress axis : x y z
#
# Youngs Moduli (GPa) = 187.24881 142.04152 71.01312
#
# Poissons Ratio (x) = 0.32189 0.04814
# Poissons Ratio (y) = 0.42434 -0.04375
# Poissons Ratio (z) = 0.12693 -0.08752
#
# Static dielectric constant tensor:
#      x y z
#    x 1.933220 0.000000 0.005100 
#    y 0.000000 2.087350 0.000000 
#    z 0.005100 0.000000 2.191400 
# 
# From -- ./inp_files/14524.got.cif
#   From: 2010.05.17/outbox.cif.g08.bks.cpg/sg10_8_cif.got.tgz:14524.got - 2010.06.03 11:33:40.
