data_PCOD9142684
_publ_section_title
;
Structure prediction by ZEFSAII (Michael W. Deem and Ramdas Pophale) SiO2 
 PCOD9142684
Probable space group: P 2/M
;
_chemical_formula_sum "Si O2"
_cell_formula_units_Z 28
_cell_length_a 20.246550
_cell_length_b 11.586842
_cell_length_c 8.797175
_cell_angle_alpha 90.000000
_cell_angle_beta 51.642925
_cell_angle_gamma 90.000000
_cell_volume 1618.315714
_symmetry_space_group_name_H-M "P 2/M"
_symmetry_group_IT_number 10
_symmetry_cell_setting 'monoclinic'
loop_
_space_group_symop_operation_xyz
x,y,z
-x,y,-z
-x,-y,-z
x,-y,z
loop_
_atom_site_type_symbol
_atom_site_label
_atom_site_fract_x
_atom_site_fract_y
_atom_site_fract_z
Si Si1 0.640269 0.000000 0.798078
Si Si2 0.435708 0.229982 0.703403
Si Si3 0.589089 0.362483 0.949641
Si Si4 0.092974 0.866293 0.046644
Si Si5 0.724650 0.141048 0.251304
Si Si6 0.503897 0.000000 0.745883
Si Si7 0.909275 0.136769 0.319653
Si Si8 0.268261 0.776878 0.409983
O O1 0.695635 0.887522 0.729465
O O2 0.592037 0.000000 0.706036
O O3 0.569044 0.000000 0.024854
O O4 0.500000 0.296450 0.500000
O O5 0.353122 0.184970 0.735553
O O6 0.489296 0.117405 0.677327
O O7 0.410194 0.301700 0.887666
O O8 0.587929 0.500000 0.965917
O O9 0.669917 0.323799 0.734358
O O10 0.500000 0.324940 0.000000
O O11 0.185887 0.821277 0.951528
O O12 0.091614 0.864228 0.863865
O O13 0.091498 0.000000 0.095492
O O14 0.002721 0.820420 0.231480
O O15 0.720932 0.195125 0.425867
O O16 0.725178 0.000000 0.260542
O O17 0.831802 0.217835 0.478353
O O18 0.897113 0.000000 0.379917
#
# Coordination Sequence:
#
# PCOD9142684 Si02
#       8
#     2   4   4   4   4   2   4   4
#     4  11  18  28  48  74 103 131 162 202 256 307
#     4  12  23  34  51  77 105 135 165 206 259 309
#     4  11  25  43  56  68  93 135 185 224 249 286
#     4   7  12  22  39  67 111 144 161 185 233 303
#     4  10  18  29  48  82 116 139 159 195 253 319
#     4  11  21  30  46  73 107 132 158 197 257 318
#     4   8  12  22  42  74 105 136 165 195 239 301
#     4  11  18  31  53  79 103 134 168 210 255 299
#
# _framework density 17.301939000000001
#
# number of rings (size 3 to 8) (size 9 to 14) (size 15 to 20)
#    0.000    2.000    3.571    4.500    0.000    0.286 
#    0.000    0.714    0.000    0.857    0.000   14.000 
#    0.000    0.000    0.000    0.000    0.000    0.000 
#
# Total GULP energy -155957.085212 kJ/mol
# GULP energy per Si atom -5569.895900 kJ/mol
# Density = 1.726256 g / cm^3
# Si number density = 17.301939 Si / 1000 Ang^3
#
#
#
# Elastic Constant Matrix: (Units=GPa)
#
#
# Indices 1 2 3 4 5 6 
#
# 1 90.3589 19.3842 62.4452 0.0000 -29.9432 0.0000
# 2 19.3842 40.2945 27.8210 0.0000 -2.9151 0.0000
# 3 62.4452 27.8210 100.9718 0.0000 -30.5235 0.0000
# 4 0.0000 0.0000 0.0000 8.3554 0.0000 -2.7837
# 5 -29.9432 -2.9151 -30.5235 0.0000 33.9251 0.0000
# 6 0.0000 0.0000 0.0000 -2.7837 0.0000 13.8642
#
#
#
# Elastic Compliance Matrix: (Units=1/GPa)
#
#
# Indices 1 2 3 4 5 6 
#
# 1 0.021694 -0.003206 -0.009379 0.000000 0.010433 0.000000
# 2 -0.003206 0.032314 -0.009529 0.000000 -0.008626 0.000000
# 3 -0.009379 -0.009529 0.021400 0.000000 0.010157 0.000000
# 4 0.000000 0.000000 0.000000 0.128264 0.000000 0.025754
# 5 0.010433 -0.008626 0.010157 0.000000 0.047083 0.000000
# 6 0.000000 0.000000 0.000000 0.025754 0.000000 0.077299
#
#
# Mechanical properties :
#
#
# Convention : Reuss Voigt Hill
#
# Bulk Modulus (GPa) = 32.07034 50.10288 41.08661
# Shear Modulus (GPa) = 13.06588 19.36057 16.21323
#
# Velocity S-wave (km/s) = 2.75101 3.34875 3.06449
# Velocity P-wave (km/s) = 5.35413 6.63121 6.02659
#
# Compressibility (1/GPa) = 0.03118146
#
# Stress axis : x y z
#
# Youngs Moduli (GPa) = 46.09616 30.94588 46.72834
#
# Poissons Ratio (x) = 0.09920 0.43827
# Poissons Ratio (y) = 0.14776 0.44527
# Poissons Ratio (z) = 0.43234 0.29488
#
# Static dielectric constant tensor:
#      x y z
#    x 1.628960 0.000000 -0.012540 
#    y 0.000000 1.555140 0.000000 
#    z -0.012540 0.000000 1.648460 
# 
# From -- ./inp_files/34576.got.cif
#   From: 2010.05.17/outbox.cif.g08.bks.cpg/sg10_18_cif.got.tgz:34576.got - 2010.06.03 11:33:40.
