data_PCOD9142203
_publ_section_title
;
Structure prediction by ZEFSAII (Michael W. Deem and Ramdas Pophale) SiO2 
 PCOD9142203
Probable space group: P 2/M
;
_chemical_formula_sum "Si O2"
_cell_formula_units_Z 28
_cell_length_a 23.429542
_cell_length_b 8.689884
_cell_length_c 16.953153
_cell_angle_alpha 90.000000
_cell_angle_beta 148.892725
_cell_angle_gamma 90.000000
_cell_volume 1783.273716
_symmetry_space_group_name_H-M "P 2/M"
_symmetry_group_IT_number 10
_symmetry_cell_setting 'monoclinic'
loop_
_space_group_symop_operation_xyz
x,y,z
-x,y,-z
-x,-y,-z
x,-y,z
loop_
_atom_site_type_symbol
_atom_site_label
_atom_site_fract_x
_atom_site_fract_y
_atom_site_fract_z
Si Si1 0.337483 0.682796 0.342883
Si Si2 0.078598 0.185189 0.851319
Si Si3 0.840278 0.316914 0.284197
Si Si4 0.055498 0.817507 0.451810
Si Si5 0.902746 0.185338 0.944232
Si Si6 0.458284 0.182553 0.332838
Si Si7 0.704994 0.317198 0.978618
O O1 0.343866 0.500000 0.341078
O O2 0.213658 0.736505 0.212791
O O3 0.424474 0.738161 0.511604
O O4 0.379403 0.761017 0.311196
O O5 0.972359 0.224496 0.671509
O O6 0.095273 0.000000 0.863821
O O7 0.067414 0.223035 0.929795
O O8 0.186509 0.266569 0.942715
O O9 0.859871 0.500000 0.302491
O O10 0.848761 0.265096 0.384932
O O11 0.941394 0.230300 0.360489
O O12 0.734213 0.282213 0.104561
O O13 0.071237 0.000000 0.476168
O O14 0.888922 0.000000 0.923093
O O15 0.000000 0.230487 0.000000
O O16 0.398717 0.232149 0.182091
O O17 0.469912 0.000000 0.351400
O O18 0.690581 0.500000 0.953146
#
# Coordination Sequence:
#
# PCOD9142203 Si02
#       7
#     4   4   4   4   4   4   4
#     4  11  21  33  48  67  90 116 151 190 230 269
#     4   9  17  28  42  60  84 116 151 187 224 265
#     4   9  16  24  35  54  82 113 143 174 215 260
#     4   9  15  23  36  54  78 110 147 180 214 256
#     4  10  20  34  50  67  90 121 157 193 229 268
#     4  11  20  31  48  67  90 119 151 185 225 273
#     4  10  18  27  41  63  89 117 147 182 221 265
#
# _framework density 15.701460000000001
#
# number of rings (size 3 to 8) (size 9 to 14) (size 15 to 20)
#    0.000    2.143    1.429    5.571    0.000    2.571 
#    0.000    0.000    0.000    0.000    0.000    0.000 
#    0.000    1.143    0.000   13.143    0.000    3.286 
#
# Total GULP energy -156026.823049 kJ/mol
# GULP energy per Si atom -5572.386537 kJ/mol
# Density = 1.566572 g / cm^3
# Si number density = 15.701460 Si / 1000 Ang^3
#
#
#
# Elastic Constant Matrix: (Units=GPa)
#
#
# Indices 1 2 3 4 5 6 
#
# 1 40.2695 13.8000 39.4009 0.0000 -2.3797 0.0000
# 2 13.8000 41.8887 22.0961 0.0000 -2.2235 0.0000
# 3 39.4009 22.0961 112.8584 0.0000 -20.6750 0.0000
# 4 0.0000 0.0000 0.0000 26.2852 0.0000 -4.3925
# 5 -2.3797 -2.2235 -20.6750 0.0000 20.6675 0.0000
# 6 0.0000 0.0000 0.0000 -4.3925 0.0000 15.2350
#
#
#
# Elastic Compliance Matrix: (Units=1/GPa)
#
#
# Indices 1 2 3 4 5 6 
#
# 1 0.041154 -0.006127 -0.015208 0.000000 -0.011134 0.000000
# 2 -0.006127 0.027675 -0.003506 0.000000 -0.001235 0.000000
# 3 -0.015208 -0.003506 0.017712 0.000000 0.015591 0.000000
# 4 0.000000 0.000000 0.000000 0.039970 0.000000 0.011524
# 5 -0.011134 -0.001235 0.015591 0.000000 0.062567 0.000000
# 6 0.000000 0.000000 0.000000 0.011524 0.000000 0.068961
#
#
# Mechanical properties :
#
#
# Convention : Reuss Voigt Hill
#
# Bulk Modulus (GPa) = 27.12905 38.40120 32.76512
# Shear Modulus (GPa) = 15.62469 20.41885 18.02177
#
# Velocity S-wave (km/s) = 3.15796 3.61008 3.39156
# Velocity P-wave (km/s) = 5.53286 6.47202 6.02078
#
# Compressibility (1/GPa) = 0.03686086
#
# Stress axis : x y z
#
# Youngs Moduli (GPa) = 24.29893 36.13382 56.45761
#
# Poissons Ratio (x) = 0.22139 0.85859
# Poissons Ratio (y) = 0.14888 0.19792
# Poissons Ratio (z) = 0.36953 0.12667
#
# Static dielectric constant tensor:
#      x y z
#    x 1.504650 0.000000 -0.052010 
#    y 0.000000 1.525220 0.000000 
#    z -0.052010 0.000000 1.567150 
# 
# From -- ./inp_files/79870.got.cif
#   From: 2010.05.17/outbox.cif.g08.bks.cpg/sg10_40_cif.got.tgz:79870.got - 2010.06.03 11:33:40.
