data_PCOD9142380
_publ_section_title
;
Structure prediction by ZEFSAII (Michael W. Deem and Ramdas Pophale) SiO2 
 PCOD9142380
Probable space group: P 2/M
;
_chemical_formula_sum "Si O2"
_cell_formula_units_Z 32
_cell_length_a 17.064247
_cell_length_b 8.711103
_cell_length_c 24.595337
_cell_angle_alpha 90.000000
_cell_angle_beta 150.941169
_cell_angle_gamma 90.000000
_cell_volume 1775.774408
_symmetry_space_group_name_H-M "P 2/M"
_symmetry_group_IT_number 10
_symmetry_cell_setting 'monoclinic'
loop_
_space_group_symop_operation_xyz
x,y,z
-x,y,-z
-x,-y,-z
x,-y,z
loop_
_atom_site_type_symbol
_atom_site_label
_atom_site_fract_x
_atom_site_fract_y
_atom_site_fract_z
Si Si1 0.479308 0.813511 0.737006
Si Si2 0.012500 0.684889 0.789075
Si Si3 0.895970 0.185214 0.488634
Si Si4 0.720350 0.675636 0.686702
Si Si5 0.101390 0.316213 0.394738
Si Si6 0.539690 0.183871 0.396871
Si Si7 0.011878 0.670420 0.943652
Si Si8 0.744240 0.823012 0.979881
O O1 0.292304 0.770355 0.630968
O O2 0.527894 0.768012 0.704471
O O3 0.490008 0.000000 0.744698
O O4 0.588340 0.757852 0.853456
O O5 0.008944 0.500000 0.791581
O O6 0.843474 0.737923 0.715233
O O7 0.006330 0.728658 0.722397
O O8 0.168803 0.742802 0.916390
O O9 0.955106 0.251314 0.581826
O O10 0.000000 0.235001 0.500000
O O11 0.901318 0.000000 0.494812
O O12 0.676578 0.500000 0.645919
O O13 0.564591 0.762668 0.614640
O O14 0.838755 0.673403 0.810618
O O15 0.108872 0.500000 0.401701
O O16 0.281090 0.252563 0.492859
O O17 0.548497 0.000000 0.401992
O O18 0.081820 0.500000 0.972703
O O19 0.119242 0.802874 0.983456
O O20 0.000000 0.684648 0.000000
O O21 0.715376 0.000000 0.976105
#
# Coordination Sequence:
#
# PCOD9142380 Si02
#       8
#     4   4   4   4   4   4   4   4
#     4   8  16  30  47  72 102 127 154 194 245 293
#     4   9  20  36  49  65  95 135 173 207 245 288
#     4   9  18  35  59  83 106 128 150 187 242 298
#     4   9  17  29  43  61  89 127 171 211 247 286
#     4  10  20  35  54  73  97 129 164 203 244 290
#     4  10  19  31  47  69  99 130 165 210 255 296
#     4   9  17  28  41  59  88 127 169 209 248 292
#     4  10  18  28  46  69  94 125 163 206 243 284
#
# _framework density 18.020308
#
# number of rings (size 3 to 8) (size 9 to 14) (size 15 to 20)
#    0.000    2.750    0.000    3.375    0.000    4.000 
#    0.000    8.125    0.000    0.750    0.000    5.250 
#    0.000    0.000    0.000    0.000    0.000    0.000 
#
# Total GULP energy -178202.406594 kJ/mol
# GULP energy per Si atom -5568.825206 kJ/mol
# Density = 1.797929 g / cm^3
# Si number density = 18.020308 Si / 1000 Ang^3
#
#
#
# Elastic Constant Matrix: (Units=GPa)
#
#
# Indices 1 2 3 4 5 6 
#
# 1 73.3263 17.2822 38.0316 0.0000 -20.7240 0.0000
# 2 17.2822 20.3465 15.1621 0.0000 -5.7491 0.0000
# 3 38.0316 15.1621 90.1157 0.0000 -30.3457 0.0000
# 4 0.0000 0.0000 0.0000 18.6174 0.0000 -2.8889
# 5 -20.7240 -5.7491 -30.3457 0.0000 26.8675 0.0000
# 6 0.0000 0.0000 0.0000 -2.8889 0.0000 18.7607
#
#
#
# Elastic Compliance Matrix: (Units=1/GPa)
#
#
# Indices 1 2 3 4 5 6 
#
# 1 0.021180 -0.012607 -0.003590 0.000000 0.009585 0.000000
# 2 -0.012607 0.063776 -0.006599 0.000000 -0.003530 0.000000
# 3 -0.003590 -0.006599 0.019872 0.000000 0.018264 0.000000
# 4 0.000000 0.000000 0.000000 0.055028 0.000000 0.008474
# 5 0.009585 -0.003530 0.018264 0.000000 0.064486 0.000000
# 6 0.000000 0.000000 0.000000 0.008474 0.000000 0.054608
#
#
# Mechanical properties :
#
#
# Convention : Reuss Voigt Hill
#
# Bulk Modulus (GPa) = 16.88110 36.08224 26.48167
# Shear Modulus (GPa) = 14.52279 20.40329 17.46304
#
# Velocity S-wave (km/s) = 2.84194 3.36853 3.11638
# Velocity P-wave (km/s) = 4.48965 5.93261 5.26084
#
# Compressibility (1/GPa) = 0.05923785
#
# Stress axis : x y z
#
# Youngs Moduli (GPa) = 47.21503 15.67981 50.32104
#
# Poissons Ratio (x) = 0.19767 0.18065
# Poissons Ratio (y) = 0.59522 0.33206
# Poissons Ratio (z) = 0.16950 0.10347
#
# Static dielectric constant tensor:
#      x y z
#    x 1.614310 0.000000 -0.017620 
#    y 0.000000 1.642130 0.000000 
#    z -0.017620 0.000000 1.652540 
# 
# From -- ./inp_files/89956.got.cif
#   From: 2010.05.17/outbox.cif.g08.bks.cpg/sg10_45_cif.got.tgz:89956.got - 2010.06.03 11:33:40.
