data_PCOD9142970
_publ_section_title
;
Structure prediction by ZEFSAII (Michael W. Deem and Ramdas Pophale) SiO2 
 PCOD9142970
Probable space group: P 2/M
;
_chemical_formula_sum "Si O2"
_cell_formula_units_Z 28
_cell_length_a 16.119105
_cell_length_b 7.340486
_cell_length_c 12.429373
_cell_angle_alpha 90.000000
_cell_angle_beta 55.208725
_cell_angle_gamma 90.000000
_cell_volume 1207.766547
_symmetry_space_group_name_H-M "P 2/M"
_symmetry_group_IT_number 10
_symmetry_cell_setting 'monoclinic'
loop_
_space_group_symop_operation_xyz
x,y,z
-x,y,-z
-x,-y,-z
x,-y,z
loop_
_atom_site_type_symbol
_atom_site_label
_atom_site_fract_x
_atom_site_fract_y
_atom_site_fract_z
Si Si1 0.628750 0.280687 0.147215
Si Si2 0.798260 0.723044 0.407937
Si Si3 0.440127 0.211763 0.148508
Si Si4 0.210615 0.705945 0.347548
Si Si5 0.615131 0.277894 0.398522
Si Si6 0.992793 0.721938 0.128409
Si Si7 0.182292 0.276872 0.132850
O O1 0.631725 0.500000 0.144823
O O2 0.517667 0.227629 0.189603
O O3 0.649709 0.221855 0.253512
O O4 0.713320 0.217659 0.000411
O O5 0.796244 0.500000 0.413257
O O6 0.812726 0.788417 0.519169
O O7 0.692847 0.781195 0.432594
O O8 0.889950 0.776837 0.263134
O O9 0.332596 0.300812 0.248558
O O10 0.418569 0.000000 0.143667
O O11 0.500000 0.285536 0.000000
O O12 0.169662 0.500000 0.380599
O O13 0.174383 0.787279 0.261558
O O14 0.500000 0.219332 0.500000
O O15 0.615162 0.500000 0.400277
O O16 0.993164 0.500000 0.126241
O O17 0.088957 0.777346 0.127770
O O18 0.000000 0.782825 0.000000
O O19 0.184872 0.500000 0.134133
#
# Coordination Sequence:
#
# PCOD9142970 Si02
#       7
#     4   4   4   4   4   4   4
#     4  10  18  30  50  72  98 130 166 207 246 292
#     4   9  17  28  45  71 103 138 168 201 249 297
#     4  11  22  34  49  72 102 133 165 203 251 303
#     4  10  19  32  50  73 102 133 168 206 246 296
#     4   9  16  26  42  67  96 127 165 202 239 288
#     4   9  16  27  43  68 105 137 162 202 255 299
#     4   9  17  27  43  69  96 128 167 204 245 292
#
# _framework density 23.183288999999998
#
# number of rings (size 3 to 8) (size 9 to 14) (size 15 to 20)
#    0.000    2.429    1.429    2.143    0.000    6.857 
#    0.000    2.857    0.000    3.857    0.000    3.000 
#    0.000    4.000    0.000    0.000    0.000    0.000 
#
# Total GULP energy -156554.100186 kJ/mol
# GULP energy per Si atom -5591.217864 kJ/mol
# Density = 2.313052 g / cm^3
# Si number density = 23.183289 Si / 1000 Ang^3
#
#
#
# Elastic Constant Matrix: (Units=GPa)
#
#
# Indices 1 2 3 4 5 6 
#
# 1 167.9556 -3.3696 79.0602 0.0000 28.7728 0.0000
# 2 -3.3696 91.5978 4.4153 0.0000 3.6465 0.0000
# 3 79.0602 4.4153 173.6272 0.0000 35.3960 0.0000
# 4 0.0000 0.0000 0.0000 -23.5980 0.0000 -43.4800
# 5 28.7728 3.6465 35.3960 0.0000 44.9059 0.0000
# 6 0.0000 0.0000 0.0000 -43.4800 0.0000 -430.0153
#
#
#
# Elastic Compliance Matrix: (Units=1/GPa)
#
#
# Indices 1 2 3 4 5 6 
#
# 1 0.007857 0.000542 -0.003046 0.000000 -0.002678 0.000000
# 2 0.000542 0.010992 -0.000326 0.000000 -0.000983 0.000000
# 3 -0.003046 -0.000326 0.008044 0.000000 -0.004362 0.000000
# 4 0.000000 0.000000 0.000000 -0.052079 0.000000 0.005266
# 5 -0.002678 -0.000983 -0.004362 0.000000 0.027503 0.000000
# 6 0.000000 0.000000 0.000000 0.005266 0.000000 -0.002858
#
#
# Mechanical properties :
#
#
# Convention : Reuss Voigt Hill
#
# Bulk Modulus (GPa) = 47.09282 65.93248 56.51265
# Shear Modulus (GPa) = 409.96045 -58.20318 175.87864
#
# Velocity S-wave (km/s) = 13.31234 -5.01599 8.71947
# Velocity P-wave (km/s) = 16.02025 2.24622 11.21613
#
# Compressibility (1/GPa) = 0.02123466
#
# Stress axis : x y z
#
# Youngs Moduli (GPa) = 127.27148 90.97439 124.31749
#
# Poissons Ratio (x) = -0.04935 0.37863
# Poissons Ratio (y) = -0.06904 0.04054
# Poissons Ratio (z) = 0.38762 0.02967
#
# Static dielectric constant tensor:
#      x y z
#    x 1.806870 0.000000 0.022190 
#    y 0.000000 1.889680 0.000000 
#    z 0.022190 0.000000 1.836510 
# 
# From -- ./inp_files/49126.got.cif
#   From: 2010.05.17/outbox.cif.g08.bks.cpg/sg10_25_cif.got.tgz:49126.got - 2010.06.03 11:33:40.
