data_PCOD9142925
_publ_section_title
;
Structure prediction by ZEFSAII (Michael W. Deem and Ramdas Pophale) SiO2 
 PCOD9142925
Probable space group: P 2/M
;
_chemical_formula_sum "Si O2"
_cell_formula_units_Z 28
_cell_length_a 15.899590
_cell_length_b 7.228764
_cell_length_c 12.724795
_cell_angle_alpha 90.000000
_cell_angle_beta 130.873159
_cell_angle_gamma 90.000000
_cell_volume 1105.896615
_symmetry_space_group_name_H-M "P 2/M"
_symmetry_group_IT_number 10
_symmetry_cell_setting 'monoclinic'
loop_
_space_group_symop_operation_xyz
x,y,z
-x,y,-z
-x,-y,-z
x,-y,z
loop_
_atom_site_type_symbol
_atom_site_label
_atom_site_fract_x
_atom_site_fract_y
_atom_site_fract_z
Si Si1 0.376879 0.723149 0.255892
Si Si2 0.738304 0.724690 0.052965
Si Si3 0.092121 0.221235 0.487802
Si Si4 0.329256 0.292840 0.775653
Si Si5 0.613232 0.726003 0.397396
Si Si6 0.979092 0.706638 0.178457
Si Si7 0.203810 0.274075 0.289355
O O1 0.377770 0.500000 0.267841
O O2 0.504204 0.782366 0.372997
O O3 0.280925 0.786477 0.255980
O O4 0.341883 0.766019 0.108715
O O5 0.747953 0.500000 0.072388
O O6 0.691093 0.791446 0.126186
O O7 0.861134 0.789958 0.116964
O O8 0.206497 0.299943 0.624453
O O9 0.047513 0.301840 0.343274
O O10 0.000000 0.258053 0.500000
O O11 0.103423 0.000000 0.485615
O O12 0.374570 0.500000 0.829449
O O13 0.394832 0.210175 0.730173
O O14 0.614772 0.500000 0.395373
O O15 0.725000 0.782015 0.549460
O O16 0.952776 0.500000 0.116047
O O17 0.075626 0.789182 0.183534
O O18 0.198852 0.500000 0.285148
#
# Coordination Sequence:
#
# PCOD9142925 Si02
#       7
#     4   4   4   4   4   4   4
#     4   9  17  28  40  66 104 130 161 202 238 278
#     4   9  18  28  42  66  98 134 159 192 240 285
#     4  11  21  31  47  74 101 126 158 199 245 286
#     4  10  18  30  49  72  99 128 159 193 242 294
#     4   9  16  26  44  68  96 131 162 196 242 285
#     4  10  18  30  49  72  99 128 159 193 242 294
#     4   9  16  26  44  68  96 131 162 196 242 285
#
# _framework density 25.318823999999999
#
# number of rings (size 3 to 8) (size 9 to 14) (size 15 to 20)
#    0.000    2.429    2.857    0.857    0.000    3.429 
#    0.000    5.714    0.000    0.000    0.000    8.000 
#    0.000    0.000    0.000    0.000    0.000    0.000 
#
# Total GULP energy -156422.918217 kJ/mol
# GULP energy per Si atom -5586.532793 kJ/mol
# Density = 2.526120 g / cm^3
# Si number density = 25.318824 Si / 1000 Ang^3
#
#
#
# Elastic Constant Matrix: (Units=GPa)
#
#
# Indices 1 2 3 4 5 6 
#
# 1 157.5767 6.3389 29.3404 0.0000 -32.6362 0.0000
# 2 6.3389 117.3712 -4.5788 0.0000 -1.7239 0.0000
# 3 29.3404 -4.5788 46.3781 0.0000 -2.7729 0.0000
# 4 0.0000 0.0000 0.0000 -122.3944 0.0000 -25.5152
# 5 -32.6362 -1.7239 -2.7729 0.0000 15.0434 0.0000
# 6 0.0000 0.0000 0.0000 -25.5152 0.0000 -45.4712
#
#
#
# Elastic Compliance Matrix: (Units=1/GPa)
#
#
# Indices 1 2 3 4 5 6 
#
# 1 0.013389 -0.000584 -0.006871 0.000000 0.027713 0.000000
# 2 -0.000584 0.008598 0.001215 0.000000 -0.000058 0.000000
# 3 -0.006871 0.001215 0.025426 0.000000 -0.010080 0.000000
# 4 0.000000 0.000000 0.000000 -0.009253 0.000000 0.005192
# 5 0.027713 -0.000058 -0.010080 0.000000 0.124732 0.000000
# 6 0.000000 0.000000 0.000000 0.005192 0.000000 -0.024905
#
#
# Mechanical properties :
#
#
# Convention : Reuss Voigt Hill
#
# Bulk Modulus (GPa) = 28.62664 42.61411 35.62038
# Shear Modulus (GPa) = 30.84312 -11.21607 9.81352
#
# Velocity S-wave (km/s) = 3.49404 -2.10702 1.97089
# Velocity P-wave (km/s) = 5.25441 3.30880 4.39073
#
# Compressibility (1/GPa) = 0.03493249
#
# Stress axis : x y z
#
# Youngs Moduli (GPa) = 74.69008 116.30522 39.32995
#
# Poissons Ratio (x) = 0.06793 0.27023
# Poissons Ratio (y) = 0.04363 -0.04778
# Poissons Ratio (z) = 0.51319 -0.14130
#
# Static dielectric constant tensor:
#      x y z
#    x 2.033950 0.000000 -0.034610 
#    y 0.000000 1.859060 0.000000 
#    z -0.034610 0.000000 1.909820 
# 
# From -- ./inp_files/50074.got.cif
#   From: 2010.05.17/outbox.cif.g08.bks.cpg/sg10_26_cif.got.tgz:50074.got - 2010.06.03 11:33:40.
