data_PCOD9142715
_publ_section_title
;
Structure prediction by ZEFSAII (Michael W. Deem and Ramdas Pophale) SiO2 
 PCOD9142715
Probable space group: P 2/M
;
_chemical_formula_sum "Si O2"
_cell_formula_units_Z 26
_cell_length_a 11.485544
_cell_length_b 10.867563
_cell_length_c 16.604887
_cell_angle_alpha 90.000000
_cell_angle_beta 136.738856
_cell_angle_gamma 90.000000
_cell_volume 1420.417488
_symmetry_space_group_name_H-M "P 2/M"
_symmetry_group_IT_number 10
_symmetry_cell_setting 'monoclinic'
loop_
_space_group_symop_operation_xyz
x,y,z
-x,y,-z
-x,-y,-z
x,-y,z
loop_
_atom_site_type_symbol
_atom_site_label
_atom_site_fract_x
_atom_site_fract_y
_atom_site_fract_z
Si Si1 0.954650 0.706181 0.062452
Si Si2 0.131476 0.633693 0.802583
Si Si3 0.605865 0.853746 0.888874
Si Si4 0.266744 0.857437 0.288307
Si Si5 0.095109 0.144558 0.373207
Si Si6 0.500000 0.269400 0.000000
Si Si7 0.398624 0.851206 0.629409
O O1 0.917341 0.635653 0.126897
O O2 0.117944 0.787896 0.167201
O O3 0.786199 0.788527 0.965012
O O4 0.000000 0.643726 0.000000
O O5 0.079109 0.500000 0.743059
O O6 0.333257 0.650800 0.898937
O O7 0.046619 0.754093 0.718978
O O8 0.542411 0.813777 0.944333
O O9 0.468281 0.816061 0.752034
O O10 0.628336 0.000000 0.895738
O O11 0.221726 0.853128 0.359808
O O12 0.452624 0.810749 0.357294
O O13 0.260023 0.000000 0.260212
O O14 0.211066 0.185247 0.506855
O O15 0.037427 0.000000 0.351984
O O16 0.391660 0.000000 0.622540
#
# Coordination Sequence:
#
# PCOD9142715 Si02
#       7
#     4   4   4   4   4   2   4
#     4  10  18  29  49  80 111 142 175 217 263 323
#     4  10  22  39  59  77 101 141 181 222 272 324
#     4  10  19  30  50  82 116 145 175 221 270 313
#     4   9  15  24  44  75 112 148 174 205 254 316
#     4   9  18  32  52  80 109 139 177 218 261 313
#     4  10  22  38  56  74  99 138 187 226 267 320
#     4   9  16  27  47  76 111 146 177 210 258 316
#
# _framework density 18.304476999999999
#
# number of rings (size 3 to 8) (size 9 to 14) (size 15 to 20)
#    0.000    2.462    1.538    1.385    0.000    7.077 
#    0.000    0.769    0.000   15.692    0.000    0.000 
#    0.000    0.000    0.000    0.000    0.000    0.000 
#
# Total GULP energy -144806.200000 kJ/mol
# GULP energy per Si atom -5569.469231 kJ/mol
# Density = 1.826282 g / cm^3
# Si number density = 18.304477 Si / 1000 Ang^3
#
#
#
# Elastic Constant Matrix: (Units=GPa)
#
#
# Indices 1 2 3 4 5 6 
#
# 1 49.1221 18.1422 22.5604 0.0000 15.8677 0.0000
# 2 18.1422 86.4172 49.5652 0.0000 9.9228 0.0000
# 3 22.5604 49.5652 118.7579 0.0000 9.4465 0.0000
# 4 0.0000 0.0000 0.0000 -0.9888 0.0000 2.6070
# 5 15.8677 9.9228 9.4465 0.0000 18.2877 0.0000
# 6 0.0000 0.0000 0.0000 2.6070 0.0000 -5.4955
#
#
#
# Elastic Compliance Matrix: (Units=1/GPa)
#
#
# Indices 1 2 3 4 5 6 
#
# 1 0.030030 -0.001852 -0.003065 0.000000 -0.023468 0.000000
# 2 -0.001852 0.015815 -0.005938 0.000000 -0.003907 0.000000
# 3 -0.003065 -0.005938 0.011485 0.000000 -0.000051 0.000000
# 4 0.000000 0.000000 0.000000 4.032064 0.000000 1.912798
# 5 -0.023468 -0.003907 -0.000051 0.000000 0.077190 0.000000
# 6 0.000000 0.000000 0.000000 1.912798 0.000000 0.725457
#
#
# Mechanical properties :
#
#
# Convention : Reuss Voigt Hill
#
# Bulk Modulus (GPa) = 28.07401 48.31478 38.19439
# Shear Modulus (GPa) = 1.01510 13.29598 7.15554
#
# Velocity S-wave (km/s) = 0.74550 2.69807 1.97931
# Velocity P-wave (km/s) = 4.01392 6.01319 5.11224
#
# Compressibility (1/GPa) = 0.03562014
#
# Stress axis : x y z
#
# Youngs Moduli (GPa) = 33.30026 63.23139 87.06869
#
# Poissons Ratio (x) = 0.11708 0.26689
# Poissons Ratio (y) = 0.06166 0.51702
# Poissons Ratio (z) = 0.10207 0.37547
#
# Static dielectric constant tensor:
#      x y z
#    x 1.649130 0.000000 -0.020370 
#    y 0.000000 1.529410 0.000000 
#    z -0.020370 0.000000 1.646130 
# 
# From -- ./inp_files/64465.got.cif
#   From: 2010.05.17/outbox.cif.g08.bks.cpg/sg10_33_cif.got.tgz:64465.got - 2010.06.03 11:33:40.
