data_PCOD9142784
_publ_section_title
;
Structure prediction by ZEFSAII (Michael W. Deem and Ramdas Pophale) SiO2 
 PCOD9142784
Probable space group: P 2/M
;
_chemical_formula_sum "Si O2"
_cell_formula_units_Z 32
_cell_length_a 20.616711
_cell_length_b 7.552603
_cell_length_c 28.979249
_cell_angle_alpha 90.000000
_cell_angle_beta 21.342449
_cell_angle_gamma 90.000000
_cell_volume 1642.232432
_symmetry_space_group_name_H-M "P 2/M"
_symmetry_group_IT_number 10
_symmetry_cell_setting 'monoclinic'
loop_
_space_group_symop_operation_xyz
x,y,z
-x,y,-z
-x,-y,-z
x,-y,z
loop_
_atom_site_type_symbol
_atom_site_label
_atom_site_fract_x
_atom_site_fract_y
_atom_site_fract_z
Si Si1 0.693329 0.216624 0.388177
Si Si2 0.455243 0.290142 0.145961
Si Si3 0.414862 0.793581 0.837883
Si Si4 0.276027 0.218346 0.432472
Si Si5 0.801776 0.703076 0.873842
Si Si6 0.818283 0.794038 0.405477
Si Si7 0.951500 0.212965 0.583568
Si Si8 0.065092 0.215797 0.111590
O O1 0.500000 0.276395 0.500000
O O2 0.745048 0.279186 0.405520
O O3 0.858466 0.266753 0.245511
O O4 0.691206 0.000000 0.390311
O O5 0.486134 0.500000 0.128826
O O6 0.495306 0.216525 0.170700
O O7 0.250399 0.259168 0.269914
O O8 0.601591 0.221756 0.012012
O O9 0.550772 0.719117 0.710369
O O10 0.395138 0.000000 0.839419
O O11 0.214513 0.721371 0.976649
O O12 0.260886 0.280582 0.495010
O O13 0.100541 0.273829 0.520590
O O14 0.276639 0.000000 0.431967
O O15 0.790813 0.500000 0.865918
O O16 0.868993 0.716867 0.882317
O O17 0.965754 0.785426 0.737295
O O18 0.769282 0.000000 0.437099
O O19 0.000000 0.278460 0.500000
O O20 0.961093 0.000000 0.575670
O O21 0.073065 0.000000 0.108065
#
# Coordination Sequence:
#
# PCOD9142784 Si02
#       8
#     4   4   4   4   4   4   4   4
#     4   8  13  23  42  68  92 112 139 176 214 251
#     4  10  19  29  43  65  89 112 143 184 225 261
#     4   9  15  27  45  63  85 113 148 185 216 251
#     4   9  17  29  45  64  85 111 146 185 219 252
#     4   9  17  29  44  62  87 115 142 180 222 255
#     4   9  17  30  47  65  85 114 149 177 209 259
#     4  10  18  30  46  63  84 113 147 184 223 255
#     4   8  14  24  43  67  86 112 147 177 209 254
#
# _framework density 19.485671
#
# number of rings (size 3 to 8) (size 9 to 14) (size 15 to 20)
#    0.000    3.000    1.250    1.500    0.000    1.750 
#    0.000    1.875    0.000   10.500    0.000    5.250 
#    0.000    0.000    0.000   24.875    0.000   25.250 
#
# Total GULP energy -178218.650027 kJ/mol
# GULP energy per Si atom -5569.332813 kJ/mol
# Density = 1.944132 g / cm^3
# Si number density = 19.485671 Si / 1000 Ang^3
#
#
#
# Elastic Constant Matrix: (Units=GPa)
#
#
# Indices 1 2 3 4 5 6 
#
# 1 63.4636 3.7542 72.4451 0.0000 5.6143 0.0000
# 2 3.7542 44.7346 0.0120 0.0000 -0.3841 0.0000
# 3 72.4451 0.0120 209.4313 0.0000 -3.4810 0.0000
# 4 0.0000 0.0000 0.0000 -11.5029 0.0000 14.2271
# 5 5.6143 -0.3841 -3.4810 0.0000 28.5942 0.0000
# 6 0.0000 0.0000 0.0000 14.2271 0.0000 -5.3609
#
#
#
# Elastic Compliance Matrix: (Units=1/GPa)
#
#
# Indices 1 2 3 4 5 6 
#
# 1 0.027439 -0.002357 -0.009601 0.000000 -0.006588 0.000000
# 2 -0.002357 0.022559 0.000828 0.000000 0.000867 0.000000
# 3 -0.009601 0.000828 0.008144 0.000000 0.002888 0.000000
# 4 0.000000 0.000000 0.000000 0.038090 0.000000 0.101085
# 5 -0.006588 0.000867 0.002888 0.000000 0.036629 0.000000
# 6 0.000000 0.000000 0.000000 0.101085 0.000000 0.081730
#
#
# Mechanical properties :
#
#
# Convention : Reuss Voigt Hill
#
# Bulk Modulus (GPa) = 27.86811 52.22801 40.04806
# Shear Modulus (GPa) = 20.09566 18.44062 19.26814
#
# Velocity S-wave (km/s) = 3.21488 3.07965 3.14799
# Velocity P-wave (km/s) = 5.30221 6.28547 5.81466
#
# Compressibility (1/GPa) = 0.03588331
#
# Stress axis : x y z
#
# Youngs Moduli (GPa) = 36.44463 44.32810 122.79205
#
# Poissons Ratio (x) = 0.10447 1.17891
# Poissons Ratio (y) = 0.08589 -0.10171
# Poissons Ratio (z) = 0.34990 -0.03672
#
# Static dielectric constant tensor:
#      x y z
#    x 1.643240 0.000000 0.014250 
#    y 0.000000 1.712770 0.000000 
#    z 0.014250 0.000000 1.739290 
# 
# From -- ./inp_files/52803.got.cif
#   From: 2010.05.17/outbox.cif.g08.bks.cpg/sg10_27_cif.got.tgz:52803.got - 2010.06.03 11:33:40.
