data_PCOD9142630
_publ_section_title
;
Structure prediction by ZEFSAII (Michael W. Deem and Ramdas Pophale) SiO2 
 PCOD9142630
Probable space group: P 2/M
;
_chemical_formula_sum "Si O2"
_cell_formula_units_Z 32
_cell_length_a 12.692602
_cell_length_b 7.387859
_cell_length_c 22.440796
_cell_angle_alpha 90.000000
_cell_angle_beta 134.780869
_cell_angle_gamma 90.000000
_cell_volume 1493.644239
_symmetry_space_group_name_H-M "P 2/M"
_symmetry_group_IT_number 10
_symmetry_cell_setting 'monoclinic'
loop_
_space_group_symop_operation_xyz
x,y,z
-x,y,-z
-x,-y,-z
x,-y,z
loop_
_atom_site_type_symbol
_atom_site_label
_atom_site_fract_x
_atom_site_fract_y
_atom_site_fract_z
Si Si1 0.535275 0.717898 0.608446
Si Si2 0.420663 0.219851 0.029383
Si Si3 0.930538 0.787892 0.270207
Si Si4 0.734909 0.282093 0.581145
Si Si5 0.643159 0.220704 0.223002
Si Si6 0.108679 0.221478 0.096630
Si Si7 0.912042 0.220973 0.127337
Si Si8 0.438001 0.212692 0.241921
O O1 0.536078 0.500000 0.607094
O O2 0.383182 0.778312 0.515667
O O3 0.670037 0.779681 0.619384
O O4 0.547015 0.770838 0.681368
O O5 0.519741 0.272442 0.124860
O O6 0.420057 0.000000 0.028660
O O7 0.500000 0.278239 0.000000
O O8 0.249634 0.275953 0.961367
O O9 0.802149 0.714367 0.262111
O O10 0.928421 0.714152 0.201791
O O11 0.096290 0.772294 0.360856
O O12 0.896106 0.000000 0.249244
O O13 0.731672 0.500000 0.580126
O O14 0.577794 0.283713 0.260118
O O15 0.652472 0.000000 0.228524
O O16 0.277568 0.285996 0.158288
O O17 0.039161 0.278115 0.132206
O O18 0.110497 0.000000 0.096731
O O19 0.000000 0.277179 0.000000
O O20 0.915353 0.000000 0.129178
O O21 0.431200 0.000000 0.225224
#
# Coordination Sequence:
#
# PCOD9142630 Si02
#       8
#     4   4   4   4   4   4   4   4
#     4   9  19  37  57  74  94 123 158 197 245 299
#     4   9  13  21  37  60  94 135 168 194 232 281
#     4  10  18  29  47  74 102 126 158 203 246 282
#     4   9  19  36  56  75  95 120 154 199 249 300
#     4   9  17  28  42  67 104 138 165 198 239 283
#     4   9  16  25  38  63  99 130 156 196 242 278
#     4   9  15  22  37  63  93 124 162 201 237 279
#     4  10  19  31  49  73 102 134 166 198 239 288
#
# _framework density 21.424112000000001
#
# number of rings (size 3 to 8) (size 9 to 14) (size 15 to 20)
#    0.000    2.750    1.250    2.250    0.000    5.000 
#    0.000    2.500    0.000    4.125    0.000    4.375 
#    0.000    0.000    0.000    0.000    0.000    0.000 
#
# Total GULP energy -178676.795921 kJ/mol
# GULP energy per Si atom -5583.649873 kJ/mol
# Density = 2.137535 g / cm^3
# Si number density = 21.424112 Si / 1000 Ang^3
#
#
#
# Elastic Constant Matrix: (Units=GPa)
#
#
# Indices 1 2 3 4 5 6 
#
# 1 179.6122 9.0466 81.9749 0.0000 11.9847 0.0000
# 2 9.0466 70.2876 -6.2756 0.0000 1.7138 0.0000
# 3 81.9749 -6.2756 97.7987 0.0000 9.0554 0.0000
# 4 0.0000 0.0000 0.0000 34.9985 0.0000 -4.9709
# 5 11.9847 1.7138 9.0554 0.0000 34.5822 0.0000
# 6 0.0000 0.0000 0.0000 -4.9709 0.0000 4.4518
#
#
#
# Elastic Compliance Matrix: (Units=1/GPa)
#
#
# Indices 1 2 3 4 5 6 
#
# 1 0.009301 -0.001869 -0.007816 0.000000 -0.001084 0.000000
# 2 -0.001869 0.014717 0.002581 0.000000 -0.000758 0.000000
# 3 -0.007816 0.002581 0.017118 0.000000 -0.001902 0.000000
# 4 0.000000 0.000000 0.000000 0.033958 0.000000 0.037918
# 5 -0.001084 -0.000758 -0.001902 0.000000 0.029828 0.000000
# 6 0.000000 0.000000 0.000000 0.037918 0.000000 0.266966
#
#
# Mechanical properties :
#
#
# Convention : Reuss Voigt Hill
#
# Bulk Modulus (GPa) = 37.13532 57.46559 47.30045
# Shear Modulus (GPa) = 12.65596 32.33669 22.49632
#
# Velocity S-wave (km/s) = 2.43314 3.88926 3.24396
# Velocity P-wave (km/s) = 5.02639 6.85927 6.01308
#
# Compressibility (1/GPa) = 0.02692854
#
# Stress axis : x y z
#
# Youngs Moduli (GPa) = 107.51447 67.95033 58.41855
#
# Poissons Ratio (x) = 0.12697 0.45658
# Poissons Ratio (y) = 0.20089 -0.15076
# Poissons Ratio (z) = 0.84030 -0.17536
#
# Static dielectric constant tensor:
#      x y z
#    x 1.778550 0.000000 0.005280 
#    y 0.000000 1.850440 0.000000 
#    z 0.005280 0.000000 1.730540 
# 
# From -- ./inp_files/50727.got.cif
#   From: 2010.05.17/outbox.cif.g08.bks.cpg/sg10_26_cif.got.tgz:50727.got - 2010.06.03 11:33:40.
