data_PCOD9142126
_publ_section_title
;
Structure prediction by ZEFSAII (Michael W. Deem and Ramdas Pophale) SiO2 
 PCOD9142126
Probable space group: P 2/M
;
_chemical_formula_sum "Si O2"
_cell_formula_units_Z 24
_cell_length_a 9.608188
_cell_length_b 15.915305
_cell_length_c 13.322044
_cell_angle_alpha 90.000000
_cell_angle_beta 147.298307
_cell_angle_gamma 90.000000
_cell_volume 1100.612154
_symmetry_space_group_name_H-M "P 2/M"
_symmetry_group_IT_number 10
_symmetry_cell_setting 'monoclinic'
loop_
_space_group_symop_operation_xyz
x,y,z
-x,y,-z
-x,-y,-z
x,-y,z
loop_
_atom_site_type_symbol
_atom_site_label
_atom_site_fract_x
_atom_site_fract_y
_atom_site_fract_z
Si Si1 0.168465 0.090090 0.999135
Si Si2 0.278581 0.156811 0.637065
Si Si3 0.574645 0.595211 0.808709
Si Si4 0.284744 0.706650 0.477676
Si Si5 0.718703 0.680208 0.216125
Si Si6 0.011175 0.730080 0.887203
O O1 0.474040 0.097992 0.204050
O O2 0.115602 0.000000 0.915773
O O3 0.105458 0.178281 0.906254
O O4 0.000000 0.088350 0.000000
O O5 0.305693 0.202482 0.544999
O O6 0.300208 0.236411 0.726380
O O7 0.000000 0.120016 0.500000
O O8 0.651468 0.500000 0.836582
O O9 0.478367 0.642703 0.650477
O O10 0.342753 0.603552 0.747261
O O11 0.798749 0.650317 0.997341
O O12 0.998888 0.676308 0.339011
O O13 0.241196 0.713612 0.331893
O O14 0.500000 0.685078 0.000000
O O15 0.000000 0.742680 0.000000
#
# Coordination Sequence:
#
# PCOD9142126 Si02
#       6
#     4   4   4   4   4   4
#     4  10  20  38  63  91 126 165 210 261 311 375
#     4   9  18  34  61  92 122 162 206 257 314 375
#     4  11  23  38  59  92 121 157 208 251 311 376
#     4  10  20  38  61  86 121 160 201 257 310 365
#     4  10  17  34  61  87 119 160 201 252 311 371
#     4  11  23  42  63  83 120 167 208 253 313 371
#
# _framework density 21.806047
#
# number of rings (size 3 to 8) (size 9 to 14) (size 15 to 20)
#    0.000    1.833    5.000    1.500    0.000    3.667 
#    0.000    1.667    0.000   12.500    0.000    0.000 
#    0.000    0.000    0.000    0.000    0.000    0.000 
#
# Total GULP energy -133730.234452 kJ/mol
# GULP energy per Si atom -5572.093102 kJ/mol
# Density = 2.175642 g / cm^3
# Si number density = 21.806047 Si / 1000 Ang^3
#
#
#
# Elastic Constant Matrix: (Units=GPa)
#
#
# Indices 1 2 3 4 5 6 
#
# 1 33.4771 13.0326 6.2065 0.0000 -10.1869 0.0000
# 2 13.0326 129.6507 49.3805 0.0000 9.1448 0.0000
# 3 6.2065 49.3805 147.7086 0.0000 -10.9998 0.0000
# 4 0.0000 0.0000 0.0000 7.8568 0.0000 5.5584
# 5 -10.1869 9.1448 -10.9998 0.0000 41.6133 0.0000
# 6 0.0000 0.0000 0.0000 5.5584 0.0000 6.2203
#
#
#
# Elastic Compliance Matrix: (Units=1/GPa)
#
#
# Indices 1 2 3 4 5 6 
#
# 1 0.034367 -0.004414 0.000745 0.000000 0.009580 0.000000
# 2 -0.004414 0.009732 -0.003374 0.000000 -0.004111 0.000000
# 3 0.000745 -0.003374 0.008095 0.000000 0.003064 0.000000
# 4 0.000000 0.000000 0.000000 0.346038 0.000000 -0.309215
# 5 0.009580 -0.004111 0.003064 0.000000 0.028089 0.000000
# 6 0.000000 0.000000 0.000000 -0.309215 0.000000 0.437074
#
#
# Mechanical properties :
#
#
# Convention : Reuss Voigt Hill
#
# Bulk Modulus (GPa) = 26.24185 49.78616 38.01401
# Shear Modulus (GPa) = 5.61682 27.28586 16.45134
#
# Velocity S-wave (km/s) = 1.60667 3.54121 2.74969
# Velocity P-wave (km/s) = 3.93728 6.29294 5.24897
#
# Compressibility (1/GPa) = 0.03810707
#
# Stress axis : x y z
#
# Youngs Moduli (GPa) = 29.09805 102.75563 123.53400
#
# Poissons Ratio (x) = 0.45357 -0.09204
# Poissons Ratio (y) = 0.12844 0.41682
# Poissons Ratio (z) = -0.02168 0.34671
#
# Static dielectric constant tensor:
#      x y z
#    x 1.992990 0.000000 0.027710 
#    y 0.000000 1.777400 0.000000 
#    z 0.027710 0.000000 1.811520 
# 
# From -- ./inp_files/64971.got.cif
#   From: 2010.05.17/outbox.cif.g08.bks.cpg/sg10_33_cif.got.tgz:64971.got - 2010.06.03 11:33:40.
