data_PCOD9142834
_publ_section_title
;
Structure prediction by ZEFSAII (Michael W. Deem and Ramdas Pophale) SiO2 
 PCOD9142834
Probable space group: P 2/M
;
_chemical_formula_sum "Si O2"
_cell_formula_units_Z 28
_cell_length_a 19.888222
_cell_length_b 7.535397
_cell_length_c 14.663157
_cell_angle_alpha 90.000000
_cell_angle_beta 139.737576
_cell_angle_gamma 90.000000
_cell_volume 1420.223378
_symmetry_space_group_name_H-M "P 2/M"
_symmetry_group_IT_number 10
_symmetry_cell_setting 'monoclinic'
loop_
_space_group_symop_operation_xyz
x,y,z
-x,y,-z
-x,-y,-z
x,-y,z
loop_
_atom_site_type_symbol
_atom_site_label
_atom_site_fract_x
_atom_site_fract_y
_atom_site_fract_z
Si Si1 0.450568 0.797379 0.857297
Si Si2 0.372673 0.216312 0.462877
Si Si3 0.273771 0.210514 0.545722
Si Si4 0.615054 0.213987 0.725163
Si Si5 0.920239 0.713224 0.544235
Si Si6 0.650483 0.706649 0.961626
Si Si7 0.145322 0.716867 0.724400
O O1 0.350318 0.715238 0.704008
O O2 0.543249 0.798429 0.879435
O O3 0.421935 0.000000 0.853076
O O4 0.500000 0.715086 0.000000
O O5 0.305278 0.279338 0.478699
O O6 0.493240 0.266934 0.602734
O O7 0.342624 0.273787 0.329497
O O8 0.370106 0.000000 0.458818
O O9 0.155333 0.234845 0.452589
O O10 0.295542 0.000000 0.565766
O O11 0.668566 0.278002 0.872512
O O12 0.617737 0.000000 0.729540
O O13 0.922610 0.500000 0.543486
O O14 0.869580 0.773304 0.395786
O O15 0.040102 0.772748 0.667904
O O16 0.636714 0.500000 0.970273
O O17 0.748368 0.777665 0.119661
O O18 0.147502 0.500000 0.727717
#
# Coordination Sequence:
#
# PCOD9142834 Si02
#       7
#     4   4   4   4   4   4   4
#     4  10  20  32  46  67  98 132 158 184 228 287
#     4   8  15  29  50  68  90 126 161 190 229 281
#     4  10  18  30  47  71  99 121 149 195 241 276
#     4   9  16  31  51  68  89 126 165 190 227 285
#     4   9  17  33  53  68  87 125 168 196 224 276
#     4  11  20  30  47  72  99 124 152 196 243 279
#     4   8  17  33  50  67  92 126 162 195 231 275
#
# _framework density 19.715208000000001
#
# number of rings (size 3 to 8) (size 9 to 14) (size 15 to 20)
#    0.000    2.714    1.429    3.000    0.000    0.857 
#    0.000    5.714    0.000    0.857    0.000    6.000 
#    0.000    0.000    0.000    0.000    0.000    0.000 
#
# Total GULP energy -156186.021365 kJ/mol
# GULP energy per Si atom -5578.072192 kJ/mol
# Density = 1.967034 g / cm^3
# Si number density = 19.715208 Si / 1000 Ang^3
#
#
#
# Elastic Constant Matrix: (Units=GPa)
#
#
# Indices 1 2 3 4 5 6 
#
# 1 105.0169 -3.4112 -4.4369 0.0000 1.3622 0.0000
# 2 -3.4112 49.0492 -1.9224 0.0000 -1.1680 0.0000
# 3 -4.4369 -1.9224 23.8722 0.0000 4.1906 0.0000
# 4 0.0000 0.0000 0.0000 6.6471 0.0000 1.1698
# 5 1.3622 -1.1680 4.1906 0.0000 27.5742 0.0000
# 6 0.0000 0.0000 0.0000 1.1698 0.0000 16.4944
#
#
#
# Elastic Compliance Matrix: (Units=1/GPa)
#
#
# Indices 1 2 3 4 5 6 
#
# 1 0.009639 0.000730 0.001981 0.000000 -0.000746 0.000000
# 2 0.000730 0.020518 0.001687 0.000000 0.000577 0.000000
# 3 0.001981 0.001687 0.043561 0.000000 -0.006647 0.000000
# 4 0.000000 0.000000 0.000000 0.152344 0.000000 -0.010805
# 5 -0.000746 0.000577 -0.006647 0.000000 0.037337 0.000000
# 6 0.000000 0.000000 0.000000 -0.010805 0.000000 0.061393
#
#
# Mechanical properties :
#
#
# Convention : Reuss Voigt Hill
#
# Bulk Modulus (GPa) = 12.11895 17.59971 14.85933
# Shear Modulus (GPa) = 14.55603 22.65706 18.60655
#
# Velocity S-wave (km/s) = 2.72014 3.39369 3.07541
# Velocity P-wave (km/s) = 4.00324 4.92976 4.49046
#
# Compressibility (1/GPa) = 0.08251537
#
# Stress axis : x y z
#
# Youngs Moduli (GPa) = 103.74100 48.73695 22.95651
#
# Poissons Ratio (x) = -0.03559 -0.04549
# Poissons Ratio (y) = -0.07576 -0.03872
# Poissons Ratio (z) = -0.20555 -0.08221
#
# Static dielectric constant tensor:
#      x y z
#    x 1.707090 0.000000 -0.022250 
#    y 0.000000 1.757480 0.000000 
#    z -0.022250 0.000000 1.680970 
# 
# From -- ./inp_files/54680.got.cif
#   From: 2010.05.17/outbox.cif.g08.bks.cpg/sg10_28_cif.got.tgz:54680.got - 2010.06.03 11:33:40.
