data_PCOD9142528
_publ_section_title
;
Structure prediction by ZEFSAII (Michael W. Deem and Ramdas Pophale) SiO2 
 PCOD9142528
Probable space group: P 2/M
;
_chemical_formula_sum "Si O2"
_cell_formula_units_Z 32
_cell_length_a 27.212416
_cell_length_b 20.371489
_cell_length_c 24.265179
_cell_angle_alpha 90.000000
_cell_angle_beta 170.867129
_cell_angle_gamma 90.000000
_cell_volume 2135.096053
_symmetry_space_group_name_H-M "P 2/M"
_symmetry_group_IT_number 10
_symmetry_cell_setting 'monoclinic'
loop_
_space_group_symop_operation_xyz
x,y,z
-x,y,-z
-x,-y,-z
x,-y,z
loop_
_atom_site_type_symbol
_atom_site_label
_atom_site_fract_x
_atom_site_fract_y
_atom_site_fract_z
Si Si1 0.270630 0.846951 0.396503
Si Si2 0.866925 0.575073 0.413187
Si Si3 0.918494 0.356909 0.242852
Si Si4 0.911328 0.331134 0.074946
Si Si5 0.341869 0.923157 0.264865
Si Si6 0.277003 0.576252 0.545267
Si Si7 0.449500 0.739188 0.229297
Si Si8 0.144559 0.724412 0.102884
O O1 0.474580 0.878379 0.574701
O O2 0.491064 0.814081 0.686960
O O3 0.013512 0.899648 0.129234
O O4 0.068874 0.785916 0.150132
O O5 0.954014 0.500000 0.527553
O O6 0.000000 0.585772 0.500000
O O7 0.982075 0.627832 0.584960
O O8 0.500000 0.577033 0.000000
O O9 0.188907 0.382817 0.502396
O O10 0.612241 0.401722 0.894759
O O11 0.805282 0.285127 0.097098
O O12 0.015318 0.401714 0.211930
O O13 0.218957 0.286700 0.424566
O O14 0.648677 0.299941 0.823221
O O15 0.849769 0.325739 0.942143
O O16 0.500000 0.915040 0.500000
O O17 0.366530 0.000000 0.277999
O O18 0.271669 0.500000 0.551452
O O19 0.500000 0.746940 0.500000
O O20 0.000000 0.698832 0.000000
#
# Coordination Sequence:
#
# PCOD9142528 Si02
#       8
#     4   4   4   4   4   4   4   4
#     4  11  19  31  46  62  82 106 142 176 209 246
#     4  10  19  29  42  62  90 122 150 173 201 247
#     4  10  19  31  45  65  87 108 144 182 214 247
#     4   9  18  29  40  61  82  96 129 175 217 259
#     4  11  22  32  43  62  89 118 144 170 203 252
#     4  10  18  29  46  61  78 106 136 175 219 255
#     4   9  18  30  46  63  81 105 136 182 221 246
#     4  11  19  28  44  61  78 102 132 172 219 257
#
# _framework density 14.987615
#
# number of rings (size 3 to 8) (size 9 to 14) (size 15 to 20)
#    0.000    1.875    0.000    7.500    0.000    2.000 
#    0.000    0.000    0.000    0.750    0.000    0.000 
#    0.000    0.000    0.000    0.000    0.000   12.500 
#
# Total GULP energy -178362.410162 kJ/mol
# GULP energy per Si atom -5573.825318 kJ/mol
# Density = 1.495350 g / cm^3
# Si number density = 14.987615 Si / 1000 Ang^3
#
#
#
# Elastic Constant Matrix: (Units=GPa)
#
#
# Indices 1 2 3 4 5 6 
#
# 1 78.5880 22.0908 25.9901 0.0000 -0.2853 0.0000
# 2 22.0908 46.7299 18.8316 0.0000 -12.1837 0.0000
# 3 25.9901 18.8316 38.7276 0.0000 3.9262 0.0000
# 4 0.0000 0.0000 0.0000 20.6103 0.0000 -2.9207
# 5 -0.2853 -12.1837 3.9262 0.0000 29.9404 0.0000
# 6 0.0000 0.0000 0.0000 -2.9207 0.0000 17.5833
#
#
#
# Elastic Compliance Matrix: (Units=1/GPa)
#
#
# Indices 1 2 3 4 5 6 
#
# 1 0.017021 -0.004447 -0.009216 0.000000 -0.000439 0.000000
# 2 -0.004447 0.033577 -0.014922 0.000000 0.015578 0.000000
# 3 -0.009216 -0.014922 0.040424 0.000000 -0.011461 0.000000
# 4 0.000000 0.000000 0.000000 0.049689 0.000000 0.008254
# 5 -0.000439 0.015578 -0.011461 0.000000 0.041237 0.000000
# 6 0.000000 0.000000 0.000000 0.008254 0.000000 0.058243
#
#
# Mechanical properties :
#
#
# Convention : Reuss Voigt Hill
#
# Bulk Modulus (GPa) = 29.54021 33.09673 31.31847
# Shear Modulus (GPa) = 16.19989 20.10234 18.15112
#
# Velocity S-wave (km/s) = 3.29125 3.66630 3.48383
# Velocity P-wave (km/s) = 5.84770 6.32874 6.09297
#
# Compressibility (1/GPa) = 0.03385216
#
# Stress axis : x y z
#
# Youngs Moduli (GPa) = 58.75165 29.78268 24.73785
#
# Poissons Ratio (x) = 0.13244 0.22798
# Poissons Ratio (y) = 0.26126 0.36913
# Poissons Ratio (z) = 0.54145 0.44441
#
# Static dielectric constant tensor:
#      x y z
#    x 1.520380 0.000000 -0.011740 
#    y 0.000000 1.496540 0.000000 
#    z -0.011740 0.000000 1.523040 
# 
# From -- ./inp_files/91337.got.cif
#   From: 2010.05.17/outbox.cif.g08.bks.cpg/sg10_46_cif.got.tgz:91337.got - 2010.06.03 11:33:40.
