data_PCOD9142337
_publ_section_title
;
Structure prediction by ZEFSAII (Michael W. Deem and Ramdas Pophale) SiO2 
 PCOD9142337
Probable space group: P 2/M
;
_chemical_formula_sum "Si O2"
_cell_formula_units_Z 26
_cell_length_a 18.385874
_cell_length_b 13.059018
_cell_length_c 15.948416
_cell_angle_alpha 90.000000
_cell_angle_beta 155.784983
_cell_angle_gamma 90.000000
_cell_volume 1570.608217
_symmetry_space_group_name_H-M "P 2/M"
_symmetry_group_IT_number 10
_symmetry_cell_setting 'monoclinic'
loop_
_space_group_symop_operation_xyz
x,y,z
-x,y,-z
-x,-y,-z
x,-y,z
loop_
_atom_site_type_symbol
_atom_site_label
_atom_site_fract_x
_atom_site_fract_y
_atom_site_fract_z
Si Si1 0.736409 0.622037 0.172460
Si Si2 0.499264 0.384650 0.635769
Si Si3 0.835728 0.879143 0.766408
Si Si4 0.167563 0.380301 0.902684
Si Si5 0.500000 0.782024 0.500000
Si Si6 0.167115 0.294058 0.370821
Si Si7 0.315442 0.376842 0.697726
O O1 0.768419 0.500000 0.207048
O O2 0.837978 0.663062 0.197656
O O3 0.771297 0.654922 0.304384
O O4 0.526495 0.634690 0.933408
O O5 0.518511 0.500000 0.622979
O O6 0.556673 0.296487 0.632570
O O7 0.296852 0.364306 0.450458
O O8 0.631042 0.375826 0.853155
O O9 0.658505 0.849666 0.630718
O O10 0.833474 0.813793 0.678164
O O11 0.844268 0.000000 0.758865
O O12 0.000000 0.850829 0.000000
O O13 0.118148 0.500000 0.847577
O O14 0.034321 0.329096 0.827602
O O15 0.248428 0.310231 0.549383
O O16 0.284167 0.500000 0.650149
#
# Coordination Sequence:
#
# PCOD9142337 Si02
#       7
#     4   4   4   4   2   4   4
#     4   8  15  26  43  67 102 141 168 192 223 263
#     4  10  19  31  45  70 107 136 157 190 232 284
#     4  10  22  40  57  73  93 117 156 216 265 294
#     4  10  18  28  44  70 103 137 167 193 224 274
#     4  10  20  34  56  76  94 124 164 192 242 306
#     4  11  20  30  50  73  94 128 168 201 241 291
#     4   9  15  27  45  70 103 136 165 193 227 273
#
# _framework density 16.554096000000001
#
# number of rings (size 3 to 8) (size 9 to 14) (size 15 to 20)
#    0.000    2.308    1.538    3.692    0.000    0.615 
#    0.000    2.308    0.000    9.692    0.000    4.308 
#    0.000    0.000    0.000    0.000    0.000    0.000 
#
# Total GULP energy -144799.183391 kJ/mol
# GULP energy per Si atom -5569.199361 kJ/mol
# Density = 1.651642 g / cm^3
# Si number density = 16.554096 Si / 1000 Ang^3
#
#
#
# Elastic Constant Matrix: (Units=GPa)
#
#
# Indices 1 2 3 4 5 6 
#
# 1 103.2297 36.5292 24.9661 0.0000 -4.8708 0.0000
# 2 36.5292 58.0801 33.1507 0.0000 -9.6016 0.0000
# 3 24.9661 33.1507 69.0091 0.0000 -7.6109 0.0000
# 4 0.0000 0.0000 0.0000 13.4137 0.0000 -1.5166
# 5 -4.8708 -9.6016 -7.6109 0.0000 32.3252 0.0000
# 6 0.0000 0.0000 0.0000 -1.5166 0.0000 16.5342
#
#
#
# Elastic Compliance Matrix: (Units=1/GPa)
#
#
# Indices 1 2 3 4 5 6 
#
# 1 0.012522 -0.007366 -0.001052 0.000000 -0.000549 0.000000
# 2 -0.007366 0.028704 -0.010581 0.000000 0.004925 0.000000
# 3 -0.001052 -0.010581 0.020113 0.000000 0.001434 0.000000
# 4 0.000000 0.000000 0.000000 0.075332 0.000000 0.006910
# 5 -0.000549 0.004925 0.001434 0.000000 0.032653 0.000000
# 6 0.000000 0.000000 0.000000 0.006910 0.000000 0.061115
#
#
# Mechanical properties :
#
#
# Convention : Reuss Voigt Hill
#
# Bulk Modulus (GPa) = 42.84405 46.62344 44.73374
# Shear Modulus (GPa) = 18.10173 21.49948 19.80061
#
# Velocity S-wave (km/s) = 3.31038 3.60771 3.46224
# Velocity P-wave (km/s) = 6.36780 6.75126 6.56234
#
# Compressibility (1/GPa) = 0.02334046
#
# Stress axis : x y z
#
# Youngs Moduli (GPa) = 79.85775 34.83865 49.72023
#
# Poissons Ratio (x) = 0.25662 0.05233
# Poissons Ratio (y) = 0.58822 0.52608
# Poissons Ratio (z) = 0.08404 0.36862
#
# Static dielectric constant tensor:
#      x y z
#    x 1.611110 0.000000 -0.002470 
#    y 0.000000 1.507850 0.000000 
#    z -0.002470 0.000000 1.602070 
# 
# From -- ./inp_files/68983.got.cif
#   From: 2010.05.17/outbox.cif.g08.bks.cpg/sg10_35_cif.got.tgz:68983.got - 2010.06.03 11:33:40.
