data_PCOD9142651
_publ_section_title
;
Structure prediction by ZEFSAII (Michael W. Deem and Ramdas Pophale) SiO2 
 PCOD9142651
Probable space group: P 2/M
;
_chemical_formula_sum "Si O2"
_cell_formula_units_Z 32
_cell_length_a 31.885776
_cell_length_b 8.230907
_cell_length_c 15.570492
_cell_angle_alpha 90.000000
_cell_angle_beta 151.486682
_cell_angle_gamma 90.000000
_cell_volume 1950.723858
_symmetry_space_group_name_H-M "P 2/M"
_symmetry_group_IT_number 10
_symmetry_cell_setting 'monoclinic'
loop_
_space_group_symop_operation_xyz
x,y,z
-x,y,-z
-x,-y,-z
x,-y,z
loop_
_atom_site_type_symbol
_atom_site_label
_atom_site_fract_x
_atom_site_fract_y
_atom_site_fract_z
Si Si1 0.929176 0.690212 0.254923
Si Si2 0.076452 0.698913 0.948156
Si Si3 0.878805 0.698251 0.639248
Si Si4 0.797244 0.695582 0.673042
Si Si5 0.755628 0.306629 0.259353
Si Si6 0.413779 0.196268 0.955564
Si Si7 0.610412 0.804167 0.284895
Si Si8 0.885038 0.187195 0.357053
O O1 0.907707 0.500000 0.221654
O O2 0.907320 0.751758 0.120473
O O3 0.884015 0.777810 0.253861
O O4 0.034163 0.710004 0.458229
O O5 0.076131 0.500000 0.946286
O O6 0.978792 0.748901 0.801831
O O7 0.148378 0.753277 0.146571
O O8 0.877820 0.500000 0.638224
O O9 0.842110 0.754092 0.665039
O O10 0.815649 0.750763 0.447927
O O11 0.802989 0.500000 0.682792
O O12 0.695478 0.742780 0.487185
O O13 0.764374 0.500000 0.268972
O O14 0.656108 0.262219 0.102956
O O15 0.796632 0.230176 0.247892
O O16 0.386128 0.248588 0.809096
O O17 0.411178 0.000000 0.952551
O O18 0.515204 0.247149 0.149330
O O19 0.611445 0.000000 0.286525
O O20 0.907615 0.000000 0.411621
#
# Coordination Sequence:
#
# PCOD9142651 Si02
#       8
#     4   4   4   4   4   4   4   4
#     4  10  18  32  50  69  93 125 163 202 237 278
#     4   9  17  29  47  69  95 127 163 199 237 272
#     4   9  16  27  43  67  96 126 160 193 227 268
#     4  10  18  29  48  71  94 126 166 202 230 270
#     4  11  19  30  49  73  95 125 161 197 238 282
#     4   9  18  32  48  66  93 128 160 194 239 286
#     4   9  18  32  47  65  94 129 160 194 239 284
#     4  11  21  32  47  69  96 126 157 196 244 290
#
# _framework density 16.404167999999999
#
# number of rings (size 3 to 8) (size 9 to 14) (size 15 to 20)
#    0.000    2.250    2.500    3.750    0.000    2.000 
#    0.000    2.500    0.000    0.750    0.000    0.875 
#    0.000    7.000    0.000    0.000    0.000    0.000 
#
# Total GULP energy -178503.984445 kJ/mol
# GULP energy per Si atom -5578.249514 kJ/mol
# Density = 1.636683 g / cm^3
# Si number density = 16.404168 Si / 1000 Ang^3
#
#
#
# Elastic Constant Matrix: (Units=GPa)
#
#
# Indices 1 2 3 4 5 6 
#
# 1 124.7234 8.4958 62.8758 0.0000 8.2843 0.0000
# 2 8.4958 12.8706 2.3193 0.0000 -1.2860 0.0000
# 3 62.8758 2.3193 96.4923 0.0000 3.7312 0.0000
# 4 0.0000 0.0000 0.0000 35.8328 0.0000 13.2907
# 5 8.2843 -1.2860 3.7312 0.0000 22.1136 0.0000
# 6 0.0000 0.0000 0.0000 13.2907 0.0000 17.4450
#
#
#
# Elastic Compliance Matrix: (Units=1/GPa)
#
#
# Indices 1 2 3 4 5 6 
#
# 1 0.012829 -0.007409 -0.008031 0.000000 -0.003882 0.000000
# 2 -0.007409 0.082841 0.002560 0.000000 0.007161 0.000000
# 3 -0.008031 0.002560 0.015515 0.000000 0.000540 0.000000
# 4 0.000000 0.000000 0.000000 0.038900 0.000000 -0.029636
# 5 -0.003882 0.007161 0.000540 0.000000 0.047001 0.000000
# 6 0.000000 0.000000 0.000000 -0.029636 0.000000 0.079902
#
#
# Mechanical properties :
#
#
# Convention : Reuss Voigt Hill
#
# Bulk Modulus (GPa) = 11.70640 42.38536 27.04588
# Shear Modulus (GPa) = 15.09558 25.77131 20.43344
#
# Velocity S-wave (km/s) = 3.03682 3.96791 3.53317
# Velocity P-wave (km/s) = 4.41000 6.84739 5.75911
#
# Compressibility (1/GPa) = 0.08542337
#
# Stress axis : x y z
#
# Youngs Moduli (GPa) = 77.94801 12.07130 64.45579
#
# Poissons Ratio (x) = 0.08944 0.51767
# Poissons Ratio (y) = 0.57751 -0.16499
# Poissons Ratio (z) = 0.62603 -0.03090
#
# Static dielectric constant tensor:
#      x y z
#    x 1.551920 0.000000 -0.001440 
#    y 0.000000 1.569020 0.000000 
#    z -0.001440 0.000000 1.535160 
# 
# From -- ./inp_files/72552.got.cif
#   From: 2010.05.17/outbox.cif.g08.bks.cpg/sg10_37_cif.got.tgz:72552.got - 2010.06.03 11:33:40.
