data_PCOD9142738
_publ_section_title
;
Structure prediction by ZEFSAII (Michael W. Deem and Ramdas Pophale) SiO2 
 PCOD9142738
Probable space group: P 2/M
;
_chemical_formula_sum "Si O2"
_cell_formula_units_Z 32
_cell_length_a 15.510723
_cell_length_b 7.726938
_cell_length_c 24.691920
_cell_angle_alpha 90.000000
_cell_angle_beta 29.848715
_cell_angle_gamma 90.000000
_cell_volume 1472.896000
_symmetry_space_group_name_H-M "P 2/M"
_symmetry_group_IT_number 10
_symmetry_cell_setting 'monoclinic'
loop_
_space_group_symop_operation_xyz
x,y,z
-x,y,-z
-x,-y,-z
x,-y,z
loop_
_atom_site_type_symbol
_atom_site_label
_atom_site_fract_x
_atom_site_fract_y
_atom_site_fract_z
Si Si1 0.266396 0.704626 0.978651
Si Si2 0.792929 0.210374 0.413412
Si Si3 0.447698 0.206460 0.771958
Si Si4 0.516886 0.303844 0.933722
Si Si5 0.901140 0.791075 0.233873
Si Si6 0.576356 0.787817 0.338361
Si Si7 0.128417 0.196603 0.291142
Si Si8 0.183263 0.800793 0.388207
O O1 0.287760 0.500000 0.962993
O O2 0.305248 0.766326 0.896460
O O3 0.414803 0.775414 0.938693
O O4 0.082326 0.741198 0.107117
O O5 0.863507 0.268586 0.316125
O O6 0.602800 0.269413 0.535542
O O7 0.936395 0.254999 0.380418
O O8 0.781247 0.000000 0.417512
O O9 0.411072 0.269865 0.731110
O O10 0.635528 0.274411 0.689967
O O11 0.465387 0.000000 0.758058
O O12 0.445857 0.500000 0.977535
O O13 0.720906 0.310807 0.814753
O O14 0.500000 0.210496 0.000000
O O15 0.741751 0.733044 0.283123
O O16 0.899897 0.000000 0.236414
O O17 0.575426 0.000000 0.338966
O O18 0.175560 0.189349 0.328123
O O19 0.144655 0.000000 0.260558
O O20 0.000000 0.712244 0.500000
O O21 0.174513 0.000000 0.415358
#
# Coordination Sequence:
#
# PCOD9142738 Si02
#       8
#     4   4   4   4   4   4   4   4
#     4  11  23  38  55  76 109 147 184 227 272 319
#     4   9  17  31  54  86 116 137 170 224 277 324
#     4  10  19  34  56  80 109 143 182 223 263 320
#     4  10  21  36  52  71 101 141 177 211 258 315
#     4  10  20  35  57  82 108 141 182 227 273 321
#     4   9  18  33  56  84 110 140 178 223 275 325
#     4  10  18  29  50  80 106 132 168 207 253 307
#     4   9  16  27  47  76 106 133 164 207 256 305
#
# _framework density 21.725906999999999
#
# number of rings (size 3 to 8) (size 9 to 14) (size 15 to 20)
#    0.000    2.250    1.250    2.250    0.000    5.750 
#    0.000    3.125    0.000    6.750    0.000    0.000 
#    0.000    0.000    0.000    0.000    0.000    0.000 
#
# Total GULP energy -178416.657184 kJ/mol
# GULP energy per Si atom -5575.520537 kJ/mol
# Density = 2.167646 g / cm^3
# Si number density = 21.725907 Si / 1000 Ang^3
#
#
#
# Elastic Constant Matrix: (Units=GPa)
#
#
# Indices 1 2 3 4 5 6 
#
# 1 74.8196 4.9042 5.3269 0.0000 -6.5709 0.0000
# 2 4.9042 33.1478 -1.8621 0.0000 2.0524 0.0000
# 3 5.3269 -1.8621 92.4283 0.0000 -4.8034 0.0000
# 4 0.0000 0.0000 0.0000 -18.1021 0.0000 -3.1626
# 5 -6.5709 2.0524 -4.8034 0.0000 38.5563 0.0000
# 6 0.0000 0.0000 0.0000 -3.1626 0.0000 -3.1752
#
#
#
# Elastic Compliance Matrix: (Units=1/GPa)
#
#
# Indices 1 2 3 4 5 6 
#
# 1 0.013771 -0.002225 -0.000715 0.000000 0.002376 0.000000
# 2 -0.002225 0.030653 0.000645 0.000000 -0.001930 0.000000
# 3 -0.000715 0.000645 0.010936 0.000000 0.001206 0.000000
# 4 0.000000 0.000000 0.000000 -0.066880 0.000000 0.066615
# 5 0.002376 -0.001930 0.001206 0.000000 0.026594 0.000000
# 6 0.000000 0.000000 0.000000 0.066615 0.000000 -0.381291
#
#
# Mechanical properties :
#
#
# Convention : Reuss Voigt Hill
#
# Bulk Modulus (GPa) = 19.69616 24.12597 21.91106
# Shear Modulus (GPa) = -14.50514 16.25759 0.87623
#
# Velocity S-wave (km/s) = -2.58668 2.73848 0.63576
# Velocity P-wave (km/s) = 0.40522 4.59650 3.26283
#
# Compressibility (1/GPa) = 0.05077132
#
# Stress axis : x y z
#
# Youngs Moduli (GPa) = 72.61693 32.62343 91.44035
#
# Poissons Ratio (x) = 0.07258 0.06538
# Poissons Ratio (y) = 0.16155 -0.05902
# Poissons Ratio (z) = 0.05192 -0.02106
#
# Static dielectric constant tensor:
#      x y z
#    x 1.816060 0.000000 0.033260 
#    y 0.000000 1.830970 0.000000 
#    z 0.033260 0.000000 2.011400 
# 
# From -- ./inp_files/71613.got.cif
#   From: 2010.05.17/outbox.cif.g08.bks.cpg/sg10_36_cif.got.tgz:71613.got - 2010.06.03 11:33:40.
