data_PCOD9142217
_publ_section_title
;
Structure prediction by ZEFSAII (Michael W. Deem and Ramdas Pophale) SiO2 
 PCOD9142217
Probable space group: P 2/M
;
_chemical_formula_sum "Si O2"
_cell_formula_units_Z 21
_cell_length_a 6.897316
_cell_length_b 10.710864
_cell_length_c 16.317482
_cell_angle_alpha 90.000000
_cell_angle_beta 52.817365
_cell_angle_gamma 90.000000
_cell_volume 960.416783
_symmetry_space_group_name_H-M "P 2/M"
_symmetry_group_IT_number 10
_symmetry_cell_setting 'monoclinic'
loop_
_space_group_symop_operation_xyz
x,y,z
-x,y,-z
-x,-y,-z
x,-y,z
loop_
_atom_site_type_symbol
_atom_site_label
_atom_site_fract_x
_atom_site_fract_y
_atom_site_fract_z
Si Si1 0.401239 0.149134 0.312672
Si Si2 0.654400 0.853060 0.084243
Si Si3 0.123550 0.148576 0.134120
Si Si4 0.726296 0.636582 0.533336
Si Si5 0.500000 0.000000 0.500000
Si Si6 0.111825 0.788632 0.646101
O O1 0.600841 0.182062 0.191943
O O2 0.398098 0.247645 0.387471
O O3 0.139398 0.169413 0.335489
O O4 0.419908 0.000000 0.332037
O O5 0.391172 0.841902 0.107241
O O6 0.707777 0.000000 0.074995
O O7 0.843918 0.803995 0.967431
O O8 0.950303 0.216671 0.242447
O O9 0.062102 0.000000 0.149540
O O10 0.617902 0.500000 0.575182
O O11 0.778458 0.666697 0.425011
O O12 0.000000 0.633912 0.500000
O O13 0.698761 0.105646 0.423293
#
# Coordination Sequence:
#
# PCOD9142217 Si02
#       6
#     4   4   4   4   1   4
#     4   9  15  26  46  70  91 112 141 180 223 267
#     4   7  11  18  35  62  88 110 133 167 222 270
#     4   8  11  20  35  58  89 114 135 170 216 262
#     4   9  19  31  45  64  91 120 144 179 225 266
#     4  12  20  28  40  70  90 120 154 184 204 244
#     4  10  18  27  42  63  95 119 149 176 215 256
#
# _framework density 21.865506
#
# number of rings (size 3 to 8) (size 9 to 14) (size 15 to 20)
#    0.000    3.238    1.905    2.286    1.333    1.143 
#    0.000    0.476    0.000    1.143    0.000   10.667 
#    0.000    1.524    0.000    0.190    0.000    0.000 
#
# Total GULP energy -116940.072146 kJ/mol
# GULP energy per Si atom -5568.574864 kJ/mol
# Density = 2.181574 g / cm^3
# Si number density = 21.865506 Si / 1000 Ang^3
#
#
#
# Elastic Constant Matrix: (Units=GPa)
#
#
# Indices 1 2 3 4 5 6 
#
# 1 84.8819 24.1658 48.0373 0.0000 11.0002 0.0000
# 2 24.1658 98.3165 74.3779 0.0000 20.6592 0.0000
# 3 48.0373 74.3779 230.6320 0.0000 17.7977 0.0000
# 4 0.0000 0.0000 0.0000 8.0248 0.0000 5.8453
# 5 11.0002 20.6592 17.7977 0.0000 46.0474 0.0000
# 6 0.0000 0.0000 0.0000 5.8453 0.0000 9.1697
#
#
#
# Elastic Compliance Matrix: (Units=1/GPa)
#
#
# Indices 1 2 3 4 5 6 
#
# 1 0.013675 -0.001230 -0.002311 0.000000 -0.001822 0.000000
# 2 -0.001230 0.014531 -0.004071 0.000000 -0.004652 0.000000
# 3 -0.002311 -0.004071 0.006129 0.000000 0.000009 0.000000
# 4 0.000000 0.000000 0.000000 0.232627 0.000000 -0.148289
# 5 -0.001822 -0.004652 0.000009 0.000000 0.024235 0.000000
# 6 0.000000 0.000000 0.000000 -0.148289 0.000000 0.203582
#
#
# Mechanical properties :
#
#
# Convention : Reuss Voigt Hill
#
# Bulk Modulus (GPa) = 52.32534 78.55470 65.44002
# Shear Modulus (GPa) = 9.68290 30.46503 20.07396
#
# Velocity S-wave (km/s) = 2.10666 3.73673 3.03325
# Velocity P-wave (km/s) = 5.46807 7.39066 6.50083
#
# Compressibility (1/GPa) = 0.01911120
#
# Stress axis : x y z
#
# Youngs Moduli (GPa) = 73.12457 68.81927 163.14828
#
# Poissons Ratio (x) = 0.08466 0.37704
# Poissons Ratio (y) = 0.08996 0.66416
# Poissons Ratio (z) = 0.16900 0.28016
#
# Static dielectric constant tensor:
#      x y z
#    x 1.954710 0.000000 0.025310 
#    y 0.000000 1.712310 0.000000 
#    z 0.025310 0.000000 1.854140 
# 
# From -- ./inp_files/36870.got.cif
#   From: 2010.05.17/outbox.cif.g08.bks.cpg/sg10_19_cif.got.tgz:36870.got - 2010.06.03 11:33:40.
