data_PCOD9142625
_publ_section_title
;
Structure prediction by ZEFSAII (Michael W. Deem and Ramdas Pophale) SiO2 
 PCOD9142625
Probable space group: P 2/M
;
_chemical_formula_sum "Si O2"
_cell_formula_units_Z 32
_cell_length_a 8.152733
_cell_length_b 18.444577
_cell_length_c 21.289203
_cell_angle_alpha 90.000000
_cell_angle_beta 143.743633
_cell_angle_gamma 90.000000
_cell_volume 1893.268023
_symmetry_space_group_name_H-M "P 2/M"
_symmetry_group_IT_number 10
_symmetry_cell_setting 'monoclinic'
loop_
_space_group_symop_operation_xyz
x,y,z
-x,y,-z
-x,-y,-z
x,-y,z
loop_
_atom_site_type_symbol
_atom_site_label
_atom_site_fract_x
_atom_site_fract_y
_atom_site_fract_z
Si Si1 0.102847 0.686710 0.151826
Si Si2 0.792260 0.180420 0.058768
Si Si3 0.741761 0.580334 0.968422
Si Si4 0.288486 0.413604 0.313207
Si Si5 0.811816 0.651277 0.253655
Si Si6 0.432415 0.776806 0.147438
Si Si7 0.800076 0.919015 0.877106
Si Si8 0.093954 0.416276 0.457301
O O1 0.295941 0.633533 0.251733
O O2 0.265819 0.723216 0.143565
O O3 0.965453 0.755101 0.144670
O O4 0.843916 0.637225 0.051153
O O5 0.721188 0.210694 0.966521
O O6 0.500000 0.164154 0.000000
O O7 0.995105 0.112365 0.112913
O O8 0.701286 0.500000 0.982151
O O9 0.466585 0.606610 0.848880
O O10 0.000000 0.578001 0.000000
O O11 0.247485 0.500000 0.288787
O O12 0.575214 0.406088 0.439569
O O13 0.040275 0.378144 0.275875
O O14 0.717566 0.735112 0.221993
O O15 0.931204 0.633477 0.358929
O O16 0.423385 0.856015 0.177028
O O17 0.695147 0.000000 0.832477
O O18 0.000000 0.922664 0.000000
O O19 0.035861 0.500000 0.421358
O O20 0.000000 0.406577 0.500000
#
# Coordination Sequence:
#
# PCOD9142625 Si02
#       8
#     4   4   4   4   4   4   4   4
#     4  11  19  34  48  69 101 137 180 213 253 313
#     4  10  18  29  47  73 104 136 169 212 263 306
#     4  11  21  30  47  70  96 135 176 217 254 307
#     4  11  24  37  52  74 103 136 177 232 277 310
#     4  12  21  36  52  73 102 133 172 221 273 313
#     4  10  19  33  52  72 101 137 174 207 256 306
#     4   8  16  30  49  71 101 138 173 203 242 308
#     4  10  22  39  56  71  92 131 181 228 273 316
#
# _framework density 16.901990999999999
#
# number of rings (size 3 to 8) (size 9 to 14) (size 15 to 20)
#    0.000    1.625    2.500    4.500    0.000    1.250 
#    0.000    1.250    0.000    0.000    0.000    0.000 
#    0.000   14.500    0.000    0.000    0.000    3.250 
#
# Total GULP energy -178425.956807 kJ/mol
# GULP energy per Si atom -5575.811150 kJ/mol
# Density = 1.686352 g / cm^3
# Si number density = 16.901991 Si / 1000 Ang^3
#
#
#
# Elastic Constant Matrix: (Units=GPa)
#
#
# Indices 1 2 3 4 5 6 
#
# 1 50.7092 22.2626 9.7620 0.0000 11.3092 0.0000
# 2 22.2626 131.3767 26.3318 0.0000 0.1319 0.0000
# 3 9.7620 26.3318 58.3476 0.0000 -1.2123 0.0000
# 4 0.0000 0.0000 0.0000 15.4182 0.0000 4.3031
# 5 11.3092 0.1319 -1.2123 0.0000 19.9502 0.0000
# 6 0.0000 0.0000 0.0000 4.3031 0.0000 11.7847
#
#
#
# Elastic Compliance Matrix: (Units=1/GPa)
#
#
# Indices 1 2 3 4 5 6 
#
# 1 0.025080 -0.003666 -0.002840 0.000000 -0.014366 0.000000
# 2 -0.003666 0.008906 -0.003368 0.000000 0.001815 0.000000
# 3 -0.002840 -0.003368 0.019192 0.000000 0.002798 0.000000
# 4 0.000000 0.000000 0.000000 0.072218 0.000000 -0.026370
# 5 -0.014366 0.001815 0.002798 0.000000 0.058426 0.000000
# 6 0.000000 0.000000 0.000000 -0.026370 0.000000 0.094484
#
#
# Mechanical properties :
#
#
# Convention : Reuss Voigt Hill
#
# Bulk Modulus (GPa) = 29.91367 39.68293 34.79830
# Shear Modulus (GPa) = 16.17078 21.56911 18.86995
#
# Velocity S-wave (km/s) = 3.09647 3.57617 3.34493
# Velocity P-wave (km/s) = 5.52458 6.37034 5.96247
#
# Compressibility (1/GPa) = 0.03342953
#
# Stress axis : x y z
#
# Youngs Moduli (GPa) = 39.87163 112.28057 52.10508
#
# Poissons Ratio (x) = 0.41167 0.14798
# Poissons Ratio (y) = 0.14619 0.17550
# Poissons Ratio (z) = 0.11324 0.37818
#
# Static dielectric constant tensor:
#      x y z
#    x 1.649450 0.000000 -0.002630 
#    y 0.000000 1.599720 0.000000 
#    z -0.002630 0.000000 1.556830 
# 
# From -- ./inp_files/25695.got.cif
#   From: 2010.05.17/outbox.cif.g08.bks.cpg/sg10_13_cif.got.tgz:25695.got - 2010.06.03 11:33:40.
