data_PCOD9142062
_publ_section_title
;
Structure prediction by ZEFSAII (Michael W. Deem and Ramdas Pophale) SiO2 
 PCOD9142062
Probable space group: P 2/M
;
_chemical_formula_sum "Si O2"
_cell_formula_units_Z 32
_cell_length_a 17.212354
_cell_length_b 16.263710
_cell_length_c 11.463419
_cell_angle_alpha 90.000000
_cell_angle_beta 31.859850
_cell_angle_gamma 90.000000
_cell_volume 1693.866042
_symmetry_space_group_name_H-M "P 2/M"
_symmetry_group_IT_number 10
_symmetry_cell_setting 'monoclinic'
loop_
_space_group_symop_operation_xyz
x,y,z
-x,y,-z
-x,-y,-z
x,-y,z
loop_
_atom_site_type_symbol
_atom_site_label
_atom_site_fract_x
_atom_site_fract_y
_atom_site_fract_z
Si Si1 0.537177 0.852167 0.824009
Si Si2 0.435905 0.596580 0.271190
Si Si3 0.781365 0.281176 0.566362
Si Si4 0.891432 0.260851 0.913342
Si Si5 0.637258 0.686352 0.406476
Si Si6 0.412741 0.878153 0.491363
Si Si7 0.292033 0.287440 0.087443
Si Si8 0.902436 0.908248 0.017026
O O1 0.691000 0.801142 0.643599
O O2 0.541143 0.903316 0.698267
O O3 0.500000 0.888923 0.000000
O O4 0.408250 0.786133 0.962561
O O5 0.435584 0.500000 0.253427
O O6 0.333967 0.645708 0.310655
O O7 0.363585 0.623674 0.486333
O O8 0.600806 0.633642 0.058583
O O9 0.807966 0.284484 0.670485
O O10 0.938873 0.288608 0.303757
O O11 0.803972 0.277134 0.905447
O O12 0.895615 0.162402 0.929597
O O13 0.789281 0.302207 0.143016
O O14 0.500000 0.662710 0.500000
O O15 0.597527 0.778402 0.501642
O O16 0.500000 0.896441 0.500000
O O17 0.255356 0.912694 0.722398
O O18 0.949111 0.000000 0.919629
O O19 0.000000 0.877933 0.000000
#
# Coordination Sequence:
#
# PCOD9142062 Si02
#       8
#     4   4   4   4   4   4   4   4
#     4   9  16  30  52  79 109 144 194 238 277 341
#     4  11  22  38  59  84 116 152 191 240 296 348
#     4  10  21  34  56  84 112 148 196 239 285 336
#     4  11  21  36  61  84 116 145 195 246 282 335
#     4  10  18  34  56  81 109 151 194 232 288 350
#     4  10  17  31  56  80 111 147 191 243 285 339
#     4  10  19  37  57  82 109 151 199 233 279 349
#     4  10  22  35  54  86 121 153 183 231 296 349
#
# _framework density 18.891693
#
# number of rings (size 3 to 8) (size 9 to 14) (size 15 to 20)
#    0.000    1.875    3.750    3.750    1.750    1.500 
#    0.000    1.875    0.000    3.375    0.000    7.000 
#    0.000    2.500    0.000    0.000    0.000    0.000 
#
# Total GULP energy -178326.669017 kJ/mol
# GULP energy per Si atom -5572.708407 kJ/mol
# Density = 1.884870 g / cm^3
# Si number density = 18.891693 Si / 1000 Ang^3
#
#
#
# Elastic Constant Matrix: (Units=GPa)
#
#
# Indices 1 2 3 4 5 6 
#
# 1 104.8119 14.0413 37.3717 0.0000 12.8549 0.0000
# 2 14.0413 60.2570 3.7907 0.0000 5.8380 0.0000
# 3 37.3717 3.7907 90.1264 0.0000 -4.5470 0.0000
# 4 0.0000 0.0000 0.0000 357.2758 0.0000 55.8440
# 5 12.8549 5.8380 -4.5470 0.0000 31.0322 0.0000
# 6 0.0000 0.0000 0.0000 55.8440 0.0000 24.6250
#
#
#
# Elastic Compliance Matrix: (Units=1/GPa)
#
#
# Indices 1 2 3 4 5 6 
#
# 1 0.012391 -0.002016 -0.005333 0.000000 -0.005535 0.000000
# 2 -0.002016 0.017301 -0.000014 0.000000 -0.002422 0.000000
# 3 -0.005333 -0.000014 0.013519 0.000000 0.004192 0.000000
# 4 0.000000 0.000000 0.000000 0.004336 0.000000 -0.009833
# 5 -0.005535 -0.002422 0.004192 0.000000 0.035587 0.000000
# 6 0.000000 0.000000 0.000000 -0.009833 0.000000 0.062908
#
#
# Mechanical properties :
#
#
# Convention : Reuss Voigt Hill
#
# Bulk Modulus (GPa) = 35.10472 40.62253 37.86363
# Shear Modulus (GPa) = 29.36654 95.91937 62.64296
#
# Velocity S-wave (km/s) = 3.94695 7.13327 5.76463
# Velocity P-wave (km/s) = 6.27644 9.45485 8.02458
#
# Compressibility (1/GPa) = 0.02848619
#
# Stress axis : x y z
#
# Youngs Moduli (GPa) = 80.70253 57.80077 73.97088
#
# Poissons Ratio (x) = 0.11651 0.39446
# Poissons Ratio (y) = 0.16267 0.00104
# Poissons Ratio (z) = 0.43035 0.00081
#
# Static dielectric constant tensor:
#      x y z
#    x 1.702640 0.000000 0.057270 
#    y 0.000000 1.651880 0.000000 
#    z 0.057270 0.000000 1.673860 
# 
# From -- ./inp_files/54028.got.cif
#   From: 2010.05.17/outbox.cif.g08.bks.cpg/sg10_28_cif.got.tgz:54028.got - 2010.06.03 11:33:40.
