data_PCOD9142385
_publ_section_title
;
Structure prediction by ZEFSAII (Michael W. Deem and Ramdas Pophale) SiO2 
 PCOD9142385
Probable space group: P 2/M
;
_chemical_formula_sum "Si O2"
_cell_formula_units_Z 32
_cell_length_a 12.202294
_cell_length_b 7.559362
_cell_length_c 17.248277
_cell_angle_alpha 90.000000
_cell_angle_beta 80.730433
_cell_angle_gamma 90.000000
_cell_volume 1570.231622
_symmetry_space_group_name_H-M "P 2/M"
_symmetry_group_IT_number 10
_symmetry_cell_setting 'monoclinic'
loop_
_space_group_symop_operation_xyz
x,y,z
-x,y,-z
-x,-y,-z
x,-y,z
loop_
_atom_site_type_symbol
_atom_site_label
_atom_site_fract_x
_atom_site_fract_y
_atom_site_fract_z
Si Si1 0.543218 0.297825 0.336026
Si Si2 0.257496 0.709497 0.594870
Si Si3 0.551851 0.796453 0.071172
Si Si4 0.911728 0.793909 0.249448
Si Si5 0.142945 0.213586 0.283046
Si Si6 0.712018 0.217387 0.177779
Si Si7 0.610763 0.710028 0.773070
Si Si8 0.122794 0.213176 0.460600
O O1 0.515877 0.500000 0.361184
O O2 0.619684 0.220237 0.396112
O O3 0.630483 0.288850 0.254182
O O4 0.434413 0.221081 0.305719
O O5 0.260800 0.500000 0.609518
O O6 0.164170 0.784207 0.664162
O O7 0.214992 0.737865 0.513161
O O8 0.661291 0.723789 0.101689
O O9 0.459379 0.792487 0.149243
O O10 0.579185 0.000000 0.048374
O O11 0.500000 0.712942 0.000000
O O12 0.834228 0.723272 0.189343
O O13 0.032139 0.717060 0.253946
O O14 0.928671 0.000000 0.229604
O O15 0.259576 0.259341 0.231968
O O16 0.145509 0.277738 0.371528
O O17 0.134167 0.000000 0.286753
O O18 0.706663 0.000000 0.181917
O O19 0.588561 0.500000 0.776849
O O20 0.000000 0.275237 0.500000
O O21 0.118852 0.000000 0.459639
#
# Coordination Sequence:
#
# PCOD9142385 Si02
#       8
#     4   4   4   4   4   4   4   4
#     4   8  16  30  45  64  92 124 153 192 241 281
#     4  10  18  28  46  70  93 118 157 204 245 283
#     4   9  17  31  53  80 105 125 150 190 236 281
#     4   9  16  29  47  67  93 126 161 197 238 280
#     4  10  20  33  49  67  93 128 162 199 242 284
#     4   8  14  25  46  73  95 119 155 193 229 276
#     4  10  20  34  51  71  98 128 161 195 232 285
#     4  10  19  33  48  65  93 127 162 201 247 287
#
# _framework density 20.379158
#
# number of rings (size 3 to 8) (size 9 to 14) (size 15 to 20)
#    0.000    2.750    1.250    0.750    0.000    2.500 
#    0.000    0.625    0.000    4.500    0.000    5.250 
#    0.000    0.000    0.000    0.000    0.000    0.000 
#
# Total GULP energy -178276.830165 kJ/mol
# GULP energy per Si atom -5571.150943 kJ/mol
# Density = 2.033277 g / cm^3
# Si number density = 20.379158 Si / 1000 Ang^3
#
#
#
# Elastic Constant Matrix: (Units=GPa)
#
#
# Indices 1 2 3 4 5 6 
#
# 1 138.1626 -2.1581 51.1549 0.0000 45.0260 0.0000
# 2 -2.1581 55.0340 -1.1052 0.0000 4.7627 0.0000
# 3 51.1549 -1.1052 77.4834 0.0000 45.5444 0.0000
# 4 0.0000 0.0000 0.0000 6.8615 0.0000 6.3046
# 5 45.0260 4.7627 45.5444 0.0000 42.4586 0.0000
# 6 0.0000 0.0000 0.0000 6.3046 0.0000 -46.7123
#
#
#
# Elastic Compliance Matrix: (Units=1/GPa)
#
#
# Indices 1 2 3 4 5 6 
#
# 1 0.011197 0.001388 -0.000816 0.000000 -0.011154 0.000000
# 2 0.001388 0.018986 0.003983 0.000000 -0.007874 0.000000
# 3 -0.000816 0.003983 0.035876 0.000000 -0.038064 0.000000
# 4 0.000000 0.000000 0.000000 0.129661 0.000000 0.017500
# 5 -0.011154 -0.007874 -0.038064 0.000000 0.077095 0.000000
# 6 0.000000 0.000000 0.000000 0.017500 0.000000 -0.019046
#
#
# Mechanical properties :
#
#
# Convention : Reuss Voigt Hill
#
# Bulk Modulus (GPa) = 13.30351 40.71813 27.01082
# Shear Modulus (GPa) = 18.53806 15.37412 16.95609
#
# Velocity S-wave (km/s) = 3.01933 2.74962 2.88762
# Velocity P-wave (km/s) = 4.32403 5.48673 4.93971
#
# Compressibility (1/GPa) = 0.07516811
#
# Stress axis : x y z
#
# Youngs Moduli (GPa) = 89.31209 52.66933 27.87409
#
# Poissons Ratio (x) = -0.07310 0.02274
# Poissons Ratio (y) = -0.12396 -0.11101
# Poissons Ratio (z) = 0.07287 -0.20976
#
# Static dielectric constant tensor:
#      x y z
#    x 1.774130 0.000000 0.069700 
#    y 0.000000 1.868050 0.000000 
#    z 0.069700 0.000000 1.714550 
# 
# From -- ./inp_files/52747.got.cif
#   From: 2010.05.17/outbox.cif.g08.bks.cpg/sg10_27_cif.got.tgz:52747.got - 2010.06.03 11:33:40.
