data_PCOD9142695
_publ_section_title
;
Structure prediction by ZEFSAII (Michael W. Deem and Ramdas Pophale) SiO2 
 PCOD9142695
Probable space group: P 2/M
;
_chemical_formula_sum "Si O2"
_cell_formula_units_Z 28
_cell_length_a 9.335446
_cell_length_b 8.750949
_cell_length_c 29.913768
_cell_angle_alpha 90.000000
_cell_angle_beta 39.593265
_cell_angle_gamma 90.000000
_cell_volume 1557.499919
_symmetry_space_group_name_H-M "P 2/M"
_symmetry_group_IT_number 10
_symmetry_cell_setting 'monoclinic'
loop_
_space_group_symop_operation_xyz
x,y,z
-x,y,-z
-x,-y,-z
x,-y,z
loop_
_atom_site_type_symbol
_atom_site_label
_atom_site_fract_x
_atom_site_fract_y
_atom_site_fract_z
Si Si1 0.328598 0.817663 0.638162
Si Si2 0.981107 0.816598 0.373566
Si Si3 0.642458 0.184773 0.780557
Si Si4 0.251325 0.814524 0.932459
Si Si5 0.180281 0.317542 0.494425
Si Si6 0.955330 0.681559 0.784073
Si Si7 0.405237 0.184124 0.070894
O O1 0.580202 0.758729 0.572805
O O2 0.189925 0.779071 0.626028
O O3 0.197682 0.745759 0.711754
O O4 0.323041 0.000000 0.643726
O O5 0.231609 0.775365 0.295630
O O6 0.909003 0.734625 0.435861
O O7 0.971305 0.000000 0.382553
O O8 0.388209 0.229336 0.854564
O O9 0.795487 0.256644 0.782608
O O10 0.658812 0.000000 0.780754
O O11 0.410022 0.773031 0.936067
O O12 0.238632 0.000000 0.934996
O O13 0.000000 0.755438 0.000000
O O14 0.206821 0.500000 0.487315
O O15 0.000000 0.273379 0.500000
O O16 0.958810 0.500000 0.783726
O O17 0.832932 0.744706 0.857681
O O18 0.382105 0.000000 0.077439
O O19 0.500000 0.229411 0.000000
#
# Coordination Sequence:
#
# PCOD9142695 Si02
#       7
#     4   4   4   4   4   4   4
#     4  10  20  36  58  80 100 126 168 215 254 298
#     4   9  18  33  54  78 100 127 169 216 255 296
#     4   8  15  29  48  71  99 127 162 208 251 293
#     4   8  13  24  45  70  94 122 157 199 243 283
#     4  11  24  38  51  73 107 140 167 200 249 307
#     4  10  18  29  49  75 101 128 162 204 252 300
#     4   9  17  30  47  68  97 131 167 205 244 290
#
# _framework density 17.977530999999999
#
# number of rings (size 3 to 8) (size 9 to 14) (size 15 to 20)
#    0.000    2.714    0.000    4.286    0.000    6.000 
#    0.000    1.429    0.000   10.286    0.000    0.000 
#    0.000    0.000    0.000    0.000    0.000    0.000 
#
# Total GULP energy -156000.896775 kJ/mol
# GULP energy per Si atom -5571.460599 kJ/mol
# Density = 1.793661 g / cm^3
# Si number density = 17.977531 Si / 1000 Ang^3
#
#
#
# Elastic Constant Matrix: (Units=GPa)
#
#
# Indices 1 2 3 4 5 6 
#
# 1 43.2396 19.1117 63.0831 0.0000 -2.7299 0.0000
# 2 19.1117 24.5092 52.6308 0.0000 2.6880 0.0000
# 3 63.0831 52.6308 223.2698 0.0000 -3.1912 0.0000
# 4 0.0000 0.0000 0.0000 -43.1839 0.0000 -2.6290
# 5 -2.7299 2.6880 -3.1912 0.0000 24.6077 0.0000
# 6 0.0000 0.0000 0.0000 -2.6290 0.0000 16.2242
#
#
#
# Elastic Compliance Matrix: (Units=1/GPa)
#
#
# Indices 1 2 3 4 5 6 
#
# 1 0.042482 -0.016441 -0.008049 0.000000 0.005465 0.000000
# 2 -0.016441 0.092415 -0.017342 0.000000 -0.014168 0.000000
# 3 -0.008049 -0.017342 0.010876 0.000000 0.002412 0.000000
# 4 0.000000 0.000000 0.000000 -0.022931 0.000000 -0.003716
# 5 0.005465 -0.014168 0.002412 0.000000 0.043104 0.000000
# 6 0.000000 0.000000 0.000000 -0.003716 0.000000 0.061034
#
#
# Mechanical properties :
#
#
# Convention : Reuss Voigt Hill
#
# Bulk Modulus (GPa) = 16.10084 62.29664 39.19874
# Shear Modulus (GPa) = 15.08988 9.94248 12.51618
#
# Velocity S-wave (km/s) = 2.90034 2.35425 2.64145
# Velocity P-wave (km/s) = 4.49349 6.48982 5.58163
#
# Compressibility (1/GPa) = 0.06210855
#
# Stress axis : x y z
#
# Youngs Moduli (GPa) = 23.53938 10.82073 91.94869
#
# Poissons Ratio (x) = 0.17790 0.74012
# Poissons Ratio (y) = 0.38701 1.59458
# Poissons Ratio (z) = 0.18948 0.18765
#
# Static dielectric constant tensor:
#      x y z
#    x 1.606830 0.000000 -0.006470 
#    y 0.000000 1.595930 0.000000 
#    z -0.006470 0.000000 1.659820 
# 
# From -- ./inp_files/38045.got.cif
#   From: 2010.05.17/outbox.cif.g08.bks.cpg/sg10_20_cif.got.tgz:38045.got - 2010.06.03 11:33:40.
