data_PCOD9142737
_publ_section_title
;
Structure prediction by ZEFSAII (Michael W. Deem and Ramdas Pophale) SiO2 
 PCOD9142737
Probable space group: P 2/M
;
_chemical_formula_sum "Si O2"
_cell_formula_units_Z 24
_cell_length_a 8.298313
_cell_length_b 13.810268
_cell_length_c 15.964867
_cell_angle_alpha 90.000000
_cell_angle_beta 144.410645
_cell_angle_gamma 90.000000
_cell_volume 1064.778404
_symmetry_space_group_name_H-M "P 2/M"
_symmetry_group_IT_number 10
_symmetry_cell_setting 'monoclinic'
loop_
_space_group_symop_operation_xyz
x,y,z
-x,y,-z
-x,-y,-z
x,-y,z
loop_
_atom_site_type_symbol
_atom_site_label
_atom_site_fract_x
_atom_site_fract_y
_atom_site_fract_z
Si Si1 0.475140 0.105647 0.589836
Si Si2 0.366488 0.115701 0.807750
Si Si3 0.251182 0.701035 0.669352
Si Si4 0.062821 0.609443 0.318623
Si Si5 0.893912 0.112980 0.126153
Si Si6 0.479076 0.678932 0.369043
O O1 0.500000 0.097098 0.500000
O O2 0.374484 0.215145 0.557950
O O3 0.784571 0.115924 0.758626
O O4 0.356738 0.000000 0.567121
O O5 0.277597 0.183796 0.694951
O O6 0.170705 0.138885 0.804960
O O7 0.356507 0.000000 0.786114
O O8 0.671226 0.151650 0.966396
O O9 0.512761 0.662697 0.726570
O O10 0.000000 0.677174 0.500000
O O11 0.186194 0.653831 0.731737
O O12 0.003990 0.500000 0.267234
O O13 0.184810 0.670933 0.291841
O O14 0.318330 0.609936 0.492999
O O15 0.817234 0.000000 0.093976
#
# Coordination Sequence:
#
# PCOD9142737 Si02
#       6
#     4   4   4   4   4   4
#     4  10  18  29  50  79 115 148 176 218 266 317
#     4   9  17  32  51  75 113 153 190 226 263 318
#     4  10  22  33  51  83 114 140 182 233 273 330
#     4  10  20  36  55  76 109 144 177 230 289 333
#     4   8  16  30  51  75 104 154 200 224 257 312
#     4  10  19  33  51  80 110 140 182 218 270 331
#
# _framework density 22.539901
#
# number of rings (size 3 to 8) (size 9 to 14) (size 15 to 20)
#    0.000    2.500    1.667    3.000    2.333    4.667 
#    0.000    0.833    0.000    3.000    0.000   10.500 
#    0.000   34.667    0.000    0.000    0.000    0.000 
#
# Total GULP energy -133610.221423 kJ/mol
# GULP energy per Si atom -5567.092559 kJ/mol
# Density = 2.248860 g / cm^3
# Si number density = 22.539901 Si / 1000 Ang^3
#
#
#
# Elastic Constant Matrix: (Units=GPa)
#
#
# Indices 1 2 3 4 5 6 
#
# 1 138.1696 39.2706 11.2364 0.0000 -22.3529 0.0000
# 2 39.2706 108.7584 -2.5173 0.0000 -12.5603 0.0000
# 3 11.2364 -2.5173 29.3227 0.0000 1.1911 0.0000
# 4 0.0000 0.0000 0.0000 78.4365 0.0000 13.1028
# 5 -22.3529 -12.5603 1.1911 0.0000 22.2922 0.0000
# 6 0.0000 0.0000 0.0000 13.1028 0.0000 11.4881
#
#
#
# Elastic Compliance Matrix: (Units=1/GPa)
#
#
# Indices 1 2 3 4 5 6 
#
# 1 0.009704 -0.002624 -0.004288 0.000000 0.008481 0.000000
# 2 -0.002624 0.010555 0.001781 0.000000 0.003221 0.000000
# 3 -0.004288 0.001781 0.036112 0.000000 -0.005226 0.000000
# 4 0.000000 0.000000 0.000000 0.015750 0.000000 -0.017964
# 5 0.008481 0.003221 -0.005226 0.000000 0.055457 0.000000
# 6 0.000000 0.000000 0.000000 -0.017964 0.000000 0.107535
#
#
# Mechanical properties :
#
#
# Convention : Reuss Voigt Hill
#
# Bulk Modulus (GPa) = 21.68806 41.35890 31.52348
# Shear Modulus (GPa) = 19.17577 37.66076 28.41827
#
# Velocity S-wave (km/s) = 2.91992 4.09204 3.55462
# Velocity P-wave (km/s) = 4.58376 6.38086 5.55546
#
# Compressibility (1/GPa) = 0.04610832
#
# Stress axis : x y z
#
# Youngs Moduli (GPa) = 103.04996 94.73921 27.69188
#
# Poissons Ratio (x) = 0.24857 0.11875
# Poissons Ratio (y) = 0.27037 -0.04931
# Poissons Ratio (z) = 0.44191 -0.16870
#
# Static dielectric constant tensor:
#      x y z
#    x 1.987080 0.000000 0.007600 
#    y 0.000000 1.865120 0.000000 
#    z 0.007600 0.000000 1.834920 
# 
# From -- ./inp_files/61956.got.cif
#   From: 2010.05.17/outbox.cif.g08.bks.cpg/sg10_31_cif.got.tgz:61956.got - 2010.06.03 11:33:40.
