data_PCOD9142013
_publ_section_title
;
Structure prediction by ZEFSAII (Michael W. Deem and Ramdas Pophale) SiO2 
 PCOD9142013
Probable space group: P 2/M
;
_chemical_formula_sum "Si O2"
_cell_formula_units_Z 32
_cell_length_a 18.203006
_cell_length_b 14.205078
_cell_length_c 12.723082
_cell_angle_alpha 90.000000
_cell_angle_beta 151.699955
_cell_angle_gamma 90.000000
_cell_volume 1559.692016
_symmetry_space_group_name_H-M "P 2/M"
_symmetry_group_IT_number 10
_symmetry_cell_setting 'monoclinic'
loop_
_space_group_symop_operation_xyz
x,y,z
-x,y,-z
-x,-y,-z
x,-y,z
loop_
_atom_site_type_symbol
_atom_site_label
_atom_site_fract_x
_atom_site_fract_y
_atom_site_fract_z
Si Si1 0.361386 0.814915 0.393802
Si Si2 0.695021 0.392500 0.694367
Si Si3 0.033854 0.215829 0.424048
Si Si4 0.373833 0.744610 0.763568
Si Si5 0.200165 0.111350 0.002463
Si Si6 0.207950 0.396380 0.404998
Si Si7 0.497809 0.110725 0.232797
Si Si8 0.897603 0.394875 0.150441
O O1 0.500000 0.859687 0.500000
O O2 0.394761 0.703569 0.446121
O O3 0.218764 0.834024 0.136640
O O4 0.367143 0.863998 0.512911
O O5 0.632669 0.500000 0.606668
O O6 0.815669 0.387306 0.749450
O O7 0.757783 0.382226 0.891699
O O8 0.214566 0.231300 0.624705
O O9 0.000000 0.186455 0.500000
O O10 0.933960 0.311586 0.276533
O O11 0.960392 0.140470 0.252347
O O12 0.319916 0.678634 0.599627
O O13 0.462413 0.832293 0.821653
O O14 0.500000 0.698963 0.000000
O O15 0.338032 0.138393 0.092953
O O16 0.212591 0.000000 0.036285
O O17 0.276057 0.500000 0.509142
O O18 0.046404 0.392506 0.261477
O O19 0.490675 0.000000 0.204475
O O20 0.885481 0.500000 0.181984
#
# Coordination Sequence:
#
# PCOD9142013 Si02
#       8
#     4   4   4   4   4   4   4   4
#     4  10  19  34  57  85 119 152 185 226 279 346
#     4  10  17  30  55  86 118 147 181 226 281 340
#     4  11  23  39  60  84 114 150 194 243 289 336
#     4  11  23  39  60  84 114 150 194 243 289 336
#     4  10  21  39  62  86 114 151 192 234 285 343
#     4   9  18  33  55  83 115 151 188 227 278 341
#     4  10  21  39  62  86 114 151 192 234 285 343
#     4   9  18  33  55  83 115 151 188 227 278 341
#
# _framework density 20.516870999999998
#
# number of rings (size 3 to 8) (size 9 to 14) (size 15 to 20)
#    0.000    2.000    2.500    1.500    0.000    4.750 
#    0.000    0.625    0.000    3.750    0.000    0.000 
#    0.000    0.000    0.000    0.000    0.000    0.000 
#
# Total GULP energy -178244.611584 kJ/mol
# GULP energy per Si atom -5570.144112 kJ/mol
# Density = 2.047017 g / cm^3
# Si number density = 20.516871 Si / 1000 Ang^3
#
#
#
# Elastic Constant Matrix: (Units=GPa)
#
#
# Indices 1 2 3 4 5 6 
#
# 1 30.4302 -8.3365 20.3520 0.0000 0.5854 0.0000
# 2 -8.3365 60.8813 -1.9054 0.0000 10.8762 0.0000
# 3 20.3520 -1.9054 64.7890 0.0000 -1.5243 0.0000
# 4 0.0000 0.0000 0.0000 20.1135 0.0000 3.0539
# 5 0.5854 10.8762 -1.5243 0.0000 18.9901 0.0000
# 6 0.0000 0.0000 0.0000 3.0539 0.0000 26.5219
#
#
#
# Elastic Compliance Matrix: (Units=1/GPa)
#
#
# Indices 1 2 3 4 5 6 
#
# 1 0.044048 0.006729 -0.013788 0.000000 -0.006318 0.000000
# 2 0.006729 0.019331 -0.001814 0.000000 -0.011424 0.000000
# 3 -0.013788 -0.001814 0.019784 0.000000 0.003052 0.000000
# 4 0.000000 0.000000 0.000000 0.050602 0.000000 -0.005827
# 5 -0.006318 -0.011424 0.003052 0.000000 0.059642 0.000000
# 6 0.000000 0.000000 0.000000 -0.005827 0.000000 0.038376
#
#
# Mechanical properties :
#
#
# Convention : Reuss Voigt Hill
#
# Bulk Modulus (GPa) = 15.28635 19.59119 17.43877
# Shear Modulus (GPa) = 18.42743 22.85780 20.64262
#
# Velocity S-wave (km/s) = 3.00018 3.34143 3.17539
# Velocity P-wave (km/s) = 4.41229 4.94534 4.68640
#
# Compressibility (1/GPa) = 0.06541783
#
# Stress axis : x y z
#
# Youngs Moduli (GPa) = 22.70242 51.73059 50.54533
#
# Poissons Ratio (x) = -0.34808 0.69689
# Poissons Ratio (y) = -0.15276 0.09169
# Poissons Ratio (z) = 0.31301 0.09384
#
# Static dielectric constant tensor:
#      x y z
#    x 1.725610 0.000000 0.010860 
#    y 0.000000 1.751090 0.000000 
#    z 0.010860 0.000000 1.775760 
# 
# From -- ./inp_files/54059.got.cif
#   From: 2010.05.17/outbox.cif.g08.bks.cpg/sg10_28_cif.got.tgz:54059.got - 2010.06.03 11:33:40.
