data_PCOD9142044
_publ_section_title
;
Structure prediction by ZEFSAII (Michael W. Deem and Ramdas Pophale) SiO2 
 PCOD9142044
Probable space group: P 2/M
;
_chemical_formula_sum "Si O2"
_cell_formula_units_Z 32
_cell_length_a 14.835204
_cell_length_b 7.467723
_cell_length_c 14.563969
_cell_angle_alpha 90.000000
_cell_angle_beta 119.387552
_cell_angle_gamma 90.000000
_cell_volume 1405.851255
_symmetry_space_group_name_H-M "P 2/M"
_symmetry_group_IT_number 10
_symmetry_cell_setting 'monoclinic'
loop_
_space_group_symop_operation_xyz
x,y,z
-x,y,-z
-x,-y,-z
x,-y,z
loop_
_atom_site_type_symbol
_atom_site_label
_atom_site_fract_x
_atom_site_fract_y
_atom_site_fract_z
Si Si1 0.747604 0.784500 0.702910
Si Si2 0.320341 0.218352 0.135976
Si Si3 0.909499 0.794598 0.019882
Si Si4 0.514836 0.219087 0.111806
Si Si5 0.904371 0.787751 0.511103
Si Si6 0.965534 0.701316 0.749743
Si Si7 0.411710 0.782320 0.523815
Si Si8 0.677703 0.781075 0.335106
O O1 0.679095 0.732849 0.756046
O O2 0.861790 0.708723 0.759243
O O3 0.693513 0.735501 0.581162
O O4 0.756926 0.000000 0.709136
O O5 0.417333 0.278786 0.124808
O O6 0.323801 0.000000 0.133555
O O7 0.206554 0.279456 0.045588
O O8 0.949235 0.794838 0.144444
O O9 0.898801 0.000000 0.981855
O O10 0.000000 0.714334 0.000000
O O11 0.622984 0.273586 0.213380
O O12 0.514446 0.000000 0.111726
O O13 0.500000 0.277401 0.000000
O O14 0.931628 0.768959 0.632542
O O15 0.792684 0.718490 0.420562
O O16 0.000000 0.713875 0.500000
O O17 0.899234 0.000000 0.491129
O O18 0.001324 0.500000 0.755074
O O19 0.500000 0.716167 0.500000
O O20 0.400475 0.725272 0.622359
O O21 0.421044 0.000000 0.530460
O O22 0.680754 0.000000 0.337319
#
# Coordination Sequence:
#
# PCOD9142044 Si02
#       8
#     4   4   4   4   4   4   4   4
#     4  10  17  31  53  76 106 140 182 228 273 324
#     4   9  17  29  49  76 105 141 182 222 272 328
#     4  10  19  34  56  80 109 147 187 229 275 327
#     4   9  17  28  44  74 115 144 167 214 276 326
#     4  10  21  38  60  83 108 145 191 232 271 323
#     4  12  24  36  53  79 113 149 184 226 283 336
#     4   9  15  23  44  77 106 132 170 224 275 318
#     4   9  16  28  47  75 107 139 175 215 265 319
#
# _framework density 22.762008999999999
#
# number of rings (size 3 to 8) (size 9 to 14) (size 15 to 20)
#    0.000    2.250    2.500    1.875    0.000    4.500 
#    0.000    3.750    0.000    0.375    0.000    0.875 
#    0.000    3.500    0.000    0.000    0.000    0.000 
#
# Total GULP energy -178598.496631 kJ/mol
# GULP energy per Si atom -5581.203020 kJ/mol
# Density = 2.271020 g / cm^3
# Si number density = 22.762009 Si / 1000 Ang^3
#
#
#
# Elastic Constant Matrix: (Units=GPa)
#
#
# Indices 1 2 3 4 5 6 
#
# 1 109.3203 2.7558 58.9493 0.0000 -9.0217 0.0000
# 2 2.7558 57.6405 -0.5462 0.0000 4.0413 0.0000
# 3 58.9493 -0.5462 173.0240 0.0000 -6.5421 0.0000
# 4 0.0000 0.0000 0.0000 -37.3221 0.0000 3.7308
# 5 -9.0217 4.0413 -6.5421 0.0000 30.0653 0.0000
# 6 0.0000 0.0000 0.0000 3.7308 0.0000 35.0154
#
#
#
# Elastic Compliance Matrix: (Units=1/GPa)
#
#
# Indices 1 2 3 4 5 6 
#
# 1 0.011438 -0.000773 -0.003797 0.000000 0.002710 0.000000
# 2 -0.000773 0.017566 0.000223 0.000000 -0.002545 0.000000
# 3 -0.003797 0.000223 0.007088 0.000000 0.000373 0.000000
# 4 0.000000 0.000000 0.000000 -0.026511 0.000000 0.002825
# 5 0.002710 -0.002545 0.000373 0.000000 0.034497 0.000000
# 6 0.000000 0.000000 0.000000 0.002825 0.000000 0.028258
#
#
# Mechanical properties :
#
#
# Convention : Reuss Voigt Hill
#
# Bulk Modulus (GPa) = 36.49910 51.36696 43.93303
# Shear Modulus (GPa) = 55.45506 24.14011 39.79759
#
# Velocity S-wave (km/s) = 4.94124 3.26013 4.18595
# Velocity P-wave (km/s) = 6.97312 6.06525 6.53497
#
# Compressibility (1/GPa) = 0.02739794
#
# Stress axis : x y z
#
# Youngs Moduli (GPa) = 87.42810 56.92693 141.08437
#
# Poissons Ratio (x) = 0.04399 0.53568
# Poissons Ratio (y) = 0.06757 -0.03140
# Poissons Ratio (z) = 0.33196 -0.01267
#
# Static dielectric constant tensor:
#      x y z
#    x 1.836260 0.000000 0.015590 
#    y 0.000000 1.892420 0.000000 
#    z 0.015590 0.000000 1.844860 
# 
# From -- ./inp_files/66618.got.cif
#   From: 2010.05.17/outbox.cif.g08.bks.cpg/sg10_34_cif.got.tgz:66618.got - 2010.06.03 11:33:40.
