data_PCOD9142983
_publ_section_title
;
Structure prediction by ZEFSAII (Michael W. Deem and Ramdas Pophale) SiO2 
 PCOD9142983
Probable space group: P 2/M
;
_chemical_formula_sum "Si O2"
_cell_formula_units_Z 28
_cell_length_a 9.247795
_cell_length_b 9.095231
_cell_length_c 29.660853
_cell_angle_alpha 90.000000
_cell_angle_beta 39.222525
_cell_angle_gamma 90.000000
_cell_volume 1577.546022
_symmetry_space_group_name_H-M "P 2/M"
_symmetry_group_IT_number 10
_symmetry_cell_setting 'monoclinic'
loop_
_space_group_symop_operation_xyz
x,y,z
-x,y,-z
-x,-y,-z
x,-y,z
loop_
_atom_site_type_symbol
_atom_site_label
_atom_site_fract_x
_atom_site_fract_y
_atom_site_fract_z
Si Si1 0.927661 0.323150 0.290641
Si Si2 0.404139 0.177173 0.702574
Si Si3 0.029237 0.168727 0.860629
Si Si4 0.692568 0.830968 0.854316
Si Si5 0.329987 0.668599 0.997388
Si Si6 0.105861 0.676620 0.425266
Si Si7 0.758947 0.321466 0.430460
O O1 0.921400 0.500000 0.287972
O O2 0.741004 0.251748 0.302404
O O3 0.862742 0.280206 0.357134
O O4 0.172929 0.262511 0.215409
O O5 0.271781 0.215389 0.781161
O O6 0.658426 0.238636 0.638987
O O7 0.395322 0.000000 0.700313
O O8 0.859892 0.171078 0.857900
O O9 0.042127 0.000000 0.872940
O O10 0.908721 0.266368 0.927427
O O11 0.456016 0.762265 0.928597
O O12 0.666894 0.000000 0.846678
O O13 0.308313 0.500000 0.988822
O O14 0.500000 0.673085 0.000000
O O15 0.145833 0.500000 0.412231
O O16 0.000000 0.704960 0.500000
O O17 0.922912 0.721666 0.431681
O O18 0.500000 0.267874 0.500000
O O19 0.749790 0.500000 0.433143
#
# Coordination Sequence:
#
# PCOD9142983 Si02
#       7
#     4   4   4   4   4   4   4
#     4  10  18  30  50  73  99 131 168 209 249 293
#     4  10  20  33  49  72 103 135 167 204 248 298
#     4   8  15  26  39  58  89 128 162 196 242 290
#     4   9  16  26  40  61  94 131 164 200 245 295
#     4   9  15  22  36  61  91 123 162 204 243 286
#     4  10  20  35  56  78  99 128 166 205 247 296
#     4   9  18  33  53  77 101 126 161 205 250 294
#
# _framework density 17.749085000000001
#
# number of rings (size 3 to 8) (size 9 to 14) (size 15 to 20)
#    0.000    2.714    0.000    3.429    0.000    8.286 
#    0.000    1.429    0.000    3.000    0.000    1.000 
#    0.000    8.000    0.000    0.000    0.000    0.000 
#
# Total GULP energy -156089.150913 kJ/mol
# GULP energy per Si atom -5574.612533 kJ/mol
# Density = 1.770869 g / cm^3
# Si number density = 17.749085 Si / 1000 Ang^3
#
#
#
# Elastic Constant Matrix: (Units=GPa)
#
#
# Indices 1 2 3 4 5 6 
#
# 1 58.5588 31.5046 62.3436 0.0000 1.9118 0.0000
# 2 31.5046 78.7585 79.2089 0.0000 -2.4140 0.0000
# 3 62.3436 79.2089 189.5591 0.0000 -3.5568 0.0000
# 4 0.0000 0.0000 0.0000 29.1591 0.0000 -9.1970
# 5 1.9118 -2.4140 -3.5568 0.0000 16.2601 0.0000
# 6 0.0000 0.0000 0.0000 -9.1970 0.0000 2.5377
#
#
#
# Elastic Compliance Matrix: (Units=1/GPa)
#
#
# Indices 1 2 3 4 5 6 
#
# 1 0.027194 -0.003357 -0.007642 0.000000 -0.005367 0.000000
# 2 -0.003357 0.022341 -0.008195 0.000000 0.001919 0.000000
# 3 -0.007642 -0.008195 0.011253 0.000000 0.002143 0.000000
# 4 0.000000 0.000000 0.000000 -0.239656 0.000000 -0.868561
# 5 -0.005367 0.001919 0.002143 0.000000 0.062885 0.000000
# 6 0.000000 0.000000 0.000000 -0.868561 0.000000 -2.753771
#
#
# Mechanical properties :
#
#
# Convention : Reuss Voigt Hill
#
# Bulk Modulus (GPa) = 44.64292 74.77674 59.70983
# Shear Modulus (GPa) = -1.77060 19.84598 9.03769
#
# Velocity S-wave (km/s) = -0.99987 3.34749 2.25898
# Velocity P-wave (km/s) = 4.88609 7.56057 6.36538
#
# Compressibility (1/GPa) = 0.02239997
#
# Stress axis : x y z
#
# Youngs Moduli (GPa) = 36.77328 44.76113 88.86326
#
# Poissons Ratio (x) = 0.15027 0.67905
# Poissons Ratio (y) = 0.12345 0.72825
# Poissons Ratio (z) = 0.28100 0.36683
#
# Static dielectric constant tensor:
#      x y z
#    x 1.592820 0.000000 -0.004540 
#    y 0.000000 1.594140 0.000000 
#    z -0.004540 0.000000 1.608480 
# 
# From -- ./inp_files/94504.got.cif
#   From: 2010.05.17/outbox.cif.g08.bks.cpg/sg10_48_cif.got.tgz:94504.got - 2010.06.03 11:33:40.
