data_PCOD9142769
_publ_section_title
;
Structure prediction by ZEFSAII (Michael W. Deem and Ramdas Pophale) SiO2 
 PCOD9142769
Probable space group: P 2/M
;
_chemical_formula_sum "Si O2"
_cell_formula_units_Z 32
_cell_length_a 19.960341
_cell_length_b 15.434371
_cell_length_c 14.659780
_cell_angle_alpha 90.000000
_cell_angle_beta 19.385015
_cell_angle_gamma 90.000000
_cell_volume 1499.030542
_symmetry_space_group_name_H-M "P 2/M"
_symmetry_group_IT_number 10
_symmetry_cell_setting 'monoclinic'
loop_
_space_group_symop_operation_xyz
x,y,z
-x,y,-z
-x,-y,-z
x,-y,z
loop_
_atom_site_type_symbol
_atom_site_label
_atom_site_fract_x
_atom_site_fract_y
_atom_site_fract_z
Si Si1 0.277736 0.905916 0.836427
Si Si2 0.222875 0.590350 0.758480
Si Si3 0.536277 0.900898 0.661631
Si Si4 0.802252 0.774300 0.196940
Si Si5 0.049494 0.399323 0.329023
Si Si6 0.494352 0.400688 0.231525
Si Si7 0.298661 0.709928 0.322289
Si Si8 0.347381 0.903397 0.281395
O O1 0.500000 0.902139 0.500000
O O2 0.321376 0.895592 0.886786
O O3 0.153926 0.833893 0.945375
O O4 0.192539 0.000000 0.926867
O O5 0.249070 0.500000 0.777626
O O6 0.263837 0.680836 0.754739
O O7 0.369576 0.592740 0.484001
O O8 0.000000 0.588236 0.000000
O O9 0.661243 0.826305 0.449493
O O10 0.541131 0.894403 0.763701
O O11 0.610988 0.000000 0.543570
O O12 0.000000 0.760039 0.000000
O O13 0.039514 0.500000 0.310723
O O14 0.885779 0.343132 0.485044
O O15 0.000000 0.397446 0.500000
O O16 0.282144 0.369444 0.028335
O O17 0.513173 0.500000 0.168783
O O18 0.375641 0.337825 0.315250
O O19 0.237062 0.810864 0.413536
O O20 0.500000 0.707573 0.000000
O O21 0.247180 0.000000 0.411359
O O22 0.500000 0.905847 0.000000
#
# Coordination Sequence:
#
# PCOD9142769 Si02
#       8
#     4   4   4   4   4   4   4   4
#     4   8  15  28  49  79 109 139 174 224 298 361
#     4   9  19  36  58  78 109 159 207 244 286 349
#     4   9  17  32  55  79 110 144 180 234 296 356
#     4  10  18  29  53  84 113 143 186 242 297 349
#     4  10  20  34  56  93 129 152 191 250 315 383
#     4  10  20  35  60  90 121 158 198 250 312 367
#     4  11  20  33  60  89 121 161 199 246 314 371
#     4   9  19  35  58  84 112 156 210 251 289 354
#
# _framework density 21.347128999999999
#
# number of rings (size 3 to 8) (size 9 to 14) (size 15 to 20)
#    0.000    2.500    1.250    2.250    0.000    1.500 
#    0.000    0.000   33.000    4.500    0.000    0.000 
#    0.000    0.000    0.000    0.000    0.000    0.000 
#
# Total GULP energy -178292.611594 kJ/mol
# GULP energy per Si atom -5571.644112 kJ/mol
# Density = 2.129854 g / cm^3
# Si number density = 21.347129 Si / 1000 Ang^3
#
#
#
# Elastic Constant Matrix: (Units=GPa)
#
#
# Indices 1 2 3 4 5 6 
#
# 1 89.9791 64.0267 18.4544 0.0000 -10.3224 0.0000
# 2 64.0267 185.7872 12.9941 0.0000 -21.0164 0.0000
# 3 18.4544 12.9941 77.8035 0.0000 -12.4619 0.0000
# 4 0.0000 0.0000 0.0000 36.2674 0.0000 85.8529
# 5 -10.3224 -21.0164 -12.4619 0.0000 26.2351 0.0000
# 6 0.0000 0.0000 0.0000 85.8529 0.0000 241.7748
#
#
#
# Elastic Compliance Matrix: (Units=1/GPa)
#
#
# Indices 1 2 3 4 5 6 
#
# 1 0.015309 -0.005005 -0.002676 0.000000 0.000743 0.000000
# 2 -0.005005 0.007559 0.000627 0.000000 0.004384 0.000000
# 3 -0.002676 0.000627 0.014390 0.000000 0.006284 0.000000
# 4 0.000000 0.000000 0.000000 0.172966 0.000000 -0.061419
# 5 0.000743 0.004384 0.006284 0.000000 0.044906 0.000000
# 6 0.000000 0.000000 0.000000 -0.061419 0.000000 0.025946
#
#
# Mechanical properties :
#
#
# Convention : Reuss Voigt Hill
#
# Bulk Modulus (GPa) = 43.19727 60.50224 51.84976
# Shear Modulus (GPa) = 16.50706 78.06177 47.28441
#
# Velocity S-wave (km/s) = 2.78379 6.05369 4.71151
# Velocity P-wave (km/s) = 5.53283 8.79014 7.34434
#
# Compressibility (1/GPa) = 0.02314961
#
# Stress axis : x y z
#
# Youngs Moduli (GPa) = 65.32117 132.28721 69.49480
#
# Poissons Ratio (x) = 0.66204 0.18599
# Poissons Ratio (y) = 0.32691 -0.04356
# Poissons Ratio (z) = 0.17482 -0.08292
#
# Static dielectric constant tensor:
#      x y z
#    x 1.756780 0.000000 -0.006510 
#    y 0.000000 1.890850 0.000000 
#    z -0.006510 0.000000 1.778840 
# 
# From -- ./inp_files/70769.got.cif
#   From: 2010.05.17/outbox.cif.g08.bks.cpg/sg10_36_cif.got.tgz:70769.got - 2010.06.03 11:33:40.
