data_PCOD9142114
_publ_section_title
;
Structure prediction by ZEFSAII (Michael W. Deem and Ramdas Pophale) SiO2 
 PCOD9142114
Probable space group: P 2/M
;
_chemical_formula_sum "Si O2"
_cell_formula_units_Z 26
_cell_length_a 5.381592
_cell_length_b 12.821053
_cell_length_c 23.465620
_cell_angle_alpha 90.000000
_cell_angle_beta 64.622986
_cell_angle_gamma 90.000000
_cell_volume 1462.844504
_symmetry_space_group_name_H-M "P 2/M"
_symmetry_group_IT_number 10
_symmetry_cell_setting 'monoclinic'
loop_
_space_group_symop_operation_xyz
x,y,z
-x,y,-z
-x,-y,-z
x,-y,z
loop_
_atom_site_type_symbol
_atom_site_label
_atom_site_fract_x
_atom_site_fract_y
_atom_site_fract_z
Si Si1 0.498435 0.749288 0.278164
Si Si2 0.000000 0.702931 0.500000
Si Si3 0.639715 0.373548 0.927695
Si Si4 0.495045 0.618843 0.608713
Si Si5 0.280484 0.373747 0.852540
Si Si6 0.749434 0.194331 0.430840
Si Si7 0.046261 0.118097 0.700438
O O1 0.440440 0.669663 0.336291
O O2 0.600624 0.682355 0.214570
O O3 0.230737 0.816016 0.285784
O O4 0.745435 0.823680 0.276941
O O5 0.747233 0.629346 0.539653
O O6 0.000608 0.783470 0.447493
O O7 0.634609 0.500000 0.929846
O O8 0.460970 0.343797 0.890097
O O9 0.959987 0.344440 0.891964
O O10 0.500000 0.336277 0.000000
O O11 0.406481 0.500000 0.623364
O O12 0.282223 0.695715 0.599118
O O13 0.294827 0.500000 0.844933
O O14 0.500000 0.176442 0.500000
O O15 0.795425 0.114860 0.376137
O O16 0.984214 0.000000 0.724789
#
# Coordination Sequence:
#
# PCOD9142114 Si02
#       7
#     4   2   4   4   4   4   4
#     4  11  22  39  55  81 110 138 183 227 267 330
#     4  10  17  34  49  72 100 132 179 218 261 324
#     4   9  17  30  50  80 119 160 192 213 241 295
#     4  10  20  32  50  73 105 143 174 215 264 317
#     4  10  19  32  53  82 119 157 183 214 260 309
#     4   9  20  35  52  74 103 127 175 226 275 337
#     4  11  23  41  59  76 100 136 177 233 293 329
#
# _framework density 17.773589999999999
#
# number of rings (size 3 to 8) (size 9 to 14) (size 15 to 20)
#    0.000    2.000    1.538    2.538    0.000    5.538 
#    0.000    1.923    0.000    0.000    0.000    0.000 
#    0.000   43.077    0.000    0.000    0.000    0.000 
#
# Total GULP energy -144805.835821 kJ/mol
# GULP energy per Si atom -5569.455224 kJ/mol
# Density = 1.773314 g / cm^3
# Si number density = 17.773590 Si / 1000 Ang^3
#
#
#
# Elastic Constant Matrix: (Units=GPa)
#
#
# Indices 1 2 3 4 5 6 
#
# 1 116.0614 32.0722 47.7108 0.0000 10.4465 0.0000
# 2 32.0722 77.5786 25.9690 0.0000 2.9394 0.0000
# 3 47.7108 25.9690 120.4199 0.0000 11.4844 0.0000
# 4 0.0000 0.0000 0.0000 12.2718 0.0000 -5.0817
# 5 10.4465 2.9394 11.4844 0.0000 26.1954 0.0000
# 6 0.0000 0.0000 0.0000 -5.0817 0.0000 7.6396
#
#
#
# Elastic Compliance Matrix: (Units=1/GPa)
#
#
# Indices 1 2 3 4 5 6 
#
# 1 0.011205 -0.003375 -0.003467 0.000000 -0.002570 0.000000
# 2 -0.003375 0.014911 -0.001928 0.000000 0.000518 0.000000
# 3 -0.003467 -0.001928 0.010375 0.000000 -0.002950 0.000000
# 4 0.000000 0.000000 0.000000 0.112467 0.000000 0.074811
# 5 -0.002570 0.000518 -0.002950 0.000000 0.040435 0.000000
# 6 0.000000 0.000000 0.000000 0.074811 0.000000 0.180660
#
#
# Mechanical properties :
#
#
# Convention : Reuss Voigt Hill
#
# Bulk Modulus (GPa) = 52.76334 58.39599 55.57966
# Shear Modulus (GPa) = 12.69331 23.10856 17.90094
#
# Velocity S-wave (km/s) = 2.67529 3.60969 3.17703
# Velocity P-wave (km/s) = 6.26847 7.09225 6.69304
#
# Compressibility (1/GPa) = 0.01895255
#
# Stress axis : x y z
#
# Youngs Moduli (GPa) = 89.24559 67.06461 96.38681
#
# Poissons Ratio (x) = 0.22631 0.33414
# Poissons Ratio (y) = 0.30116 0.18583
# Poissons Ratio (z) = 0.30938 0.12930
#
# Static dielectric constant tensor:
#      x y z
#    x 1.672110 0.000000 -0.003330 
#    y 0.000000 1.595530 0.000000 
#    z -0.003330 0.000000 1.614440 
# 
# From -- ./inp_files/12208.got.cif
#   From: 2010.05.17/outbox.cif.g08.bks.cpg/sg10_7_cif.got.tgz:12208.got - 2010.06.03 11:33:40.
