data_PCOD9142888
_publ_section_title
;
Structure prediction by ZEFSAII (Michael W. Deem and Ramdas Pophale) SiO2 
 PCOD9142888
Probable space group: P 2/M
;
_chemical_formula_sum "Si O2"
_cell_formula_units_Z 30
_cell_length_a 8.516025
_cell_length_b 15.220628
_cell_length_c 18.850180
_cell_angle_alpha 90.000000
_cell_angle_beta 38.926197
_cell_angle_gamma 90.000000
_cell_volume 1535.200389
_symmetry_space_group_name_H-M "P 2/M"
_symmetry_group_IT_number 10
_symmetry_cell_setting 'monoclinic'
loop_
_space_group_symop_operation_xyz
x,y,z
-x,y,-z
-x,-y,-z
x,-y,z
loop_
_atom_site_type_symbol
_atom_site_label
_atom_site_fract_x
_atom_site_fract_y
_atom_site_fract_z
Si Si1 0.250916 0.401881 0.185826
Si Si2 0.522596 0.289140 0.649345
Si Si3 0.394648 0.901865 0.402172
Si Si4 0.753464 0.599954 0.456832
Si Si5 0.124942 0.096679 0.341888
Si Si6 0.456449 0.752064 0.195761
Si Si7 0.000000 0.728084 0.000000
Si Si8 0.046912 0.602398 0.848806
O O1 0.352250 0.500000 0.162150
O O2 0.430033 0.327228 0.150814
O O3 0.996108 0.392802 0.321942
O O4 0.171878 0.393117 0.132159
O O5 0.454283 0.189414 0.649615
O O6 0.738917 0.328133 0.523771
O O7 0.594224 0.283664 0.706898
O O8 0.294159 0.356966 0.725418
O O9 0.265310 0.902860 0.369447
O O10 0.166375 0.891761 0.537804
O O11 0.507041 0.000000 0.372988
O O12 0.500000 0.610875 0.500000
O O13 0.751271 0.500000 0.486524
O O14 0.255098 0.172861 0.252219
O O15 0.159898 0.000000 0.298354
O O16 0.743935 0.782761 0.093063
O O17 0.003247 0.664010 0.931191
O O18 0.085611 0.500000 0.853568
#
# Coordination Sequence:
#
# PCOD9142888 Si02
#       8
#     4   4   4   4   4   4   2   4
#     4  10  21  34  51  76 105 135 172 211 255 313
#     4  10  18  30  52  75 105 142 173 209 251 302
#     4   8  14  25  46  77 107 136 169 204 251 307
#     4  10  18  30  48  73 103 138 173 204 246 308
#     4   8  14  28  50  75 105 136 166 207 255 309
#     4  10  21  35  51  78 104 130 176 222 263 307
#     4  10  23  38  55  74 100 132 173 230 275 304
#     4  10  20  36  54  74 100 139 181 217 260 307
#
# _framework density 19.541422000000001
#
# number of rings (size 3 to 8) (size 9 to 14) (size 15 to 20)
#    0.000    2.533    1.333    2.200    0.000    5.333 
#    0.000    3.000    0.000    2.000    0.000    0.933 
#    0.000    0.000    0.000    0.000    0.000    0.000 
#
# Total GULP energy -167311.968017 kJ/mol
# GULP energy per Si atom -5577.065601 kJ/mol
# Density = 1.949695 g / cm^3
# Si number density = 19.541422 Si / 1000 Ang^3
#
#
#
# Elastic Constant Matrix: (Units=GPa)
#
#
# Indices 1 2 3 4 5 6 
#
# 1 11.5415 1.7116 -0.4772 0.0000 2.3248 0.0000
# 2 1.7116 39.2511 -1.0299 0.0000 5.8059 0.0000
# 3 -0.4772 -1.0299 39.2147 0.0000 7.8576 0.0000
# 4 0.0000 0.0000 0.0000 1.8636 0.0000 -31.3409
# 5 2.3248 5.8059 7.8576 0.0000 22.6445 0.0000
# 6 0.0000 0.0000 0.0000 -31.3409 0.0000 -41.2268
#
#
#
# Elastic Compliance Matrix: (Units=1/GPa)
#
#
# Indices 1 2 3 4 5 6 
#
# 1 0.089043 -0.002394 0.002933 0.000000 -0.009546 0.000000
# 2 -0.002394 0.026725 0.002146 0.000000 -0.007351 0.000000
# 3 0.002933 0.002146 0.027688 0.000000 -0.010459 0.000000
# 4 0.000000 0.000000 0.000000 0.038927 0.000000 -0.029592
# 5 -0.009546 -0.007351 -0.010459 0.000000 0.050655 0.000000
# 6 0.000000 0.000000 0.000000 -0.029592 0.000000 -0.001760
#
#
# Mechanical properties :
#
#
# Convention : Reuss Voigt Hill
#
# Bulk Modulus (GPa) = 6.71923 10.04625 8.38274
# Shear Modulus (GPa) = 18.14774 2.64313 10.39543
#
# Velocity S-wave (km/s) = 3.05073 1.16426 2.30895
# Velocity P-wave (km/s) = 3.98186 2.63809 3.37748
#
# Compressibility (1/GPa) = 0.14882663
#
# Stress axis : x y z
#
# Youngs Moduli (GPa) = 11.23058 37.41819 36.11614
#
# Poissons Ratio (x) = 0.08957 -0.10595
# Poissons Ratio (y) = 0.02688 -0.07749
# Poissons Ratio (z) = -0.03294 -0.08029
#
# Static dielectric constant tensor:
#      x y z
#    x 1.704950 0.000000 -0.017250 
#    y 0.000000 1.701920 0.000000 
#    z -0.017250 0.000000 1.711890 
# 
# From -- ./inp_files/82758.got.cif
#   From: 2010.05.17/outbox.cif.g08.bks.cpg/sg10_42_cif.got.tgz:82758.got - 2010.06.03 11:33:40.
