data_PCOD9142302
_publ_section_title
;
Structure prediction by ZEFSAII (Michael W. Deem and Ramdas Pophale) SiO2 
 PCOD9142302
Probable space group: P 2/M
;
_chemical_formula_sum "Si O2"
_cell_formula_units_Z 32
_cell_length_a 12.830339
_cell_length_b 8.917503
_cell_length_c 21.139342
_cell_angle_alpha 90.000000
_cell_angle_beta 65.510853
_cell_angle_gamma 90.000000
_cell_volume 2201.066934
_symmetry_space_group_name_H-M "P 2/M"
_symmetry_group_IT_number 10
_symmetry_cell_setting 'monoclinic'
loop_
_space_group_symop_operation_xyz
x,y,z
-x,y,-z
-x,-y,-z
x,-y,z
loop_
_atom_site_type_symbol
_atom_site_label
_atom_site_fract_x
_atom_site_fract_y
_atom_site_fract_z
Si Si1 0.497633 0.678913 0.325599
Si Si2 0.770899 0.679454 0.589589
Si Si3 0.536008 0.823043 0.791223
Si Si4 0.827744 0.179399 0.441439
Si Si5 0.433901 0.822098 0.078438
Si Si6 0.251965 0.677684 0.203975
Si Si7 0.402094 0.179795 0.575713
Si Si8 0.082721 0.821395 0.333614
O O1 0.505046 0.500000 0.318975
O O2 0.363979 0.720376 0.371854
O O3 0.530870 0.754798 0.250561
O O4 0.570713 0.739150 0.365650
O O5 0.779712 0.500000 0.593523
O O6 0.815242 0.733963 0.510400
O O7 0.847007 0.755632 0.624671
O O8 0.493112 0.804035 0.874575
O O9 0.655660 0.732744 0.766513
O O10 0.556391 0.000000 0.776454
O O11 0.720678 0.216905 0.423452
O O12 0.949265 0.211038 0.378449
O O13 0.822425 0.000000 0.455843
O O14 0.313964 0.741722 0.125580
O O15 0.412496 0.000000 0.076699
O O16 0.500000 0.767433 0.000000
O O17 0.245424 0.500000 0.204016
O O18 0.134438 0.749707 0.256847
O O19 0.500000 0.220227 0.500000
O O20 0.407941 0.000000 0.583818
O O21 0.099185 0.000000 0.327224
#
# Coordination Sequence:
#
# PCOD9142302 Si02
#       8
#     4   4   4   4   4   4   4   4
#     4  11  21  31  47  69  94 120 154 198 238 284
#     4  11  21  31  46  67  90 116 148 193 245 288
#     4   9  17  29  46  67  92 126 157 185 223 267
#     4  10  22  36  48  65  85 114 158 202 241 285
#     4   8  15  28  46  69  98 130 159 184 217 268
#     4  10  18  28  43  66  94 123 153 183 223 268
#     4  10  20  35  53  66  83 114 156 204 249 291
#     4  11  21  33  48  64  89 122 157 194 234 282
#
# _framework density 14.538404999999999
#
# number of rings (size 3 to 8) (size 9 to 14) (size 15 to 20)
#    0.750    1.250    2.500    2.625    0.000    4.500 
#    0.000    0.000    0.000    0.000    0.000    0.000 
#    0.000    1.000    0.000   11.500    0.000    4.500 
#
# Total GULP energy -178188.447440 kJ/mol
# GULP energy per Si atom -5568.388982 kJ/mol
# Density = 1.450531 g / cm^3
# Si number density = 14.538405 Si / 1000 Ang^3
#
#
#
# Elastic Constant Matrix: (Units=GPa)
#
#
# Indices 1 2 3 4 5 6 
#
# 1 69.8006 33.1175 45.3630 0.0000 -4.9058 0.0000
# 2 33.1175 56.4187 51.0761 0.0000 -1.9204 0.0000
# 3 45.3630 51.0761 120.6808 0.0000 0.2472 0.0000
# 4 0.0000 0.0000 0.0000 12.3459 0.0000 -0.6014
# 5 -4.9058 -1.9204 0.2472 0.0000 14.3664 0.0000
# 6 0.0000 0.0000 0.0000 -0.6014 0.0000 12.4813
#
#
#
# Elastic Compliance Matrix: (Units=1/GPa)
#
#
# Indices 1 2 3 4 5 6 
#
# 1 0.021762 -0.008331 -0.004667 0.000000 0.006398 0.000000
# 2 -0.008331 0.032161 -0.010483 0.000000 0.001635 0.000000
# 3 -0.004667 -0.010483 0.014484 0.000000 -0.003244 0.000000
# 4 0.000000 0.000000 0.000000 0.081189 0.000000 0.003912
# 5 0.006398 0.001635 -0.003244 0.000000 0.072066 0.000000
# 6 0.000000 0.000000 0.000000 0.003912 0.000000 0.080308
#
#
# Mechanical properties :
#
#
# Convention : Reuss Voigt Hill
#
# Bulk Modulus (GPa) = 46.63317 56.22370 51.42843
# Shear Modulus (GPa) = 14.04166 15.66163 14.85164
#
# Velocity S-wave (km/s) = 3.11116 3.28572 3.19963
# Velocity P-wave (km/s) = 6.71202 7.29048 7.00722
#
# Compressibility (1/GPa) = 0.02144396
#
# Stress axis : x y z
#
# Youngs Moduli (GPa) = 45.95104 31.09320 69.04011
#
# Poissons Ratio (x) = 0.25904 0.32223
# Poissons Ratio (y) = 0.38283 0.72378
# Poissons Ratio (z) = 0.21447 0.32596
#
# Static dielectric constant tensor:
#      x y z
#    x 1.465200 0.000000 -0.000440 
#    y 0.000000 1.483900 0.000000 
#    z -0.000440 0.000000 1.498520 
# 
# From -- ./inp_files/88441.got.cif
#   From: 2010.05.17/outbox.cif.g08.bks.cpg/sg10_45_cif.got.tgz:88441.got - 2010.06.03 11:33:40.
