data_PCOD9142653
_publ_section_title
;
Structure prediction by ZEFSAII (Michael W. Deem and Ramdas Pophale) SiO2 
 PCOD9142653
Probable space group: P 2/M
;
_chemical_formula_sum "Si O2"
_cell_formula_units_Z 24
_cell_length_a 8.566573
_cell_length_b 12.190392
_cell_length_c 23.718196
_cell_angle_alpha 90.000000
_cell_angle_beta 32.057458
_cell_angle_gamma 90.000000
_cell_volume 1314.656703
_symmetry_space_group_name_H-M "P 2/M"
_symmetry_group_IT_number 10
_symmetry_cell_setting 'monoclinic'
loop_
_space_group_symop_operation_xyz
x,y,z
-x,y,-z
-x,-y,-z
x,-y,z
loop_
_atom_site_type_symbol
_atom_site_label
_atom_site_fract_x
_atom_site_fract_y
_atom_site_fract_z
Si Si1 0.883943 0.127648 0.944693
Si Si2 0.111807 0.500000 0.530035
Si Si3 0.516214 0.872564 0.163400
Si Si4 0.130883 0.318877 0.810991
Si Si5 0.367429 0.500000 0.191945
Si Si6 0.800289 0.500000 0.303230
Si Si7 0.296422 0.315012 0.296580
Si Si8 0.106851 0.500000 0.032308
O O1 0.186560 0.134388 0.889114
O O2 0.944886 0.207456 0.873568
O O3 0.840836 0.000000 0.942796
O O4 0.624969 0.161448 0.067476
O O5 0.461585 0.500000 0.424097
O O6 0.000000 0.500000 0.500000
O O7 0.973687 0.388953 0.599366
O O8 0.275566 0.797966 0.268508
O O9 0.431662 0.000000 0.186816
O O10 0.130339 0.392075 0.755384
O O11 0.472505 0.299797 0.723282
O O12 0.999516 0.395502 0.900548
O O13 0.445613 0.394640 0.204679
O O14 0.022374 0.500000 0.286639
O O15 0.541615 0.500000 0.080689
O O16 0.000000 0.500000 0.000000
#
# Coordination Sequence:
#
# PCOD9142653 Si02
#       8
#     4   2   4   4   2   2   4   2
#     4   8  14  24  43  71 102 129 155 191 236 285
#     4  11  19  35  53  68  91 129 169 206 251 287
#     4   8  14  25  44  74 101 121 154 202 240 278
#     4  10  18  29  48  71  98 131 163 188 240 293
#     4  11  21  31  47  75 101 123 161 201 246 292
#     4  11  23  35  45  69 101 131 163 213 246 282
#     4  10  18  30  52  73  90 127 167 200 240 293
#     4  11  17  27  47  70  97 129 153 188 231 293
#
# _framework density 18.255716
#
# number of rings (size 3 to 8) (size 9 to 14) (size 15 to 20)
#    0.000    2.333    3.333    3.000    2.333    2.667 
#    0.000    0.000    0.000    2.500    0.000    4.667 
#    0.000    0.000    0.000    0.000    0.000    0.000 
#
# Total GULP energy -133677.777644 kJ/mol
# GULP energy per Si atom -5569.907402 kJ/mol
# Density = 1.821417 g / cm^3
# Si number density = 18.255716 Si / 1000 Ang^3
#
#
#
# Elastic Constant Matrix: (Units=GPa)
#
#
# Indices 1 2 3 4 5 6 
#
# 1 29.3565 10.3443 13.5406 0.0000 -0.0197 0.0000
# 2 10.3443 89.6132 32.1624 0.0000 15.0394 0.0000
# 3 13.5406 32.1624 88.4580 0.0000 7.5947 0.0000
# 4 0.0000 0.0000 0.0000 25.6465 0.0000 10.1590
# 5 -0.0197 15.0394 7.5947 0.0000 18.4441 0.0000
# 6 0.0000 0.0000 0.0000 10.1590 0.0000 2.5176
#
#
#
# Elastic Compliance Matrix: (Units=1/GPa)
#
#
# Indices 1 2 3 4 5 6 
#
# 1 0.037530 -0.003371 -0.004933 0.000000 0.004820 0.000000
# 2 -0.003371 0.014702 -0.003939 0.000000 -0.010370 0.000000
# 3 -0.004933 -0.003939 0.013701 0.000000 -0.002435 0.000000
# 4 0.000000 0.000000 0.000000 -0.065158 0.000000 0.262926
# 5 0.004820 -0.010370 -0.002435 0.000000 0.063681 0.000000
# 6 0.000000 0.000000 0.000000 0.262926 0.000000 -0.663758
#
#
# Mechanical properties :
#
#
# Convention : Reuss Voigt Hill
#
# Bulk Modulus (GPa) = 24.12678 35.50246 29.81462
# Shear Modulus (GPa) = -8.91267 19.41367 5.25050
#
# Velocity S-wave (km/s) = -2.21195 3.26456 1.69774
# Velocity P-wave (km/s) = 2.59250 5.80512 4.49558
#
# Compressibility (1/GPa) = 0.04144772
#
# Stress axis : x y z
#
# Youngs Moduli (GPa) = 26.64512 68.01656 72.98584
#
# Poissons Ratio (x) = 0.22925 0.36005
# Poissons Ratio (y) = 0.08981 0.28752
# Poissons Ratio (z) = 0.13145 0.26794
#
# Static dielectric constant tensor:
#      x y z
#    x 1.638690 0.000000 -0.002690 
#    y 0.000000 1.691240 0.000000 
#    z -0.002690 0.000000 1.650920 
# 
# From -- ./inp_files/92221.got.cif
#   From: 2010.05.17/outbox.cif.g08.bks.cpg/sg10_47_cif.got.tgz:92221.got - 2010.06.03 11:33:40.
