data_PCOD9142018
_publ_section_title
;
Structure prediction by ZEFSAII (Michael W. Deem and Ramdas Pophale) SiO2 
 PCOD9142018
Probable space group: P 2/M
;
_chemical_formula_sum "Si O2"
_cell_formula_units_Z 24
_cell_length_a 8.923179
_cell_length_b 14.845807
_cell_length_c 15.214927
_cell_angle_alpha 90.000000
_cell_angle_beta 143.336003
_cell_angle_gamma 90.000000
_cell_volume 1203.526870
_symmetry_space_group_name_H-M "P 2/M"
_symmetry_group_IT_number 10
_symmetry_cell_setting 'monoclinic'
loop_
_space_group_symop_operation_xyz
x,y,z
-x,y,-z
-x,-y,-z
x,-y,z
loop_
_atom_site_type_symbol
_atom_site_label
_atom_site_fract_x
_atom_site_fract_y
_atom_site_fract_z
Si Si1 0.220073 0.768208 0.400714
Si Si2 0.055978 0.901745 0.187869
Si Si3 0.372232 0.896998 0.617558
Si Si4 0.599735 0.817755 0.881165
Si Si5 0.000000 0.319429 0.000000
Si Si6 0.500000 0.699194 0.000000
Si Si7 0.981844 0.394769 0.793318
O O1 0.500000 0.788558 0.500000
O O2 0.039545 0.823385 0.251168
O O3 0.223270 0.818646 0.495615
O O4 0.173596 0.665271 0.350521
O O5 0.330271 0.895972 0.271650
O O6 0.042587 0.000000 0.223203
O O7 0.820946 0.885809 0.014278
O O8 0.392179 0.869280 0.727982
O O9 0.284797 0.000000 0.561472
O O10 0.754745 0.742712 0.898885
O O11 0.484327 0.763964 0.908273
O O12 0.047248 0.369541 0.115853
O O13 0.736496 0.634878 0.097157
O O14 0.935290 0.500000 0.760717
#
# Coordination Sequence:
#
# PCOD9142018 Si02
#       7
#     4   4   4   4   2   2   4
#     4  10  19  35  55  86 123 154 181 239 297 342
#     4  10  17  30  56  85 116 153 194 236 281 338
#     4  10  19  31  55  89 118 154 195 234 283 342
#     4  11  18  35  57  86 119 155 192 239 284 339
#     4  10  17  34  59  90 114 140 183 250 295 320
#     4  10  23  38  61  82 118 158 189 240 303 340
#     4  11  22  39  63  87 114 150 195 243 295 352
#
# _framework density 19.941393000000001
#
# number of rings (size 3 to 8) (size 9 to 14) (size 15 to 20)
#    0.000    1.667    5.000    2.500    0.000    3.667 
#    0.000    2.500    0.000    4.000    0.000    0.000 
#    0.000    0.000    0.000    0.000    0.000    0.000 
#
# Total GULP energy -133734.548270 kJ/mol
# GULP energy per Si atom -5572.272845 kJ/mol
# Density = 1.989601 g / cm^3
# Si number density = 19.941393 Si / 1000 Ang^3
#
#
#
# Elastic Constant Matrix: (Units=GPa)
#
#
# Indices 1 2 3 4 5 6 
#
# 1 73.1095 29.4439 14.5236 0.0000 -6.4705 0.0000
# 2 29.4439 152.6296 38.4109 0.0000 -27.2031 0.0000
# 3 14.5236 38.4109 78.6819 0.0000 -24.6941 0.0000
# 4 0.0000 0.0000 0.0000 -86.9973 0.0000 38.8913
# 5 -6.4705 -27.2031 -24.6941 0.0000 20.0209 0.0000
# 6 0.0000 0.0000 0.0000 38.8913 0.0000 1.0004
#
#
#
# Elastic Compliance Matrix: (Units=1/GPa)
#
#
# Indices 1 2 3 4 5 6 
#
# 1 0.015001 -0.002604 -0.001773 0.000000 -0.000877 0.000000
# 2 -0.002604 0.009134 -0.000567 0.000000 0.010870 0.000000
# 3 -0.001773 -0.000567 0.021034 0.000000 0.024601 0.000000
# 4 0.000000 0.000000 0.000000 -0.000625 0.000000 0.024314
# 5 -0.000877 0.010870 0.024601 0.000000 0.094777 0.000000
# 6 0.000000 0.000000 0.000000 0.024314 0.000000 0.054388
#
#
# Mechanical properties :
#
#
# Convention : Reuss Voigt Hill
#
# Bulk Modulus (GPa) = 28.34292 52.13087 40.23690
# Shear Modulus (GPa) = 23.21714 1.60764 12.41239
#
# Velocity S-wave (km/s) = 3.41584 0.89885 2.49759
# Velocity P-wave (km/s) = 5.45905 5.22265 5.34216
#
# Compressibility (1/GPa) = 0.03528217
#
# Stress axis : x y z
#
# Youngs Moduli (GPa) = 66.66012 109.47861 47.54147
#
# Poissons Ratio (x) = 0.28508 0.08429
# Poissons Ratio (y) = 0.17358 0.02695
# Poissons Ratio (z) = 0.11819 0.06206
#
# Static dielectric constant tensor:
#      x y z
#    x 1.736940 0.000000 -0.024610 
#    y 0.000000 1.720590 0.000000 
#    z -0.024610 0.000000 1.749850 
# 
# From -- ./inp_files/61994.got.cif
#   From: 2010.05.17/outbox.cif.g08.bks.cpg/sg10_31_cif.got.tgz:61994.got - 2010.06.03 11:33:40.
