data_PCOD9142564
_publ_section_title
;
Structure prediction by ZEFSAII (Michael W. Deem and Ramdas Pophale) SiO2 
 PCOD9142564
Probable space group: P 2/M
;
_chemical_formula_sum "Si O2"
_cell_formula_units_Z 32
_cell_length_a 28.006661
_cell_length_b 9.586174
_cell_length_c 22.018336
_cell_angle_alpha 90.000000
_cell_angle_beta 18.453022
_cell_angle_gamma 90.000000
_cell_volume 1871.121108
_symmetry_space_group_name_H-M "P 2/M"
_symmetry_group_IT_number 10
_symmetry_cell_setting 'monoclinic'
loop_
_space_group_symop_operation_xyz
x,y,z
-x,y,-z
-x,-y,-z
x,-y,z
loop_
_atom_site_type_symbol
_atom_site_label
_atom_site_fract_x
_atom_site_fract_y
_atom_site_fract_z
Si Si1 0.414055 0.837527 0.509593
Si Si2 0.620965 0.161134 0.041564
Si Si3 0.547727 0.334831 0.243951
Si Si4 0.867823 0.335370 0.925671
Si Si5 0.437361 0.164519 0.142547
Si Si6 0.022387 0.161820 0.401575
Si Si7 0.260240 0.161595 0.815597
Si Si8 0.135812 0.667307 0.510541
O O1 0.432994 0.740333 0.428549
O O2 0.576547 0.833181 0.347722
O O3 0.293064 0.793381 0.706752
O O4 0.387474 0.000000 0.525666
O O5 0.546078 0.263581 0.180317
O O6 0.561981 0.183302 0.044495
O O7 0.587295 0.000000 0.098814
O O8 0.800957 0.178388 0.825942
O O9 0.522488 0.500000 0.271594
O O10 0.716447 0.311218 0.068136
O O11 0.873319 0.500000 0.931764
O O12 0.013434 0.297284 0.710317
O O13 0.848861 0.251962 0.011021
O O14 0.295250 0.260090 0.329508
O O15 0.394969 0.000000 0.193197
O O16 0.500000 0.198154 0.000000
O O17 0.000000 0.185209 0.500000
O O18 0.927664 0.266576 0.474985
O O19 0.979107 0.000000 0.440947
O O20 0.213486 0.000000 0.871134
O O21 0.147160 0.500000 0.493000
#
# Coordination Sequence:
#
# PCOD9142564 Si02
#       8
#     4   4   4   4   4   4   4   4
#     4   8  14  25  40  64  98 132 169 210 251 296
#     4  10  20  34  54  77 101 133 171 216 265 307
#     4  10  18  29  46  70 103 138 171 209 252 305
#     4   9  18  30  44  68 104 138 168 207 250 301
#     4  10  22  41  60  77 101 133 175 223 264 312
#     4  10  20  35  56  79 101 131 171 213 261 313
#     4   8  14  24  41  65  95 132 171 210 249 294
#     4  11  22  36  53  78 109 139 171 211 261 313
#
# _framework density 17.102046999999999
#
# number of rings (size 3 to 8) (size 9 to 14) (size 15 to 20)
#    0.000    2.500    1.250    2.250    0.000    5.000 
#    0.000    3.750    0.000    0.000    0.000    0.875 
#    0.000    7.000    0.000    0.000    0.000    0.000 
#
# Total GULP energy -178409.916536 kJ/mol
# GULP energy per Si atom -5575.309892 kJ/mol
# Density = 1.706312 g / cm^3
# Si number density = 17.102047 Si / 1000 Ang^3
#
#
#
# Elastic Constant Matrix: (Units=GPa)
#
#
# Indices 1 2 3 4 5 6 
#
# 1 39.6307 25.0467 2.8290 0.0000 21.9765 0.0000
# 2 25.0467 46.8891 23.4123 0.0000 18.8087 0.0000
# 3 2.8290 23.4123 33.7135 0.0000 20.0559 0.0000
# 4 0.0000 0.0000 0.0000 24.6915 0.0000 -0.1910
# 5 21.9765 18.8087 20.0559 0.0000 36.1621 0.0000
# 6 0.0000 0.0000 0.0000 -0.1910 0.0000 13.7359
#
#
#
# Elastic Compliance Matrix: (Units=1/GPa)
#
#
# Indices 1 2 3 4 5 6 
#
# 1 0.097769 -0.062639 0.076500 0.000000 -0.069265 0.000000
# 2 -0.062639 0.073861 -0.068394 0.000000 0.037582 0.000000
# 3 0.076500 -0.068394 0.115262 0.000000 -0.074843 0.000000
# 4 0.000000 0.000000 0.000000 0.040504 0.000000 0.000563
# 5 -0.069265 0.037582 -0.074843 0.000000 0.091708 0.000000
# 6 0.000000 0.000000 0.000000 0.000563 0.000000 0.072810
#
#
# Mechanical properties :
#
#
# Convention : Reuss Voigt Hill
#
# Bulk Modulus (GPa) = 5.62342 24.75661 15.19002
# Shear Modulus (GPa) = 7.57284 19.51426 13.54355
#
# Velocity S-wave (km/s) = 2.10657 3.38161 2.81717
# Velocity P-wave (km/s) = 3.03515 5.45475 4.41398
#
# Compressibility (1/GPa) = 0.17782763
#
# Stress axis : x y z
#
# Youngs Moduli (GPa) = 10.22817 13.53893 8.67590
#
# Poissons Ratio (x) = 0.84806 -0.66371
# Poissons Ratio (y) = 0.64068 0.59338
# Poissons Ratio (z) = -0.78246 0.92598
#
# Static dielectric constant tensor:
#      x y z
#    x 1.573040 0.000000 0.003330 
#    y 0.000000 1.567680 0.000000 
#    z 0.003330 0.000000 1.580240 
# 
# From -- ./inp_files/86798.got.cif
#   From: 2010.05.17/outbox.cif.g08.bks.cpg/sg10_44_cif.got.tgz:86798.got - 2010.06.03 11:33:40.
