data_PCOD9142643
_publ_section_title
;
Structure prediction by ZEFSAII (Michael W. Deem and Ramdas Pophale) SiO2 
 PCOD9142643
Probable space group: P 2/M
;
_chemical_formula_sum "Si O2"
_cell_formula_units_Z 24
_cell_length_a 16.718189
_cell_length_b 7.712625
_cell_length_c 25.090780
_cell_angle_alpha 90.000000
_cell_angle_beta 156.558649
_cell_angle_gamma 90.000000
_cell_volume 1287.008629
_symmetry_space_group_name_H-M "P 2/M"
_symmetry_group_IT_number 10
_symmetry_cell_setting 'monoclinic'
loop_
_space_group_symop_operation_xyz
x,y,z
-x,y,-z
-x,-y,-z
x,-y,z
loop_
_atom_site_type_symbol
_atom_site_label
_atom_site_fract_x
_atom_site_fract_y
_atom_site_fract_z
Si Si1 0.169420 0.798096 0.150309
Si Si2 0.477816 0.210374 0.256223
Si Si3 0.154028 0.787717 0.969355
Si Si4 0.939812 0.293976 0.521217
Si Si5 0.664227 0.201255 0.028912
Si Si6 0.221251 0.699927 0.786215
O O1 0.366851 0.724845 0.242253
O O2 0.213375 0.000000 0.189025
O O3 0.000000 0.796244 0.000000
O O4 0.053312 0.723889 0.130441
O O5 0.338194 0.262670 0.120825
O O6 0.704791 0.268761 0.388009
O O7 0.474724 0.000000 0.255609
O O8 0.144319 0.000000 0.964579
O O9 0.205251 0.733136 0.940870
O O10 0.983973 0.500000 0.546751
O O11 0.000000 0.222313 0.500000
O O12 0.073000 0.222963 0.651325
O O13 0.773086 0.213676 0.152384
O O14 0.617475 0.000000 0.989832
O O15 0.449061 0.292485 0.903319
O O16 0.166777 0.500000 0.762244
#
# Coordination Sequence:
#
# PCOD9142643 Si02
#       6
#     4   4   4   4   4   4
#     4   7  11  22  41  66  93 116 139 171 216 264
#     4   9  16  27  47  71  92 116 145 179 217 258
#     4   8  14  25  44  71  96 115 139 176 222 264
#     4  10  21  34  46  62  88 121 150 178 217 263
#     4  10  18  29  48  70  90 112 144 186 220 251
#     4  10  20  33  46  61  87 121 150 177 218 266
#
# _framework density 18.647893
#
# number of rings (size 3 to 8) (size 9 to 14) (size 15 to 20)
#    0.000    3.000    0.000    5.000    0.000    1.667 
#    0.000    0.833    0.000    7.500    0.000    7.000 
#    0.000    0.000    0.000    0.000    0.000    0.000 
#
# Total GULP energy -133702.825426 kJ/mol
# GULP energy per Si atom -5570.951059 kJ/mol
# Density = 1.860545 g / cm^3
# Si number density = 18.647893 Si / 1000 Ang^3
#
#
#
# Elastic Constant Matrix: (Units=GPa)
#
#
# Indices 1 2 3 4 5 6 
#
# 1 189.5285 -5.8308 69.7911 0.0000 12.4661 0.0000
# 2 -5.8308 27.1471 -8.8944 0.0000 -4.4987 0.0000
# 3 69.7911 -8.8944 93.5455 0.0000 4.2799 0.0000
# 4 0.0000 0.0000 0.0000 18.0810 0.0000 0.6661
# 5 12.4661 -4.4987 4.2799 0.0000 20.4628 0.0000
# 6 0.0000 0.0000 0.0000 0.6661 0.0000 0.6602
#
#
#
# Elastic Compliance Matrix: (Units=1/GPa)
#
#
# Indices 1 2 3 4 5 6 
#
# 1 0.007522 -0.000791 -0.005523 0.000000 -0.003601 0.000000
# 2 -0.000791 0.039337 0.003950 0.000000 0.008303 0.000000
# 3 -0.005523 0.003950 0.015137 0.000000 0.001067 0.000000
# 4 0.000000 0.000000 0.000000 0.057442 0.000000 -0.057956
# 5 -0.003601 0.008303 0.001067 0.000000 0.052666 0.000000
# 6 0.000000 0.000000 0.000000 -0.057956 0.000000 1.573211
#
#
# Mechanical properties :
#
#
# Convention : Reuss Voigt Hill
#
# Bulk Modulus (GPa) = 17.46113 46.70586 32.08350
# Shear Modulus (GPa) = 2.82625 24.85113 13.83869
#
# Velocity S-wave (km/s) = 1.23243 3.65451 2.72712
# Velocity P-wave (km/s) = 3.37773 6.55041 5.21138
#
# Compressibility (1/GPa) = 0.05727005
#
# Stress axis : x y z
#
# Youngs Moduli (GPa) = 132.93555 25.42152 66.06326
#
# Poissons Ratio (x) = 0.02010 0.36484
# Poissons Ratio (y) = 0.10509 -0.26096
# Poissons Ratio (z) = 0.73415 -0.10042
#
# Static dielectric constant tensor:
#      x y z
#    x 1.683440 0.000000 0.003570 
#    y 0.000000 1.685540 0.000000 
#    z 0.003570 0.000000 1.611330 
# 
# From -- ./inp_files/57228.got.cif
#   From: 2010.05.17/outbox.cif.g08.bks.cpg/sg10_29_cif.got.tgz:57228.got - 2010.06.03 11:33:40.
