data_PCOD9142482
_publ_section_title
;
Structure prediction by ZEFSAII (Michael W. Deem and Ramdas Pophale) SiO2 
 PCOD9142482
Probable space group: P 2/M
;
_chemical_formula_sum "Si O2"
_cell_formula_units_Z 28
_cell_length_a 12.032433
_cell_length_b 8.133887
_cell_length_c 19.171339
_cell_angle_alpha 90.000000
_cell_angle_beta 52.824747
_cell_angle_gamma 90.000000
_cell_volume 1495.024957
_symmetry_space_group_name_H-M "P 2/M"
_symmetry_group_IT_number 10
_symmetry_cell_setting 'monoclinic'
loop_
_space_group_symop_operation_xyz
x,y,z
-x,y,-z
-x,-y,-z
x,-y,z
loop_
_atom_site_type_symbol
_atom_site_label
_atom_site_fract_x
_atom_site_fract_y
_atom_site_fract_z
Si Si1 0.135839 0.692992 0.408808
Si Si2 0.872453 0.192196 0.745030
Si Si3 0.732021 0.199071 0.181240
Si Si4 0.576531 0.687658 0.872482
Si Si5 0.726107 0.801645 0.021143
Si Si6 0.430362 0.193677 0.281769
Si Si7 0.001715 0.798345 0.834393
O O1 0.147691 0.500000 0.419233
O O2 0.119090 0.718085 0.332028
O O3 0.282830 0.774858 0.373571
O O4 0.000000 0.758838 0.500000
O O5 0.716319 0.211892 0.836450
O O6 0.980075 0.251723 0.762599
O O7 0.894031 0.000000 0.722847
O O8 0.740763 0.250605 0.096776
O O9 0.574395 0.237543 0.265325
O O10 0.858537 0.260239 0.180472
O O11 0.744235 0.000000 0.176248
O O12 0.599597 0.500000 0.883522
O O13 0.422263 0.743446 0.953307
O O14 0.570795 0.706811 0.790199
O O15 0.722303 0.000000 0.021933
O O16 0.863654 0.746085 0.928692
O O17 0.438298 0.000000 0.259698
O O18 0.001711 0.000000 0.834810
#
# Coordination Sequence:
#
# PCOD9142482 Si02
#       7
#     4   4   4   4   4   4   4
#     4  10  20  34  53  74  95 118 145 182 229 281
#     4  10  19  31  48  70  95 121 152 189 231 280
#     4   8  14  26  46  71  95 121 156 194 229 264
#     4  10  18  29  44  62  92 127 158 195 235 274
#     4   9  16  28  47  68  90 121 164 204 231 261
#     4   9  16  28  50  75  95 117 149 189 229 271
#     4   9  17  28  45  69  95 124 157 195 234 269
#
# _framework density 18.728784999999998
#
# number of rings (size 3 to 8) (size 9 to 14) (size 15 to 20)
#    0.000    2.714    0.000    5.571    0.000    3.429 
#    0.000    4.286    0.000   17.143    0.000    6.000 
#    0.000    0.000    0.000    0.000    0.000    0.000 
#
# Total GULP energy -156074.795567 kJ/mol
# GULP energy per Si atom -5574.099842 kJ/mol
# Density = 1.868616 g / cm^3
# Si number density = 18.728785 Si / 1000 Ang^3
#
#
#
# Elastic Constant Matrix: (Units=GPa)
#
#
# Indices 1 2 3 4 5 6 
#
# 1 121.6621 -4.6007 42.8684 0.0000 -15.7265 0.0000
# 2 -4.6007 22.0222 -0.1188 0.0000 -0.7208 0.0000
# 3 42.8684 -0.1188 92.1196 0.0000 -25.5228 0.0000
# 4 0.0000 0.0000 0.0000 13.6183 0.0000 8.0651
# 5 -15.7265 -0.7208 -25.5228 0.0000 21.0699 0.0000
# 6 0.0000 0.0000 0.0000 8.0651 0.0000 3.1923
#
#
#
# Elastic Compliance Matrix: (Units=1/GPa)
#
#
# Indices 1 2 3 4 5 6 
#
# 1 0.010037 0.002170 -0.003871 0.000000 0.002877 0.000000
# 2 0.002170 0.045962 -0.000100 0.000000 0.003071 0.000000
# 3 -0.003871 -0.000100 0.017844 0.000000 0.018722 0.000000
# 4 0.000000 0.000000 0.000000 -0.147984 0.000000 0.373872
# 5 0.002877 0.003071 0.018722 0.000000 0.072393 0.000000
# 6 0.000000 0.000000 0.000000 0.373872 0.000000 -0.631304
#
#
# Mechanical properties :
#
#
# Convention : Reuss Voigt Hill
#
# Bulk Modulus (GPa) = 14.23639 34.67796 24.45717
# Shear Modulus (GPa) = -8.25032 20.75310 6.25139
#
# Velocity S-wave (km/s) = -2.10112 3.33240 1.82896
# Velocity P-wave (km/s) = 1.31588 5.77604 4.18892
#
# Compressibility (1/GPa) = 0.07024254
#
# Stress axis : x y z
#
# Youngs Moduli (GPa) = 99.62696 21.75702 56.04117
#
# Poissons Ratio (x) = -0.04722 0.21694
# Poissons Ratio (y) = -0.21621 0.00559
# Poissons Ratio (z) = 0.38567 0.00217
#
# Static dielectric constant tensor:
#      x y z
#    x 1.673200 0.000000 -0.017280 
#    y 0.000000 1.648600 0.000000 
#    z -0.017280 0.000000 1.665570 
# 
# From -- ./inp_files/83306.got.cif
#   From: 2010.05.17/outbox.cif.g08.bks.cpg/sg10_42_cif.got.tgz:83306.got - 2010.06.03 11:33:40.
