data_PCOD9142604
_publ_section_title
;
Structure prediction by ZEFSAII (Michael W. Deem and Ramdas Pophale) SiO2 
 PCOD9142604
Probable space group: P 2/M
;
_chemical_formula_sum "Si O2"
_cell_formula_units_Z 32
_cell_length_a 15.334414
_cell_length_b 8.230603
_cell_length_c 21.265451
_cell_angle_alpha 90.000000
_cell_angle_beta 137.219752
_cell_angle_gamma 90.000000
_cell_volume 1822.903357
_symmetry_space_group_name_H-M "P 2/M"
_symmetry_group_IT_number 10
_symmetry_cell_setting 'monoclinic'
loop_
_space_group_symop_operation_xyz
x,y,z
-x,y,-z
-x,-y,-z
x,-y,z
loop_
_atom_site_type_symbol
_atom_site_label
_atom_site_fract_x
_atom_site_fract_y
_atom_site_fract_z
Si Si1 0.776399 0.691250 0.801698
Si Si2 0.490276 0.810925 0.664930
Si Si3 0.413989 0.195668 0.012054
Si Si4 0.380996 0.309784 0.480400
Si Si5 0.854413 0.310338 0.972050
Si Si6 0.565668 0.803410 0.836885
Si Si7 0.864499 0.811629 0.716492
Si Si8 0.124329 0.694738 0.877914
O O1 0.750773 0.500000 0.798900
O O2 0.642550 0.786540 0.733550
O O3 0.870587 0.747596 0.908313
O O4 0.831703 0.711552 0.761948
O O5 0.418176 0.714029 0.572590
O O6 0.474200 0.762923 0.729692
O O7 0.457612 0.000000 0.640400
O O8 0.472496 0.235161 0.111899
O O9 0.408484 0.000000 0.005241
O O10 0.500000 0.256795 0.000000
O O11 0.267513 0.257074 0.933591
O O12 0.500000 0.247843 0.500000
O O13 0.366714 0.500000 0.458205
O O14 0.248181 0.225039 0.392157
O O15 0.891752 0.500000 0.993234
O O16 0.699504 0.289420 0.896462
O O17 0.897340 0.238728 0.061777
O O18 0.589209 0.000000 0.845561
O O19 0.008923 0.762626 0.774845
O O20 0.861020 0.000000 0.730963
O O21 0.117060 0.500000 0.875826
#
# Coordination Sequence:
#
# PCOD9142604 Si02
#       8
#     4   4   4   4   4   4   4   4
#     4  10  18  30  46  66  92 126 168 207 245 286
#     4  10  18  29  47  70  97 128 165 210 251 287
#     4   9  17  32  55  81 108 135 162 194 236 291
#     4  11  22  35  51  69  92 127 171 216 255 294
#     4   8  16  29  46  65  90 127 165 200 238 283
#     4   8  15  27  45  72 102 129 159 197 240 285
#     4  12  24  35  48  67  94 128 168 210 252 295
#     4  10  20  35  51  70  99 131 164 203 245 292
#
# _framework density 17.554413
#
# number of rings (size 3 to 8) (size 9 to 14) (size 15 to 20)
#    0.000    2.250    1.250    2.625    0.000    2.750 
#    0.000    2.500    0.000    0.000    0.000    0.875 
#    0.000    7.000    0.000    0.000    0.000    0.000 
#
# Total GULP energy -178367.213788 kJ/mol
# GULP energy per Si atom -5573.975431 kJ/mol
# Density = 1.751446 g / cm^3
# Si number density = 17.554413 Si / 1000 Ang^3
#
#
#
# Elastic Constant Matrix: (Units=GPa)
#
#
# Indices 1 2 3 4 5 6 
#
# 1 80.4031 9.1566 39.7278 0.0000 -10.0348 0.0000
# 2 9.1566 28.3475 9.2280 0.0000 -1.4723 0.0000
# 3 39.7278 9.2280 116.7230 0.0000 -3.2481 0.0000
# 4 0.0000 0.0000 0.0000 17.0932 0.0000 20.4403
# 5 -10.0348 -1.4723 -3.2481 0.0000 17.2540 0.0000
# 6 0.0000 0.0000 0.0000 20.4403 0.0000 -88.9862
#
#
#
# Elastic Compliance Matrix: (Units=1/GPa)
#
#
# Indices 1 2 3 4 5 6 
#
# 1 0.016344 -0.003196 -0.005080 0.000000 0.008277 0.000000
# 2 -0.003196 0.036946 -0.001807 0.000000 0.000954 0.000000
# 3 -0.005080 -0.001807 0.010407 0.000000 -0.001149 0.000000
# 4 0.000000 0.000000 0.000000 0.045896 0.000000 0.010542
# 5 0.008277 0.000954 -0.001149 0.000000 0.062636 0.000000
# 6 0.000000 0.000000 0.000000 0.010542 0.000000 -0.008816
#
#
# Mechanical properties :
#
#
# Convention : Reuss Voigt Hill
#
# Bulk Modulus (GPa) = 22.97112 37.96651 30.46882
# Shear Modulus (GPa) = 25.24103 0.22961 12.73532
#
# Velocity S-wave (km/s) = 3.79604 0.36206 2.69639
# Velocity P-wave (km/s) = 5.68571 4.67436 5.20466
#
# Compressibility (1/GPa) = 0.04353293
#
# Stress axis : x y z
#
# Youngs Moduli (GPa) = 61.18332 27.06620 96.08772
#
# Poissons Ratio (x) = 0.08650 0.48812
# Poissons Ratio (y) = 0.19553 0.17360
# Poissons Ratio (z) = 0.31081 0.04890
#
# Static dielectric constant tensor:
#      x y z
#    x 1.616130 0.000000 -0.017130 
#    y 0.000000 1.616200 0.000000 
#    z -0.017130 0.000000 1.639240 
# 
# From -- ./inp_files/70035.got.cif
#   From: 2010.05.17/outbox.cif.g08.bks.cpg/sg10_36_cif.got.tgz:70035.got - 2010.06.03 11:33:40.
