data_PCOD9142687
_publ_section_title
;
Structure prediction by ZEFSAII (Michael W. Deem and Ramdas Pophale) SiO2 
 PCOD9142687
Probable space group: P 2/M
;
_chemical_formula_sum "Si O2"
_cell_formula_units_Z 32
_cell_length_a 18.989481
_cell_length_b 7.579544
_cell_length_c 12.215697
_cell_angle_alpha 90.000000
_cell_angle_beta 61.810388
_cell_angle_gamma 90.000000
_cell_volume 1549.680283
_symmetry_space_group_name_H-M "P 2/M"
_symmetry_group_IT_number 10
_symmetry_cell_setting 'monoclinic'
loop_
_space_group_symop_operation_xyz
x,y,z
-x,y,-z
-x,-y,-z
x,-y,z
loop_
_atom_site_type_symbol
_atom_site_label
_atom_site_fract_x
_atom_site_fract_y
_atom_site_fract_z
Si Si1 0.791822 0.200451 0.348136
Si Si2 0.655098 0.295354 0.284861
Si Si3 0.090655 0.784010 0.918031
Si Si4 0.512836 0.285193 0.660808
Si Si5 0.441677 0.286046 0.946530
Si Si6 0.317294 0.702206 0.384973
Si Si7 0.720773 0.712691 0.830128
Si Si8 0.773670 0.791458 0.013669
O O1 0.718796 0.201058 0.314769
O O2 0.757606 0.294582 0.479350
O O3 0.809563 0.000000 0.366990
O O4 0.866661 0.274551 0.225801
O O5 0.653537 0.500000 0.320734
O O6 0.563372 0.228784 0.357805
O O7 0.695752 0.289514 0.133696
O O8 0.149590 0.730162 0.973032
O O9 0.091030 0.000000 0.915385
O O10 0.000000 0.726066 0.000000
O O11 0.513894 0.500000 0.646060
O O12 0.605162 0.224644 0.605087
O O13 0.477893 0.234428 0.805167
O O14 0.438234 0.500000 0.946827
O O15 0.356418 0.220918 0.046986
O O16 0.500000 0.232979 0.000000
O O17 0.341612 0.500000 0.343323
O O18 0.290599 0.777791 0.286342
O O19 0.721267 0.500000 0.823362
O O20 0.785653 0.757424 0.875485
O O21 0.765175 0.000000 0.035722
#
# Coordination Sequence:
#
# PCOD9142687 Si02
#       8
#     4   4   4   4   4   4   4   4
#     4  10  21  36  52  73 102 129 156 202 260 306
#     4  10  18  31  52  72  95 130 173 216 249 285
#     4   8  16  34  59  80  95 119 157 197 240 298
#     4   9  16  26  45  70  93 127 178 221 241 266
#     4   9  13  22  42  67  91 120 170 224 245 254
#     4  10  20  33  50  71  97 137 183 212 234 279
#     4  10  18  29  49  72  98 135 174 209 242 283
#     4  10  19  30  49  79 108 127 152 202 261 302
#
# _framework density 20.649421
#
# number of rings (size 3 to 8) (size 9 to 14) (size 15 to 20)
#    0.000    2.500    2.500    1.875    0.000    1.000 
#    0.000    3.750    0.000   15.375    0.000    5.250 
#    0.000    0.000    0.000    0.000    0.000    0.000 
#
# Total GULP energy -178238.727480 kJ/mol
# GULP energy per Si atom -5569.960234 kJ/mol
# Density = 2.060242 g / cm^3
# Si number density = 20.649421 Si / 1000 Ang^3
#
#
#
# Elastic Constant Matrix: (Units=GPa)
#
#
# Indices 1 2 3 4 5 6 
#
# 1 79.8382 -1.0412 47.9995 0.0000 -19.2490 0.0000
# 2 -1.0412 50.0613 -5.1423 0.0000 -3.5894 0.0000
# 3 47.9995 -5.1423 106.3426 0.0000 -14.4909 0.0000
# 4 0.0000 0.0000 0.0000 -96.5672 0.0000 -138.9718
# 5 -19.2490 -3.5894 -14.4909 0.0000 27.4775 0.0000
# 6 0.0000 0.0000 0.0000 -138.9718 0.0000 -164.6687
#
#
#
# Elastic Compliance Matrix: (Units=1/GPa)
#
#
# Indices 1 2 3 4 5 6 
#
# 1 0.019296 0.000337 -0.007375 0.000000 0.009672 0.000000
# 2 0.000337 0.020376 0.001323 0.000000 0.003596 0.000000
# 3 -0.007375 0.001323 0.013054 0.000000 0.001891 0.000000
# 4 0.000000 0.000000 0.000000 0.048268 0.000000 -0.040736
# 5 0.009672 0.003596 0.001891 0.000000 0.044636 0.000000
# 6 0.000000 0.000000 0.000000 -0.040736 0.000000 0.028306
#
#
# Mechanical properties :
#
#
# Convention : Reuss Voigt Hill
#
# Bulk Modulus (GPa) = 24.21527 35.54157 29.87842
# Shear Modulus (GPa) = 25.10916 -33.78994 -4.34039
#
# Velocity S-wave (km/s) = 3.49086 -4.04959 -1.45138
# Velocity P-wave (km/s) = 5.29155 2.14855 3.41937
#
# Compressibility (1/GPa) = 0.04129625
#
# Stress axis : x y z
#
# Youngs Moduli (GPa) = 51.82521 49.07671 76.60442
#
# Poissons Ratio (x) = -0.01655 0.56497
# Poissons Ratio (y) = -0.01748 -0.10135
# Poissons Ratio (z) = 0.38222 -0.06493
#
# Static dielectric constant tensor:
#      x y z
#    x 1.823790 0.000000 0.043650 
#    y 0.000000 1.792590 0.000000 
#    z 0.043650 0.000000 1.756980 
# 
# From -- ./inp_files/55296.got.cif
#   From: 2010.05.17/outbox.cif.g08.bks.cpg/sg10_28_cif.got.tgz:55296.got - 2010.06.03 11:33:40.
