data_PCOD9142422
_publ_section_title
;
Structure prediction by ZEFSAII (Michael W. Deem and Ramdas Pophale) SiO2 
 PCOD9142422
Probable space group: P 2/M
;
_chemical_formula_sum "Si O2"
_cell_formula_units_Z 32
_cell_length_a 12.373300
_cell_length_b 11.889249
_cell_length_c 12.687310
_cell_angle_alpha 90.000000
_cell_angle_beta 63.669233
_cell_angle_gamma 90.000000
_cell_volume 1672.776428
_symmetry_space_group_name_H-M "P 2/M"
_symmetry_group_IT_number 10
_symmetry_cell_setting 'monoclinic'
loop_
_space_group_symop_operation_xyz
x,y,z
-x,y,-z
-x,-y,-z
x,-y,z
loop_
_atom_site_type_symbol
_atom_site_label
_atom_site_fract_x
_atom_site_fract_y
_atom_site_fract_z
Si Si1 0.027457 0.125004 0.725246
Si Si2 0.451117 0.188089 0.125349
Si Si3 0.720869 0.128779 0.613664
Si Si4 0.909452 0.698536 0.620241
Si Si5 0.736321 0.372990 0.873632
Si Si6 0.339848 0.863166 0.817318
Si Si7 0.892170 0.232648 0.974303
Si Si8 0.682993 0.871092 0.403200
O O1 0.171532 0.130285 0.670962
O O2 0.984154 0.221058 0.665728
O O3 0.960097 0.149315 0.864046
O O4 0.993420 0.000000 0.702422
O O5 0.360581 0.129579 0.246502
O O6 0.375982 0.293659 0.111110
O O7 0.569199 0.202242 0.145598
O O8 0.500000 0.126411 0.000000
O O9 0.826605 0.215459 0.590308
O O10 0.656072 0.168373 0.533435
O O11 0.761619 0.000000 0.577365
O O12 0.823318 0.627772 0.733221
O O13 0.000000 0.639767 0.500000
O O14 0.699776 0.500000 0.914863
O O15 0.814993 0.318216 0.934460
O O16 0.361668 0.822904 0.687943
O O17 0.357727 0.000000 0.816839
O O18 0.205051 0.833343 0.912900
O O19 0.000000 0.282540 0.000000
O O20 0.641768 0.000000 0.419111
#
# Coordination Sequence:
#
# PCOD9142422 Si02
#       8
#     4   4   4   4   4   4   4   4
#     4  10  18  28  47  81 124 159 184 215 264 337
#     4  11  23  42  58  83 109 152 204 248 296 339
#     4  10  20  33  52  82 122 160 195 231 274 335
#     4  10  19  32  55  86 115 149 189 233 287 349
#     4  10  24  44  62  83 109 142 194 257 311 351
#     4  11  22  36  56  86 125 160 195 230 273 341
#     4  11  21  36  58  87 119 152 189 229 291 354
#     4   9  18  31  50  78 115 163 194 213 260 328
#
# _framework density 19.129873
#
# number of rings (size 3 to 8) (size 9 to 14) (size 15 to 20)
#    0.000    1.750    3.750    1.125    0.000    3.250 
#    0.000    1.875    0.000    0.000    0.000    7.875 
#    0.000    0.000    0.000    0.000    0.000    0.000 
#
# Total GULP energy -178295.635917 kJ/mol
# GULP energy per Si atom -5571.738622 kJ/mol
# Density = 1.908633 g / cm^3
# Si number density = 19.129873 Si / 1000 Ang^3
#
#
#
# Elastic Constant Matrix: (Units=GPa)
#
#
# Indices 1 2 3 4 5 6 
#
# 1 117.6472 34.4928 35.6083 0.0000 15.4671 0.0000
# 2 34.4928 74.0530 15.2447 0.0000 6.6551 0.0000
# 3 35.6083 15.2447 116.7505 0.0000 10.4036 0.0000
# 4 0.0000 0.0000 0.0000 5.8386 0.0000 1.1793
# 5 15.4671 6.6551 10.4036 0.0000 42.0515 0.0000
# 6 0.0000 0.0000 0.0000 1.1793 0.0000 8.1098
#
#
#
# Elastic Compliance Matrix: (Units=1/GPa)
#
#
# Indices 1 2 3 4 5 6 
#
# 1 0.010879 -0.004307 -0.002515 0.000000 -0.002697 0.000000
# 2 -0.004307 0.015715 -0.000673 0.000000 -0.000736 0.000000
# 3 -0.002515 -0.000673 0.009539 0.000000 -0.001328 0.000000
# 4 0.000000 0.000000 0.000000 0.176456 0.000000 -0.025661
# 5 -0.002697 -0.000736 -0.001328 0.000000 0.025218 0.000000
# 6 0.000000 0.000000 0.000000 -0.025661 0.000000 0.127039
#
#
# Mechanical properties :
#
#
# Convention : Reuss Voigt Hill
#
# Bulk Modulus (GPa) = 47.29876 53.23801 50.26839
# Shear Modulus (GPa) = 12.92387 26.07366 19.49876
#
# Velocity S-wave (km/s) = 2.60202 3.69586 3.19609
# Velocity P-wave (km/s) = 5.81430 6.78990 6.32095
#
# Compressibility (1/GPa) = 0.02114220
#
# Stress axis : x y z
#
# Youngs Moduli (GPa) = 91.92339 63.63509 104.83719
#
# Poissons Ratio (x) = 0.27407 0.26369
# Poissons Ratio (y) = 0.39590 0.07053
# Poissons Ratio (z) = 0.23120 0.04281
#
# Static dielectric constant tensor:
#      x y z
#    x 1.701700 0.000000 -0.003920 
#    y 0.000000 1.612000 0.000000 
#    z -0.003920 0.000000 1.727710 
# 
# From -- ./inp_files/46974.got.cif
#   From: 2010.05.17/outbox.cif.g08.bks.cpg/sg10_24_cif.got.tgz:46974.got - 2010.06.03 11:33:40.
