data_PCOD9142622
_publ_section_title
;
Structure prediction by ZEFSAII (Michael W. Deem and Ramdas Pophale) SiO2 
 PCOD9142622
Probable space group: P 2/M
;
_chemical_formula_sum "Si O2"
_cell_formula_units_Z 28
_cell_length_a 15.695190
_cell_length_b 7.490904
_cell_length_c 22.273613
_cell_angle_alpha 90.000000
_cell_angle_beta 23.779629
_cell_angle_gamma 90.000000
_cell_volume 1055.926055
_symmetry_space_group_name_H-M "P 2/M"
_symmetry_group_IT_number 10
_symmetry_cell_setting 'monoclinic'
loop_
_space_group_symop_operation_xyz
x,y,z
-x,y,-z
-x,-y,-z
x,-y,z
loop_
_atom_site_type_symbol
_atom_site_label
_atom_site_fract_x
_atom_site_fract_y
_atom_site_fract_z
Si Si1 0.569047 0.785317 0.320335
Si Si2 0.457420 0.294790 0.091740
Si Si3 0.083714 0.217023 0.203459
Si Si4 0.185980 0.796012 0.728480
Si Si5 0.330389 0.712208 0.294512
Si Si6 0.134236 0.213684 0.540290
Si Si7 0.771241 0.712310 0.068641
O O1 0.638285 0.715695 0.340851
O O2 0.349781 0.719652 0.433500
O O3 0.745154 0.745572 0.156418
O O4 0.552390 0.000000 0.336219
O O5 0.394888 0.500000 0.121790
O O6 0.697857 0.292687 0.961765
O O7 0.500000 0.204411 0.000000
O O8 0.318552 0.212808 0.234594
O O9 0.892212 0.279056 0.284485
O O10 0.047029 0.270417 0.296465
O O11 0.091581 0.000000 0.195086
O O12 0.249136 0.000000 0.675053
O O13 0.972659 0.796416 0.906654
O O14 0.351819 0.500000 0.272901
O O15 0.150493 0.735672 0.460357
O O16 0.548329 0.779364 0.184405
O O17 0.136740 0.000000 0.540077
O O18 0.786354 0.500000 0.049730
#
# Coordination Sequence:
#
# PCOD9142622 Si02
#       7
#     4   4   4   4   4   4   4
#     4   9  18  31  47  70 103 143 183 219 256 302
#     4  10  21  39  62  85 107 133 171 218 268 323
#     4  10  21  36  55  81 110 140 177 219 267 318
#     4  10  19  30  47  72 104 141 179 219 262 307
#     4   9  18  34  55  79 104 136 176 216 262 317
#     4   9  19  35  54  77 108 146 182 216 257 309
#     4  10  18  29  47  72 103 137 177 223 266 306
#
# _framework density 26.517009000000002
#
# number of rings (size 3 to 8) (size 9 to 14) (size 15 to 20)
#    0.000    2.429    1.429    0.857    0.000    4.857 
#    0.000    3.571    0.000    4.286    0.000    6.000 
#    0.000    0.000    0.000    0.000    0.000    0.000 
#
# Total GULP energy -156577.672591 kJ/mol
# GULP energy per Si atom -5592.059735 kJ/mol
# Density = 2.645666 g / cm^3
# Si number density = 26.517009 Si / 1000 Ang^3
#
#
#
# Elastic Constant Matrix: (Units=GPa)
#
#
# Indices 1 2 3 4 5 6 
#
# 1 159.2122 12.9133 43.2640 0.0000 39.9038 0.0000
# 2 12.9133 99.1753 3.0577 0.0000 0.1069 0.0000
# 3 43.2640 3.0577 136.7851 0.0000 21.8465 0.0000
# 4 0.0000 0.0000 0.0000 14.0558 0.0000 -0.7143
# 5 39.9038 0.1069 21.8465 0.0000 52.0191 0.0000
# 6 0.0000 0.0000 0.0000 -0.7143 0.0000 3.9600
#
#
#
# Elastic Compliance Matrix: (Units=1/GPa)
#
#
# Indices 1 2 3 4 5 6 
#
# 1 0.008224 -0.001013 -0.001684 0.000000 -0.005599 0.000000
# 2 -0.001013 0.010215 -0.000031 0.000000 0.000769 0.000000
# 3 -0.001684 -0.000031 0.008187 0.000000 -0.002146 0.000000
# 4 0.000000 0.000000 0.000000 0.071803 0.000000 0.012952
# 5 -0.005599 0.000769 -0.002146 0.000000 0.024419 0.000000
# 6 0.000000 0.000000 0.000000 0.012952 0.000000 0.254864
#
#
# Mechanical properties :
#
#
# Convention : Reuss Voigt Hill
#
# Bulk Modulus (GPa) = 47.23601 57.07140 52.15371
# Shear Modulus (GPa) = 12.81311 36.40280 24.60795
#
# Velocity S-wave (km/s) = 2.20057 3.70916 3.04962
# Velocity P-wave (km/s) = 4.93040 6.31769 5.66666
#
# Compressibility (1/GPa) = 0.02117029
#
# Stress axis : x y z
#
# Youngs Moduli (GPa) = 121.59341 97.89372 122.14589
#
# Poissons Ratio (x) = 0.09915 0.20573
# Poissons Ratio (y) = 0.12316 0.00376
# Poissons Ratio (z) = 0.20480 0.00301
#
# Static dielectric constant tensor:
#      x y z
#    x 2.165570 0.000000 -0.013890 
#    y 0.000000 1.995670 0.000000 
#    z -0.013890 0.000000 2.056160 
# 
# From -- ./inp_files/84887.got.cif
#   From: 2010.05.17/outbox.cif.g08.bks.cpg/sg10_43_cif.got.tgz:84887.got - 2010.06.03 11:33:40.
