data_PCOD9142859
_publ_section_title
;
Structure prediction by ZEFSAII (Michael W. Deem and Ramdas Pophale) SiO2 
 PCOD9142859
Probable space group: P 2/M
;
_chemical_formula_sum "Si O2"
_cell_formula_units_Z 28
_cell_length_a 15.280794
_cell_length_b 7.355703
_cell_length_c 12.336947
_cell_angle_alpha 90.000000
_cell_angle_beta 111.478544
_cell_angle_gamma 90.000000
_cell_volume 1290.386276
_symmetry_space_group_name_H-M "P 2/M"
_symmetry_group_IT_number 10
_symmetry_cell_setting 'monoclinic'
loop_
_space_group_symop_operation_xyz
x,y,z
-x,y,-z
-x,-y,-z
x,-y,z
loop_
_atom_site_type_symbol
_atom_site_label
_atom_site_fract_x
_atom_site_fract_y
_atom_site_fract_z
Si Si1 0.780468 0.293667 0.726023
Si Si2 0.080335 0.277872 0.387665
Si Si3 0.454725 0.281116 0.755234
Si Si4 0.309953 0.278125 0.866369
Si Si5 0.129377 0.278846 0.648797
Si Si6 0.668090 0.277176 0.876376
Si Si7 0.601293 0.788467 0.507097
O O1 0.809955 0.500000 0.764704
O O2 0.863432 0.211355 0.691467
O O3 0.742751 0.213008 0.821079
O O4 0.689306 0.299435 0.606235
O O5 0.083141 0.500000 0.387484
O O6 0.129361 0.222041 0.522918
O O7 0.971296 0.225099 0.347031
O O8 0.456947 0.500000 0.758635
O O9 0.401093 0.220976 0.838991
O O10 0.562377 0.218651 0.797678
O O11 0.398155 0.228498 0.622047
O O12 0.310279 0.500000 0.867427
O O13 0.217784 0.218840 0.758966
O O14 0.311376 0.221293 0.991588
O O15 0.130946 0.500000 0.648844
O O16 0.668261 0.500000 0.872863
O O17 0.500000 0.714605 0.500000
O O18 0.604649 0.000000 0.538962
#
# Coordination Sequence:
#
# PCOD9142859 Si02
#       7
#     4   4   4   4   4   4   4
#     4  10  18  30  48  69  93 122 155 188 227 272
#     4   8  14  24  41  65  90 118 151 187 228 272
#     4  10  18  30  49  69  90 122 158 190 226 269
#     4   9  16  26  43  68  95 123 155 190 229 267
#     4   8  13  23  38  61  94 122 147 186 232 271
#     4   9  17  27  41  65  95 122 154 194 225 262
#     4  11  22  33  46  67  96 122 148 187 232 277
#
# _framework density 21.698929
#
# number of rings (size 3 to 8) (size 9 to 14) (size 15 to 20)
#    0.000    2.714    1.429    2.571    0.000    4.571 
#    0.000    0.714    0.000    6.857    0.000    8.000 
#    0.000    1.143    0.000    0.000    0.000    0.000 
#
# Total GULP energy -156402.962578 kJ/mol
# GULP energy per Si atom -5585.820092 kJ/mol
# Density = 2.164954 g / cm^3
# Si number density = 21.698929 Si / 1000 Ang^3
#
#
#
# Elastic Constant Matrix: (Units=GPa)
#
#
# Indices 1 2 3 4 5 6 
#
# 1 117.1197 2.8035 42.7444 0.0000 -44.4343 0.0000
# 2 2.8035 82.4723 -3.4390 0.0000 -2.0070 0.0000
# 3 42.7444 -3.4390 89.6212 0.0000 -37.0501 0.0000
# 4 0.0000 0.0000 0.0000 -91.4930 0.0000 9.9294
# 5 -44.4343 -2.0070 -37.0501 0.0000 42.4104 0.0000
# 6 0.0000 0.0000 0.0000 9.9294 0.0000 -17.5430
#
#
#
# Elastic Compliance Matrix: (Units=1/GPa)
#
#
# Indices 1 2 3 4 5 6 
#
# 1 0.014228 -0.000184 -0.000992 0.000000 0.014032 0.000000
# 2 -0.000184 0.012211 0.001120 0.000000 0.001364 0.000000
# 3 -0.000992 0.001120 0.017636 0.000000 0.014420 0.000000
# 4 0.000000 0.000000 0.000000 -0.011645 0.000000 -0.006591
# 5 0.014032 0.001364 0.014420 0.000000 0.050942 0.000000
# 6 0.000000 0.000000 0.000000 -0.006591 0.000000 -0.060734
#
#
# Mechanical properties :
#
#
# Convention : Reuss Voigt Hill
#
# Bulk Modulus (GPa) = 22.74608 41.49233 32.11921
# Shear Modulus (GPa) = 133.66997 3.14851 68.40924
#
# Velocity S-wave (km/s) = 7.85722 1.20588 5.62094
# Velocity P-wave (km/s) = 9.63430 4.59371 7.54725
#
# Compressibility (1/GPa) = 0.04396362
#
# Stress axis : x y z
#
# Youngs Moduli (GPa) = 70.28204 81.89051 56.70330
#
# Poissons Ratio (x) = 0.01503 0.05627
# Poissons Ratio (y) = 0.01290 -0.06351
# Poissons Ratio (z) = 0.06975 -0.09172
#
# Static dielectric constant tensor:
#      x y z
#    x 1.778910 0.000000 -0.026740 
#    y 0.000000 1.851760 0.000000 
#    z -0.026740 0.000000 1.739940 
# 
# From -- ./inp_files/49343.got.cif
#   From: 2010.05.17/outbox.cif.g08.bks.cpg/sg10_25_cif.got.tgz:49343.got - 2010.06.03 11:33:40.
