data_PCOD9142470
_publ_section_title
;
Structure prediction by ZEFSAII (Michael W. Deem and Ramdas Pophale) SiO2 
 PCOD9142470
Probable space group: P 2/M
;
_chemical_formula_sum "Si O2"
_cell_formula_units_Z 32
_cell_length_a 32.153624
_cell_length_b 7.629788
_cell_length_c 15.627897
_cell_angle_alpha 90.000000
_cell_angle_beta 28.666744
_cell_angle_gamma 90.000000
_cell_volume 1839.185789
_symmetry_space_group_name_H-M "P 2/M"
_symmetry_group_IT_number 10
_symmetry_cell_setting 'monoclinic'
loop_
_space_group_symop_operation_xyz
x,y,z
-x,y,-z
-x,-y,-z
x,-y,z
loop_
_atom_site_type_symbol
_atom_site_label
_atom_site_fract_x
_atom_site_fract_y
_atom_site_fract_z
Si Si1 0.105431 0.710176 0.222219
Si Si2 0.703709 0.209647 0.168872
Si Si3 0.578157 0.784680 0.544669
Si Si4 0.387238 0.794430 0.838745
Si Si5 0.914830 0.714005 0.544441
Si Si6 0.740888 0.293509 0.777532
Si Si7 0.374618 0.789043 0.168112
Si Si8 0.564453 0.786128 0.761466
O O1 0.101275 0.500000 0.232261
O O2 0.108717 0.767959 0.315761
O O3 0.013552 0.772803 0.350000
O O4 0.193962 0.757061 0.015950
O O5 0.650701 0.273967 0.346660
O O6 0.661351 0.279766 0.156963
O O7 0.693541 0.000000 0.186145
O O8 0.482965 0.724058 0.685641
O O9 0.591858 0.728196 0.617920
O O10 0.577476 0.000000 0.546802
O O11 0.400570 0.000000 0.797379
O O12 0.326599 0.781156 0.031401
O O13 0.916205 0.500000 0.540075
O O14 0.837574 0.773975 0.622457
O O15 0.741750 0.500000 0.792487
O O16 0.704629 0.264412 0.748311
O O17 0.379120 0.729392 0.258517
O O18 0.376273 0.000000 0.165934
O O19 0.465133 0.732293 0.960408
O O20 0.564672 0.000000 0.760940
#
# Coordination Sequence:
#
# PCOD9142470 Si02
#       8
#     4   4   4   4   4   4   4   4
#     4   9  16  31  48  60  81 116 150 178 211 262
#     4  10  19  28  43  68  91 113 147 187 218 243
#     4   9  16  28  45  63  87 121 153 176 206 253
#     4  10  18  29  43  61  89 123 153 175 201 251
#     4   8  16  29  46  62  81 115 151 174 209 269
#     4  11  19  28  44  67  90 114 143 180 221 259
#     4   9  16  28  46  66  85 111 149 182 213 257
#     4   8  14  26  46  65  83 114 152 180 203 254
#
# _framework density 17.399004000000001
#
# number of rings (size 3 to 8) (size 9 to 14) (size 15 to 20)
#    0.000    2.750    2.500    2.250    0.000    1.500 
#    0.000    4.375    0.000    1.500    0.000    0.875 
#    0.000    7.000    0.000    0.000    0.000    0.000 
#
# Total GULP energy -178376.962386 kJ/mol
# GULP energy per Si atom -5574.280075 kJ/mol
# Density = 1.735940 g / cm^3
# Si number density = 17.399004 Si / 1000 Ang^3
#
#
#
# Elastic Constant Matrix: (Units=GPa)
#
#
# Indices 1 2 3 4 5 6 
#
# 1 142.6795 1.1221 92.7838 0.0000 -18.5975 0.0000
# 2 1.1221 28.1893 2.6958 0.0000 0.1382 0.0000
# 3 92.7838 2.6958 132.5085 0.0000 -12.2415 0.0000
# 4 0.0000 0.0000 0.0000 12.3447 0.0000 -4.9151
# 5 -18.5975 0.1382 -12.2415 0.0000 23.6603 0.0000
# 6 0.0000 0.0000 0.0000 -4.9151 0.0000 10.0503
#
#
#
# Elastic Compliance Matrix: (Units=1/GPa)
#
#
# Indices 1 2 3 4 5 6 
#
# 1 0.013654 0.000288 -0.009006 0.000000 0.006071 0.000000
# 2 0.000288 0.035558 -0.000970 0.000000 -0.000483 0.000000
# 3 -0.009006 -0.000970 0.013883 0.000000 0.000109 0.000000
# 4 0.000000 0.000000 0.000000 0.100593 0.000000 0.049195
# 5 0.006071 -0.000483 0.000109 0.000000 0.047097 0.000000
# 6 0.000000 0.000000 0.000000 0.049195 0.000000 0.123558
#
#
# Mechanical properties :
#
#
# Convention : Reuss Voigt Hill
#
# Bulk Modulus (GPa) = 22.87291 55.17565 39.02428
# Shear Modulus (GPa) = 13.57624 22.99610 18.28617
#
# Velocity S-wave (km/s) = 2.79639 3.63945 3.24541
# Velocity P-wave (km/s) = 4.85809 7.03147 6.04329
#
# Compressibility (1/GPa) = 0.04371984
#
# Stress axis : x y z
#
# Youngs Moduli (GPa) = 73.23716 28.12295 72.03313
#
# Poissons Ratio (x) = -0.00810 0.64872
# Poissons Ratio (y) = -0.02109 0.06985
# Poissons Ratio (z) = 0.65956 0.02727
#
# Static dielectric constant tensor:
#      x y z
#    x 1.609410 0.000000 -0.017100 
#    y 0.000000 1.658670 0.000000 
#    z -0.017100 0.000000 1.575120 
# 
# From -- ./inp_files/66008.got.cif
#   From: 2010.05.17/outbox.cif.g08.bks.cpg/sg10_34_cif.got.tgz:66008.got - 2010.06.03 11:33:40.
