data_PCOD9142963
_publ_section_title
;
Structure prediction by ZEFSAII (Michael W. Deem and Ramdas Pophale) SiO2 
 PCOD9142963
Probable space group: P 2/M
;
_chemical_formula_sum "Si O2"
_cell_formula_units_Z 32
_cell_length_a 12.054334
_cell_length_b 7.556817
_cell_length_c 19.225984
_cell_angle_alpha 90.000000
_cell_angle_beta 115.042972
_cell_angle_gamma 90.000000
_cell_volume 1586.698381
_symmetry_space_group_name_H-M "P 2/M"
_symmetry_group_IT_number 10
_symmetry_cell_setting 'monoclinic'
loop_
_space_group_symop_operation_xyz
x,y,z
-x,y,-z
-x,-y,-z
x,-y,z
loop_
_atom_site_type_symbol
_atom_site_label
_atom_site_fract_x
_atom_site_fract_y
_atom_site_fract_z
Si Si1 0.061007 0.212241 0.746765
Si Si2 0.279557 0.792180 0.710386
Si Si3 0.190607 0.216804 0.389035
Si Si4 0.442969 0.709003 0.202913
Si Si5 0.695248 0.216595 0.439348
Si Si6 0.580114 0.787283 0.641360
Si Si7 0.964882 0.288383 0.098408
Si Si8 0.195994 0.716784 0.072209
O O1 0.180609 0.281171 0.738009
O O2 0.059185 0.247473 0.828244
O O3 0.936631 0.278019 0.677501
O O4 0.059911 0.000000 0.739833
O O5 0.420122 0.778383 0.772014
O O6 0.272978 0.719622 0.629826
O O7 0.252875 0.000000 0.696263
O O8 0.215506 0.270514 0.475060
O O9 0.305859 0.277016 0.373240
O O10 0.190128 0.000000 0.387645
O O11 0.450495 0.500000 0.194180
O O12 0.408755 0.742400 0.274399
O O13 0.331823 0.779452 0.126657
O O14 0.555169 0.272159 0.417914
O O15 0.694615 0.000000 0.437723
O O16 0.579882 0.000000 0.635430
O O17 0.967315 0.500000 0.092469
O O18 0.096852 0.226986 0.104336
O O19 0.861030 0.226303 0.016620
O O20 0.199481 0.500000 0.073786
#
# Coordination Sequence:
#
# PCOD9142963 Si02
#       8
#     4   4   4   4   4   4   4   4
#     4  10  20  32  46  69  98 123 154 196 234 268
#     4   9  19  34  48  64  92 127 160 195 231 266
#     4   9  16  26  45  71  95 121 155 193 229 271
#     4  10  18  30  50  72  92 118 156 194 227 271
#     4   8  14  26  45  67  90 122 160 191 223 267
#     4   9  16  27  45  71 100 123 146 184 235 283
#     4   9  17  33  54  72  95 124 149 180 228 281
#     4   8  16  31  52  76  96 117 150 188 224 272
#
# _framework density 20.167666000000001
#
# number of rings (size 3 to 8) (size 9 to 14) (size 15 to 20)
#    0.000    3.000    0.000    3.000    0.000    2.500 
#    0.000    6.250    0.000   12.750    0.000    4.375 
#    0.000    0.000    0.000    0.000    0.000    0.000 
#
# Total GULP energy -178492.824895 kJ/mol
# GULP energy per Si atom -5577.900778 kJ/mol
# Density = 2.012176 g / cm^3
# Si number density = 20.167666 Si / 1000 Ang^3
#
#
#
# Elastic Constant Matrix: (Units=GPa)
#
#
# Indices 1 2 3 4 5 6 
#
# 1 164.5755 1.6946 123.9615 0.0000 -10.6775 0.0000
# 2 1.6946 41.8744 -4.3465 0.0000 -4.3793 0.0000
# 3 123.9615 -4.3465 172.6280 0.0000 7.4024 0.0000
# 4 0.0000 0.0000 0.0000 22.3070 0.0000 -3.8081
# 5 -10.6775 -4.3793 7.4024 0.0000 9.9693 0.0000
# 6 0.0000 0.0000 0.0000 -3.8081 0.0000 8.7304
#
#
#
# Elastic Compliance Matrix: (Units=1/GPa)
#
#
# Indices 1 2 3 4 5 6 
#
# 1 0.020430 0.001090 -0.016115 0.000000 0.034327 0.000000
# 2 0.001090 0.025094 -0.000696 0.000000 0.012708 0.000000
# 3 -0.016115 -0.000696 0.018696 0.000000 -0.031448 0.000000
# 4 0.000000 0.000000 0.000000 0.048436 0.000000 0.021127
# 5 0.034327 0.012708 -0.031448 0.000000 0.166006 0.000000
# 6 0.000000 0.000000 0.000000 0.021127 0.000000 0.123757
#
#
# Mechanical properties :
#
#
# Convention : Reuss Voigt Hill
#
# Bulk Modulus (GPa) = 30.50831 69.07746 49.79289
# Shear Modulus (GPa) = 11.24133 25.38588 18.31361
#
# Velocity S-wave (km/s) = 2.36348 3.55172 3.01669
# Velocity P-wave (km/s) = 4.75481 7.15162 6.07264
#
# Compressibility (1/GPa) = 0.03277795
#
# Stress axis : x y z
#
# Youngs Moduli (GPa) = 48.94667 39.85084 53.48768
#
# Poissons Ratio (x) = -0.04345 0.86197
# Poissons Ratio (y) = -0.05337 0.03723
# Poissons Ratio (z) = 0.78879 0.02774
#
# Static dielectric constant tensor:
#      x y z
#    x 1.662170 0.000000 0.018740 
#    y 0.000000 1.774730 0.000000 
#    z 0.018740 0.000000 1.702050 
# 
# From -- ./inp_files/83400.got.cif
#   From: 2010.05.17/outbox.cif.g08.bks.cpg/sg10_42_cif.got.tgz:83400.got - 2010.06.03 11:33:40.
