data_PCOD9142851
_publ_section_title
;
Structure prediction by ZEFSAII (Michael W. Deem and Ramdas Pophale) SiO2 
 PCOD9142851
Probable space group: P 2/M
;
_chemical_formula_sum "Si O2"
_cell_formula_units_Z 32
_cell_length_a 22.848064
_cell_length_b 7.652174
_cell_length_c 16.997383
_cell_angle_alpha 90.000000
_cell_angle_beta 32.000977
_cell_angle_gamma 90.000000
_cell_volume 1574.845169
_symmetry_space_group_name_H-M "P 2/M"
_symmetry_group_IT_number 10
_symmetry_cell_setting 'monoclinic'
loop_
_space_group_symop_operation_xyz
x,y,z
-x,y,-z
-x,-y,-z
x,-y,z
loop_
_atom_site_type_symbol
_atom_site_label
_atom_site_fract_x
_atom_site_fract_y
_atom_site_fract_z
Si Si1 0.870374 0.802146 0.919241
Si Si2 0.290335 0.216266 0.025143
Si Si3 0.067806 0.301901 0.592205
Si Si4 0.982181 0.785728 0.109560
Si Si5 0.614049 0.297689 0.823381
Si Si6 0.541141 0.801223 0.737354
Si Si7 0.225883 0.788024 0.551655
Si Si8 0.179872 0.198607 0.309684
O O1 0.768636 0.724767 0.987532
O O2 0.970259 0.809097 0.741741
O O3 0.923582 0.723478 0.936996
O O4 0.837860 0.000000 0.976687
O O5 0.216600 0.276769 0.183900
O O6 0.290087 0.000000 0.029890
O O7 0.417910 0.275348 0.880513
O O8 0.034081 0.500000 0.643395
O O9 0.175163 0.265980 0.524587
O O10 0.093550 0.275869 0.470921
O O11 0.865170 0.733316 0.280725
O O12 0.983968 0.000000 0.109189
O O13 0.000000 0.730086 0.000000
O O14 0.648074 0.500000 0.770088
O O15 0.585114 0.201025 0.776383
O O16 0.706236 0.206785 0.770728
O O17 0.500000 0.302503 0.000000
O O18 0.650244 0.722049 0.572054
O O19 0.769795 0.000000 0.454050
O O20 0.471990 0.000000 0.276633
O O21 0.145127 0.000000 0.335520
#
# Coordination Sequence:
#
# PCOD9142851 Si02
#       8
#     4   4   4   4   4   4   4   4
#     4   9  18  35  53  69  93 126 164 199 240 294
#     4   9  19  32  48  68  90 127 173 209 236 278
#     4  11  21  32  47  69  97 126 161 209 256 288
#     4   8  14  27  51  79  99 119 152 195 244 294
#     4  11  21  30  42  66  97 128 165 211 252 280
#     4  10  18  30  48  68  92 126 169 206 238 281
#     4   9  17  29  49  74  98 126 158 197 242 289
#     4  11  20  31  47  66  90 127 173 210 244 283
#
# _framework density 20.319458000000001
#
# number of rings (size 3 to 8) (size 9 to 14) (size 15 to 20)
#    0.000    2.250    2.500    2.625    0.000    1.000 
#    0.000    4.375    0.000    6.750    0.000    5.250 
#    0.000    0.000    0.000   10.125    0.000   11.250 
#
# Total GULP energy -178417.602106 kJ/mol
# GULP energy per Si atom -5575.550066 kJ/mol
# Density = 2.027321 g / cm^3
# Si number density = 20.319458 Si / 1000 Ang^3
#
#
#
# Elastic Constant Matrix: (Units=GPa)
#
#
# Indices 1 2 3 4 5 6 
#
# 1 115.3870 -7.1363 51.4887 0.0000 11.9176 0.0000
# 2 -7.1363 54.5962 -0.7525 0.0000 3.4988 0.0000
# 3 51.4887 -0.7525 81.1793 0.0000 19.4604 0.0000
# 4 0.0000 0.0000 0.0000 -0.6856 0.0000 -6.0788
# 5 11.9176 3.4988 19.4604 0.0000 24.8317 0.0000
# 6 0.0000 0.0000 0.0000 -6.0788 0.0000 -31.5018
#
#
#
# Elastic Compliance Matrix: (Units=1/GPa)
#
#
# Indices 1 2 3 4 5 6 
#
# 1 0.012207 0.001490 -0.007725 0.000000 -0.000014 0.000000
# 2 0.001490 0.018729 0.000040 0.000000 -0.003385 0.000000
# 3 -0.007725 0.000040 0.020109 0.000000 -0.012057 0.000000
# 4 0.000000 0.000000 0.000000 2.051535 0.000000 -0.395881
# 5 -0.000014 -0.003385 -0.012057 0.000000 0.050204 0.000000
# 6 0.000000 0.000000 0.000000 -0.395881 0.000000 0.044648
#
#
# Mechanical properties :
#
#
# Convention : Reuss Voigt Hill
#
# Bulk Modulus (GPa) = 25.87016 37.59582 31.73299
# Shear Modulus (GPa) = 2.24951 12.36636 7.30793
#
# Velocity S-wave (km/s) = 1.05332 2.46965 1.89851
# Velocity P-wave (km/s) = 3.77341 5.16476 4.52291
#
# Compressibility (1/GPa) = 0.03865458
#
# Stress axis : x y z
#
# Youngs Moduli (GPa) = 81.91754 53.39437 49.72877
#
# Poissons Ratio (x) = -0.07956 0.38417
# Poissons Ratio (y) = -0.12206 -0.00199
# Poissons Ratio (z) = 0.63285 -0.00214
#
# Static dielectric constant tensor:
#      x y z
#    x 1.715330 0.000000 -0.029660 
#    y 0.000000 1.784490 0.000000 
#    z -0.029660 0.000000 1.771350 
# 
# From -- ./inp_files/54873.got.cif
#   From: 2010.05.17/outbox.cif.g08.bks.cpg/sg10_28_cif.got.tgz:54873.got - 2010.06.03 11:33:40.
