data_PCOD9142555
_publ_section_title
;
Structure prediction by ZEFSAII (Michael W. Deem and Ramdas Pophale) SiO2 
 PCOD9142555
Probable space group: P 2/M
;
_chemical_formula_sum "Si O2"
_cell_formula_units_Z 32
_cell_length_a 19.692692
_cell_length_b 17.405561
_cell_length_c 14.913089
_cell_angle_alpha 90.000000
_cell_angle_beta 157.384947
_cell_angle_gamma 90.000000
_cell_volume 1965.621202
_symmetry_space_group_name_H-M "P 2/M"
_symmetry_group_IT_number 10
_symmetry_cell_setting 'monoclinic'
loop_
_space_group_symop_operation_xyz
x,y,z
-x,y,-z
-x,-y,-z
x,-y,z
loop_
_atom_site_type_symbol
_atom_site_label
_atom_site_fract_x
_atom_site_fract_y
_atom_site_fract_z
Si Si1 0.508108 0.414318 0.617962
Si Si2 0.288369 0.911032 0.743427
Si Si3 0.107055 0.088971 0.212521
Si Si4 0.006480 0.158294 0.281214
Si Si5 0.728721 0.266851 0.871924
Si Si6 0.792001 0.302398 0.741304
Si Si7 0.434946 0.826685 0.607686
Si Si8 0.289056 0.910957 0.950376
O O1 0.500000 0.418617 0.500000
O O2 0.542678 0.500000 0.694709
O O3 0.652133 0.348165 0.813946
O O4 0.318097 0.379627 0.412518
O O5 0.185163 0.850639 0.556169
O O6 0.230289 0.903158 0.775992
O O7 0.250552 0.000000 0.667949
O O8 0.500000 0.902252 0.000000
O O9 0.051361 0.124040 0.238994
O O10 0.312232 0.100617 0.439371
O O11 0.063388 0.000000 0.164941
O O12 0.000000 0.125612 0.000000
O O13 0.865361 0.109413 0.167825
O O14 0.907139 0.238346 0.137747
O O15 0.744477 0.273878 0.784168
O O16 0.580484 0.203105 0.715042
O O17 0.712576 0.240829 0.573788
O O18 0.000000 0.313617 0.000000
O O19 0.550431 0.852292 0.833657
O O20 0.344248 0.000000 0.029386
#
# Coordination Sequence:
#
# PCOD9142555 Si02
#       8
#     4   4   4   4   4   4   4   4
#     4   8  15  29  47  68  96 125 153 187 227 278
#     4  10  20  33  49  68  90 119 157 204 257 301
#     4  11  22  32  44  64  90 125 167 207 243 280
#     4  11  20  33  49  66  93 122 157 201 248 293
#     4   9  19  31  47  69  91 124 159 189 235 288
#     4  10  18  29  46  68  95 126 158 192 235 284
#     4  10  18  30  45  60  87 121 157 195 234 278
#     4  10  20  32  47  66  87 117 159 206 255 298
#
# _framework density 16.279841000000001
#
# number of rings (size 3 to 8) (size 9 to 14) (size 15 to 20)
#    0.000    2.125    0.000    5.625    0.000    3.250 
#    0.000    0.000    0.000    7.500    0.000    0.000 
#    0.000   18.500    0.000    0.000    0.000   57.125 
#
# Total GULP energy -178139.164428 kJ/mol
# GULP energy per Si atom -5566.848888 kJ/mol
# Density = 1.624279 g / cm^3
# Si number density = 16.279841 Si / 1000 Ang^3
#
#
#
# Elastic Constant Matrix: (Units=GPa)
#
#
# Indices 1 2 3 4 5 6 
#
# 1 69.9995 29.2329 24.4999 0.0000 -1.1620 0.0000
# 2 29.2329 79.2991 43.2855 0.0000 0.7208 0.0000
# 3 24.4999 43.2855 101.2892 0.0000 1.9863 0.0000
# 4 0.0000 0.0000 0.0000 15.6396 0.0000 0.8660
# 5 -1.1620 0.7208 1.9863 0.0000 21.5303 0.0000
# 6 0.0000 0.0000 0.0000 0.8660 0.0000 9.1487
#
#
#
# Elastic Compliance Matrix: (Units=1/GPa)
#
#
# Indices 1 2 3 4 5 6 
#
# 1 0.017193 -0.005303 -0.001918 0.000000 0.001282 0.000000
# 2 -0.005303 0.018083 -0.006439 0.000000 -0.000298 0.000000
# 3 -0.001918 -0.006439 0.013110 0.000000 -0.001097 0.000000
# 4 0.000000 0.000000 0.000000 0.064277 0.000000 -0.006084
# 5 0.001282 -0.000298 -0.001097 0.000000 0.046627 0.000000
# 6 0.000000 0.000000 0.000000 -0.006084 0.000000 0.109881
#
#
# Mechanical properties :
#
#
# Convention : Reuss Voigt Hill
#
# Bulk Modulus (GPa) = 47.46930 49.40270 48.43600
# Shear Modulus (GPa) = 16.47384 19.50168 17.98776
#
# Velocity S-wave (km/s) = 3.18451 3.46483 3.32762
# Velocity P-wave (km/s) = 6.53782 6.81312 6.67689
#
# Compressibility (1/GPa) = 0.02106625
#
# Stress axis : x y z
#
# Youngs Moduli (GPa) = 58.16371 55.30096 76.27890
#
# Poissons Ratio (x) = 0.29326 0.14627
# Poissons Ratio (y) = 0.30844 0.49117
# Poissons Ratio (z) = 0.11153 0.35609
#
# Static dielectric constant tensor:
#      x y z
#    x 1.564290 0.000000 0.033780 
#    y 0.000000 1.562000 0.000000 
#    z 0.033780 0.000000 1.596930 
# 
# From -- ./inp_files/70882.got.cif
#   From: 2010.05.17/outbox.cif.g08.bks.cpg/sg10_36_cif.got.tgz:70882.got - 2010.06.03 11:33:40.
