data_PCOD9142602
_publ_section_title
;
Structure prediction by ZEFSAII (Michael W. Deem and Ramdas Pophale) SiO2 
 PCOD9142602
Probable space group: P 2/M
;
_chemical_formula_sum "Si O2"
_cell_formula_units_Z 32
_cell_length_a 31.395909
_cell_length_b 8.737198
_cell_length_c 21.862725
_cell_angle_alpha 90.000000
_cell_angle_beta 160.507037
_cell_angle_gamma 90.000000
_cell_volume 2001.216764
_symmetry_space_group_name_H-M "P 2/M"
_symmetry_group_IT_number 10
_symmetry_cell_setting 'monoclinic'
loop_
_space_group_symop_operation_xyz
x,y,z
-x,y,-z
-x,-y,-z
x,-y,z
loop_
_atom_site_type_symbol
_atom_site_label
_atom_site_fract_x
_atom_site_fract_y
_atom_site_fract_z
Si Si1 0.458740 0.815966 0.536022
Si Si2 0.693363 0.317516 0.781723
Si Si3 0.625954 0.184579 0.442185
Si Si4 0.629413 0.322829 0.134171
Si Si5 0.078458 0.813689 0.165548
Si Si6 0.542195 0.316348 0.204330
Si Si7 0.771144 0.818031 0.433316
Si Si8 0.030552 0.184825 0.849751
O O1 0.354062 0.747617 0.347919
O O2 0.593831 0.751969 0.695703
O O3 0.427056 0.775232 0.562826
O O4 0.457095 0.000000 0.527971
O O5 0.683267 0.500000 0.767994
O O6 0.836821 0.262931 0.987141
O O7 0.773974 0.234613 0.637154
O O8 0.548022 0.255285 0.280729
O O9 0.623577 0.000000 0.433337
O O10 0.669317 0.500000 0.183628
O O11 0.732528 0.230738 0.312657
O O12 0.500000 0.319466 0.000000
O O13 0.580075 0.265566 0.001664
O O14 0.012652 0.769472 0.140118
O O15 0.079002 0.000000 0.165060
O O16 0.000000 0.761275 0.000000
O O17 0.543114 0.500000 0.204256
O O18 0.668825 0.257725 0.340731
O O19 0.913420 0.775297 0.646491
O O20 0.758497 0.000000 0.423074
O O21 0.046458 0.000000 0.870678
#
# Coordination Sequence:
#
# PCOD9142602 Si02
#       8
#     4   4   4   4   4   4   4   4
#     4  10  20  36  57  74  94 126 166 209 253 291
#     4  11  22  35  52  73  99 127 165 210 248 290
#     4  10  19  32  51  74  96 126 166 204 241 288
#     4   8  16  29  43  63  94 132 165 192 236 292
#     4   9  16  28  46  67  94 126 158 194 237 286
#     4  10  19  30  45  67 101 136 160 194 242 294
#     4  10  18  29  47  70  96 128 166 208 241 280
#     4  10  19  32  49  70  99 130 164 202 244 291
#
# _framework density 15.990271999999999
#
# number of rings (size 3 to 8) (size 9 to 14) (size 15 to 20)
#    0.000    2.250    1.250    4.500    0.000    6.750 
#    0.000    0.000    0.000    1.500    0.000    0.875 
#    0.000    7.000    0.000    0.000    0.000    0.000 
#
# Total GULP energy -178476.667584 kJ/mol
# GULP energy per Si atom -5577.395862 kJ/mol
# Density = 1.595388 g / cm^3
# Si number density = 15.990272 Si / 1000 Ang^3
#
#
#
# Elastic Constant Matrix: (Units=GPa)
#
#
# Indices 1 2 3 4 5 6 
#
# 1 59.1101 21.7071 44.5962 0.0000 -8.9851 0.0000
# 2 21.7071 40.4055 32.0089 0.0000 -1.1304 0.0000
# 3 44.5962 32.0089 109.3667 0.0000 -12.6514 0.0000
# 4 0.0000 0.0000 0.0000 -178.9326 0.0000 -21.6527
# 5 -8.9851 -1.1304 -12.6514 0.0000 19.8756 0.0000
# 6 0.0000 0.0000 0.0000 -21.6527 0.0000 13.1025
#
#
#
# Elastic Compliance Matrix: (Units=1/GPa)
#
#
# Indices 1 2 3 4 5 6 
#
# 1 0.026754 -0.008014 -0.007791 0.000000 0.006680 0.000000
# 2 -0.008014 0.034997 -0.007733 0.000000 -0.006555 0.000000
# 3 -0.007791 -0.007733 0.015248 0.000000 0.005744 0.000000
# 4 0.000000 0.000000 0.000000 -0.004657 0.000000 -0.007697
# 5 0.006680 -0.006555 0.005744 0.000000 0.056616 0.000000
# 6 0.000000 0.000000 0.000000 -0.007697 0.000000 0.063602
#
#
# Mechanical properties :
#
#
# Convention : Reuss Voigt Hill
#
# Bulk Modulus (GPa) = 33.41953 45.05629 39.23791
# Shear Modulus (GPa) = 20.03104 -21.81959 -0.89427
#
# Velocity S-wave (km/s) = 3.54319 -3.69799 -0.74865
# Velocity P-wave (km/s) = 6.13875 3.16306 4.88309
#
# Compressibility (1/GPa) = 0.02992263
#
# Stress axis : x y z
#
# Youngs Moduli (GPa) = 37.37731 28.57362 65.58087
#
# Poissons Ratio (x) = 0.22899 0.51096
# Poissons Ratio (y) = 0.29955 0.50715
# Poissons Ratio (z) = 0.29122 0.22097
#
# Static dielectric constant tensor:
#      x y z
#    x 1.526070 0.000000 -0.022460 
#    y 0.000000 1.539750 0.000000 
#    z -0.022460 0.000000 1.535210 
# 
# From -- ./inp_files/87227.got.cif
#   From: 2010.05.17/outbox.cif.g08.bks.cpg/sg10_44_cif.got.tgz:87227.got - 2010.06.03 11:33:40.
