data_PCOD9142540
_publ_section_title
;
Structure prediction by ZEFSAII (Michael W. Deem and Ramdas Pophale) SiO2 
 PCOD9142540
Probable space group: P 2/M
;
_chemical_formula_sum "Si O2"
_cell_formula_units_Z 32
_cell_length_a 24.124881
_cell_length_b 8.922555
_cell_length_c 11.544667
_cell_angle_alpha 90.000000
_cell_angle_beta 53.640290
_cell_angle_gamma 90.000000
_cell_volume 2001.241010
_symmetry_space_group_name_H-M "P 2/M"
_symmetry_group_IT_number 10
_symmetry_cell_setting 'monoclinic'
loop_
_space_group_symop_operation_xyz
x,y,z
-x,y,-z
-x,-y,-z
x,-y,z
loop_
_atom_site_type_symbol
_atom_site_label
_atom_site_fract_x
_atom_site_fract_y
_atom_site_fract_z
Si Si1 0.399612 0.320305 0.682600
Si Si2 0.533671 0.181005 0.623882
Si Si3 0.869426 0.672395 0.829803
Si Si4 0.149711 0.327774 0.426418
Si Si5 0.708682 0.179897 0.785859
Si Si6 0.272565 0.178472 0.965053
Si Si7 0.009534 0.172958 0.628498
Si Si8 0.433278 0.182178 0.153564
O O1 0.405220 0.500000 0.674380
O O2 0.458141 0.248902 0.693363
O O3 0.417920 0.252263 0.534333
O O4 0.325953 0.265943 0.818768
O O5 0.558632 0.218976 0.721628
O O6 0.531037 0.000000 0.614624
O O7 0.864225 0.500000 0.873137
O O8 0.861194 0.675586 0.699807
O O9 0.944607 0.739300 0.760965
O O10 0.805825 0.768496 0.956024
O O11 0.150911 0.500000 0.461466
O O12 0.223100 0.250461 0.354344
O O13 0.083726 0.244645 0.560846
O O14 0.638196 0.233320 0.814420
O O15 0.713210 0.000000 0.769325
O O16 0.709161 0.212858 0.922867
O O17 0.278992 0.000000 0.940696
O O18 0.000000 0.177945 0.500000
O O19 0.007690 0.000000 0.665352
O O20 0.433001 0.000000 0.146175
O O21 0.500000 0.235216 0.000000
#
# Coordination Sequence:
#
# PCOD9142540 Si02
#       8
#     4   4   4   4   4   4   4   4
#     4  11  21  33  48  66  91 118 147 186 229 268
#     4  10  19  33  52  70  88 114 150 186 222 268
#     4   9  16  25  37  57  86 116 146 182 224 266
#     4   9  16  25  37  55  82 116 150 183 221 264
#     4   9  17  29  45  65  89 117 150 187 224 266
#     4  10  18  29  46  66  89 119 154 186 220 266
#     4   9  15  23  36  54  78 112 152 187 219 259
#     4   9  17  30  49  71  92 115 146 185 225 264
#
# _framework density 15.990079
#
# number of rings (size 3 to 8) (size 9 to 14) (size 15 to 20)
#    0.000    2.500    0.000    4.500    0.000    7.000 
#    0.000    1.250    0.000    2.625    0.000    0.000 
#    0.000    1.000    0.000   10.750    0.000    7.875 
#
# Total GULP energy -178373.748619 kJ/mol
# GULP energy per Si atom -5574.179644 kJ/mol
# Density = 1.595369 g / cm^3
# Si number density = 15.990079 Si / 1000 Ang^3
#
#
#
# Elastic Constant Matrix: (Units=GPa)
#
#
# Indices 1 2 3 4 5 6 
#
# 1 86.2249 32.3237 52.9498 0.0000 -29.3841 0.0000
# 2 32.3237 76.9431 39.8567 0.0000 -13.2869 0.0000
# 3 52.9498 39.8567 75.8942 0.0000 -30.5847 0.0000
# 4 0.0000 0.0000 0.0000 18.5335 0.0000 -7.5914
# 5 -29.3841 -13.2869 -30.5847 0.0000 25.4702 0.0000
# 6 0.0000 0.0000 0.0000 -7.5914 0.0000 8.1975
#
#
#
# Elastic Compliance Matrix: (Units=1/GPa)
#
#
# Indices 1 2 3 4 5 6 
#
# 1 0.022904 -0.002568 -0.008763 0.000000 0.014561 0.000000
# 2 -0.002568 0.018330 -0.010027 0.000000 -0.005442 0.000000
# 3 -0.008763 -0.010027 0.035602 0.000000 0.027411 0.000000
# 4 0.000000 0.000000 0.000000 0.086931 0.000000 0.080503
# 5 0.014561 -0.005442 0.027411 0.000000 0.086137 0.000000
# 6 0.000000 0.000000 0.000000 0.080503 0.000000 0.196539
#
#
# Mechanical properties :
#
#
# Convention : Reuss Voigt Hill
#
# Bulk Modulus (GPa) = 29.30882 54.36916 41.83899
# Shear Modulus (GPa) = 9.98937 18.03572 14.01255
#
# Velocity S-wave (km/s) = 2.50216 3.36211 2.96349
# Velocity P-wave (km/s) = 5.16884 7.01052 6.15891
#
# Compressibility (1/GPa) = 0.03411942
#
# Stress axis : x y z
#
# Youngs Moduli (GPa) = 43.66128 54.55532 28.08816
#
# Poissons Ratio (x) = 0.14011 0.24613
# Poissons Ratio (y) = 0.11213 0.28165
# Poissons Ratio (z) = 0.38259 0.54704
#
# Static dielectric constant tensor:
#      x y z
#    x 1.525770 0.000000 -0.011870 
#    y 0.000000 1.534930 0.000000 
#    z -0.011870 0.000000 1.522220 
# 
# From -- ./inp_files/56423.got.cif
#   From: 2010.05.17/outbox.cif.g08.bks.cpg/sg10_29_cif.got.tgz:56423.got - 2010.06.03 11:33:40.
