data_PCOD9142756
_publ_section_title
;
Structure prediction by ZEFSAII (Michael W. Deem and Ramdas Pophale) SiO2 
 PCOD9142756
Probable space group: P 2/M
;
_chemical_formula_sum "Si O2"
_cell_formula_units_Z 28
_cell_length_a 9.813363
_cell_length_b 9.049399
_cell_length_c 27.591871
_cell_angle_alpha 90.000000
_cell_angle_beta 143.588273
_cell_angle_gamma 90.000000
_cell_volume 1454.456232
_symmetry_space_group_name_H-M "P 2/M"
_symmetry_group_IT_number 10
_symmetry_cell_setting 'monoclinic'
loop_
_space_group_symop_operation_xyz
x,y,z
-x,y,-z
-x,-y,-z
x,-y,z
loop_
_atom_site_type_symbol
_atom_site_label
_atom_site_fract_x
_atom_site_fract_y
_atom_site_fract_z
Si Si1 0.119465 0.673971 0.918233
Si Si2 0.740134 0.828691 0.871078
Si Si3 0.916448 0.329637 0.532472
Si Si4 0.359586 0.828200 0.681554
Si Si5 0.442803 0.322554 0.357908
Si Si6 0.022445 0.175273 0.787582
Si Si7 0.536254 0.826414 0.917484
O O1 0.119306 0.500000 0.909129
O O2 0.056338 0.761115 0.851387
O O3 0.927856 0.720677 0.902657
O O4 0.357522 0.728723 0.009593
O O5 0.512143 0.815111 0.773134
O O6 0.675487 0.801081 0.907990
O O7 0.821308 0.000000 0.889920
O O8 0.928910 0.500000 0.552130
O O9 0.651448 0.281331 0.453789
O O10 0.000000 0.326602 0.500000
O O11 0.101807 0.232185 0.613325
O O12 0.482967 0.737993 0.673771
O O13 0.352895 0.000000 0.665276
O O14 0.433426 0.500000 0.353352
O O15 0.195925 0.254562 0.298436
O O16 0.267107 0.202009 0.832305
O O17 0.980229 0.000000 0.777971
O O18 0.558699 0.000000 0.937116
#
# Coordination Sequence:
#
# PCOD9142756 Si02
#       7
#     4   4   4   4   4   4   4
#     4  12  24  37  57  83 109 139 179 226 272 321
#     4  10  21  38  58  80 109 144 180 222 270 319
#     4   8  16  29  46  72 108 142 171 214 268 314
#     4  10  18  29  51  80 107 138 178 219 263 318
#     4  10  19  32  51  77 109 142 175 218 271 319
#     4  11  22  37  58  81 106 142 184 224 269 321
#     4  10  23  41  58  77 107 145 182 223 272 321
#
# _framework density 19.251180999999999
#
# number of rings (size 3 to 8) (size 9 to 14) (size 15 to 20)
#    0.000    1.857    1.429    4.286    0.000    8.857 
#    0.000    0.000    0.000    0.857    0.000    6.000 
#    0.000    0.000    0.000    0.000    0.000    0.000 
#
# Total GULP energy -156383.826141 kJ/mol
# GULP energy per Si atom -5585.136648 kJ/mol
# Density = 1.920736 g / cm^3
# Si number density = 19.251181 Si / 1000 Ang^3
#
#
#
# Elastic Constant Matrix: (Units=GPa)
#
#
# Indices 1 2 3 4 5 6 
#
# 1 28.3311 6.2401 -6.1153 0.0000 10.1132 0.0000
# 2 6.2401 51.1072 22.4841 0.0000 7.7029 0.0000
# 3 -6.1153 22.4841 78.3388 0.0000 23.4981 0.0000
# 4 0.0000 0.0000 0.0000 38.3142 0.0000 20.1665
# 5 10.1132 7.7029 23.4981 0.0000 23.5216 0.0000
# 6 0.0000 0.0000 0.0000 20.1665 0.0000 0.3121
#
#
#
# Elastic Compliance Matrix: (Units=1/GPa)
#
#
# Indices 1 2 3 4 5 6 
#
# 1 0.055575 -0.009097 0.018881 0.000000 -0.039777 0.000000
# 2 -0.009097 0.023911 -0.009134 0.000000 0.005206 0.000000
# 3 0.018881 -0.009134 0.026270 0.000000 -0.031370 0.000000
# 4 0.000000 0.000000 0.000000 -0.000791 0.000000 0.051089
# 5 -0.039777 0.005206 -0.031370 0.000000 0.089251 0.000000
# 6 0.000000 0.000000 0.000000 0.051089 0.000000 -0.097065
#
#
# Mechanical properties :
#
#
# Convention : Reuss Voigt Hill
#
# Bulk Modulus (GPa) = 9.34095 22.55501 15.94798
# Shear Modulus (GPa) = 38.01173 21.44080 29.72626
#
# Velocity S-wave (km/s) = 4.44837 3.34089 3.93380
# Velocity P-wave (km/s) = 5.58987 5.15982 5.37914
#
# Compressibility (1/GPa) = 0.10705553
#
# Stress axis : x y z
#
# Youngs Moduli (GPa) = 17.99367 41.82111 38.06587
#
# Poissons Ratio (x) = 0.38043 -0.71870
# Poissons Ratio (y) = 0.16368 0.34771
# Poissons Ratio (z) = -0.33973 0.38201
#
# Static dielectric constant tensor:
#      x y z
#    x 1.670380 0.000000 0.039440 
#    y 0.000000 1.646360 0.000000 
#    z 0.039440 0.000000 1.694680 
# 
# From -- ./inp_files/92056.got.cif
#   From: 2010.05.17/outbox.cif.g08.bks.cpg/sg10_47_cif.got.tgz:92056.got - 2010.06.03 11:33:40.
