data_PCOD9142712
_publ_section_title
;
Structure prediction by ZEFSAII (Michael W. Deem and Ramdas Pophale) SiO2 
 PCOD9142712
Probable space group: P 2/M
;
_chemical_formula_sum "Si O2"
_cell_formula_units_Z 26
_cell_length_a 9.451678
_cell_length_b 13.501263
_cell_length_c 18.729407
_cell_angle_alpha 90.000000
_cell_angle_beta 27.459437
_cell_angle_gamma 90.000000
_cell_volume 1102.102028
_symmetry_space_group_name_H-M "P 2/M"
_symmetry_group_IT_number 10
_symmetry_cell_setting 'monoclinic'
loop_
_space_group_symop_operation_xyz
x,y,z
-x,y,-z
-x,-y,-z
x,-y,z
loop_
_atom_site_type_symbol
_atom_site_label
_atom_site_fract_x
_atom_site_fract_y
_atom_site_fract_z
Si Si1 0.974429 0.770867 0.629119
Si Si2 0.157858 0.882708 0.675588
Si Si3 0.064533 0.616015 0.857770
Si Si4 0.000000 0.771657 0.000000
Si Si5 0.664378 0.389229 0.683189
Si Si6 0.567626 0.881872 0.298430
Si Si7 0.861637 0.606401 0.336776
O O1 0.920320 0.838976 0.724232
O O2 0.290313 0.716972 0.297304
O O3 0.245398 0.826906 0.463552
O O4 0.086098 0.673816 0.619969
O O5 0.500000 0.845895 0.500000
O O6 0.183326 0.865558 0.748763
O O7 0.150310 0.000000 0.668544
O O8 0.975274 0.500000 0.903628
O O9 0.897028 0.693228 0.984182
O O10 0.410081 0.620965 0.734798
O O11 0.048047 0.644309 0.782113
O O12 0.255767 0.841490 0.849585
O O13 0.599506 0.500000 0.745552
O O14 0.000000 0.399001 0.500000
O O15 0.505340 0.000000 0.322440
O O16 0.500000 0.594395 0.500000
O O17 0.015198 0.500000 0.276908
#
# Coordination Sequence:
#
# PCOD9142712 Si02
#       7
#     4   4   4   2   4   4   4
#     4  11  18  31  56  83 107 137 172 216 276 332
#     4   8  15  29  50  76 103 130 169 224 279 321
#     4  10  22  37  54  81 115 147 179 217 262 316
#     4  12  20  34  58  76 102 150 198 222 248 308
#     4  10  20  33  49  76 115 147 169 206 268 331
#     4  10  21  34  52  81 111 140 180 230 273 311
#     4  10  18  29  49  79 109 135 173 222 265 312
#
# _framework density 23.591282
#
# number of rings (size 3 to 8) (size 9 to 14) (size 15 to 20)
#    0.000    2.000    0.000    7.385    0.000    2.462 
#    0.000    1.538    0.000   13.846    0.000   12.923 
#    0.000    0.000    0.000    0.308    0.000    0.000 
#
# Total GULP energy -144817.520392 kJ/mol
# GULP energy per Si atom -5569.904630 kJ/mol
# Density = 2.353759 g / cm^3
# Si number density = 23.591282 Si / 1000 Ang^3
#
#
#
# Elastic Constant Matrix: (Units=GPa)
#
#
# Indices 1 2 3 4 5 6 
#
# 1 84.6421 51.3727 43.7740 0.0000 15.9022 0.0000
# 2 51.3727 163.3624 52.4314 0.0000 14.6106 0.0000
# 3 43.7740 52.4314 120.0690 0.0000 22.2231 0.0000
# 4 0.0000 0.0000 0.0000 33.7281 0.0000 23.5578
# 5 15.9022 14.6106 22.2231 0.0000 28.5418 0.0000
# 6 0.0000 0.0000 0.0000 23.5578 0.0000 32.2611
#
#
#
# Elastic Compliance Matrix: (Units=1/GPa)
#
#
# Indices 1 2 3 4 5 6 
#
# 1 0.016824 -0.003702 -0.003660 0.000000 -0.004628 0.000000
# 2 -0.003702 0.007984 -0.002059 0.000000 -0.000421 0.000000
# 3 -0.003660 -0.002059 0.011672 0.000000 -0.005994 0.000000
# 4 0.000000 0.000000 0.000000 0.060512 0.000000 -0.044187
# 5 -0.004628 -0.000421 -0.005994 0.000000 0.042498 0.000000
# 6 0.000000 0.000000 0.000000 -0.044187 0.000000 0.063263
#
#
# Mechanical properties :
#
#
# Convention : Reuss Voigt Hill
#
# Bulk Modulus (GPa) = 56.69802 73.69219 65.19511
# Shear Modulus (GPa) = 21.98057 33.60592 27.79324
#
# Velocity S-wave (km/s) = 3.05573 3.77836 3.43609
# Velocity P-wave (km/s) = 6.04447 7.09503 6.59072
#
# Compressibility (1/GPa) = 0.01763730
#
# Stress axis : x y z
#
# Youngs Moduli (GPa) = 59.43944 125.25127 85.67865
#
# Poissons Ratio (x) = 0.46366 0.31361
# Poissons Ratio (y) = 0.22004 0.17640
# Poissons Ratio (z) = 0.21757 0.25787
#
# Static dielectric constant tensor:
#      x y z
#    x 2.048120 0.000000 0.052760 
#    y 0.000000 2.005640 0.000000 
#    z 0.052760 0.000000 1.940050 
# 
# From -- ./inp_files/84082.got.cif
#   From: 2010.05.17/outbox.cif.g08.bks.cpg/sg10_43_cif.got.tgz:84082.got - 2010.06.03 11:33:40.
