data_PCOD9142071
_publ_section_title
;
Structure prediction by ZEFSAII (Michael W. Deem and Ramdas Pophale) SiO2 
 PCOD9142071
Probable space group: P 2/M
;
_chemical_formula_sum "Si O2"
_cell_formula_units_Z 32
_cell_length_a 25.339422
_cell_length_b 14.800699
_cell_length_c 9.495517
_cell_angle_alpha 90.000000
_cell_angle_beta 26.967979
_cell_angle_gamma 90.000000
_cell_volume 1614.981780
_symmetry_space_group_name_H-M "P 2/M"
_symmetry_group_IT_number 10
_symmetry_cell_setting 'monoclinic'
loop_
_space_group_symop_operation_xyz
x,y,z
-x,y,-z
-x,-y,-z
x,-y,z
loop_
_atom_site_type_symbol
_atom_site_label
_atom_site_fract_x
_atom_site_fract_y
_atom_site_fract_z
Si Si1 0.842824 0.894948 0.268939
Si Si2 0.433797 0.104414 0.024214
Si Si3 0.524707 0.606108 0.776749
Si Si4 0.860958 0.595710 0.305679
Si Si5 0.047539 0.776648 0.242724
Si Si6 0.423809 0.244980 0.817313
Si Si7 0.199531 0.602838 0.880988
Si Si8 0.836382 0.231009 0.540160
O O1 0.702660 0.890903 0.615383
O O2 0.876705 0.848655 0.338189
O O3 0.878289 0.000000 0.176002
O O4 0.882829 0.839401 0.035154
O O5 0.466764 0.000000 0.928249
O O6 0.500000 0.143865 0.000000
O O7 0.463317 0.160324 0.816805
O O8 0.499968 0.500000 0.811952
O O9 0.446624 0.668965 0.863738
O O10 0.663274 0.619750 0.421094
O O11 0.500000 0.624773 0.000000
O O12 0.816512 0.500000 0.469110
O O13 0.826603 0.599798 0.224492
O O14 0.817784 0.683707 0.483933
O O15 0.000000 0.596677 0.000000
O O16 0.000000 0.821235 0.500000
O O17 0.934963 0.749044 0.418789
O O18 0.122104 0.688396 0.111362
O O19 0.500000 0.258457 0.500000
O O20 0.291179 0.220193 0.092072
O O21 0.171832 0.500000 0.999968
#
# Coordination Sequence:
#
# PCOD9142071 Si02
#       8
#     4   4   4   4   4   4   4   4
#     4  10  22  42  65  90 122 159 202 250 300 359
#     4   9  20  39  66  95 120 158 209 252 298 360
#     4  10  22  40  63  90 120 162 211 251 298 364
#     4  10  17  31  59  90 114 145 198 254 292 337
#     4  12  26  38  60  91 126 158 200 251 304 361
#     4  11  25  38  61  90 125 164 198 249 314 361
#     4  10  21  38  61  88 122 159 198 248 304 356
#     4  11  22  41  60  89 118 160 206 245 295 361
#
# _framework density 19.814464999999998
#
# number of rings (size 3 to 8) (size 9 to 14) (size 15 to 20)
#    0.000    1.625    2.500    1.500    5.250    3.500 
#    0.000    0.000    0.000    0.000    0.000    0.000 
#    0.000    0.000    0.000    0.000    0.000    0.000 
#
# Total GULP energy -178535.420157 kJ/mol
# GULP energy per Si atom -5579.231880 kJ/mol
# Density = 1.976937 g / cm^3
# Si number density = 19.814465 Si / 1000 Ang^3
#
#
#
# Elastic Constant Matrix: (Units=GPa)
#
#
# Indices 1 2 3 4 5 6 
#
# 1 44.8359 22.7766 32.4173 0.0000 -3.6112 0.0000
# 2 22.7766 98.1779 35.4340 0.0000 9.2875 0.0000
# 3 32.4173 35.4340 71.4478 0.0000 6.4671 0.0000
# 4 0.0000 0.0000 0.0000 20.2344 0.0000 -13.5769
# 5 -3.6112 9.2875 6.4671 0.0000 36.2319 0.0000
# 6 0.0000 0.0000 0.0000 -13.5769 0.0000 11.7181
#
#
#
# Elastic Compliance Matrix: (Units=1/GPa)
#
#
# Indices 1 2 3 4 5 6 
#
# 1 0.035514 -0.003489 -0.015027 0.000000 0.007116 0.000000
# 2 -0.003489 0.012911 -0.004563 0.000000 -0.002843 0.000000
# 3 -0.015027 -0.004563 0.023486 0.000000 -0.004520 0.000000
# 4 0.000000 0.000000 0.000000 0.222035 0.000000 0.257256
# 5 0.007116 -0.002843 -0.004520 0.000000 0.029845 0.000000
# 6 0.000000 0.000000 0.000000 0.257256 0.000000 0.383402
#
#
# Mechanical properties :
#
#
# Convention : Reuss Voigt Hill
#
# Bulk Modulus (GPa) = 38.82947 43.96858 41.39902
# Shear Modulus (GPa) = 6.56224 21.89244 14.22734
#
# Velocity S-wave (km/s) = 1.82182 3.32757 2.68251
# Velocity P-wave (km/s) = 4.90555 6.08292 5.52568
#
# Compressibility (1/GPa) = 0.02575364
#
# Stress axis : x y z
#
# Youngs Moduli (GPa) = 28.15788 77.45563 42.57766
#
# Poissons Ratio (x) = 0.27021 0.63983
# Poissons Ratio (y) = 0.09823 0.19427
# Poissons Ratio (z) = 0.42314 0.35341
#
# Static dielectric constant tensor:
#      x y z
#    x 1.674690 0.000000 -0.026320 
#    y 0.000000 1.726610 0.000000 
#    z -0.026320 0.000000 1.736610 
# 
# From -- ./inp_files/36327.got.cif
#   From: 2010.05.17/outbox.cif.g08.bks.cpg/sg10_19_cif.got.tgz:36327.got - 2010.06.03 11:33:40.
