data_PCOD9142317
_publ_section_title
;
Structure prediction by ZEFSAII (Michael W. Deem and Ramdas Pophale) SiO2 
 PCOD9142317
Probable space group: P 2/M
;
_chemical_formula_sum "Si O2"
_cell_formula_units_Z 24
_cell_length_a 13.315718
_cell_length_b 20.006631
_cell_length_c 15.776811
_cell_angle_alpha 90.000000
_cell_angle_beta 18.502866
_cell_angle_gamma 90.000000
_cell_volume 1333.825881
_symmetry_space_group_name_H-M "P 2/M"
_symmetry_group_IT_number 10
_symmetry_cell_setting 'monoclinic'
loop_
_space_group_symop_operation_xyz
x,y,z
-x,y,-z
-x,-y,-z
x,-y,z
loop_
_atom_site_type_symbol
_atom_site_label
_atom_site_fract_x
_atom_site_fract_y
_atom_site_fract_z
Si Si1 0.275718 0.633037 0.336094
Si Si2 0.655409 0.422999 0.182656
Si Si3 0.914674 0.867896 0.704833
Si Si4 0.142066 0.716695 0.197585
Si Si5 0.582878 0.922247 0.797653
Si Si6 0.234768 0.339959 0.651428
O O1 0.474108 0.584179 0.237413
O O2 0.000000 0.600906 0.500000
O O3 0.080598 0.681254 0.555149
O O4 0.528353 0.677091 0.080514
O O5 0.719183 0.500000 0.150377
O O6 0.425702 0.390602 0.436709
O O7 0.976171 0.380922 0.912754
O O8 0.823791 0.792439 0.799527
O O9 0.749259 0.894641 0.750696
O O10 0.280047 0.879244 0.389225
O O11 0.782752 0.911777 0.887398
O O12 0.957315 0.709839 0.255951
O O13 0.657542 0.000000 0.726345
O O14 0.500000 0.309032 0.500000
#
# Coordination Sequence:
#
# PCOD9142317 Si02
#       6
#     4   4   4   4   4   4
#     4  10  21  33  49  69 102 133 161 206 241 283
#     4  10  21  36  53  77  98 124 168 203 245 314
#     4  10  18  28  44  64  94 131 162 197 224 283
#     4  10  21  33  48  74  98 127 175 202 239 295
#     4  10  19  29  43  68 100 132 162 196 233 273
#     4  10  21  37  54  74 101 126 154 215 267 292
#
# _framework density 17.993352000000002
#
# number of rings (size 3 to 8) (size 9 to 14) (size 15 to 20)
#    0.000    2.000    0.000    5.000    7.000    2.333 
#    0.000    0.000    0.000    6.000    0.000    0.000 
#    0.000    7.333    0.000    0.000    0.000    0.000 
#
# Total GULP energy -133781.780258 kJ/mol
# GULP energy per Si atom -5574.240844 kJ/mol
# Density = 1.795240 g / cm^3
# Si number density = 17.993352 Si / 1000 Ang^3
#
#
#
# Elastic Constant Matrix: (Units=GPa)
#
#
# Indices 1 2 3 4 5 6 
#
# 1 48.3653 4.3886 22.2268 0.0000 -11.2052 0.0000
# 2 4.3886 58.5499 8.5126 0.0000 7.8365 0.0000
# 3 22.2268 8.5126 120.0913 0.0000 23.9641 0.0000
# 4 0.0000 0.0000 0.0000 13.3467 0.0000 8.5436
# 5 -11.2052 7.8365 23.9641 0.0000 46.4672 0.0000
# 6 0.0000 0.0000 0.0000 8.5436 0.0000 6.3299
#
#
#
# Elastic Compliance Matrix: (Units=1/GPa)
#
#
# Indices 1 2 3 4 5 6 
#
# 1 0.026368 -0.002365 -0.006756 0.000000 0.010242 0.000000
# 2 -0.002365 0.017743 -0.000122 0.000000 -0.003500 0.000000
# 3 -0.006756 -0.000122 0.011044 0.000000 -0.007304 0.000000
# 4 0.000000 0.000000 0.000000 0.550868 0.000000 -0.743515
# 5 0.010242 -0.003500 -0.007304 0.000000 0.028347 0.000000
# 6 0.000000 0.000000 0.000000 -0.743515 0.000000 1.161514
#
#
# Mechanical properties :
#
#
# Convention : Reuss Voigt Hill
#
# Bulk Modulus (GPa) = 27.27101 33.02917 30.15009
# Shear Modulus (GPa) = 2.73734 26.02067 14.37901
#
# Velocity S-wave (km/s) = 1.23475 3.80692 2.82995
# Velocity P-wave (km/s) = 4.14992 6.14164 5.24126
#
# Compressibility (1/GPa) = 0.03666897
#
# Stress axis : x y z
#
# Youngs Moduli (GPa) = 37.92421 56.36088 90.54972
#
# Poissons Ratio (x) = 0.13329 0.61179
# Poissons Ratio (y) = 0.08969 0.01101
# Poissons Ratio (z) = 0.25623 0.00685
#
# Static dielectric constant tensor:
#      x y z
#    x 1.661640 0.000000 -0.048150 
#    y 0.000000 1.590850 0.000000 
#    z -0.048150 0.000000 1.822060 
# 
# From -- ./inp_files/7235.got.cif
#   From: 2010.05.17/outbox.cif.g08.bks.cpg/sg10_4_cif.got.tgz:7235.got - 2010.06.03 11:33:40.
