data_PCOD9142059
_publ_section_title
;
Structure prediction by ZEFSAII (Michael W. Deem and Ramdas Pophale) SiO2 
 PCOD9142059
Probable space group: P 2/M
;
_chemical_formula_sum "Si O2"
_cell_formula_units_Z 28
_cell_length_a 7.803617
_cell_length_b 22.673284
_cell_length_c 13.644528
_cell_angle_alpha 90.000000
_cell_angle_beta 34.321916
_cell_angle_gamma 90.000000
_cell_volume 1361.213697
_symmetry_space_group_name_H-M "P 2/M"
_symmetry_group_IT_number 10
_symmetry_cell_setting 'monoclinic'
loop_
_space_group_symop_operation_xyz
x,y,z
-x,y,-z
-x,-y,-z
x,-y,z
loop_
_atom_site_type_symbol
_atom_site_label
_atom_site_fract_x
_atom_site_fract_y
_atom_site_fract_z
Si Si1 0.746541 0.877773 0.203795
Si Si2 0.248843 0.433730 0.200344
Si Si3 0.617737 0.000000 0.330626
Si Si4 0.793440 0.651501 0.499673
Si Si5 0.840757 0.128722 0.796560
Si Si6 0.165418 0.000000 0.197032
Si Si7 0.335347 0.566694 0.801926
Si Si8 0.306621 0.211541 0.490950
O O1 0.507948 0.824056 0.316350
O O2 0.938786 0.872940 0.213309
O O3 0.563002 0.939549 0.299491
O O4 0.000000 0.877969 0.000000
O O5 0.122316 0.500000 0.245082
O O6 0.435886 0.435137 0.213604
O O7 0.992370 0.384230 0.326607
O O8 0.500000 0.421983 0.000000
O O9 0.500000 0.000000 0.500000
O O10 0.974420 0.000000 0.186451
O O11 0.482658 0.615374 0.662730
O O12 0.736401 0.719755 0.507641
O O13 0.000000 0.648542 0.500000
O O14 0.877171 0.063221 0.732127
O O15 0.984825 0.178615 0.659871
O O16 0.500000 0.137506 0.000000
O O17 0.500000 0.000000 0.000000
O O18 0.325582 0.500000 0.764773
O O19 0.000000 0.580930 0.000000
O O20 0.500000 0.206681 0.500000
#
# Coordination Sequence:
#
# PCOD9142059 Si02
#       8
#     4   4   2   4   4   2   4   4
#     4  10  20  34  53  79 106 133 170 218 264 305
#     4   9  18  34  56  81 106 132 167 212 259 308
#     4  10  17  31  56  79 101 132 170 212 261 315
#     4  10  21  36  54  75 103 140 176 210 252 304
#     4   9  18  34  55  76 100 135 173 212 260 313
#     4   8  14  27  50  75  94 118 159 206 250 295
#     4   9  18  34  56  80 104 131 166 210 260 306
#     4  10  22  37  51  72 104 142 178 210 252 306
#
# _framework density 20.569877999999999
#
# number of rings (size 3 to 8) (size 9 to 14) (size 15 to 20)
#    0.000    2.571    0.000    2.786    0.000    5.143 
#    0.000    5.714    0.000    4.286    0.000   14.000 
#    0.000    0.000    0.000    0.000    0.000    0.000 
#
# Total GULP energy -156091.340294 kJ/mol
# GULP energy per Si atom -5574.690725 kJ/mol
# Density = 2.052306 g / cm^3
# Si number density = 20.569878 Si / 1000 Ang^3
#
#
#
# Elastic Constant Matrix: (Units=GPa)
#
#
# Indices 1 2 3 4 5 6 
#
# 1 22.5265 8.4318 7.7568 0.0000 -7.3475 0.0000
# 2 8.4318 222.8779 132.6261 0.0000 -4.3062 0.0000
# 3 7.7568 132.6261 147.1085 0.0000 -4.1066 0.0000
# 4 0.0000 0.0000 0.0000 46.5557 0.0000 -6.8279
# 5 -7.3475 -4.3062 -4.1066 0.0000 28.9157 0.0000
# 6 0.0000 0.0000 0.0000 -6.8279 0.0000 23.3501
#
#
#
# Elastic Compliance Matrix: (Units=1/GPa)
#
#
# Indices 1 2 3 4 5 6 
#
# 1 0.049174 -0.000614 -0.001700 0.000000 0.012162 0.000000
# 2 -0.000614 0.009689 -0.008701 0.000000 0.000051 0.000000
# 3 -0.001700 -0.008701 0.014742 0.000000 0.000366 0.000000
# 4 0.000000 0.000000 0.000000 0.022442 0.000000 0.006562
# 5 0.012162 0.000051 0.000366 0.000000 0.037733 0.000000
# 6 0.000000 0.000000 0.000000 0.006562 0.000000 0.044745
#
#
# Mechanical properties :
#
#
# Convention : Reuss Voigt Hill
#
# Bulk Modulus (GPa) = 19.38914 76.68249 48.03582
# Shear Modulus (GPa) = 22.96244 36.01085 29.48664
#
# Velocity S-wave (km/s) = 3.34475 4.18863 3.79025
# Velocity P-wave (km/s) = 4.93588 7.79440 6.52364
#
# Compressibility (1/GPa) = 0.05157525
#
# Stress axis : x y z
#
# Youngs Moduli (GPa) = 20.33585 103.21422 67.83362
#
# Poissons Ratio (x) = 0.06334 0.11532
# Poissons Ratio (y) = 0.01248 0.59022
# Poissons Ratio (z) = 0.03457 0.89807
#
# Static dielectric constant tensor:
#      x y z
#    x 1.751710 0.000000 0.044480 
#    y 0.000000 1.762620 0.000000 
#    z 0.044480 0.000000 1.652570 
# 
# From -- ./inp_files/30446.got.cif
#   From: 2010.05.17/outbox.cif.g08.bks.cpg/sg10_16_cif.got.tgz:30446.got - 2010.06.03 11:33:40.
