data_PCOD9142244
_publ_section_title
;
Structure prediction by ZEFSAII (Michael W. Deem and Ramdas Pophale) SiO2 
 PCOD9142244
Probable space group: P 2/M
;
_chemical_formula_sum "Si O2"
_cell_formula_units_Z 32
_cell_length_a 17.220159
_cell_length_b 12.867453
_cell_length_c 16.448253
_cell_angle_alpha 90.000000
_cell_angle_beta 34.578617
_cell_angle_gamma 90.000000
_cell_volume 2068.441911
_symmetry_space_group_name_H-M "P 2/M"
_symmetry_group_IT_number 10
_symmetry_cell_setting 'monoclinic'
loop_
_space_group_symop_operation_xyz
x,y,z
-x,y,-z
-x,-y,-z
x,-y,z
loop_
_atom_site_type_symbol
_atom_site_label
_atom_site_fract_x
_atom_site_fract_y
_atom_site_fract_z
Si Si1 0.782845 0.625061 0.661312
Si Si2 0.355189 0.764286 0.645206
Si Si3 0.725829 0.381037 0.428170
Si Si4 0.309416 0.623487 0.843662
Si Si5 0.569045 0.625665 0.722695
Si Si6 0.077384 0.119655 0.847454
Si Si7 0.031045 0.307242 0.163650
Si Si8 0.942423 0.625811 0.680026
O O1 0.774580 0.500000 0.674921
O O2 0.642054 0.663954 0.742212
O O3 0.829685 0.658864 0.710447
O O4 0.910108 0.643864 0.490040
O O5 0.500000 0.816223 0.500000
O O6 0.341215 0.676870 0.588413
O O7 0.341902 0.702591 0.741867
O O8 0.229649 0.840856 0.736482
O O9 0.686005 0.500000 0.459164
O O10 0.667502 0.339919 0.563682
O O11 0.888602 0.369998 0.281401
O O12 0.326763 0.500000 0.807752
O O13 0.415548 0.648869 0.825635
O O14 0.154681 0.643005 0.006216
O O15 0.574970 0.500000 0.722406
O O16 0.007161 0.195878 0.842349
O O17 0.075560 0.000000 0.822779
O O18 0.000000 0.128960 0.000000
O O19 0.069417 0.313907 0.225418
O O20 0.932556 0.500000 0.703302
#
# Coordination Sequence:
#
# PCOD9142244 Si02
#       8
#     4   4   4   4   4   4   4   4
#     4   8  14  25  42  66  96 136 170 191 225 269
#     4  11  21  33  49  72  97 129 165 195 236 293
#     4  10  18  27  44  66  97 133 162 191 224 272
#     4  11  21  30  43  70 107 138 162 193 230 277
#     4   9  16  27  41  62  96 138 167 188 219 262
#     4  10  22  41  57  70  92 120 158 213 261 294
#     4  11  20  32  49  72  93 125 164 205 247 285
#     4   9  15  25  45  71 100 127 161 201 229 278
#
# _framework density 15.470580999999999
#
# number of rings (size 3 to 8) (size 9 to 14) (size 15 to 20)
#    0.000    2.125    3.750    2.250    0.000    0.750 
#    0.000    2.500    0.000    3.000    0.000    1.750 
#    0.000    1.000    0.000    0.000    0.000    0.250 
#
# Total GULP energy -178137.340524 kJ/mol
# GULP energy per Si atom -5566.791891 kJ/mol
# Density = 1.543537 g / cm^3
# Si number density = 15.470581 Si / 1000 Ang^3
#
#
#
# Elastic Constant Matrix: (Units=GPa)
#
#
# Indices 1 2 3 4 5 6 
#
# 1 102.7963 28.7728 17.5197 0.0000 -3.0199 0.0000
# 2 28.7728 55.6482 15.7907 0.0000 3.2475 0.0000
# 3 17.5197 15.7907 67.9433 0.0000 -12.7154 0.0000
# 4 0.0000 0.0000 0.0000 7.4913 0.0000 -0.9376
# 5 -3.0199 3.2475 -12.7154 0.0000 25.4515 0.0000
# 6 0.0000 0.0000 0.0000 -0.9376 0.0000 -2.7799
#
#
#
# Elastic Compliance Matrix: (Units=1/GPa)
#
#
# Indices 1 2 3 4 5 6 
#
# 1 0.011599 -0.005679 -0.001410 0.000000 0.001396 0.000000
# 2 -0.005679 0.022657 -0.004929 0.000000 -0.006027 0.000000
# 3 -0.001410 -0.004929 0.017996 0.000000 0.009453 0.000000
# 4 0.000000 0.000000 0.000000 0.128082 0.000000 -0.043198
# 5 0.001396 -0.006027 0.009453 0.000000 0.044948 0.000000
# 6 0.000000 0.000000 0.000000 -0.043198 0.000000 -0.345153
#
#
# Mechanical properties :
#
#
# Convention : Reuss Voigt Hill
#
# Bulk Modulus (GPa) = 35.44044 38.95046 37.19545
# Shear Modulus (GPa) = -57.84993 16.98622 -20.43186
#
# Velocity S-wave (km/s) = -6.12166 3.31716 -3.63807
# Velocity P-wave (km/s) = 5.19695 6.31689 2.53918
#
# Compressibility (1/GPa) = 0.02821636
#
# Stress axis : x y z
#
# Youngs Moduli (GPa) = 86.21663 44.13716 55.56694
#
# Poissons Ratio (x) = 0.25064 0.07833
# Poissons Ratio (y) = 0.48959 0.27391
# Poissons Ratio (z) = 0.12154 0.21757
#
# Static dielectric constant tensor:
#      x y z
#    x 1.556220 0.000000 -0.025090 
#    y 0.000000 1.478500 0.000000 
#    z -0.025090 0.000000 1.561660 
# 
# From -- ./inp_files/34861.got.cif
#   From: 2010.05.17/outbox.cif.g08.bks.cpg/sg10_18_cif.got.tgz:34861.got - 2010.06.03 11:33:40.
