data_PCOD9142389
_publ_section_title
;
Structure prediction by ZEFSAII (Michael W. Deem and Ramdas Pophale) SiO2 
 PCOD9142389
Probable space group: P 2/M
;
_chemical_formula_sum "Si O2"
_cell_formula_units_Z 21
_cell_length_a 9.302963
_cell_length_b 14.919873
_cell_length_c 14.605058
_cell_angle_alpha 90.000000
_cell_angle_beta 157.265047
_cell_angle_gamma 90.000000
_cell_volume 783.437039
_symmetry_space_group_name_H-M "P 2/M"
_symmetry_group_IT_number 10
_symmetry_cell_setting 'monoclinic'
loop_
_space_group_symop_operation_xyz
x,y,z
-x,y,-z
-x,-y,-z
x,-y,z
loop_
_atom_site_type_symbol
_atom_site_label
_atom_site_fract_x
_atom_site_fract_y
_atom_site_fract_z
Si Si1 0.467743 0.598345 0.142697
Si Si2 0.084743 0.000000 0.300499
Si Si3 0.934444 0.373596 0.648817
Si Si4 0.658169 0.796469 0.870732
Si Si5 0.898967 0.185404 0.684454
Si Si6 0.500000 0.500000 0.500000
Si Si7 0.365235 0.000000 0.148752
O O1 0.388699 0.500000 0.138387
O O2 0.854369 0.592623 0.315019
O O3 0.177471 0.606250 0.884896
O O4 0.471487 0.691024 0.202319
O O5 0.500000 0.000000 0.500000
O O6 0.038534 0.091091 0.326004
O O7 0.800463 0.000000 0.050497
O O8 0.911621 0.267887 0.625829
O O9 0.560132 0.422141 0.456141
O O10 0.806535 0.804247 0.061938
O O11 0.474900 0.896849 0.746696
O O12 0.000000 0.796272 0.000000
O O13 0.500000 0.186727 0.500000
O O14 0.000000 0.000000 0.000000
#
# Coordination Sequence:
#
# PCOD9142389 Si02
#       7
#     4   2   4   4   4   1   2
#     4  10  18  31  44  67 101 125 152 197 243 281
#     4   8  14  24  39  65  97 115 138 189 248 270
#     4  10  18  28  46  71  93 123 160 197 232 279
#     4   9  18  30  48  69  94 128 160 192 236 282
#     4   9  16  27  46  70  91 118 155 195 229 279
#     4  12  16  26  48  70  90 122 168 194 228 274
#     4   8  14  28  45  65  89 120 165 197 216 273
#
# _framework density 26.804962
#
# number of rings (size 3 to 8) (size 9 to 14) (size 15 to 20)
#    0.000    2.667    2.857    0.571    0.000    0.381 
#    0.000    0.952    0.000    6.857    0.000    6.667 
#    0.000   15.238    0.000    0.000    0.000    0.000 
#
# Total GULP energy -116904.745919 kJ/mol
# GULP energy per Si atom -5566.892663 kJ/mol
# Density = 2.674395 g / cm^3
# Si number density = 26.804962 Si / 1000 Ang^3
#
#
#
# Elastic Constant Matrix: (Units=GPa)
#
#
# Indices 1 2 3 4 5 6 
#
# 1 89.0817 58.9595 31.1453 0.0000 -17.2714 0.0000
# 2 58.9595 369.1197 20.5941 0.0000 3.6664 0.0000
# 3 31.1453 20.5941 44.6997 0.0000 -10.9785 0.0000
# 4 0.0000 0.0000 0.0000 3.1347 0.0000 22.4756
# 5 -17.2714 3.6664 -10.9785 0.0000 50.6667 0.0000
# 6 0.0000 0.0000 0.0000 22.4756 0.0000 -6.5587
#
#
#
# Elastic Compliance Matrix: (Units=1/GPa)
#
#
# Indices 1 2 3 4 5 6 
#
# 1 0.016821 -0.002178 -0.009791 0.000000 0.003770 0.000000
# 2 -0.002178 0.003075 -0.000144 0.000000 -0.000996 0.000000
# 3 -0.009791 -0.000144 0.030041 0.000000 0.003182 0.000000
# 4 0.000000 0.000000 0.000000 0.012476 0.000000 0.042753
# 5 0.003770 -0.000996 0.003182 0.000000 0.021784 0.000000
# 6 0.000000 0.000000 0.000000 0.042753 0.000000 -0.005963
#
#
# Mechanical properties :
#
#
# Convention : Reuss Voigt Hill
#
# Bulk Modulus (GPa) = 38.89252 80.47766 59.68509
# Shear Modulus (GPa) = 45.03242 35.59537 40.31389
#
# Velocity S-wave (km/s) = 4.10323 3.64804 3.88231
# Velocity P-wave (km/s) = 6.08191 6.91613 6.51239
#
# Compressibility (1/GPa) = 0.02571188
#
# Stress axis : x y z
#
# Youngs Moduli (GPa) = 59.44790 325.20685 33.28734
#
# Poissons Ratio (x) = 0.70832 0.32592
# Poissons Ratio (y) = 0.12948 0.00478
# Poissons Ratio (z) = 0.58206 0.04675
#
# Static dielectric constant tensor:
#      x y z
#    x 1.973220 0.000000 -0.029860 
#    y 0.000000 2.187400 0.000000 
#    z -0.029860 0.000000 2.237680 
# 
# From -- ./inp_files/75174.got.cif
#   From: 2010.05.17/outbox.cif.g08.bks.cpg/sg10_38_cif.got.tgz:75174.got - 2010.06.03 11:33:40.
