data_PCOD9142281
_publ_section_title
;
Structure prediction by ZEFSAII (Michael W. Deem and Ramdas Pophale) SiO2 
 PCOD9142281
Probable space group: P 2/M
;
_chemical_formula_sum "Si O2"
_cell_formula_units_Z 32
_cell_length_a 21.618056
_cell_length_b 7.571439
_cell_length_c 30.805588
_cell_angle_alpha 90.000000
_cell_angle_beta 19.864795
_cell_angle_gamma 90.000000
_cell_volume 1713.366048
_symmetry_space_group_name_H-M "P 2/M"
_symmetry_group_IT_number 10
_symmetry_cell_setting 'monoclinic'
loop_
_space_group_symop_operation_xyz
x,y,z
-x,y,-z
-x,-y,-z
x,-y,z
loop_
_atom_site_type_symbol
_atom_site_label
_atom_site_fract_x
_atom_site_fract_y
_atom_site_fract_z
Si Si1 0.882137 0.713298 0.619450
Si Si2 0.786175 0.711338 0.314020
Si Si3 0.192740 0.703772 0.471068
Si Si4 0.884568 0.206350 0.036475
Si Si5 0.156214 0.788815 0.031912
Si Si6 0.499693 0.284507 0.330309
Si Si7 0.566014 0.791502 0.770968
Si Si8 0.489623 0.715645 0.577309
O O1 0.888182 0.500000 0.616451
O O2 0.677993 0.764301 0.741597
O O3 0.000000 0.773583 0.500000
O O4 0.998000 0.779176 0.584213
O O5 0.770608 0.500000 0.324126
O O6 0.671751 0.771736 0.431338
O O7 0.678286 0.774660 0.342149
O O8 0.997252 0.754955 0.171023
O O9 0.159182 0.500000 0.504913
O O10 0.315313 0.779602 0.428666
O O11 0.321433 0.707138 0.343137
O O12 0.673542 0.220745 0.188584
O O13 0.937704 0.000000 0.998625
O O14 0.905692 0.283328 0.974389
O O15 0.000000 0.285967 0.000000
O O16 0.171719 0.000000 0.017300
O O17 0.359102 0.724571 0.908921
O O18 0.501812 0.500000 0.327630
O O19 0.517461 0.226333 0.368391
O O20 0.564469 0.000000 0.762757
O O21 0.486749 0.500000 0.580153
#
# Coordination Sequence:
#
# PCOD9142281 Si02
#       8
#     4   4   4   4   4   4   4   4
#     4   8  15  27  41  59  86 114 144 178 214 257
#     4   9  17  31  50  66  85 115 150 187 226 262
#     4   9  17  28  42  63  89 117 144 177 217 260
#     4  10  20  32  43  59  90 125 149 176 219 263
#     4  10  20  31  42  63  93 118 145 184 220 255
#     4  10  18  29  47  67  89 116 148 182 219 264
#     4  10  18  28  42  61  88 119 147 178 215 256
#     4   8  16  31  48  68  89 110 145 193 229 255
#
# _framework density 18.676684999999999
#
# number of rings (size 3 to 8) (size 9 to 14) (size 15 to 20)
#    0.000    2.750    1.250    2.625    0.000    4.000 
#    0.000    1.875    0.000    0.000    0.000    0.875 
#    0.000    7.000    0.000    0.000    0.000    0.000 
#
# Total GULP energy -178332.070039 kJ/mol
# GULP energy per Si atom -5572.877189 kJ/mol
# Density = 1.863418 g / cm^3
# Si number density = 18.676685 Si / 1000 Ang^3
#
#
#
# Elastic Constant Matrix: (Units=GPa)
#
#
# Indices 1 2 3 4 5 6 
#
# 1 22.0259 -8.4368 2.7669 0.0000 -8.5822 0.0000
# 2 -8.4368 41.5011 -12.8194 0.0000 -2.1582 0.0000
# 3 2.7669 -12.8194 68.3311 0.0000 -8.4918 0.0000
# 4 0.0000 0.0000 0.0000 18.3062 0.0000 -3.4325
# 5 -8.5822 -2.1582 -8.4918 0.0000 28.3406 0.0000
# 6 0.0000 0.0000 0.0000 -3.4325 0.0000 4.9957
#
#
#
# Elastic Compliance Matrix: (Units=1/GPa)
#
#
# Indices 1 2 3 4 5 6 
#
# 1 0.057792 0.013557 0.002603 0.000000 0.019313 0.000000
# 2 0.013557 0.029100 0.005916 0.000000 0.008094 0.000000
# 3 0.002603 0.005916 0.016404 0.000000 0.006154 0.000000
# 4 0.000000 0.000000 0.000000 0.062705 0.000000 0.043083
# 5 0.019313 0.008094 0.006154 0.000000 0.043594 0.000000
# 6 0.000000 0.000000 0.000000 0.043083 0.000000 0.229775
#
#
# Mechanical properties :
#
#
# Convention : Reuss Voigt Hill
#
# Bulk Modulus (GPa) = 6.78194 10.54216 8.66205
# Shear Modulus (GPa) = 11.25199 20.35167 15.80183
#
# Velocity S-wave (km/s) = 2.45717 3.30462 2.91189
# Velocity P-wave (km/s) = 3.41897 4.49638 3.99417
#
# Compressibility (1/GPa) = 0.14745041
#
# Stress axis : x y z
#
# Youngs Moduli (GPa) = 17.30335 34.36398 60.96086
#
# Poissons Ratio (x) = -0.46588 -0.15871
# Poissons Ratio (y) = -0.23458 -0.36067
# Poissons Ratio (z) = -0.04505 -0.20331
#
# Static dielectric constant tensor:
#      x y z
#    x 1.677710 0.000000 -0.043810 
#    y 0.000000 1.710710 0.000000 
#    z -0.043810 0.000000 1.643640 
# 
# From -- ./inp_files/54855.got.cif
#   From: 2010.05.17/outbox.cif.g08.bks.cpg/sg10_28_cif.got.tgz:54855.got - 2010.06.03 11:33:40.
