data_PCOD9142572
_publ_section_title
;
Structure prediction by ZEFSAII (Michael W. Deem and Ramdas Pophale) SiO2 
 PCOD9142572
Probable space group: P 2/M
;
_chemical_formula_sum "Si O2"
_cell_formula_units_Z 32
_cell_length_a 21.733762
_cell_length_b 7.894731
_cell_length_c 12.718500
_cell_angle_alpha 90.000000
_cell_angle_beta 128.689537
_cell_angle_gamma 90.000000
_cell_volume 1703.357653
_symmetry_space_group_name_H-M "P 2/M"
_symmetry_group_IT_number 10
_symmetry_cell_setting 'monoclinic'
loop_
_space_group_symop_operation_xyz
x,y,z
-x,y,-z
-x,-y,-z
x,-y,z
loop_
_atom_site_type_symbol
_atom_site_label
_atom_site_fract_x
_atom_site_fract_y
_atom_site_fract_z
Si Si1 0.338519 0.296946 0.457787
Si Si2 0.953637 0.804067 0.794328
Si Si3 0.285053 0.292401 0.176634
Si Si4 0.546132 0.294760 0.238850
Si Si5 0.888886 0.697315 0.947021
Si Si6 0.367393 0.702148 0.052885
Si Si7 0.682316 0.201352 0.225889
Si Si8 0.201881 0.794693 0.471221
O O1 0.346056 0.500000 0.461056
O O2 0.331526 0.235646 0.330981
O O3 0.409256 0.234135 0.607660
O O4 0.258203 0.256527 0.434575
O O5 0.913486 0.792866 0.867050
O O6 0.886939 0.734692 0.644570
O O7 0.968922 0.000000 0.785911
O O8 0.037483 0.714167 0.895406
O O9 0.286212 0.500000 0.176626
O O10 0.193780 0.243059 0.094167
O O11 0.323860 0.231755 0.110223
O O12 0.544982 0.500000 0.239265
O O13 0.456846 0.231731 0.137245
O O14 0.601352 0.245044 0.200367
O O15 0.880385 0.500000 0.908328
O O16 0.374181 0.500000 0.073457
O O17 0.321239 0.733106 0.895863
O O18 0.753278 0.266016 0.376119
O O19 0.689004 0.000000 0.229052
O O20 0.199583 0.000000 0.470349
#
# Coordination Sequence:
#
# PCOD9142572 Si02
#       8
#     4   4   4   4   4   4   4   4
#     4   9  16  29  48  71  96 125 158 191 235 285
#     4  10  18  29  47  72  98 124 154 191 235 280
#     4   9  18  31  48  69  99 131 158 192 232 280
#     4   9  18  31  51  74  95 121 158 202 242 282
#     4  10  18  29  46  71 100 128 154 187 229 280
#     4  10  20  34  49  69  96 128 163 198 237 280
#     4  10  20  34  51  71  94 123 161 204 243 279
#     4   9  18  31  48  70  97 124 154 197 242 279
#
# _framework density 18.786425999999999
#
# number of rings (size 3 to 8) (size 9 to 14) (size 15 to 20)
#    0.000    2.500    1.250    2.250    0.000    3.500 
#    0.000    4.375    0.000    0.750    0.000    9.625 
#    0.000    0.000    0.000    0.000    0.000    0.000 
#
# Total GULP energy -178460.972079 kJ/mol
# GULP energy per Si atom -5576.905377 kJ/mol
# Density = 1.874367 g / cm^3
# Si number density = 18.786426 Si / 1000 Ang^3
#
#
#
# Elastic Constant Matrix: (Units=GPa)
#
#
# Indices 1 2 3 4 5 6 
#
# 1 28.8264 -1.2428 35.6742 0.0000 -12.4184 0.0000
# 2 -1.2428 17.7260 -6.1067 0.0000 0.5627 0.0000
# 3 35.6742 -6.1067 113.1955 0.0000 -13.5706 0.0000
# 4 0.0000 0.0000 0.0000 19.2741 0.0000 -8.2772
# 5 -12.4184 0.5627 -13.5706 0.0000 27.0308 0.0000
# 6 0.0000 0.0000 0.0000 -8.2772 0.0000 82.9042
#
#
#
# Elastic Compliance Matrix: (Units=1/GPa)
#
#
# Indices 1 2 3 4 5 6 
#
# 1 0.066882 -0.002412 -0.018641 0.000000 0.021419 0.000000
# 2 -0.002412 0.057573 0.003820 0.000000 -0.000389 0.000000
# 3 -0.018641 0.003820 0.014768 0.000000 -0.001229 0.000000
# 4 0.000000 0.000000 0.000000 0.054207 0.000000 0.005412
# 5 0.021419 -0.000389 -0.001229 0.000000 0.046226 0.000000
# 6 0.000000 0.000000 0.000000 0.005412 0.000000 0.012602
#
#
# Mechanical properties :
#
#
# Convention : Reuss Voigt Hill
#
# Bulk Modulus (GPa) = 9.54596 24.04415 16.79506
# Shear Modulus (GPa) = 15.54511 34.60337 25.07424
#
# Velocity S-wave (km/s) = 2.87969 4.29643 3.65732
# Velocity P-wave (km/s) = 4.01860 6.11873 5.17630
#
# Compressibility (1/GPa) = 0.10475631
#
# Stress axis : x y z
#
# Youngs Moduli (GPa) = 14.95166 17.36913 67.71564
#
# Poissons Ratio (x) = 0.04190 1.26226
# Poissons Ratio (y) = 0.03607 -0.25865
# Poissons Ratio (z) = 0.27871 -0.06634
#
# Static dielectric constant tensor:
#      x y z
#    x 1.620550 0.000000 0.024930 
#    y 0.000000 1.679440 0.000000 
#    z 0.024930 0.000000 1.690920 
# 
# From -- ./inp_files/54893.got.cif
#   From: 2010.05.17/outbox.cif.g08.bks.cpg/sg10_28_cif.got.tgz:54893.got - 2010.06.03 11:33:40.
