data_PCOD9142587
_publ_section_title
;
Structure prediction by ZEFSAII (Michael W. Deem and Ramdas Pophale) SiO2 
 PCOD9142587
Probable space group: P 2/M
;
_chemical_formula_sum "Si O2"
_cell_formula_units_Z 28
_cell_length_a 32.661968
_cell_length_b 9.306434
_cell_length_c 10.037374
_cell_angle_alpha 90.000000
_cell_angle_beta 33.200785
_cell_angle_gamma 90.000000
_cell_volume 1670.664027
_symmetry_space_group_name_H-M "P 2/M"
_symmetry_group_IT_number 10
_symmetry_cell_setting 'monoclinic'
loop_
_space_group_symop_operation_xyz
x,y,z
-x,y,-z
-x,-y,-z
x,-y,z
loop_
_atom_site_type_symbol
_atom_site_label
_atom_site_fract_x
_atom_site_fract_y
_atom_site_fract_z
Si Si1 0.850070 0.334872 0.750673
Si Si2 0.554629 0.669406 0.978115
Si Si3 0.465392 0.168421 0.448212
Si Si4 0.147255 0.666096 0.931985
Si Si5 0.701749 0.830571 0.483808
Si Si6 0.998385 0.165890 0.341859
Si Si7 0.298412 0.168314 0.836870
O O1 0.854913 0.500000 0.694525
O O2 0.921745 0.243878 0.510261
O O3 0.852008 0.333788 0.907687
O O4 0.771722 0.262156 0.926194
O O5 0.569158 0.500000 0.955100
O O6 0.631093 0.753988 0.742339
O O7 0.500000 0.687584 0.000000
O O8 0.511649 0.735649 0.220303
O O9 0.500000 0.180059 0.500000
O O10 0.377894 0.208757 0.683224
O O11 0.469087 0.000000 0.396053
O O12 0.148656 0.500000 0.885552
O O13 0.220962 0.752542 0.688704
O O14 0.071332 0.746619 0.098116
O O15 0.693839 0.816244 0.344568
O O16 0.704080 0.000000 0.508070
O O17 0.000000 0.166282 0.500000
O O18 0.000654 0.000000 0.293543
O O19 0.283358 0.000000 0.904529
#
# Coordination Sequence:
#
# PCOD9142587 Si02
#       7
#     4   4   4   4   4   4   4
#     4   9  16  24  37  57  83 118 156 194 236 285
#     4  11  22  34  51  74 100 129 165 207 251 299
#     4  10  21  37  55  74  98 130 167 208 254 301
#     4   9  16  25  37  57  88 120 153 194 240 288
#     4  10  18  29  47  68  92 124 163 203 244 290
#     4   9  15  23  35  53  81 118 157 192 232 284
#     4   9  17  29  45  66  91 121 158 201 244 290
#
# _framework density 16.759802000000001
#
# number of rings (size 3 to 8) (size 9 to 14) (size 15 to 20)
#    0.000    2.429    1.429    2.143    0.000    7.143 
#    0.000    0.000    0.000    0.000    0.000    0.000 
#    0.000    1.143    0.000   12.286    0.000    9.000 
#
# Total GULP energy -156137.983072 kJ/mol
# GULP energy per Si atom -5576.356538 kJ/mol
# Density = 1.672166 g / cm^3
# Si number density = 16.759802 Si / 1000 Ang^3
#
#
#
# Elastic Constant Matrix: (Units=GPa)
#
#
# Indices 1 2 3 4 5 6 
#
# 1 44.6725 52.6060 51.8329 0.0000 -27.8843 0.0000
# 2 52.6060 154.1898 93.8947 0.0000 -39.0173 0.0000
# 3 51.8329 93.8947 111.0948 0.0000 -52.6056 0.0000
# 4 0.0000 0.0000 0.0000 -4.3985 0.0000 -5.9603
# 5 -27.8843 -39.0173 -52.6056 0.0000 34.3613 0.0000
# 6 0.0000 0.0000 0.0000 -5.9603 0.0000 10.8384
#
#
#
# Elastic Compliance Matrix: (Units=1/GPa)
#
#
# Indices 1 2 3 4 5 6 
#
# 1 0.056481 -0.008447 -0.007457 0.000000 0.024826 0.000000
# 2 -0.008447 0.015211 -0.014477 0.000000 -0.011746 0.000000
# 3 -0.007457 -0.014477 0.051140 0.000000 0.055803 0.000000
# 4 0.000000 0.000000 0.000000 -0.130273 0.000000 -0.071641
# 5 0.024826 -0.011746 0.055803 0.000000 0.121343 0.000000
# 6 0.000000 0.000000 0.000000 -0.071641 0.000000 0.052868
#
#
# Mechanical properties :
#
#
# Convention : Reuss Voigt Hill
#
# Bulk Modulus (GPa) = 16.11086 78.51381 47.31234
# Shear Modulus (GPa) = 20.14333 15.60181 17.87257
#
# Velocity S-wave (km/s) = 3.47058 3.05439 3.26911
# Velocity P-wave (km/s) = 5.06888 7.70631 6.52230
#
# Compressibility (1/GPa) = 0.06206993
#
# Stress axis : x y z
#
# Youngs Moduli (GPa) = 17.70507 65.74294 19.55417
#
# Poissons Ratio (x) = 0.55530 0.14582
# Poissons Ratio (y) = 0.14955 0.28308
# Poissons Ratio (z) = 0.13204 0.95175
#
# Static dielectric constant tensor:
#      x y z
#    x 1.545510 0.000000 -0.012890 
#    y 0.000000 1.562880 0.000000 
#    z -0.012890 0.000000 1.542340 
# 
# From -- ./inp_files/37117.got.cif
#   From: 2010.05.17/outbox.cif.g08.bks.cpg/sg10_19_cif.got.tgz:37117.got - 2010.06.03 11:33:40.
