data_PCOD9142795
_publ_section_title
;
Structure prediction by ZEFSAII (Michael W. Deem and Ramdas Pophale) SiO2 
 PCOD9142795
Probable space group: P 2/M
;
_chemical_formula_sum "Si O2"
_cell_formula_units_Z 32
_cell_length_a 21.270278
_cell_length_b 14.380774
_cell_length_c 17.704717
_cell_angle_alpha 90.000000
_cell_angle_beta 159.981553
_cell_angle_gamma 90.000000
_cell_volume 1853.873418
_symmetry_space_group_name_H-M "P 2/M"
_symmetry_group_IT_number 10
_symmetry_cell_setting 'monoclinic'
loop_
_space_group_symop_operation_xyz
x,y,z
-x,y,-z
-x,-y,-z
x,-y,z
loop_
_atom_site_type_symbol
_atom_site_label
_atom_site_fract_x
_atom_site_fract_y
_atom_site_fract_z
Si Si1 0.683219 0.392500 0.154257
Si Si2 0.145381 0.399764 0.400257
Si Si3 0.779730 0.388835 0.749277
Si Si4 0.547942 0.231127 0.904459
Si Si5 0.181439 0.745307 0.571966
Si Si6 0.246221 0.392416 0.109692
Si Si7 0.902740 0.894333 0.308636
Si Si8 0.556160 0.681596 0.360383
O O1 0.743179 0.500000 0.209418
O O2 0.812656 0.322327 0.348215
O O3 0.500000 0.398253 0.000000
O O4 0.631147 0.333182 0.020948
O O5 0.133539 0.500000 0.424836
O O6 0.136257 0.321225 0.451632
O O7 0.334115 0.392406 0.567451
O O8 0.971851 0.388568 0.149701
O O9 0.740752 0.500000 0.690712
O O10 0.713017 0.365053 0.758459
O O11 0.685418 0.322728 0.580847
O O12 0.000000 0.380298 0.000000
O O13 0.384162 0.216616 0.779856
O O14 0.470512 0.236582 0.731376
O O15 0.705707 0.155182 0.090889
O O16 0.036173 0.827065 0.412831
O O17 0.300442 0.500000 0.163778
O O18 0.357968 0.340327 0.171255
O O19 0.000000 0.897129 0.500000
O O20 0.888729 0.000000 0.264604
#
# Coordination Sequence:
#
# PCOD9142795 Si02
#       8
#     4   4   4   4   4   4   4   4
#     4   9  17  31  50  73 106 148 182 209 246 297
#     4  10  19  31  49  74 107 147 183 220 260 304
#     4  10  18  30  46  67 103 147 192 228 257 298
#     4  10  22  37  54  81 111 138 180 226 261 320
#     4  10  20  36  55  76 109 140 178 220 263 318
#     4  10  19  29  44  67 100 143 190 230 257 296
#     4  11  23  40  62  81 102 133 174 229 289 333
#     4  11  20  31  49  70 105 144 181 222 264 306
#
# _framework density 17.261157000000001
#
# number of rings (size 3 to 8) (size 9 to 14) (size 15 to 20)
#    0.000    1.875    2.500    2.625    0.000    5.500 
#    0.000    3.125    0.000    0.000    0.000    0.000 
#    0.000    8.500    0.000    3.250    0.000    0.000 
#
# Total GULP energy -178286.772067 kJ/mol
# GULP energy per Si atom -5571.461627 kJ/mol
# Density = 1.722187 g / cm^3
# Si number density = 17.261157 Si / 1000 Ang^3
#
#
#
# Elastic Constant Matrix: (Units=GPa)
#
#
# Indices 1 2 3 4 5 6 
#
# 1 65.9795 26.9333 14.0571 0.0000 -0.5910 0.0000
# 2 26.9333 94.1172 38.0437 0.0000 9.7680 0.0000
# 3 14.0571 38.0437 74.3082 0.0000 5.1364 0.0000
# 4 0.0000 0.0000 0.0000 11.4909 0.0000 2.7934
# 5 -0.5910 9.7680 5.1364 0.0000 28.5229 0.0000
# 6 0.0000 0.0000 0.0000 2.7934 0.0000 17.9651
#
#
#
# Elastic Compliance Matrix: (Units=1/GPa)
#
#
# Indices 1 2 3 4 5 6 
#
# 1 0.017341 -0.004793 -0.000977 0.000000 0.002177 0.000000
# 2 -0.004793 0.015055 -0.006519 0.000000 -0.004081 0.000000
# 3 -0.000977 -0.006519 0.017039 0.000000 -0.000856 0.000000
# 4 0.000000 0.000000 0.000000 0.090444 0.000000 -0.014063
# 5 0.002177 -0.004081 -0.000856 0.000000 0.036656 0.000000
# 6 0.000000 0.000000 0.000000 -0.014063 0.000000 0.057850
#
#
# Mechanical properties :
#
#
# Convention : Reuss Voigt Hill
#
# Bulk Modulus (GPa) = 40.23085 43.60812 41.91948
# Shear Modulus (GPa) = 18.70907 21.95382 20.33144
#
# Velocity S-wave (km/s) = 3.29581 3.57019 3.43574
# Velocity P-wave (km/s) = 6.15150 6.50489 6.33066
#
# Compressibility (1/GPa) = 0.02485655
#
# Stress axis : x y z
#
# Youngs Moduli (GPa) = 57.66845 66.42099 58.68885
#
# Poissons Ratio (x) = 0.31838 0.05732
# Poissons Ratio (y) = 0.27643 0.38260
# Poissons Ratio (z) = 0.05633 0.43301
#
# Static dielectric constant tensor:
#      x y z
#    x 1.633320 0.000000 0.004400 
#    y 0.000000 1.560490 0.000000 
#    z 0.004400 0.000000 1.654680 
# 
# From -- ./inp_files/79750.got.cif
#   From: 2010.05.17/outbox.cif.g08.bks.cpg/sg10_40_cif.got.tgz:79750.got - 2010.06.03 11:33:40.
