data_PCOD9142685
_publ_section_title
;
Structure prediction by ZEFSAII (Michael W. Deem and Ramdas Pophale) SiO2 
 PCOD9142685
Probable space group: P 2/M
;
_chemical_formula_sum "Si O2"
_cell_formula_units_Z 32
_cell_length_a 19.208693
_cell_length_b 13.710874
_cell_length_c 7.890954
_cell_angle_alpha 90.000000
_cell_angle_beta 52.883267
_cell_angle_gamma 90.000000
_cell_volume 1657.192307
_symmetry_space_group_name_H-M "P 2/M"
_symmetry_group_IT_number 10
_symmetry_cell_setting 'monoclinic'
loop_
_space_group_symop_operation_xyz
x,y,z
-x,y,-z
-x,-y,-z
x,-y,z
loop_
_atom_site_type_symbol
_atom_site_label
_atom_site_fract_x
_atom_site_fract_y
_atom_site_fract_z
Si Si1 0.178195 0.206968 0.932602
Si Si2 0.983652 0.208775 0.220465
Si Si3 0.190384 0.112059 0.546110
Si Si4 0.914377 0.612406 0.505295
Si Si5 0.249696 0.747259 0.172754
Si Si6 0.724165 0.611573 0.331188
Si Si7 0.609951 0.610529 0.157411
Si Si8 0.559905 0.383110 0.755043
O O1 0.192884 0.141442 0.742764
O O2 0.197990 0.315582 0.829526
O O3 0.080307 0.196727 0.150790
O O4 0.238754 0.195865 0.009172
O O5 0.909078 0.131486 0.373323
O O6 0.944233 0.315389 0.312651
O O7 0.000000 0.197786 0.000000
O O8 0.243591 0.182829 0.343283
O O9 0.214612 0.000000 0.492289
O O10 0.894470 0.500000 0.492519
O O11 0.829555 0.667243 0.705375
O O12 0.000000 0.612298 0.500000
O O13 0.337693 0.686154 0.033443
O O14 0.752330 0.500000 0.323809
O O15 0.660654 0.609782 0.260512
O O16 0.658055 0.651481 0.572447
O O17 0.618379 0.500000 0.076697
O O18 0.507544 0.633332 0.300865
O O19 0.571359 0.500000 0.752324
O O20 0.500000 0.350364 0.000000
#
# Coordination Sequence:
#
# PCOD9142685 Si02
#       8
#     4   4   4   4   4   4   4   4
#     4  10  20  35  54  77 105 136 171 218 260 311
#     4   9  19  35  51  71 103 135 176 223 256 308
#     4  10  23  39  56  77 101 133 176 227 278 320
#     4  10  18  29  49  71 104 144 174 206 246 300
#     4  10  20  35  54  77 107 136 177 219 260 311
#     4   9  18  31  49  76 108 144 177 208 252 303
#     4   9  17  30  50  75 108 146 177 209 250 302
#     4   9  17  28  45  72 108 144 178 209 243 297
#
# _framework density 19.309767999999998
#
# number of rings (size 3 to 8) (size 9 to 14) (size 15 to 20)
#    0.000    2.500    1.250    0.750    1.750    5.500 
#    0.000    5.625    0.000    0.000    0.000    1.750 
#    0.000    4.000    0.000    0.000    0.000    0.000 
#
# Total GULP energy -178186.289379 kJ/mol
# GULP energy per Si atom -5568.321543 kJ/mol
# Density = 1.926582 g / cm^3
# Si number density = 19.309768 Si / 1000 Ang^3
#
#
#
# Elastic Constant Matrix: (Units=GPa)
#
#
# Indices 1 2 3 4 5 6 
#
# 1 39.9673 11.9844 2.2573 0.0000 2.1038 0.0000
# 2 11.9844 84.3849 26.0588 0.0000 1.6686 0.0000
# 3 2.2573 26.0588 76.4484 0.0000 0.4869 0.0000
# 4 0.0000 0.0000 0.0000 12.1709 0.0000 2.8260
# 5 2.1038 1.6686 0.4869 0.0000 24.7818 0.0000
# 6 0.0000 0.0000 0.0000 2.8260 0.0000 11.3208
#
#
#
# Elastic Compliance Matrix: (Units=1/GPa)
#
#
# Indices 1 2 3 4 5 6 
#
# 1 0.026251 -0.003860 0.000553 0.000000 -0.001980 0.000000
# 2 -0.003860 0.013828 -0.004596 0.000000 -0.000513 0.000000
# 3 0.000553 -0.004596 0.014631 0.000000 -0.000025 0.000000
# 4 0.000000 0.000000 0.000000 0.087218 0.000000 -0.021772
# 5 -0.001980 -0.000513 -0.000025 0.000000 0.040555 0.000000
# 6 0.000000 0.000000 0.000000 -0.021772 0.000000 0.093768
#
#
# Mechanical properties :
#
#
# Convention : Reuss Voigt Hill
#
# Bulk Modulus (GPa) = 25.70411 31.26685 28.48548
# Shear Modulus (GPa) = 16.39203 20.35470 18.37336
#
# Velocity S-wave (km/s) = 2.91675 3.25023 3.08800
# Velocity P-wave (km/s) = 4.96826 5.50570 5.24387
#
# Compressibility (1/GPa) = 0.03890429
#
# Stress axis : x y z
#
# Youngs Moduli (GPa) = 38.09405 72.31615 68.34669
#
# Poissons Ratio (x) = 0.27913 -0.03781
# Poissons Ratio (y) = 0.14704 0.31414
# Poissons Ratio (z) = -0.02107 0.33239
#
# Static dielectric constant tensor:
#      x y z
#    x 1.788270 0.000000 0.019820 
#    y 0.000000 1.645060 0.000000 
#    z 0.019820 0.000000 1.740300 
# 
# From -- ./inp_files/34810.got.cif
#   From: 2010.05.17/outbox.cif.g08.bks.cpg/sg10_18_cif.got.tgz:34810.got - 2010.06.03 11:33:40.
