data_PCOD9142741
_publ_section_title
;
Structure prediction by ZEFSAII (Michael W. Deem and Ramdas Pophale) SiO2 
 PCOD9142741
Probable space group: P 2/M
;
_chemical_formula_sum "Si O2"
_cell_formula_units_Z 32
_cell_length_a 12.559982
_cell_length_b 8.063618
_cell_length_c 15.682591
_cell_angle_alpha 90.000000
_cell_angle_beta 80.055870
_cell_angle_gamma 90.000000
_cell_volume 1564.453637
_symmetry_space_group_name_H-M "P 2/M"
_symmetry_group_IT_number 10
_symmetry_cell_setting 'monoclinic'
loop_
_space_group_symop_operation_xyz
x,y,z
-x,y,-z
-x,-y,-z
x,-y,z
loop_
_atom_site_type_symbol
_atom_site_label
_atom_site_fract_x
_atom_site_fract_y
_atom_site_fract_z
Si Si1 0.391352 0.691079 0.559963
Si Si2 0.733114 0.197223 0.675811
Si Si3 0.488759 0.689889 0.732714
Si Si4 0.120758 0.304123 0.191247
Si Si5 0.822566 0.811039 0.484629
Si Si6 0.876201 0.297743 0.999853
Si Si7 0.895254 0.804033 0.300172
Si Si8 0.270337 0.299713 0.823489
O O1 0.500000 0.747814 0.500000
O O2 0.367339 0.500000 0.536048
O O3 0.422342 0.686549 0.653731
O O4 0.293446 0.804843 0.546385
O O5 0.604662 0.230239 0.698044
O O6 0.788376 0.270134 0.751712
O O7 0.793815 0.262652 0.581560
O O8 0.748457 0.000000 0.673209
O O9 0.512342 0.500000 0.755572
O O10 0.394396 0.764388 0.805500
O O11 0.100477 0.500000 0.187602
O O12 0.009288 0.226564 0.239601
O O13 0.151739 0.244912 0.092281
O O14 0.894777 0.734763 0.398073
O O15 0.860068 0.000000 0.494232
O O16 0.873154 0.500000 0.003638
O O17 0.797443 0.238908 0.085614
O O18 0.000000 0.248263 0.000000
O O19 0.801485 0.737112 0.250832
O O20 0.877745 0.000000 0.310724
O O21 0.278713 0.500000 0.826434
#
# Coordination Sequence:
#
# PCOD9142741 Si02
#       8
#     4   4   4   4   4   4   4   4
#     4  10  18  29  50  81 113 143 185 241 282 317
#     4  11  24  41  58  78 113 160 201 234 276 336
#     4  10  20  34  56  86 118 151 190 236 285 332
#     4  11  23  41  63  84 111 148 192 238 286 342
#     4  10  22  36  53  79 114 156 193 229 278 338
#     4   9  17  34  63  92 114 140 182 233 287 344
#     4  11  22  36  56  86 120 149 185 233 287 341
#     4  10  19  35  60  91 120 147 183 234 288 337
#
# _framework density 20.454423999999999
#
# number of rings (size 3 to 8) (size 9 to 14) (size 15 to 20)
#    0.000    1.750    3.750    1.125    0.000    2.750 
#    0.000    5.000    0.000    3.750    0.000    0.000 
#    0.000    0.000    0.000    0.000    0.000    0.000 
#
# Total GULP energy -178432.877806 kJ/mol
# GULP energy per Si atom -5576.027431 kJ/mol
# Density = 2.040787 g / cm^3
# Si number density = 20.454424 Si / 1000 Ang^3
#
#
#
# Elastic Constant Matrix: (Units=GPa)
#
#
# Indices 1 2 3 4 5 6 
#
# 1 45.6459 -7.4834 37.4359 0.0000 -11.8598 0.0000
# 2 -7.4834 15.2539 -0.8182 0.0000 -2.8282 0.0000
# 3 37.4359 -0.8182 156.5311 0.0000 -17.9400 0.0000
# 4 0.0000 0.0000 0.0000 -32.2911 0.0000 -35.2458
# 5 -11.8598 -2.8282 -17.9400 0.0000 39.0095 0.0000
# 6 0.0000 0.0000 0.0000 -35.2458 0.0000 1.4786
#
#
#
# Elastic Compliance Matrix: (Units=1/GPa)
#
#
# Indices 1 2 3 4 5 6 
#
# 1 0.032257 0.016938 -0.006715 0.000000 0.007947 0.000000
# 2 0.016938 0.075478 -0.002575 0.000000 0.009438 0.000000
# 3 -0.006715 -0.002575 0.008156 0.000000 0.001522 0.000000
# 4 0.000000 0.000000 0.000000 -0.001146 0.000000 -0.027322
# 5 0.007947 0.009438 0.001522 0.000000 0.029435 0.000000
# 6 0.000000 0.000000 0.000000 -0.027322 0.000000 0.025032
#
#
# Mechanical properties :
#
#
# Convention : Reuss Voigt Hill
#
# Bulk Modulus (GPa) = 7.62272 30.63327 19.12800
# Shear Modulus (GPa) = 25.29804 14.19252 19.74528
#
# Velocity S-wave (km/s) = 3.52063 2.63698 3.11035
# Velocity P-wave (km/s) = 4.50125 4.92752 4.71920
#
# Compressibility (1/GPa) = 0.13118673
#
# Stress axis : x y z
#
# Youngs Moduli (GPa) = 31.00121 13.24886 122.61604
#
# Poissons Ratio (x) = -0.22441 0.82339
# Poissons Ratio (y) = -0.52510 0.31570
# Poissons Ratio (z) = 0.20818 0.03411
#
# Static dielectric constant tensor:
#      x y z
#    x 1.720110 0.000000 -0.051520 
#    y 0.000000 1.759100 0.000000 
#    z -0.051520 0.000000 1.789710 
# 
# From -- ./inp_files/63759.got.cif
#   From: 2010.05.17/outbox.cif.g08.bks.cpg/sg10_32_cif.got.tgz:63759.got - 2010.06.03 11:33:40.
