data_PCOD9142394
_publ_section_title
;
Structure prediction by ZEFSAII (Michael W. Deem and Ramdas Pophale) SiO2 
 PCOD9142394
Probable space group: P 2/M
;
_chemical_formula_sum "Si O2"
_cell_formula_units_Z 30
_cell_length_a 25.451037
_cell_length_b 13.481282
_cell_length_c 5.457934
_cell_angle_alpha 90.000000
_cell_angle_beta 107.856892
_cell_angle_gamma 90.000000
_cell_volume 1782.470033
_symmetry_space_group_name_H-M "P 2/M"
_symmetry_group_IT_number 10
_symmetry_cell_setting 'monoclinic'
loop_
_space_group_symop_operation_xyz
x,y,z
-x,y,-z
-x,-y,-z
x,-y,z
loop_
_atom_site_type_symbol
_atom_site_label
_atom_site_fract_x
_atom_site_fract_y
_atom_site_fract_z
Si Si1 0.063049 0.619838 0.593311
Si Si2 0.425369 0.893866 0.777253
Si Si3 0.750794 0.292405 0.671891
Si Si4 0.318262 0.887736 0.278981
Si Si5 0.500000 0.190237 0.500000
Si Si6 0.395660 0.258792 0.109220
Si Si7 0.298156 0.384455 0.897069
Si Si8 0.871847 0.379400 0.813300
O O1 0.060539 0.500000 0.588611
O O2 0.095264 0.645893 0.389471
O O3 0.000000 0.656964 0.500000
O O4 0.094034 0.645285 0.890844
O O5 0.368220 0.895099 0.544267
O O6 0.478204 0.882488 0.679980
O O7 0.426743 0.000000 0.914663
O O8 0.423124 0.791691 0.917157
O O9 0.731746 0.178635 0.688431
O O10 0.722302 0.329639 0.379116
O O11 0.814774 0.319663 0.737258
O O12 0.730064 0.348644 0.889312
O O13 0.347932 0.821215 0.113777
O O14 0.303345 0.000000 0.184271
O O15 0.446135 0.256362 0.369246
O O16 0.362859 0.358899 0.021302
O O17 0.287291 0.500000 0.849796
O O18 0.861886 0.500000 0.798542
#
# Coordination Sequence:
#
# PCOD9142394 Si02
#       8
#     4   4   4   4   2   4   4   4
#     4   9  17  29  45  68 102 141 174 207 250 296
#     4  10  18  32  51  72  97 126 159 202 264 321
#     4  11  21  36  54  80 106 137 175 220 257 302
#     4   9  19  34  52  75 103 134 165 205 263 323
#     4  10  21  32  47  72 100 122 161 212 259 308
#     4  10  20  34  51  72  98 131 166 208 257 319
#     4  11  22  37  56  75 101 138 178 215 257 305
#     4  10  18  28  46  72 103 136 173 211 248 291
#
# _framework density 16.830577000000002
#
# number of rings (size 3 to 8) (size 9 to 14) (size 15 to 20)
#    0.000    2.000    1.333    3.400    0.000    4.800 
#    0.000    0.333    0.000    1.600    0.000    0.000 
#    0.000    3.200    0.000    0.000    0.000    0.000 
#
# Total GULP energy -167036.618096 kJ/mol
# GULP energy per Si atom -5567.887270 kJ/mol
# Density = 1.679227 g / cm^3
# Si number density = 16.830577 Si / 1000 Ang^3
#
#
#
# Elastic Constant Matrix: (Units=GPa)
#
#
# Indices 1 2 3 4 5 6 
#
# 1 125.0622 30.2949 43.3271 0.0000 1.8065 0.0000
# 2 30.2949 50.7427 14.8072 0.0000 0.8052 0.0000
# 3 43.3271 14.8072 86.8873 0.0000 -5.0904 0.0000
# 4 0.0000 0.0000 0.0000 10.1414 0.0000 -10.1789
# 5 1.8065 0.8052 -5.0904 0.0000 31.4076 0.0000
# 6 0.0000 0.0000 0.0000 -10.1789 0.0000 -7.9980
#
#
#
# Elastic Compliance Matrix: (Units=1/GPa)
#
#
# Indices 1 2 3 4 5 6 
#
# 1 0.010850 -0.005112 -0.004612 0.000000 -0.001241 0.000000
# 2 -0.005112 0.023186 -0.001433 0.000000 -0.000533 0.000000
# 3 -0.004612 -0.001433 0.014206 0.000000 0.002604 0.000000
# 4 0.000000 0.000000 0.000000 0.043297 0.000000 -0.055104
# 5 -0.001241 -0.000533 0.002604 0.000000 0.032347 0.000000
# 6 0.000000 0.000000 0.000000 -0.055104 0.000000 -0.054901
#
#
# Mechanical properties :
#
#
# Convention : Reuss Voigt Hill
#
# Bulk Modulus (GPa) = 38.56981 48.83895 43.70438
# Shear Modulus (GPa) = 50.02881 18.32774 34.17828
#
# Velocity S-wave (km/s) = 5.45797 3.30351 4.51125
# Velocity P-wave (km/s) = 7.91742 6.60545 7.29100
#
# Compressibility (1/GPa) = 0.02592701
#
# Stress axis : x y z
#
# Youngs Moduli (GPa) = 92.16470 43.12916 70.39381
#
# Poissons Ratio (x) = 0.22049 0.32465
# Poissons Ratio (y) = 0.47118 0.10089
# Poissons Ratio (z) = 0.42506 0.06181
#
# Static dielectric constant tensor:
#      x y z
#    x 1.577530 0.000000 -0.012840 
#    y 0.000000 1.556430 0.000000 
#    z -0.012840 0.000000 1.647580 
# 
# From -- ./inp_files/13131.got.cif
#   From: 2010.05.17/outbox.cif.g08.bks.cpg/sg10_7_cif.got.tgz:13131.got - 2010.06.03 11:33:40.
