data_PCOD9142714
_publ_section_title
;
Structure prediction by ZEFSAII (Michael W. Deem and Ramdas Pophale) SiO2 
 PCOD9142714
Probable space group: P 2/M
;
_chemical_formula_sum "Si O2"
_cell_formula_units_Z 29
_cell_length_a 18.275563
_cell_length_b 14.190113
_cell_length_c 9.398177
_cell_angle_alpha 90.000000
_cell_angle_beta 32.511320
_cell_angle_gamma 90.000000
_cell_volume 1309.940045
_symmetry_space_group_name_H-M "P 2/M"
_symmetry_group_IT_number 10
_symmetry_cell_setting 'monoclinic'
loop_
_space_group_symop_operation_xyz
x,y,z
-x,y,-z
-x,-y,-z
x,-y,z
loop_
_atom_site_type_symbol
_atom_site_label
_atom_site_fract_x
_atom_site_fract_y
_atom_site_fract_z
Si Si1 0.488562 0.891115 0.355100
Si Si2 0.928207 0.897432 0.315829
Si Si3 0.146777 0.303947 0.180609
Si Si4 0.635963 0.155172 0.714826
Si Si5 0.706283 0.657665 0.776892
Si Si6 0.003166 0.319926 0.833717
Si Si7 0.801898 0.898394 0.832626
Si Si8 0.500000 0.500000 0.000000
O O1 0.500000 0.859213 0.500000
O O2 0.399580 0.829972 0.393164
O O3 0.437700 0.000000 0.439311
O O4 0.644264 0.894289 0.046809
O O5 0.778602 0.897175 0.490210
O O6 0.990522 0.795638 0.175305
O O7 0.893729 0.893198 0.541337
O O8 0.992721 0.000000 0.178583
O O9 0.260873 0.334558 0.107767
O O10 0.172593 0.192889 0.117217
O O11 0.000000 0.313186 0.500000
O O12 0.120235 0.347853 0.069380
O O13 0.657840 0.246622 0.777935
O O14 0.500000 0.106734 0.000000
O O15 0.855900 0.642710 0.463755
O O16 0.596730 0.581036 0.916157
O O17 0.000000 0.352723 0.000000
O O18 0.822160 0.000000 0.868780
#
# Coordination Sequence:
#
# PCOD9142714 Si02
#       8
#     4   4   4   4   4   4   4   1
#     4  10  21  32  45  76 119 164 212 256 296 342
#     4  10  19  30  50  84 118 163 218 254 294 332
#     4  10  18  38  59  86 121 155 208 244 283 363
#     4  11  17  32  55  79 115 159 208 251 303 367
#     4  10  22  39  66  98 116 152 191 251 323 374
#     4  10  22  40  63  90 127 170 206 245 292 361
#     4  10  18  29  49  79 115 162 211 257 297 333
#     4  12  24  44  76 102 124 132 190 272 318 394
#
# _framework density 22.138418999999999
#
# number of rings (size 3 to 8) (size 9 to 14) (size 15 to 20)
#    0.000    1.793    6.207    0.414    0.000    3.862 
#    0.000    4.828    0.000    0.828    0.000    0.000 
#    0.000    0.000    0.000    0.000    0.000    0.000 
#
# Total GULP energy -161521.170000 kJ/mol
# GULP energy per Si atom -5569.695517 kJ/mol
# Density = 2.208803 g / cm^3
# Si number density = 22.138419 Si / 1000 Ang^3
#
#
#
# Elastic Constant Matrix: (Units=GPa)
#
#
# Indices 1 2 3 4 5 6 
#
# 1 242.4151 51.1626 36.1507 0.0000 3.3535 0.0000
# 2 51.1626 65.8237 4.1346 0.0000 -5.6165 0.0000
# 3 36.1507 4.1346 26.1292 0.0000 11.4800 0.0000
# 4 0.0000 0.0000 0.0000 33.8350 0.0000 -27.1546
# 5 3.3535 -5.6165 11.4800 0.0000 33.4364 0.0000
# 6 0.0000 0.0000 0.0000 -27.1546 0.0000 26.5540
#
#
#
# Elastic Compliance Matrix: (Units=1/GPa)
#
#
# Indices 1 2 3 4 5 6 
#
# 1 0.006299 -0.004201 -0.008788 0.000000 0.001680 0.000000
# 2 -0.004201 0.018618 0.001539 0.000000 0.003020 0.000000
# 3 -0.008788 0.001539 0.058512 0.000000 -0.018950 0.000000
# 4 0.000000 0.000000 0.000000 0.164847 0.000000 0.168575
# 5 0.001680 0.003020 -0.018950 0.000000 0.036753 0.000000
# 6 0.000000 0.000000 0.000000 0.168575 0.000000 0.210047
#
#
# Mechanical properties :
#
#
# Convention : Reuss Voigt Hill
#
# Bulk Modulus (GPa) = 16.52104 57.47375 36.99740
# Shear Modulus (GPa) = 9.29103 34.95975 22.12539
#
# Velocity S-wave (km/s) = 2.05083 3.97816 3.16478
# Velocity P-wave (km/s) = 3.61755 6.86429 5.48658
#
# Compressibility (1/GPa) = 0.06052888
#
# Stress axis : x y z
#
# Youngs Moduli (GPa) = 158.75361 53.71084 17.09038
#
# Poissons Ratio (x) = 0.22562 0.15020
# Poissons Ratio (y) = 0.66687 -0.02630
# Poissons Ratio (z) = 1.39519 -0.08264
#
# Static dielectric constant tensor:
#      x y z
#    x 1.899130 0.000000 0.017780 
#    y 0.000000 1.804610 0.000000 
#    z 0.017780 0.000000 1.849640 
# 
# From -- ./inp_files/32805.got.cif
#   From: 2010.05.17/outbox.cif.g08.bks.cpg/sg10_17_cif.got.tgz:32805.got - 2010.06.03 11:33:40.
