data_PCOD9142216
_publ_section_title
;
Structure prediction by ZEFSAII (Michael W. Deem and Ramdas Pophale) SiO2 
 PCOD9142216
Probable space group: P 2/M
;
_chemical_formula_sum "Si O2"
_cell_formula_units_Z 32
_cell_length_a 14.594616
_cell_length_b 7.750740
_cell_length_c 15.621280
_cell_angle_alpha 90.000000
_cell_angle_beta 89.668894
_cell_angle_gamma 90.000000
_cell_volume 1767.035223
_symmetry_space_group_name_H-M "P 2/M"
_symmetry_group_IT_number 10
_symmetry_cell_setting 'monoclinic'
loop_
_space_group_symop_operation_xyz
x,y,z
-x,y,-z
-x,-y,-z
x,-y,z
loop_
_atom_site_type_symbol
_atom_site_label
_atom_site_fract_x
_atom_site_fract_y
_atom_site_fract_z
Si Si1 0.374237 0.799972 0.744732
Si Si2 0.213299 0.295881 0.853753
Si Si3 0.470594 0.698525 0.130774
Si Si4 0.311720 0.711161 0.021985
Si Si5 0.330705 0.301493 0.292928
Si Si6 0.495075 0.796724 0.404725
Si Si7 0.012181 0.288761 0.899941
Si Si8 0.176624 0.289230 0.177209
O O1 0.275348 0.726891 0.769768
O O2 0.441763 0.782866 0.826393
O O3 0.431925 0.722787 0.664690
O O4 0.360289 0.000000 0.727879
O O5 0.205493 0.500000 0.868735
O O6 0.109699 0.229648 0.861713
O O7 0.272836 0.225786 0.932708
O O8 0.496881 0.500000 0.112369
O O9 0.412055 0.770346 0.051781
O O10 0.394835 0.698515 0.207567
O O11 0.316958 0.500000 0.021437
O O12 0.237102 0.757757 0.094049
O O13 0.317125 0.500000 0.318615
O O14 0.393759 0.217620 0.364637
O O15 0.233705 0.228667 0.260088
O O16 0.500000 0.721993 0.500000
O O17 0.515952 0.000000 0.410962
O O18 0.010241 0.500000 0.900222
O O19 0.926208 0.232561 0.842582
O O20 0.000000 0.237844 0.000000
O O21 0.177147 0.500000 0.181597
#
# Coordination Sequence:
#
# PCOD9142216 Si02
#       8
#     4   4   4   4   4   4   4   4
#     4  10  20  32  43  58  84 112 136 171 219 264
#     4  10  18  27  42  63  86 114 150 184 210 239
#     4   8  14  26  42  58  80 111 146 176 203 241
#     4   8  13  22  38  60  83 111 146 182 210 233
#     4   8  14  24  42  68  93 112 132 169 219 260
#     4   9  18  33  51  67  83 107 140 175 213 264
#     4   9  14  22  40  66  89 113 152 194 216 231
#     4   8  12  21  38  63  92 115 142 182 218 242
#
# _framework density 18.109428999999999
#
# number of rings (size 3 to 8) (size 9 to 14) (size 15 to 20)
#    0.000    3.250    1.250    1.875    0.000    1.250 
#    0.000    3.125    0.000    1.875    0.000    0.875 
#    0.000    7.000    0.000    0.000    0.000    0.000 
#
# Total GULP energy -178164.314035 kJ/mol
# GULP energy per Si atom -5567.634814 kJ/mol
# Density = 1.806821 g / cm^3
# Si number density = 18.109429 Si / 1000 Ang^3
#
#
#
# Elastic Constant Matrix: (Units=GPa)
#
#
# Indices 1 2 3 4 5 6 
#
# 1 147.1271 4.2248 76.7746 0.0000 0.5631 0.0000
# 2 4.2248 18.6168 1.8738 0.0000 -0.9584 0.0000
# 3 76.7746 1.8738 84.0210 0.0000 8.7429 0.0000
# 4 0.0000 0.0000 0.0000 13.0725 0.0000 3.7785
# 5 0.5631 -0.9584 8.7429 0.0000 14.6944 0.0000
# 6 0.0000 0.0000 0.0000 3.7785 0.0000 2.9321
#
#
#
# Elastic Compliance Matrix: (Units=1/GPa)
#
#
# Indices 1 2 3 4 5 6 
#
# 1 0.013740 -0.001406 -0.013282 0.000000 0.007284 0.000000
# 2 -0.001406 0.054261 -0.000319 0.000000 0.003783 0.000000
# 3 -0.013282 -0.000319 0.025578 0.000000 -0.014730 0.000000
# 4 0.000000 0.000000 0.000000 0.121902 0.000000 -0.157090
# 5 0.007284 0.003783 -0.014730 0.000000 0.076785 0.000000
# 6 0.000000 0.000000 0.000000 -0.157090 0.000000 0.543487
#
#
# Mechanical properties :
#
#
# Convention : Reuss Voigt Hill
#
# Bulk Modulus (GPa) = 15.73180 46.16793 30.94986
# Shear Modulus (GPa) = 5.63727 17.26591 11.45159
#
# Velocity S-wave (km/s) = 1.76625 3.09110 2.51740
# Velocity P-wave (km/s) = 3.58685 6.18782 5.05740
#
# Compressibility (1/GPa) = 0.06356553
#
# Stress axis : x y z
#
# Youngs Moduli (GPa) = 72.78011 18.42945 39.09648
#
# Poissons Ratio (x) = 0.02592 0.51926
# Poissons Ratio (y) = 0.10235 0.01246
# Poissons Ratio (z) = 0.96664 0.00587
#
# Static dielectric constant tensor:
#      x y z
#    x 1.657440 0.000000 0.000470 
#    y 0.000000 1.668630 0.000000 
#    z 0.000470 0.000000 1.639840 
# 
# From -- ./inp_files/66156.got.cif
#   From: 2010.05.17/outbox.cif.g08.bks.cpg/sg10_34_cif.got.tgz:66156.got - 2010.06.03 11:33:40.
