data_PCOD9142222
_publ_section_title
;
Structure prediction by ZEFSAII (Michael W. Deem and Ramdas Pophale) SiO2 
 PCOD9142222
Probable space group: P 2/M
;
_chemical_formula_sum "Si O2"
_cell_formula_units_Z 28
_cell_length_a 33.527291
_cell_length_b 9.040165
_cell_length_c 21.735509
_cell_angle_alpha 90.000000
_cell_angle_beta 162.686215
_cell_angle_gamma 90.000000
_cell_volume 1960.578515
_symmetry_space_group_name_H-M "P 2/M"
_symmetry_group_IT_number 10
_symmetry_cell_setting 'monoclinic'
loop_
_space_group_symop_operation_xyz
x,y,z
-x,y,-z
-x,-y,-z
x,-y,z
loop_
_atom_site_type_symbol
_atom_site_label
_atom_site_fract_x
_atom_site_fract_y
_atom_site_fract_z
Si Si1 0.588586 0.176121 0.361146
Si Si2 0.341300 0.823869 0.772268
Si Si3 0.197089 0.325169 0.674365
Si Si4 0.060741 0.829177 0.658843
Si Si5 0.143235 0.325955 0.236103
Si Si6 0.287842 0.673275 0.568440
Si Si7 0.683257 0.674851 0.012157
O O1 0.728068 0.232922 0.596496
O O2 0.600742 0.245283 0.309948
O O3 0.582741 0.000000 0.349578
O O4 0.458660 0.243915 0.201697
O O5 0.281267 0.753112 0.745198
O O6 0.274922 0.751426 0.614282
O O7 0.321881 0.000000 0.744199
O O8 0.500000 0.793607 0.000000
O O9 0.187892 0.500000 0.649199
O O10 0.266987 0.304999 0.843892
O O11 0.049547 0.254005 0.462796
O O12 0.202063 0.746057 0.861450
O O13 0.000000 0.827968 0.500000
O O14 0.076491 0.000000 0.700410
O O15 0.161435 0.500000 0.247531
O O16 0.158665 0.315381 0.333147
O O17 0.000000 0.277389 0.000000
O O18 0.321075 0.500000 0.624344
O O19 0.670734 0.500000 0.982647
#
# Coordination Sequence:
#
# PCOD9142222 Si02
#       7
#     4   4   4   4   4   4   4
#     4  10  18  27  42  65  90 114 143 178 220 263
#     4  11  22  32  43  61  87 119 154 190 224 258
#     4  10  20  31  44  60  82 115 154 189 221 263
#     4   9  17  29  44  61  82 109 143 186 230 266
#     4   8  16  31  48  65  88 117 146 179 223 272
#     4   9  18  31  45  62  85 116 150 182 218 261
#     4  10  18  29  44  62  85 115 150 185 223 265
#
# _framework density 14.281499
#
# number of rings (size 3 to 8) (size 9 to 14) (size 15 to 20)
#    0.857    1.571    0.000    3.857    0.000    7.143 
#    0.000    0.000    0.000    0.000    0.000    0.000 
#    0.000    1.143    0.000   12.286    0.000    5.429 
#
# Total GULP energy -155871.972630 kJ/mol
# GULP energy per Si atom -5566.856165 kJ/mol
# Density = 1.424899 g / cm^3
# Si number density = 14.281499 Si / 1000 Ang^3
#
#
#
# Elastic Constant Matrix: (Units=GPa)
#
#
# Indices 1 2 3 4 5 6 
#
# 1 49.8924 43.3511 38.3331 0.0000 18.1684 0.0000
# 2 43.3511 110.4318 70.9892 0.0000 17.4603 0.0000
# 3 38.3331 70.9892 101.5194 0.0000 20.2267 0.0000
# 4 0.0000 0.0000 0.0000 20.4525 0.0000 6.4157
# 5 18.1684 17.4603 20.2267 0.0000 23.3008 0.0000
# 6 0.0000 0.0000 0.0000 6.4157 0.0000 21.6312
#
#
#
# Elastic Compliance Matrix: (Units=1/GPa)
#
#
# Indices 1 2 3 4 5 6 
#
# 1 0.038375 -0.009389 -0.004069 0.000000 -0.019355 0.000000
# 2 -0.009389 0.018903 -0.010047 0.000000 0.001878 0.000000
# 3 -0.004069 -0.010047 0.019685 0.000000 -0.006387 0.000000
# 4 0.000000 0.000000 0.000000 0.053909 0.000000 -0.015989
# 5 -0.019355 0.001878 -0.006387 0.000000 0.062146 0.000000
# 6 0.000000 0.000000 0.000000 -0.015989 0.000000 0.050972
#
#
# Mechanical properties :
#
#
# Convention : Reuss Voigt Hill
#
# Bulk Modulus (GPa) = 33.38496 63.02115 48.20306
# Shear Modulus (GPa) = 16.61224 20.35492 18.48358
#
# Velocity S-wave (km/s) = 3.41427 3.77936 3.60145
# Velocity P-wave (km/s) = 6.24261 7.95414 7.14977
#
# Compressibility (1/GPa) = 0.02995361
#
# Stress axis : x y z
#
# Youngs Moduli (GPa) = 26.05844 52.90244 50.80124
#
# Poissons Ratio (x) = 0.49670 0.20669
# Poissons Ratio (y) = 0.24466 0.51040
# Poissons Ratio (z) = 0.10602 0.53151
#
# Static dielectric constant tensor:
#      x y z
#    x 1.450570 0.000000 -0.000490 
#    y 0.000000 1.473960 0.000000 
#    z -0.000490 0.000000 1.474660 
# 
# From -- ./inp_files/72462.got.cif
#   From: 2010.05.17/outbox.cif.g08.bks.cpg/sg10_37_cif.got.tgz:72462.got - 2010.06.03 11:33:40.
