data_PCOD9142698
_publ_section_title
;
Structure prediction by ZEFSAII (Michael W. Deem and Ramdas Pophale) SiO2 
 PCOD9142698
Probable space group: P 2/M
;
_chemical_formula_sum "Si O2"
_cell_formula_units_Z 28
_cell_length_a 20.460267
_cell_length_b 9.053445
_cell_length_c 15.543625
_cell_angle_alpha 90.000000
_cell_angle_beta 150.070183
_cell_angle_gamma 90.000000
_cell_volume 1436.563279
_symmetry_space_group_name_H-M "P 2/M"
_symmetry_group_IT_number 10
_symmetry_cell_setting 'monoclinic'
loop_
_space_group_symop_operation_xyz
x,y,z
-x,y,-z
-x,-y,-z
x,-y,z
loop_
_atom_site_type_symbol
_atom_site_label
_atom_site_fract_x
_atom_site_fract_y
_atom_site_fract_z
Si Si1 0.069606 0.834326 0.665410
Si Si2 0.354389 0.234793 0.936338
Si Si3 0.346584 0.168838 0.740474
Si Si4 0.881806 0.321711 0.106398
Si Si5 0.307859 0.679214 0.518338
Si Si6 0.597301 0.664264 0.825679
Si Si7 0.057023 0.174442 0.160528
O O1 0.223412 0.844421 0.818241
O O2 0.055506 0.731978 0.732134
O O3 0.000000 0.777007 0.500000
O O4 0.020013 0.000000 0.626573
O O5 0.327394 0.265952 0.804954
O O6 0.496170 0.158306 0.094044
O O7 0.377094 0.345092 0.041864
O O8 0.289266 0.248570 0.591546
O O9 0.298843 0.000000 0.698652
O O10 0.885253 0.500000 0.105433
O O11 0.957952 0.247208 0.115560
O O12 0.729274 0.269286 0.936481
O O13 0.306620 0.500000 0.522802
O O14 0.452612 0.730221 0.651866
O O15 0.193862 0.740448 0.328393
O O16 0.588322 0.500000 0.779177
O O17 0.074156 0.000000 0.198520
O O18 0.000000 0.190065 0.000000
#
# Coordination Sequence:
#
# PCOD9142698 Si02
#       7
#     4   4   4   4   4   4   4
#     4  10  20  32  49  76 114 158 200 239 281 334
#     4   9  17  29  46  73 109 155 201 238 279 328
#     4  10  18  29  49  75 109 151 197 242 282 330
#     4  10  21  39  62  87 117 156 196 239 292 348
#     4  10  21  37  59  87 116 150 192 238 291 349
#     4   8  17  35  57  84 119 155 192 236 286 341
#     4  11  25  45  66  88 115 148 189 242 303 361
#
# _framework density 19.490963000000001
#
# number of rings (size 3 to 8) (size 9 to 14) (size 15 to 20)
#    0.000    2.286    0.000    3.000    2.000    2.000 
#    0.000    5.714    0.000    4.286    0.000    0.000 
#    0.000    0.000    0.000    0.000    0.000    0.000 
#
# Total GULP energy -155899.684262 kJ/mol
# GULP energy per Si atom -5567.845867 kJ/mol
# Density = 1.944660 g / cm^3
# Si number density = 19.490963 Si / 1000 Ang^3
#
#
#
# Elastic Constant Matrix: (Units=GPa)
#
#
# Indices 1 2 3 4 5 6 
#
# 1 89.8133 38.0116 44.7963 0.0000 9.1167 0.0000
# 2 38.0116 62.0018 41.9450 0.0000 -1.0882 0.0000
# 3 44.7963 41.9450 111.3412 0.0000 4.8461 0.0000
# 4 0.0000 0.0000 0.0000 5.4393 0.0000 0.7701
# 5 9.1167 -1.0882 4.8461 0.0000 25.3903 0.0000
# 6 0.0000 0.0000 0.0000 0.7701 0.0000 16.9571
#
#
#
# Elastic Compliance Matrix: (Units=1/GPa)
#
#
# Indices 1 2 3 4 5 6 
#
# 1 0.016883 -0.008086 -0.003497 0.000000 -0.005741 0.000000
# 2 -0.008086 0.025677 -0.006649 0.000000 0.005273 0.000000
# 3 -0.003497 -0.006649 0.012959 0.000000 -0.001503 0.000000
# 4 0.000000 0.000000 0.000000 0.185036 0.000000 -0.008403
# 5 -0.005741 0.005273 -0.001503 0.000000 0.041959 0.000000
# 6 0.000000 0.000000 0.000000 -0.008403 0.000000 0.059354
#
#
# Mechanical properties :
#
#
# Convention : Reuss Voigt Hill
#
# Bulk Modulus (GPa) = 52.48022 56.96245 54.72134
# Shear Modulus (GPa) = 12.99771 18.78424 15.89098
#
# Velocity S-wave (km/s) = 2.58516 3.10779 2.85844
# Velocity P-wave (km/s) = 5.99121 6.49356 6.24744
#
# Compressibility (1/GPa) = 0.01905480
#
# Stress axis : x y z
#
# Youngs Moduli (GPa) = 59.23061 38.94585 77.16884
#
# Poissons Ratio (x) = 0.31491 0.26983
# Poissons Ratio (y) = 0.47893 0.51312
# Poissons Ratio (z) = 0.20711 0.25896
#
# Static dielectric constant tensor:
#      x y z
#    x 1.686200 0.000000 0.033010 
#    y 0.000000 1.683800 0.000000 
#    z 0.033010 0.000000 1.704180 
# 
# From -- ./inp_files/70301.got.cif
#   From: 2010.05.17/outbox.cif.g08.bks.cpg/sg10_36_cif.got.tgz:70301.got - 2010.06.03 11:33:40.
