data_PCOD9142406
_publ_section_title
;
Structure prediction by ZEFSAII (Michael W. Deem and Ramdas Pophale) SiO2 
 PCOD9142406
Probable space group: P 2/M
;
_chemical_formula_sum "Si O2"
_cell_formula_units_Z 24
_cell_length_a 7.765161
_cell_length_b 10.703319
_cell_length_c 16.730786
_cell_angle_alpha 90.000000
_cell_angle_beta 118.480407
_cell_angle_gamma 90.000000
_cell_volume 1222.262215
_symmetry_space_group_name_H-M "P 2/M"
_symmetry_group_IT_number 10
_symmetry_cell_setting 'monoclinic'
loop_
_space_group_symop_operation_xyz
x,y,z
-x,y,-z
-x,-y,-z
x,-y,z
loop_
_atom_site_type_symbol
_atom_site_label
_atom_site_fract_x
_atom_site_fract_y
_atom_site_fract_z
Si Si1 0.849480 0.140661 0.786127
Si Si2 0.848797 0.855549 0.398434
Si Si3 0.234056 0.785860 0.796339
Si Si4 0.734123 0.633807 0.052167
Si Si5 0.556835 0.855834 0.596951
Si Si6 0.307049 0.147916 0.079309
O O1 0.727817 0.203709 0.687586
O O2 0.071455 0.134173 0.807096
O O3 0.767750 0.000000 0.774403
O O4 0.798684 0.190472 0.862145
O O5 0.826490 0.784712 0.309650
O O6 0.636307 0.858550 0.392019
O O7 0.000000 0.810288 0.500000
O O8 0.905640 0.000000 0.391732
O O9 0.215171 0.659924 0.844152
O O10 0.457083 0.835583 0.855865
O O11 0.816232 0.500000 0.042724
O O12 0.500000 0.624536 0.000000
O O13 0.765578 0.756542 0.004744
O O14 0.500000 0.796552 0.500000
O O15 0.619047 0.000000 0.591741
O O16 0.267125 0.000000 0.053278
#
# Coordination Sequence:
#
# PCOD9142406 Si02
#       6
#     4   4   4   4   4   4
#     4  10  19  30  47  76 112 144 180 224 272 320
#     4  10  18  28  46  76 112 146 180 218 267 323
#     4  11  20  33  54  76 108 147 186 222 272 323
#     4   9  21  40  60  81 109 145 185 228 277 330
#     4   9  16  27  42  66 107 149 179 216 265 319
#     4  10  20  35  55  81 111 143 183 229 274 322
#
# _framework density 19.635722000000001
#
# number of rings (size 3 to 8) (size 9 to 14) (size 15 to 20)
#    0.000    2.167    1.667    2.500    0.000    7.667 
#    0.000    3.333    0.000    0.500    0.000    0.000 
#    0.000    3.333    0.000    0.000    0.000    0.000 
#
# Total GULP energy -133615.545192 kJ/mol
# GULP energy per Si atom -5567.314383 kJ/mol
# Density = 1.959103 g / cm^3
# Si number density = 19.635722 Si / 1000 Ang^3
#
#
#
# Elastic Constant Matrix: (Units=GPa)
#
#
# Indices 1 2 3 4 5 6 
#
# 1 108.6105 13.3809 49.1876 0.0000 -6.7673 0.0000
# 2 13.3809 67.0057 51.1407 0.0000 -12.9693 0.0000
# 3 49.1876 51.1407 161.9603 0.0000 -24.2475 0.0000
# 4 0.0000 0.0000 0.0000 -125.9638 0.0000 29.9959
# 5 -6.7673 -12.9693 -24.2475 0.0000 40.3182 0.0000
# 6 0.0000 0.0000 0.0000 29.9959 0.0000 -21.3878
#
#
#
# Elastic Compliance Matrix: (Units=1/GPa)
#
#
# Indices 1 2 3 4 5 6 
#
# 1 0.010686 0.000440 -0.003401 0.000000 -0.000110 0.000000
# 2 0.000440 0.019983 -0.006011 0.000000 0.002887 0.000000
# 3 -0.003401 -0.006011 0.009594 0.000000 0.003265 0.000000
# 4 0.000000 0.000000 0.000000 -0.011920 0.000000 -0.016717
# 5 -0.000110 0.002887 0.003265 0.000000 0.027677 0.000000
# 6 0.000000 0.000000 0.000000 -0.016717 0.000000 -0.070201
#
#
# Mechanical properties :
#
#
# Convention : Reuss Voigt Hill
#
# Bulk Modulus (GPa) = 44.80372 62.77722 53.79047
# Shear Modulus (GPa) = 446.28312 -6.48219 219.90046
#
# Velocity S-wave (km/s) = 15.09220 -1.81890 10.59401
# Velocity P-wave (km/s) = 18.07115 5.25634 13.30781
#
# Compressibility (1/GPa) = 0.02231957
#
# Stress axis : x y z
#
# Youngs Moduli (GPa) = 93.57740 50.04258 104.22857
#
# Poissons Ratio (x) = -0.02204 0.35448
# Poissons Ratio (y) = -0.04121 0.62656
# Poissons Ratio (z) = 0.31826 0.30083
#
# Static dielectric constant tensor:
#      x y z
#    x 1.695160 0.000000 -0.004780 
#    y 0.000000 1.714320 0.000000 
#    z -0.004780 0.000000 1.788730 
# 
# From -- ./inp_files/60796.got.cif
#   From: 2010.05.17/outbox.cif.g08.bks.cpg/sg10_31_cif.got.tgz:60796.got - 2010.06.03 11:33:40.
