data_PCOD9142425
_publ_section_title
;
Structure prediction by ZEFSAII (Michael W. Deem and Ramdas Pophale) SiO2 
 PCOD9142425
Probable space group: P 2/M
;
_chemical_formula_sum "Si O2"
_cell_formula_units_Z 28
_cell_length_a 12.057913
_cell_length_b 7.835271
_cell_length_c 20.324600
_cell_angle_alpha 90.000000
_cell_angle_beta 50.810323
_cell_angle_gamma 90.000000
_cell_volume 1488.272902
_symmetry_space_group_name_H-M "P 2/M"
_symmetry_group_IT_number 10
_symmetry_cell_setting 'monoclinic'
loop_
_space_group_symop_operation_xyz
x,y,z
-x,y,-z
-x,-y,-z
x,-y,z
loop_
_atom_site_type_symbol
_atom_site_label
_atom_site_fract_x
_atom_site_fract_y
_atom_site_fract_z
Si Si1 0.854427 0.791623 0.520938
Si Si2 0.395653 0.791077 0.599319
Si Si3 0.105237 0.208426 0.645328
Si Si4 0.506915 0.299699 0.158324
Si Si5 0.454448 0.203744 0.324053
Si Si6 0.789623 0.197788 0.796996
Si Si7 0.655228 0.302070 0.977239
O O1 0.854425 0.745663 0.444328
O O2 0.708927 0.731473 0.609757
O O3 0.000000 0.731031 0.500000
O O4 0.856160 0.000000 0.523617
O O5 0.500000 0.740827 0.500000
O O6 0.234170 0.735420 0.644009
O O7 0.456206 0.731723 0.646771
O O8 0.395873 0.000000 0.599513
O O9 0.945675 0.269973 0.721759
O O10 0.101512 0.000000 0.649788
O O11 0.533972 0.500000 0.148463
O O12 0.516538 0.236564 0.228869
O O13 0.345725 0.274773 0.190863
O O14 0.618677 0.226231 0.062571
O O15 0.446614 0.000000 0.335138
O O16 0.758715 0.212985 0.886492
O O17 0.789648 0.000000 0.777412
O O18 0.700596 0.500000 0.965513
O O19 0.500000 0.301559 0.000000
#
# Coordination Sequence:
#
# PCOD9142425 Si02
#       7
#     4   4   4   4   4   4   4
#     4   9  15  23  38  65  98 124 147 183 230 277
#     4   9  15  27  46  70  96 124 161 199 235 276
#     4   9  16  26  42  69 102 126 150 192 240 281
#     4  10  20  33  48  67  97 131 157 189 239 290
#     4  10  18  28  48  73  93 121 163 202 231 270
#     4  10  18  28  48  76 100 122 153 195 238 280
#     4   8  16  31  48  66  92 127 158 187 233 290
#
# _framework density 18.813753999999999
#
# number of rings (size 3 to 8) (size 9 to 14) (size 15 to 20)
#    0.000    2.714    1.429    2.571    0.000    5.429 
#    0.000    0.000    0.000    7.714    0.000    6.000 
#    0.000    0.000    0.000    0.000    0.000    0.000 
#
# Total GULP energy -156065.245327 kJ/mol
# GULP energy per Si atom -5573.758762 kJ/mol
# Density = 1.877093 g / cm^3
# Si number density = 18.813754 Si / 1000 Ang^3
#
#
#
# Elastic Constant Matrix: (Units=GPa)
#
#
# Indices 1 2 3 4 5 6 
#
# 1 81.2618 -2.7165 12.4679 0.0000 27.4678 0.0000
# 2 -2.7165 14.4296 -8.3987 0.0000 -0.4999 0.0000
# 3 12.4679 -8.3987 66.1377 0.0000 28.1080 0.0000
# 4 0.0000 0.0000 0.0000 45.9367 0.0000 2.4229
# 5 27.4678 -0.4999 28.1080 0.0000 26.8800 0.0000
# 6 0.0000 0.0000 0.0000 2.4229 0.0000 -8.5727
#
#
#
# Elastic Compliance Matrix: (Units=1/GPa)
#
#
# Indices 1 2 3 4 5 6 
#
# 1 0.023010 0.010282 0.012382 0.000000 -0.036270 0.000000
# 2 0.010282 0.083136 0.022368 0.000000 -0.032351 0.000000
# 3 0.012382 0.022368 0.037486 0.000000 -0.051436 0.000000
# 4 0.000000 0.000000 0.000000 0.021449 0.000000 0.006062
# 5 -0.036270 -0.032351 -0.051436 0.000000 0.127449 0.000000
# 6 0.000000 0.000000 0.000000 0.006062 0.000000 -0.114936
#
#
# Mechanical properties :
#
#
# Convention : Reuss Voigt Hill
#
# Bulk Modulus (GPa) = 4.27905 18.28160 11.28033
# Shear Modulus (GPa) = 30.22469 23.54723 26.88596
#
# Velocity S-wave (km/s) = 4.01249 3.54163 3.78439
# Velocity P-wave (km/s) = 4.87300 5.14416 5.01042
#
# Compressibility (1/GPa) = 0.23369651
#
# Stress axis : x y z
#
# Youngs Moduli (GPa) = 43.46022 12.02846 26.67674
#
# Poissons Ratio (x) = -0.12368 -0.33032
# Poissons Ratio (y) = -0.44688 -0.59670
# Poissons Ratio (z) = -0.53814 -0.26905
#
# Static dielectric constant tensor:
#      x y z
#    x 1.642980 0.000000 0.011290 
#    y 0.000000 1.689990 0.000000 
#    z 0.011290 0.000000 1.678290 
# 
# From -- ./inp_files/54721.got.cif
#   From: 2010.05.17/outbox.cif.g08.bks.cpg/sg10_28_cif.got.tgz:54721.got - 2010.06.03 11:33:40.
