data_PCOD9142496
_publ_section_title
;
Structure prediction by ZEFSAII (Michael W. Deem and Ramdas Pophale) SiO2 
 PCOD9142496
Probable space group: P 2/M
;
_chemical_formula_sum "Si O2"
_cell_formula_units_Z 32
_cell_length_a 12.622302
_cell_length_b 8.725672
_cell_length_c 19.198358
_cell_angle_alpha 90.000000
_cell_angle_beta 122.263918
_cell_angle_gamma 90.000000
_cell_volume 1787.992006
_symmetry_space_group_name_H-M "P 2/M"
_symmetry_group_IT_number 10
_symmetry_cell_setting 'monoclinic'
loop_
_space_group_symop_operation_xyz
x,y,z
-x,y,-z
-x,-y,-z
x,-y,z
loop_
_atom_site_type_symbol
_atom_site_label
_atom_site_fract_x
_atom_site_fract_y
_atom_site_fract_z
Si Si1 0.830987 0.816719 0.231671
Si Si2 0.515657 0.686226 0.784473
Si Si3 0.232770 0.682790 0.642935
Si Si4 0.891765 0.184400 0.697533
Si Si5 0.570524 0.685257 0.094426
Si Si6 0.450875 0.331409 0.560761
Si Si7 0.299427 0.677232 0.259976
Si Si8 0.199738 0.822402 0.486778
O O1 0.828294 0.758215 0.310480
O O2 0.711053 0.746995 0.151158
O O3 0.962985 0.773038 0.243692
O O4 0.821403 0.000000 0.229046
O O5 0.521636 0.500000 0.783499
O O6 0.382210 0.725659 0.700591
O O7 0.500292 0.732545 0.859341
O O8 0.642559 0.742891 0.791606
O O9 0.225354 0.500000 0.646607
O O10 0.171177 0.737713 0.549272
O O11 0.805570 0.243488 0.730004
O O12 0.850295 0.238615 0.605210
O O13 0.880914 0.000000 0.692200
O O14 0.575645 0.500000 0.096322
O O15 0.500000 0.735727 0.000000
O O16 0.500000 0.330854 0.500000
O O17 0.391106 0.500000 0.554383
O O18 0.573394 0.320123 0.650118
O O19 0.349471 0.200449 0.533887
O O20 0.261467 0.500000 0.236403
O O21 0.164064 0.000000 0.480427
#
# Coordination Sequence:
#
# PCOD9142496 Si02
#       8
#     4   4   4   4   4   4   4   4
#     4  10  21  38  55  74 104 138 173 211 258 314
#     4   8  15  29  50  77 105 129 157 206 262 303
#     4  10  19  34  53  73 101 134 175 226 271 306
#     4  10  23  37  47  67 104 145 180 219 260 303
#     4   9  18  35  61  89 111 130 158 203 260 318
#     4  10  18  29  44  66  96 132 175 227 271 299
#     4  10  18  30  50  72  98 135 177 217 258 307
#     4  11  21  31  46  69  98 138 183 223 267 311
#
# _framework density 17.897172000000001
#
# number of rings (size 3 to 8) (size 9 to 14) (size 15 to 20)
#    0.000    2.250    2.500    1.875    0.000    3.000 
#    0.000    3.125    0.000    0.750    0.000    5.250 
#    0.000    0.000    0.000    0.000    0.000    0.000 
#
# Total GULP energy -178332.012739 kJ/mol
# GULP energy per Si atom -5572.875398 kJ/mol
# Density = 1.785644 g / cm^3
# Si number density = 17.897172 Si / 1000 Ang^3
#
#
#
# Elastic Constant Matrix: (Units=GPa)
#
#
# Indices 1 2 3 4 5 6 
#
# 1 123.5038 21.8607 60.2618 0.0000 -2.9551 0.0000
# 2 21.8607 20.6309 21.2753 0.0000 -0.9705 0.0000
# 3 60.2618 21.2753 91.7970 0.0000 -14.9710 0.0000
# 4 0.0000 0.0000 0.0000 27.7757 0.0000 8.1096
# 5 -2.9551 -0.9705 -14.9710 0.0000 15.3607 0.0000
# 6 0.0000 0.0000 0.0000 8.1096 0.0000 29.2580
#
#
#
# Elastic Compliance Matrix: (Units=1/GPa)
#
#
# Indices 1 2 3 4 5 6 
#
# 1 0.012911 -0.005570 -0.008129 0.000000 -0.005791 0.000000
# 2 -0.005570 0.068121 -0.013798 0.000000 -0.010215 0.000000
# 3 -0.008129 -0.013798 0.022627 0.000000 0.019617 0.000000
# 4 0.000000 0.000000 0.000000 0.039173 0.000000 -0.010858
# 5 -0.005791 -0.010215 0.019617 0.000000 0.082462 0.000000
# 6 0.000000 0.000000 0.000000 -0.010858 0.000000 0.037188
#
#
# Mechanical properties :
#
#
# Convention : Reuss Voigt Hill
#
# Bulk Modulus (GPa) = 20.54825 49.19192 34.87009
# Shear Modulus (GPa) = 14.98370 23.31446 19.14908
#
# Velocity S-wave (km/s) = 2.89660 3.61319 3.27456
# Velocity P-wave (km/s) = 4.76374 6.70466 5.81574
#
# Compressibility (1/GPa) = 0.04866594
#
# Stress axis : x y z
#
# Youngs Moduli (GPa) = 77.45556 14.67981 44.19470
#
# Poissons Ratio (x) = 0.08176 0.35926
# Poissons Ratio (y) = 0.43141 0.60978
# Poissons Ratio (z) = 0.62963 0.20255
#
# Static dielectric constant tensor:
#      x y z
#    x 1.658720 0.000000 -0.038310 
#    y 0.000000 1.628770 0.000000 
#    z -0.038310 0.000000 1.622990 
# 
# From -- ./inp_files/83389.got.cif
#   From: 2010.05.17/outbox.cif.g08.bks.cpg/sg10_42_cif.got.tgz:83389.got - 2010.06.03 11:33:40.
