data_PCOD9142320
_publ_section_title
;
Structure prediction by ZEFSAII (Michael W. Deem and Ramdas Pophale) SiO2 
 PCOD9142320
Probable space group: P 2/M
;
_chemical_formula_sum "Si O2"
_cell_formula_units_Z 24
_cell_length_a 19.157369
_cell_length_b 7.613887
_cell_length_c 16.815682
_cell_angle_alpha 90.000000
_cell_angle_beta 29.994032
_cell_angle_gamma 90.000000
_cell_volume 1226.163602
_symmetry_space_group_name_H-M "P 2/M"
_symmetry_group_IT_number 10
_symmetry_cell_setting 'monoclinic'
loop_
_space_group_symop_operation_xyz
x,y,z
-x,y,-z
-x,-y,-z
x,-y,z
loop_
_atom_site_type_symbol
_atom_site_label
_atom_site_fract_x
_atom_site_fract_y
_atom_site_fract_z
Si Si1 0.805723 0.297414 0.381446
Si Si2 0.083207 0.788912 0.176601
Si Si3 0.073450 0.215592 0.508652
Si Si4 0.651169 0.198607 0.691108
Si Si5 0.557214 0.211157 0.527376
Si Si6 0.399109 0.216059 0.843110
O O1 0.784692 0.500000 0.422325
O O2 0.734981 0.192050 0.524043
O O3 0.717006 0.257178 0.390634
O O4 0.969855 0.259734 0.221435
O O5 0.017150 0.728677 0.325540
O O6 0.089126 0.000000 0.173573
O O7 0.240136 0.725802 0.008856
O O8 0.233255 0.277336 0.363975
O O9 0.000000 0.270120 0.500000
O O10 0.077828 0.000000 0.505148
O O11 0.502940 0.276962 0.811250
O O12 0.623567 0.000000 0.746125
O O13 0.500000 0.278042 0.500000
O O14 0.465487 0.271599 0.693422
O O15 0.547790 0.000000 0.535283
O O16 0.402261 0.000000 0.841433
#
# Coordination Sequence:
#
# PCOD9142320 Si02
#       6
#     4   4   4   4   4   4
#     4  10  18  28  44  65  88 114 145 176 209 254
#     4   9  16  28  45  62  85 115 145 178 212 251
#     4   8  13  22  39  63  88 114 143 175 212 251
#     4   8  14  27  45  62  84 114 147 179 211 255
#     4   9  17  31  50  68  86 110 141 176 213 255
#     4   8  14  26  45  66  83 107 145 180 211 250
#
# _framework density 19.573245
#
# number of rings (size 3 to 8) (size 9 to 14) (size 15 to 20)
#    0.000    3.333    0.000    3.500    0.000    0.333 
#    0.000    5.000    0.000   18.000    0.000    0.000 
#    0.000   26.667    0.000    0.000    0.000    0.000 
#
# Total GULP energy -133639.367739 kJ/mol
# GULP energy per Si atom -5568.306989 kJ/mol
# Density = 1.952870 g / cm^3
# Si number density = 19.573245 Si / 1000 Ang^3
#
#
#
# Elastic Constant Matrix: (Units=GPa)
#
#
# Indices 1 2 3 4 5 6 
#
# 1 179.1468 0.8444 77.2642 0.0000 -49.4695 0.0000
# 2 0.8444 48.0037 1.8678 0.0000 1.9247 0.0000
# 3 77.2642 1.8678 123.4071 0.0000 -49.6116 0.0000
# 4 0.0000 0.0000 0.0000 -13.4149 0.0000 8.1025
# 5 -49.4695 1.9247 -49.6116 0.0000 36.3199 0.0000
# 6 0.0000 0.0000 0.0000 8.1025 0.0000 -15.2688
#
#
#
# Elastic Compliance Matrix: (Units=1/GPa)
#
#
# Indices 1 2 3 4 5 6 
#
# 1 0.009097 -0.000513 -0.001543 0.000000 0.010310 0.000000
# 2 -0.000513 0.021065 -0.001613 0.000000 -0.004019 0.000000
# 3 -0.001543 -0.001613 0.018372 0.000000 0.023079 0.000000
# 4 0.000000 0.000000 0.000000 -0.109707 0.000000 -0.058217
# 5 0.010310 -0.004019 0.023079 0.000000 0.073315 0.000000
# 6 0.000000 0.000000 0.000000 -0.058217 0.000000 -0.096386
#
#
# Mechanical properties :
#
#
# Convention : Reuss Voigt Hill
#
# Bulk Modulus (GPa) = 24.27492 56.72338 40.49915
# Shear Modulus (GPa) = -79.14629 19.56597 -29.79016
#
# Velocity S-wave (km/s) = -6.36583 3.16512 -3.90549
# Velocity P-wave (km/s) = 6.45001 6.51155 0.63152
#
# Compressibility (1/GPa) = 0.04119478
#
# Stress axis : x y z
#
# Youngs Moduli (GPa) = 109.92746 47.47284 54.43089
#
# Poissons Ratio (x) = 0.02437 0.08398
# Poissons Ratio (y) = 0.05643 0.08780
# Poissons Ratio (z) = 0.16961 0.07658
#
# Static dielectric constant tensor:
#      x y z
#    x 1.704890 0.000000 -0.044410 
#    y 0.000000 1.714090 0.000000 
#    z -0.044410 0.000000 1.679570 
# 
# From -- ./inp_files/31200.got.cif
#   From: 2010.05.17/outbox.cif.g08.bks.cpg/sg10_16_cif.got.tgz:31200.got - 2010.06.03 11:33:40.
