data_PCOD9142119
_publ_section_title
;
Structure prediction by ZEFSAII (Michael W. Deem and Ramdas Pophale) SiO2 
 PCOD9142119
Probable space group: P 2/M
;
_chemical_formula_sum "Si O2"
_cell_formula_units_Z 30
_cell_length_a 12.190239
_cell_length_b 14.477616
_cell_length_c 11.790385
_cell_angle_alpha 90.000000
_cell_angle_beta 47.041837
_cell_angle_gamma 90.000000
_cell_volume 1522.860865
_symmetry_space_group_name_H-M "P 2/M"
_symmetry_group_IT_number 10
_symmetry_cell_setting 'monoclinic'
loop_
_space_group_symop_operation_xyz
x,y,z
-x,y,-z
-x,-y,-z
x,-y,z
loop_
_atom_site_type_symbol
_atom_site_label
_atom_site_fract_x
_atom_site_fract_y
_atom_site_fract_z
Si Si1 0.291442 0.604551 0.353461
Si Si2 0.943635 0.703573 0.343831
Si Si3 0.418718 0.303376 0.775630
Si Si4 0.460198 0.899097 0.275379
Si Si5 0.846997 0.610019 0.180599
Si Si6 0.291460 0.682857 0.118985
Si Si7 0.099158 0.895429 0.544121
Si Si8 0.500000 0.151697 0.000000
O O1 0.248768 0.500000 0.407725
O O2 0.154132 0.671682 0.479653
O O3 0.428990 0.637782 0.334080
O O4 0.336384 0.615204 0.189666
O O5 0.874855 0.653678 0.283636
O O6 0.939638 0.814257 0.341903
O O7 0.114681 0.675099 0.234497
O O8 0.465059 0.195176 0.729738
O O9 0.292294 0.338653 0.779981
O O10 0.356302 0.323117 0.946767
O O11 0.279106 0.890167 0.400328
O O12 0.513092 0.901028 0.107511
O O13 0.495857 0.000000 0.302942
O O14 0.819191 0.500000 0.206561
O O15 0.000000 0.623271 0.000000
O O16 0.356358 0.781214 0.114525
O O17 0.000000 0.879854 0.500000
O O18 0.064589 0.000000 0.606262
#
# Coordination Sequence:
#
# PCOD9142119 Si02
#       8
#     4   4   4   4   4   4   4   2
#     4  12  24  38  60  93 126 161 202 259 329 383
#     4  12  23  41  63  93 129 160 207 273 308 366
#     4  11  22  44  62  89 126 166 209 264 309 372
#     4  10  19  34  60  91 124 163 206 249 309 379
#     4  11  25  45  68  88 117 174 226 260 309 375
#     4  11  21  37  63  88 132 163 196 254 329 377
#     4  10  20  37  64  96 133 171 204 248 320 391
#     4  10  17  34  55  92 122 168 199 242 305 378
#
# _framework density 19.699763000000001
#
# number of rings (size 3 to 8) (size 9 to 14) (size 15 to 20)
#    0.000    1.067    5.333    3.000    0.000    3.733 
#    0.000    4.667    0.000    2.400    0.000    0.000 
#    0.000    0.000    0.000    0.000    0.000    0.000 
#
# Total GULP energy -167429.418560 kJ/mol
# GULP energy per Si atom -5580.980619 kJ/mol
# Density = 1.965493 g / cm^3
# Si number density = 19.699763 Si / 1000 Ang^3
#
#
#
# Elastic Constant Matrix: (Units=GPa)
#
#
# Indices 1 2 3 4 5 6 
#
# 1 132.1600 60.1893 21.5650 0.0000 -17.8256 0.0000
# 2 60.1893 121.0739 5.5875 0.0000 0.9086 0.0000
# 3 21.5650 5.5875 34.8749 0.0000 -7.3352 0.0000
# 4 0.0000 0.0000 0.0000 36.3028 0.0000 -1.6935
# 5 -17.8256 0.9086 -7.3352 0.0000 31.0326 0.0000
# 6 0.0000 0.0000 0.0000 -1.6935 0.0000 21.6207
#
#
#
# Elastic Compliance Matrix: (Units=1/GPa)
#
#
# Indices 1 2 3 4 5 6 
#
# 1 0.011747 -0.005644 -0.005162 0.000000 0.005693 0.000000
# 2 -0.005644 0.011043 0.001022 0.000000 -0.003324 0.000000
# 3 -0.005162 0.001022 0.032698 0.000000 0.004734 0.000000
# 4 0.000000 0.000000 0.000000 0.027647 0.000000 0.002165
# 5 0.005693 -0.003324 0.004734 0.000000 0.036710 0.000000
# 6 0.000000 0.000000 0.000000 0.002165 0.000000 0.046422
#
#
# Mechanical properties :
#
#
# Convention : Reuss Voigt Hill
#
# Bulk Modulus (GPa) = 27.84067 51.42139 39.63103
# Shear Modulus (GPa) = 25.27667 31.17567 28.22617
#
# Velocity S-wave (km/s) = 3.58592 3.98243 3.78936
# Velocity P-wave (km/s) = 5.59538 6.87790 6.26952
#
# Compressibility (1/GPa) = 0.03591867
#
# Stress axis : x y z
#
# Youngs Moduli (GPa) = 85.12475 90.55310 30.58291
#
# Poissons Ratio (x) = 0.51113 0.15788
# Poissons Ratio (y) = 0.48049 -0.03125
# Poissons Ratio (z) = 0.43944 -0.09253
#
# Static dielectric constant tensor:
#      x y z
#    x 1.674170 0.000000 -0.001220 
#    y 0.000000 1.704410 0.000000 
#    z -0.001220 0.000000 1.710120 
# 
# From -- ./inp_files/47623.got.cif
#   From: 2010.05.17/outbox.cif.g08.bks.cpg/sg10_24_cif.got.tgz:47623.got - 2010.06.03 11:33:40.
