data_PCOD9142348
_publ_section_title
;
Structure prediction by ZEFSAII (Michael W. Deem and Ramdas Pophale) SiO2 
 PCOD9142348
Probable space group: P 2/M
;
_chemical_formula_sum "Si O2"
_cell_formula_units_Z 30
_cell_length_a 23.230177
_cell_length_b 15.229109
_cell_length_c 8.348775
_cell_angle_alpha 90.000000
_cell_angle_beta 156.031655
_cell_angle_gamma 90.000000
_cell_volume 1199.841154
_symmetry_space_group_name_H-M "P 2/M"
_symmetry_group_IT_number 10
_symmetry_cell_setting 'monoclinic'
loop_
_space_group_symop_operation_xyz
x,y,z
-x,y,-z
-x,-y,-z
x,-y,z
loop_
_atom_site_type_symbol
_atom_site_label
_atom_site_fract_x
_atom_site_fract_y
_atom_site_fract_z
Si Si1 0.816909 0.595180 0.858738
Si Si2 0.196680 0.218829 0.095041
Si Si3 0.919124 0.901535 0.942831
Si Si4 0.378777 0.903531 0.992314
Si Si5 0.500000 0.825368 0.000000
Si Si6 0.441235 0.595954 0.576262
Si Si7 0.778922 0.598498 0.397693
Si Si8 0.713194 0.251113 0.010601
O O1 0.872009 0.500000 0.050430
O O2 0.868369 0.684210 0.066357
O O3 0.650427 0.594319 0.493457
O O4 0.844340 0.603878 0.740042
O O5 0.098792 0.152275 0.942065
O O6 0.348716 0.222782 0.581795
O O7 0.219730 0.198929 0.967526
O O8 0.763758 0.909249 0.473617
O O9 0.978309 0.000000 0.119823
O O10 0.000000 0.857657 0.000000
O O11 0.399960 0.000000 0.118113
O O12 0.491072 0.881271 0.140023
O O13 0.359422 0.821731 0.061996
O O14 0.409046 0.500000 0.419802
O O15 0.385779 0.677661 0.332625
O O16 0.609778 0.602922 0.008985
O O17 0.810003 0.500000 0.412537
O O18 0.806933 0.682024 0.356462
#
# Coordination Sequence:
#
# PCOD9142348 Si02
#       8
#     4   4   4   4   2   4   4   4
#     4   9  18  30  47  73 106 147 193 231 260 303
#     4  10  22  34  54  82 112 146 179 222 266 326
#     4   9  19  41  69  86  98 127 179 234 276 317
#     4  10  22  38  55  79 108 141 177 218 268 328
#     4  10  21  36  55  72 106 150 189 222 257 310
#     4   9  18  29  44  67 101 147 194 230 261 300
#     4  10  18  28  45  68 101 147 194 231 262 300
#     4  11  22  30  47  74 114 144 175 214 270 327
#
# _framework density 25.003308000000001
#
# number of rings (size 3 to 8) (size 9 to 14) (size 15 to 20)
#    0.000    2.267    0.000    3.000    9.333    4.267 
#    0.000    1.333    0.000    2.800    0.000    0.000 
#    0.000    9.600    0.000    0.000    0.000    0.000 
#
# Total GULP energy -167492.442670 kJ/mol
# GULP energy per Si atom -5583.081422 kJ/mol
# Density = 2.494640 g / cm^3
# Si number density = 25.003308 Si / 1000 Ang^3
#
#
#
# Elastic Constant Matrix: (Units=GPa)
#
#
# Indices 1 2 3 4 5 6 
#
# 1 165.6359 73.5611 -2.1052 0.0000 -12.0343 0.0000
# 2 73.5611 173.0499 12.8621 0.0000 -2.0064 0.0000
# 3 -2.1052 12.8621 63.2949 0.0000 -2.2568 0.0000
# 4 0.0000 0.0000 0.0000 -21.0717 0.0000 -15.0060
# 5 -12.0343 -2.0064 -2.2568 0.0000 15.6300 0.0000
# 6 0.0000 0.0000 0.0000 -15.0060 0.0000 57.6042
#
#
#
# Elastic Compliance Matrix: (Units=1/GPa)
#
#
# Indices 1 2 3 4 5 6 
#
# 1 0.007998 -0.003419 0.001171 0.000000 0.005889 0.000000
# 2 -0.003419 0.007334 -0.001673 0.000000 -0.001932 0.000000
# 3 0.001171 -0.001673 0.016286 0.000000 0.003038 0.000000
# 4 0.000000 0.000000 0.000000 -0.040031 0.000000 -0.010428
# 5 0.005889 -0.001932 0.003038 0.000000 0.068704 0.000000
# 6 0.000000 0.000000 0.000000 -0.010428 0.000000 0.014643
#
#
# Mechanical properties :
#
#
# Convention : Reuss Voigt Hill
#
# Bulk Modulus (GPa) = 42.05813 63.40185 52.72999
# Shear Modulus (GPa) = 55.12532 31.61001 43.36767
#
# Velocity S-wave (km/s) = 4.70054 3.55946 4.16922
# Velocity P-wave (km/s) = 6.80571 6.50427 6.65669
#
# Compressibility (1/GPa) = 0.02377661
#
# Stress axis : x y z
#
# Youngs Moduli (GPa) = 125.02575 136.35362 61.40138
#
# Poissons Ratio (x) = 0.46616 -0.07188
# Poissons Ratio (y) = 0.42743 0.10272
# Poissons Ratio (z) = -0.14637 0.22811
#
# Static dielectric constant tensor:
#      x y z
#    x 2.051470 0.000000 0.088540 
#    y 0.000000 1.983330 0.000000 
#    z 0.088540 0.000000 2.089760 
# 
# From -- ./inp_files/36314.got.cif
#   From: 2010.05.17/outbox.cif.g08.bks.cpg/sg10_19_cif.got.tgz:36314.got - 2010.06.03 11:33:40.
