data_PCOD9142128
_publ_section_title
;
Structure prediction by ZEFSAII (Michael W. Deem and Ramdas Pophale) SiO2 
 PCOD9142128
Probable space group: P 2/M
;
_chemical_formula_sum "Si O2"
_cell_formula_units_Z 24
_cell_length_a 18.159290
_cell_length_b 11.580956
_cell_length_c 11.542408
_cell_angle_alpha 90.000000
_cell_angle_beta 37.010443
_cell_angle_gamma 90.000000
_cell_volume 1461.193551
_symmetry_space_group_name_H-M "P 2/M"
_symmetry_group_IT_number 10
_symmetry_cell_setting 'monoclinic'
loop_
_space_group_symop_operation_xyz
x,y,z
-x,y,-z
-x,-y,-z
x,-y,z
loop_
_atom_site_type_symbol
_atom_site_label
_atom_site_fract_x
_atom_site_fract_y
_atom_site_fract_z
Si Si1 0.684666 0.775225 0.702457
Si Si2 0.929557 0.000000 0.902313
Si Si3 0.256171 0.000000 0.068591
Si Si4 0.000000 0.805154 0.000000
Si Si5 0.527148 0.364740 0.591743
Si Si6 0.794541 0.635199 0.360849
Si Si7 0.156569 0.000000 0.442356
Si Si8 0.576970 0.782919 0.077006
O O1 0.752688 0.680417 0.539754
O O2 0.559452 0.814990 0.796118
O O3 0.768797 0.886319 0.614487
O O4 0.644456 0.731573 0.879541
O O5 0.947169 0.889363 0.965145
O O6 0.034523 0.000000 0.671729
O O7 0.807334 0.000000 0.977314
O O8 0.342941 0.110292 0.980022
O O9 0.158698 0.000000 0.298791
O O10 0.896328 0.721498 0.183294
O O11 0.500000 0.314637 0.500000
O O12 0.497339 0.500000 0.628615
O O13 0.670283 0.353933 0.442029
O O14 0.446677 0.304830 0.790352
O O15 0.831264 0.500000 0.315813
#
# Coordination Sequence:
#
# PCOD9142128 Si02
#       8
#     4   2   2   2   4   4   2   4
#     4   9  17  32  55  80 108 134 171 210 260 302
#     4  11  23  36  53  75 103 137 182 217 258 309
#     4  10  21  33  53  82 104 137 175 206 263 316
#     4  11  23  38  54  74 105 137 176 226 262 295
#     4   9  19  34  53  77 106 139 170 206 260 315
#     4  10  20  35  56  78 101 136 178 216 257 307
#     4  10  17  35  55  74 105 140 169 217 258 308
#     4   9  18  32  53  81 109 138 165 212 254 313
#
# _framework density 16.424928000000001
#
# number of rings (size 3 to 8) (size 9 to 14) (size 15 to 20)
#    0.000    2.333    1.667    1.000    2.333    2.667 
#    0.000    3.750    0.000    0.000    0.000    2.333 
#    0.000    0.000    0.000    0.000    0.000    0.000 
#
# Total GULP energy -133695.175756 kJ/mol
# GULP energy per Si atom -5570.632323 kJ/mol
# Density = 1.638754 g / cm^3
# Si number density = 16.424928 Si / 1000 Ang^3
#
#
#
# Elastic Constant Matrix: (Units=GPa)
#
#
# Indices 1 2 3 4 5 6 
#
# 1 116.4094 59.2356 51.8343 0.0000 24.6890 0.0000
# 2 59.2356 99.7406 62.3505 0.0000 9.9641 0.0000
# 3 51.8343 62.3505 111.3281 0.0000 13.9294 0.0000
# 4 0.0000 0.0000 0.0000 19.9909 0.0000 1.3247
# 5 24.6890 9.9641 13.9294 0.0000 13.5991 0.0000
# 6 0.0000 0.0000 0.0000 1.3247 0.0000 17.7469
#
#
#
# Elastic Compliance Matrix: (Units=1/GPa)
#
#
# Indices 1 2 3 4 5 6 
#
# 1 0.018830 -0.007857 -0.000928 0.000000 -0.027477 0.000000
# 2 -0.007857 0.018801 -0.007951 0.000000 0.008634 0.000000
# 3 -0.000928 -0.007951 0.014829 0.000000 -0.007677 0.000000
# 4 0.000000 0.000000 0.000000 0.050271 0.000000 -0.003753
# 5 -0.027477 0.008634 -0.007677 0.000000 0.124955 0.000000
# 6 0.000000 0.000000 0.000000 -0.003753 0.000000 0.056628
#
#
# Mechanical properties :
#
#
# Convention : Reuss Voigt Hill
#
# Bulk Modulus (GPa) = 52.67574 74.92433 63.80003
# Shear Modulus (GPa) = 15.42659 20.53789 17.98224
#
# Velocity S-wave (km/s) = 3.06799 3.53995 3.31239
# Velocity P-wave (km/s) = 6.68508 7.90086 7.31826
#
# Compressibility (1/GPa) = 0.01898407
#
# Stress axis : x y z
#
# Youngs Moduli (GPa) = 53.10790 53.18993 67.43742
#
# Poissons Ratio (x) = 0.41794 0.06262
# Poissons Ratio (y) = 0.41729 0.53622
# Poissons Ratio (z) = 0.04931 0.42293
#
# Static dielectric constant tensor:
#      x y z
#    x 1.560290 0.000000 0.005850 
#    y 0.000000 1.521690 0.000000 
#    z 0.005850 0.000000 1.550680 
# 
# From -- ./inp_files/53628.got.cif
#   From: 2010.05.17/outbox.cif.g08.bks.cpg/sg10_27_cif.got.tgz:53628.got - 2010.06.03 11:33:40.
