data_PCOD9142456
_publ_section_title
;
Structure prediction by ZEFSAII (Michael W. Deem and Ramdas Pophale) SiO2 
 PCOD9142456
Probable space group: P 2/M
;
_chemical_formula_sum "Si O2"
_cell_formula_units_Z 32
_cell_length_a 18.009518
_cell_length_b 7.774753
_cell_length_c 13.888111
_cell_angle_alpha 90.000000
_cell_angle_beta 78.339596
_cell_angle_gamma 90.000000
_cell_volume 1904.475706
_symmetry_space_group_name_H-M "P 2/M"
_symmetry_group_IT_number 10
_symmetry_cell_setting 'monoclinic'
loop_
_space_group_symop_operation_xyz
x,y,z
-x,y,-z
-x,-y,-z
x,-y,z
loop_
_atom_site_type_symbol
_atom_site_label
_atom_site_fract_x
_atom_site_fract_y
_atom_site_fract_z
Si Si1 0.332420 0.796863 0.432553
Si Si2 0.659993 0.207449 0.347799
Si Si3 0.178226 0.791751 0.746054
Si Si4 0.903345 0.300947 0.431476
Si Si5 0.947133 0.791724 0.716735
Si Si6 0.504685 0.703650 0.608411
Si Si7 0.187751 0.803521 0.364817
Si Si8 0.030234 0.789674 0.889146
O O1 0.332496 0.728080 0.542809
O O2 0.417293 0.775308 0.369891
O O3 0.265958 0.722982 0.382980
O O4 0.316230 0.000000 0.446126
O O5 0.734660 0.265236 0.270959
O O6 0.578259 0.259795 0.328176
O O7 0.660386 0.000000 0.350988
O O8 0.145947 0.734518 0.651179
O O9 0.116109 0.735336 0.840537
O O10 0.177743 0.000000 0.746276
O O11 0.898385 0.500000 0.459747
O O12 0.867248 0.195514 0.527643
O O13 0.988766 0.258369 0.377723
O O14 0.865094 0.725919 0.704698
O O15 0.977625 0.735081 0.813005
O O16 0.944711 0.000000 0.718509
O O17 0.500000 0.775397 0.500000
O O18 0.514637 0.500000 0.600724
O O19 0.204884 0.000000 0.330904
O O20 0.029549 0.000000 0.890004
O O21 0.000000 0.730802 0.000000
#
# Coordination Sequence:
#
# PCOD9142456 Si02
#       8
#     4   4   4   4   4   4   4   4
#     4   9  16  26  39  53  73 104 140 169 194 230
#     4   9  15  25  40  55  74 103 139 170 194 229
#     4   9  16  28  44  61  81 109 142 170 201 244
#     4  11  20  27  38  57  83 109 136 172 208 236
#     4   9  18  30  44  58  77 107 140 169 201 244
#     4   9  17  26  36  53  78 105 133 164 200 237
#     4  10  18  29  42  56  77 109 144 171 196 236
#     4   8  14  26  45  66  84 102 130 170 210 245
#
# _framework density 16.802524999999999
#
# number of rings (size 3 to 8) (size 9 to 14) (size 15 to 20)
#    0.000    2.750    1.250    2.625    0.000    4.500 
#    0.000    0.000    0.000    6.000    0.000    0.000 
#    0.000    1.000    0.000   12.750    0.000    1.250 
#
# Total GULP energy -178224.393555 kJ/mol
# GULP energy per Si atom -5569.512299 kJ/mol
# Density = 1.676428 g / cm^3
# Si number density = 16.802525 Si / 1000 Ang^3
#
#
#
# Elastic Constant Matrix: (Units=GPa)
#
#
# Indices 1 2 3 4 5 6 
#
# 1 160.3932 3.8667 43.2331 0.0000 7.5237 0.0000
# 2 3.8667 27.8345 1.4879 0.0000 -1.0779 0.0000
# 3 43.2331 1.4879 49.3338 0.0000 -4.1762 0.0000
# 4 0.0000 0.0000 0.0000 -2.0088 0.0000 4.1409
# 5 7.5237 -1.0779 -4.1762 0.0000 12.7879 0.0000
# 6 0.0000 0.0000 0.0000 4.1409 0.0000 -20.1457
#
#
#
# Elastic Compliance Matrix: (Units=1/GPa)
#
#
# Indices 1 2 3 4 5 6 
#
# 1 0.008926 -0.001101 -0.008476 0.000000 -0.008113 0.000000
# 2 -0.001101 0.036215 0.000191 0.000000 0.003763 0.000000
# 3 -0.008476 0.000191 0.028915 0.000000 0.014446 0.000000
# 4 0.000000 0.000000 0.000000 -0.863826 0.000000 -0.177558
# 5 -0.008113 0.003763 0.014446 0.000000 0.088007 0.000000
# 6 0.000000 0.000000 0.000000 -0.177558 0.000000 -0.086135
#
#
# Mechanical properties :
#
#
# Convention : Reuss Voigt Hill
#
# Bulk Modulus (GPa) = 18.08819 37.19301 27.64060
# Shear Modulus (GPa) = -6.66047 10.72492 2.03223
#
# Velocity S-wave (km/s) = -1.99313 2.52919 1.10095
# Velocity P-wave (km/s) = 2.34345 5.54188 4.25466
#
# Compressibility (1/GPa) = 0.05528469
#
# Stress axis : x y z
#
# Youngs Moduli (GPa) = 112.02623 27.61281 34.58389
#
# Poissons Ratio (x) = 0.03041 0.29314
# Poissons Ratio (y) = 0.12336 -0.00662
# Poissons Ratio (z) = 0.94955 -0.00528
#
# Static dielectric constant tensor:
#      x y z
#    x 1.632160 0.000000 0.011500 
#    y 0.000000 1.604120 0.000000 
#    z 0.011500 0.000000 1.535410 
# 
# From -- ./inp_files/52743.got.cif
#   From: 2010.05.17/outbox.cif.g08.bks.cpg/sg10_27_cif.got.tgz:52743.got - 2010.06.03 11:33:40.
