data_PCOD9142868
_publ_section_title
;
Structure prediction by ZEFSAII (Michael W. Deem and Ramdas Pophale) SiO2 
 PCOD9142868
Probable space group: P 2/M
;
_chemical_formula_sum "Si O2"
_cell_formula_units_Z 28
_cell_length_a 5.179607
_cell_length_b 18.879436
_cell_length_c 15.813952
_cell_angle_alpha 90.000000
_cell_angle_beta 70.133228
_cell_angle_gamma 90.000000
_cell_volume 1454.381309
_symmetry_space_group_name_H-M "P 2/M"
_symmetry_group_IT_number 10
_symmetry_cell_setting 'monoclinic'
loop_
_space_group_symop_operation_xyz
x,y,z
-x,y,-z
-x,-y,-z
x,-y,z
loop_
_atom_site_type_symbol
_atom_site_label
_atom_site_fract_x
_atom_site_fract_y
_atom_site_fract_z
Si Si1 0.732074 0.575238 0.090494
Si Si2 0.922531 0.631049 0.607262
Si Si3 0.813758 0.923152 0.438296
Si Si4 0.311007 0.389464 0.715214
Si Si5 0.274341 0.776155 0.764785
Si Si6 0.867575 0.794558 0.676506
Si Si7 0.680036 0.729373 0.057092
O O1 0.584979 0.500000 0.091301
O O2 0.793160 0.578445 0.184447
O O3 0.575976 0.648921 0.089395
O O4 0.000000 0.574916 0.000000
O O5 0.628420 0.596341 0.660050
O O6 0.000000 0.623455 0.500000
O O7 0.133522 0.597995 0.651311
O O8 0.910317 0.716217 0.630943
O O9 0.500000 0.913815 0.500000
O O10 0.931154 0.853517 0.382012
O O11 0.000000 0.928925 0.500000
O O12 0.835116 0.000000 0.389924
O O13 0.303337 0.305426 0.733860
O O14 0.975019 0.793653 0.761829
O O15 0.316676 0.776419 0.859900
O O16 0.548559 0.813851 0.699135
O O17 0.500000 0.756443 0.000000
O O18 0.000000 0.722147 0.000000
#
# Coordination Sequence:
#
# PCOD9142868 Si02
#       7
#     4   4   4   4   4   4   4
#     4   9  19  35  55  77 100 131 166 198 245 311
#     4  10  19  32  52  73  96 130 168 206 248 290
#     4  10  20  32  46  68 101 136 165 196 237 284
#     4   9  19  33  49  73 101 125 158 209 253 288
#     4   9  18  30  46  70  97 126 158 200 246 286
#     4  10  18  30  48  70  97 126 165 204 237 283
#     4  10  19  32  50  73 103 129 153 193 246 301
#
# _framework density 19.252172999999999
#
# number of rings (size 3 to 8) (size 9 to 14) (size 15 to 20)
#    0.000    2.429    0.000    2.571    0.000    9.429 
#    0.000    3.571    0.000    2.571    0.000    0.000 
#    0.000   11.429    0.000    0.000    0.000    0.000 
#
# Total GULP energy -155883.991663 kJ/mol
# GULP energy per Si atom -5567.285417 kJ/mol
# Density = 1.920835 g / cm^3
# Si number density = 19.252173 Si / 1000 Ang^3
#
#
#
# Elastic Constant Matrix: (Units=GPa)
#
#
# Indices 1 2 3 4 5 6 
#
# 1 128.5440 5.5388 51.2483 0.0000 12.2449 0.0000
# 2 5.5388 41.2315 11.1679 0.0000 -11.0122 0.0000
# 3 51.2483 11.1679 117.5498 0.0000 20.1080 0.0000
# 4 0.0000 0.0000 0.0000 22.6561 0.0000 -3.2611
# 5 12.2449 -11.0122 20.1080 0.0000 35.8451 0.0000
# 6 0.0000 0.0000 0.0000 -3.2611 0.0000 -2.7979
#
#
#
# Elastic Compliance Matrix: (Units=1/GPa)
#
#
# Indices 1 2 3 4 5 6 
#
# 1 0.009460 -0.000556 -0.003860 0.000000 -0.001237 0.000000
# 2 -0.000556 0.028590 -0.004434 0.000000 0.011461 0.000000
# 3 -0.003860 -0.004434 0.011746 0.000000 -0.006633 0.000000
# 4 0.000000 0.000000 0.000000 0.037797 0.000000 -0.044056
# 5 -0.001237 0.011461 -0.006633 0.000000 0.035562 0.000000
# 6 0.000000 0.000000 0.000000 -0.044056 0.000000 -0.306065
#
#
# Mechanical properties :
#
#
# Convention : Reuss Voigt Hill
#
# Bulk Modulus (GPa) = 31.15677 47.02615 39.09146
# Shear Modulus (GPa) = -32.35997 25.76535 -3.29731
#
# Velocity S-wave (km/s) = -4.10426 3.66226 -1.31012
# Velocity P-wave (km/s) = 2.49826 6.50863 4.24976
#
# Compressibility (1/GPa) = 0.03209576
#
# Stress axis : x y z
#
# Youngs Moduli (GPa) = 105.70700 34.97722 85.13727
#
# Poissons Ratio (x) = 0.01944 0.32862
# Poissons Ratio (y) = 0.05874 0.37753
# Poissons Ratio (z) = 0.40802 0.15510
#
# Static dielectric constant tensor:
#      x y z
#    x 1.690340 0.000000 0.028970 
#    y 0.000000 1.728980 0.000000 
#    z 0.028970 0.000000 1.717740 
# 
# From -- ./inp_files/59378.got.cif
#   From: 2010.05.17/outbox.cif.g08.bks.cpg/sg10_30_cif.got.tgz:59378.got - 2010.06.03 11:33:40.
