data_PCOD9142249
_publ_section_title
;
Structure prediction by ZEFSAII (Michael W. Deem and Ramdas Pophale) SiO2 
 PCOD9142249
Probable space group: P 2/M
;
_chemical_formula_sum "Si O2"
_cell_formula_units_Z 20
_cell_length_a 9.428179
_cell_length_b 11.218591
_cell_length_c 7.360248
_cell_angle_alpha 90.000000
_cell_angle_beta 92.626617
_cell_angle_gamma 90.000000
_cell_volume 777.682037
_symmetry_space_group_name_H-M "P 2/M"
_symmetry_group_IT_number 10
_symmetry_cell_setting 'monoclinic'
loop_
_space_group_symop_operation_xyz
x,y,z
-x,y,-z
-x,-y,-z
x,-y,z
loop_
_atom_site_type_symbol
_atom_site_label
_atom_site_fract_x
_atom_site_fract_y
_atom_site_fract_z
Si Si1 0.689023 0.130322 0.875199
Si Si2 0.847473 0.500000 0.577536
Si Si3 0.159750 0.137056 0.509349
Si Si4 0.585400 0.500000 0.314748
Si Si5 0.835100 0.367526 0.935528
Si Si6 0.570899 0.757592 0.303849
O O1 0.776148 0.130631 0.689704
O O2 0.746831 0.249640 0.975063
O O3 0.524796 0.150105 0.811704
O O4 0.712188 0.000000 0.961063
O O5 0.742533 0.500000 0.404361
O O6 0.825232 0.390656 0.716635
O O7 0.000000 0.500000 0.500000
O O8 0.268546 0.207665 0.642132
O O9 0.000000 0.185596 0.500000
O O10 0.152438 0.000000 0.575801
O O11 0.500000 0.500000 0.500000
O O12 0.551653 0.625276 0.222744
O O13 0.790760 0.500000 0.005932
O O14 0.000000 0.351832 0.000000
O O15 0.500000 0.755393 0.500000
#
# Coordination Sequence:
#
# PCOD9142249 Si02
#       6
#     4   2   4   2   4   4
#     4  10  19  31  51  75 102 138 181 221 256 310
#     4  10  19  33  56  83 108 135 179 220 265 315
#     4   9  17  29  44  68 107 143 168 208 272 324
#     4  10  18  27  44  73 106 139 164 212 268 321
#     4   9  20  36  53  78 110 146 173 219 274 320
#     4   9  17  27  42  68 102 136 171 214 262 308
#
# _framework density 25.717451000000001
#
# number of rings (size 3 to 8) (size 9 to 14) (size 15 to 20)
#    0.600    2.000    0.000    4.200    1.400    6.000 
#    0.000    0.000    0.000    0.000    0.000   18.200 
#    0.000   11.200    0.000    0.000    0.000    0.000 
#
# Total GULP energy -111921.644117 kJ/mol
# GULP energy per Si atom -5596.082206 kJ/mol
# Density = 2.565892 g / cm^3
# Si number density = 25.717451 Si / 1000 Ang^3
#
#
#
# Elastic Constant Matrix: (Units=GPa)
#
#
# Indices 1 2 3 4 5 6 
#
# 1 143.6904 48.6689 33.2958 0.0000 27.6531 0.0000
# 2 48.6689 219.7361 32.8046 0.0000 19.2349 0.0000
# 3 33.2958 32.8046 101.8326 0.0000 -13.1865 0.0000
# 4 0.0000 0.0000 0.0000 20.6530 0.0000 6.4982
# 5 27.6531 19.2349 -13.1865 0.0000 38.1290 0.0000
# 6 0.0000 0.0000 0.0000 6.4982 0.0000 28.6610
#
#
#
# Elastic Compliance Matrix: (Units=1/GPa)
#
#
# Indices 1 2 3 4 5 6 
#
# 1 0.009690 -0.000866 -0.003918 0.000000 -0.007946 0.000000
# 2 -0.000866 0.005231 -0.001741 0.000000 -0.002613 0.000000
# 3 -0.003918 -0.001741 0.012713 0.000000 0.008116 0.000000
# 4 0.000000 0.000000 0.000000 0.052138 0.000000 -0.011821
# 5 -0.007946 -0.002613 0.008116 0.000000 0.036115 0.000000
# 6 0.000000 0.000000 0.000000 -0.011821 0.000000 0.037571
#
#
# Mechanical properties :
#
#
# Convention : Reuss Voigt Hill
#
# Bulk Modulus (GPa) = 68.56399 77.19976 72.88188
# Shear Modulus (GPa) = 29.17688 40.85458 35.01573
#
# Velocity S-wave (km/s) = 3.37191 3.99004 3.69393
# Velocity P-wave (km/s) = 6.47133 7.16316 6.82601
#
# Compressibility (1/GPa) = 0.01458492
#
# Stress axis : x y z
#
# Youngs Moduli (GPa) = 103.20198 191.15932 78.66016
#
# Poissons Ratio (x) = 0.16547 0.30821
# Poissons Ratio (y) = 0.08934 0.13691
# Poissons Ratio (z) = 0.40438 0.33272
#
# Static dielectric constant tensor:
#      x y z
#    x 1.993130 0.000000 -0.098090 
#    y 0.000000 2.059750 0.000000 
#    z -0.098090 0.000000 1.996020 
# 
# From -- ./inp_files/41697.got.cif
#   From: 2010.05.17/outbox.cif.g08.bks.cpg/sg10_21_cif.got.tgz:41697.got - 2010.06.03 11:33:40.
