data_PCOD9142609
_publ_section_title
;
Structure prediction by ZEFSAII (Michael W. Deem and Ramdas Pophale) SiO2 
 PCOD9142609
Probable space group: P 2/M
;
_chemical_formula_sum "Si O2"
_cell_formula_units_Z 32
_cell_length_a 26.360124
_cell_length_b 9.691451
_cell_length_c 21.148990
_cell_angle_alpha 90.000000
_cell_angle_beta 18.758352
_cell_angle_gamma 90.000000
_cell_volume 1737.446874
_symmetry_space_group_name_H-M "P 2/M"
_symmetry_group_IT_number 10
_symmetry_cell_setting 'monoclinic'
loop_
_space_group_symop_operation_xyz
x,y,z
-x,y,-z
-x,-y,-z
x,-y,z
loop_
_atom_site_type_symbol
_atom_site_label
_atom_site_fract_x
_atom_site_fract_y
_atom_site_fract_z
Si Si1 0.416353 0.839884 0.499721
Si Si2 0.649338 0.158949 0.001592
Si Si3 0.559498 0.338138 0.225296
Si Si4 0.894439 0.338809 0.904131
Si Si5 0.515250 0.342639 0.057186
Si Si6 0.985752 0.158903 0.444687
Si Si7 0.246343 0.158847 0.824951
Si Si8 0.153970 0.660878 0.497881
O O1 0.438102 0.736253 0.416147
O O2 0.584774 0.837867 0.337822
O O3 0.286584 0.800222 0.705458
O O4 0.390818 0.000000 0.510639
O O5 0.568632 0.253234 0.149801
O O6 0.618415 0.229406 0.970539
O O7 0.596141 0.000000 0.065955
O O8 0.836836 0.159920 0.791869
O O9 0.525724 0.500000 0.255656
O O10 0.733296 0.327935 0.052959
O O11 0.916595 0.500000 0.892934
O O12 0.040700 0.291596 0.688354
O O13 0.868092 0.253072 0.998927
O O14 0.573770 0.500000 0.998680
O O15 0.338908 0.331620 0.293482
O O16 0.500000 0.323194 0.000000
O O17 0.000000 0.208081 0.500000
O O18 0.881390 0.252229 0.522914
O O19 0.928946 0.000000 0.513373
O O20 0.193429 0.000000 0.887262
O O21 0.114557 0.500000 0.532279
#
# Coordination Sequence:
#
# PCOD9142609 Si02
#       8
#     4   4   4   4   4   4   4   4
#     4   8  14  25  40  63  97 133 168 203 244 293
#     4  11  22  35  53  76 103 135 169 211 259 306
#     4  10  18  29  47  71 101 134 169 209 251 299
#     4   9  17  28  44  69 100 131 165 208 251 296
#     4  10  22  39  57  76 100 133 173 215 259 309
#     4  10  21  35  52  76 102 129 165 208 256 309
#     4   8  14  24  40  63  95 134 168 201 243 294
#     4  10  20  35  53  75 102 133 169 211 258 304
#
# _framework density 18.417828
#
# number of rings (size 3 to 8) (size 9 to 14) (size 15 to 20)
#    0.000    2.500    1.250    2.250    0.000    3.000 
#    0.000    2.500    0.000    0.000    0.000    0.875 
#    0.000    7.000    0.000    0.000    0.000    0.000 
#
# Total GULP energy -178446.344534 kJ/mol
# GULP energy per Si atom -5576.448267 kJ/mol
# Density = 1.837591 g / cm^3
# Si number density = 18.417828 Si / 1000 Ang^3
#
#
#
# Elastic Constant Matrix: (Units=GPa)
#
#
# Indices 1 2 3 4 5 6 
#
# 1 32.1224 35.8144 10.0550 0.0000 16.7096 0.0000
# 2 35.8144 82.2034 22.7483 0.0000 14.5277 0.0000
# 3 10.0550 22.7483 56.4062 0.0000 23.5199 0.0000
# 4 0.0000 0.0000 0.0000 14.9944 0.0000 15.0376
# 5 16.7096 14.5277 23.5199 0.0000 29.5215 0.0000
# 6 0.0000 0.0000 0.0000 15.0376 0.0000 25.6719
#
#
#
# Elastic Compliance Matrix: (Units=1/GPa)
#
#
# Indices 1 2 3 4 5 6 
#
# 1 0.090789 -0.036141 0.018573 0.000000 -0.048400 0.000000
# 2 -0.036141 0.028326 -0.011528 0.000000 0.015702 0.000000
# 3 0.018573 -0.011528 0.031574 0.000000 -0.029994 0.000000
# 4 0.000000 0.000000 0.000000 0.161656 0.000000 -0.094691
# 5 -0.048400 0.015702 -0.029994 0.000000 0.077438 0.000000
# 6 0.000000 0.000000 0.000000 -0.094691 0.000000 0.094419
#
#
# Mechanical properties :
#
#
# Convention : Reuss Voigt Hill
#
# Bulk Modulus (GPa) = 10.81129 34.21859 22.51494
# Shear Modulus (GPa) = 8.72253 20.84518 14.78385
#
# Velocity S-wave (km/s) = 2.17858 3.36786 2.83626
# Velocity P-wave (km/s) = 3.49443 5.80885 4.79342
#
# Compressibility (1/GPa) = 0.09249590
#
# Stress axis : x y z
#
# Youngs Moduli (GPa) = 11.01455 35.30294 31.67164
#
# Poissons Ratio (x) = 1.27589 -0.58823
# Poissons Ratio (y) = 0.39808 0.36513
# Poissons Ratio (z) = -0.20457 0.40699
#
# Static dielectric constant tensor:
#      x y z
#    x 1.625550 0.000000 0.012290 
#    y 0.000000 1.622700 0.000000 
#    z 0.012290 0.000000 1.656420 
# 
# From -- ./inp_files/86854.got.cif
#   From: 2010.05.17/outbox.cif.g08.bks.cpg/sg10_44_cif.got.tgz:86854.got - 2010.06.03 11:33:40.
