data_PCOD9142773
_publ_section_title
;
Structure prediction by ZEFSAII (Michael W. Deem and Ramdas Pophale) SiO2 
 PCOD9142773
Probable space group: P 2/M
;
_chemical_formula_sum "Si O2"
_cell_formula_units_Z 20
_cell_length_a 13.044716
_cell_length_b 17.164084
_cell_length_c 12.920264
_cell_angle_alpha 90.000000
_cell_angle_beta 157.632887
_cell_angle_gamma 90.000000
_cell_volume 1100.845944
_symmetry_space_group_name_H-M "P 2/M"
_symmetry_group_IT_number 10
_symmetry_cell_setting 'monoclinic'
loop_
_space_group_symop_operation_xyz
x,y,z
-x,y,-z
-x,-y,-z
x,-y,z
loop_
_atom_site_type_symbol
_atom_site_label
_atom_site_fract_x
_atom_site_fract_y
_atom_site_fract_z
Si Si1 0.590266 0.324039 0.963536
Si Si2 0.275027 0.905474 0.208470
Si Si3 0.522605 0.908305 0.221022
Si Si4 0.084385 0.587655 0.457000
Si Si5 0.916689 0.170580 0.303108
O O1 0.763423 0.245565 0.112495
O O2 0.804524 0.391867 0.141711
O O3 0.500000 0.322126 0.000000
O O4 0.312367 0.347437 0.649024
O O5 0.500000 0.882570 0.500000
O O6 0.354695 0.884555 0.166573
O O7 0.260705 0.000000 0.193898
O O8 0.000000 0.875378 0.000000
O O9 0.800927 0.860276 0.478589
O O10 0.589709 0.000000 0.289771
O O11 0.318228 0.893158 0.934866
O O12 0.179253 0.500000 0.524924
O O13 0.000000 0.590929 0.500000
O O14 0.000000 0.186623 0.500000
#
# Coordination Sequence:
#
# PCOD9142773 Si02
#       5
#     4   4   4   4   4
#     4  10  18  30  44  60  86 122 161 195 231 275
#     4   9  17  32  53  73  91 109 137 190 255 308
#     4  11  23  36  51  71  91 119 166 210 243 283
#     4   9  16  26  43  65  85 108 149 203 241 268
#     4  12  23  35  48  64  94 135 171 201 232 268
#
# _framework density 18.167846000000001
#
# number of rings (size 3 to 8) (size 9 to 14) (size 15 to 20)
#    0.000    1.800    0.000    7.200    0.000    8.000 
#    0.000    0.000    0.000    0.000    0.000    0.000 
#    0.000    0.000    0.000    0.000    0.000  252.000 
#
# Total GULP energy -111377.546895 kJ/mol
# GULP energy per Si atom -5568.877345 kJ/mol
# Density = 1.812649 g / cm^3
# Si number density = 18.167846 Si / 1000 Ang^3
#
#
#
# Elastic Constant Matrix: (Units=GPa)
#
#
# Indices 1 2 3 4 5 6 
#
# 1 43.9306 25.3222 36.5637 0.0000 14.2278 0.0000
# 2 25.3222 77.3626 36.3527 0.0000 17.1960 0.0000
# 3 36.5637 36.3527 127.2548 0.0000 34.6469 0.0000
# 4 0.0000 0.0000 0.0000 38.8170 0.0000 12.1297
# 5 14.2278 17.1960 34.6469 0.0000 28.7183 0.0000
# 6 0.0000 0.0000 0.0000 12.1297 0.0000 4.4172
#
#
#
# Elastic Compliance Matrix: (Units=1/GPa)
#
#
# Indices 1 2 3 4 5 6 
#
# 1 0.033625 -0.006943 -0.006365 0.000000 -0.004822 0.000000
# 2 -0.006943 0.017006 -0.001530 0.000000 -0.004898 0.000000
# 3 -0.006365 -0.001530 0.013426 0.000000 -0.012129 0.000000
# 4 0.000000 0.000000 0.000000 0.181519 0.000000 -0.498448
# 5 -0.004822 -0.004898 -0.012129 0.000000 0.054775 0.000000
# 6 0.000000 0.000000 0.000000 -0.498448 0.000000 1.595117
#
#
# Mechanical properties :
#
#
# Convention : Reuss Voigt Hill
#
# Bulk Modulus (GPa) = 29.08545 49.44725 39.26635
# Shear Modulus (GPa) = 2.58184 24.41113 13.49649
#
# Velocity S-wave (km/s) = 1.19339 3.66955 2.72854
# Velocity P-wave (km/s) = 4.23591 6.72534 5.62019
#
# Compressibility (1/GPa) = 0.03438146
#
# Stress axis : x y z
#
# Youngs Moduli (GPa) = 29.74006 58.80192 74.48099
#
# Poissons Ratio (x) = 0.40828 0.47406
# Poissons Ratio (y) = 0.20649 0.11393
# Poissons Ratio (z) = 0.18929 0.08995
#
# Static dielectric constant tensor:
#      x y z
#    x 1.627130 0.000000 -0.006870 
#    y 0.000000 1.688620 0.000000 
#    z -0.006870 0.000000 1.640140 
# 
# From -- ./inp_files/67672.got.cif
#   From: 2010.05.17/outbox.cif.g08.bks.cpg/sg10_34_cif.got.tgz:67672.got - 2010.06.03 11:33:40.
