data_PCOD9142311
_publ_section_title
;
Structure prediction by ZEFSAII (Michael W. Deem and Ramdas Pophale) SiO2 
 PCOD9142311
Probable space group: P 2/M
;
_chemical_formula_sum "Si O2"
_cell_formula_units_Z 32
_cell_length_a 22.560191
_cell_length_b 7.541101
_cell_length_c 12.420224
_cell_angle_alpha 90.000000
_cell_angle_beta 49.237924
_cell_angle_gamma 90.000000
_cell_volume 1600.471566
_symmetry_space_group_name_H-M "P 2/M"
_symmetry_group_IT_number 10
_symmetry_cell_setting 'monoclinic'
loop_
_space_group_symop_operation_xyz
x,y,z
-x,y,-z
-x,-y,-z
x,-y,z
loop_
_atom_site_type_symbol
_atom_site_label
_atom_site_fract_x
_atom_site_fract_y
_atom_site_fract_z
Si Si1 0.169040 0.784555 0.051044
Si Si2 0.671302 0.787855 0.266753
Si Si3 0.080962 0.216564 0.955090
Si Si4 0.238251 0.782617 0.641828
Si Si5 0.248595 0.208134 0.161333
Si Si6 0.723692 0.205478 0.635785
Si Si7 0.543748 0.286092 0.836760
Si Si8 0.591971 0.292610 0.151516
O O1 0.248613 0.741264 0.891712
O O2 0.098966 0.726077 0.056571
O O3 0.165502 0.000000 0.060159
O O4 0.184960 0.717580 0.152499
O O5 0.689520 0.725342 0.366301
O O6 0.603462 0.728592 0.265969
O O7 0.665559 0.000000 0.276974
O O8 0.156313 0.267095 0.794437
O O9 0.079423 0.000000 0.957616
O O10 0.000000 0.278121 0.000000
O O11 0.244196 0.716370 0.513316
O O12 0.240652 0.000000 0.638047
O O13 0.253990 0.285232 0.274704
O O14 0.231297 0.000000 0.193572
O O15 0.333047 0.216769 0.001505
O O16 0.630075 0.209710 0.736491
O O17 0.749053 0.000000 0.607056
O O18 0.552052 0.500000 0.822340
O O19 0.488487 0.224579 0.804308
O O20 0.500000 0.242272 0.000000
O O21 0.594681 0.500000 0.123652
#
# Coordination Sequence:
#
# PCOD9142311 Si02
#       8
#     4   4   4   4   4   4   4   4
#     4   7  11  20  35  57  82 107 138 173 206 244
#     4   8  14  27  45  60  82 114 142 176 220 257
#     4   8  12  20  39  64  88 116 145 172 209 259
#     4   8  15  28  43  63  90 116 145 180 215 254
#     4   9  16  26  41  61  85 114 145 179 219 255
#     4  10  19  29  45  65  85 115 152 184 214 258
#     4  10  20  33  44  59  87 117 143 182 231 263
#     4  10  18  28  44  63  83 107 142 187 225 257
#
# _framework density 19.994109000000002
#
# number of rings (size 3 to 8) (size 9 to 14) (size 15 to 20)
#    0.000    3.250    1.250    2.625    0.000    1.250 
#    0.000    1.250    0.000    4.500    0.000    5.250 
#    0.000   50.000    0.000   11.250    0.000   12.500 
#
# Total GULP energy -178194.043211 kJ/mol
# GULP energy per Si atom -5568.563850 kJ/mol
# Density = 1.994860 g / cm^3
# Si number density = 19.994109 Si / 1000 Ang^3
#
#
#
# Elastic Constant Matrix: (Units=GPa)
#
#
# Indices 1 2 3 4 5 6 
#
# 1 183.4983 4.7083 58.8679 0.0000 48.5788 0.0000
# 2 4.7083 45.0668 2.7450 0.0000 5.1382 0.0000
# 3 58.8679 2.7450 76.1963 0.0000 36.3922 0.0000
# 4 0.0000 0.0000 0.0000 3.0613 0.0000 -14.4575
# 5 48.5788 5.1382 36.3922 0.0000 33.7587 0.0000
# 6 0.0000 0.0000 0.0000 -14.4575 0.0000 20.5226
#
#
#
# Elastic Compliance Matrix: (Units=1/GPa)
#
#
# Indices 1 2 3 4 5 6 
#
# 1 0.008901 0.000443 -0.001532 0.000000 -0.011226 0.000000
# 2 0.000443 0.022711 0.001639 0.000000 -0.005861 0.000000
# 3 -0.001532 0.001639 0.027446 0.000000 -0.027632 0.000000
# 4 0.000000 0.000000 0.000000 -0.140380 0.000000 -0.098893
# 5 -0.011226 -0.005861 -0.027632 0.000000 0.076456 0.000000
# 6 0.000000 0.000000 0.000000 -0.098893 0.000000 -0.020940
#
#
# Mechanical properties :
#
#
# Convention : Reuss Voigt Hill
#
# Bulk Modulus (GPa) = 16.62258 48.60043 32.61151
# Shear Modulus (GPa) = -729.57183 27.36452 -351.10365
#
# Velocity S-wave (km/s) = -19.12291 3.70351 -13.26593
# Velocity P-wave (km/s) = 21.89176 6.53056 14.77499
#
# Compressibility (1/GPa) = 0.06015913
#
# Stress axis : x y z
#
# Youngs Moduli (GPa) = 112.34115 44.03074 36.43561
#
# Poissons Ratio (x) = -0.01951 0.05580
# Poissons Ratio (y) = -0.04979 -0.05971
# Poissons Ratio (z) = 0.17206 -0.07215
#
# Static dielectric constant tensor:
#      x y z
#    x 1.757340 0.000000 0.059520 
#    y 0.000000 1.754570 0.000000 
#    z 0.059520 0.000000 1.700090 
# 
# From -- ./inp_files/54774.got.cif
#   From: 2010.05.17/outbox.cif.g08.bks.cpg/sg10_28_cif.got.tgz:54774.got - 2010.06.03 11:33:40.
