data_PCOD9142269
_publ_section_title
;
Structure prediction by ZEFSAII (Michael W. Deem and Ramdas Pophale) SiO2 
 PCOD9142269
Probable space group: P 2/M
;
_chemical_formula_sum "Si O2"
_cell_formula_units_Z 32
_cell_length_a 16.798048
_cell_length_b 7.641384
_cell_length_c 22.515955
_cell_angle_alpha 90.000000
_cell_angle_beta 33.633307
_cell_angle_gamma 90.000000
_cell_volume 1600.786764
_symmetry_space_group_name_H-M "P 2/M"
_symmetry_group_IT_number 10
_symmetry_cell_setting 'monoclinic'
loop_
_space_group_symop_operation_xyz
x,y,z
-x,y,-z
-x,-y,-z
x,-y,z
loop_
_atom_site_type_symbol
_atom_site_label
_atom_site_fract_x
_atom_site_fract_y
_atom_site_fract_z
Si Si1 0.555481 0.789205 0.228519
Si Si2 0.170263 0.201951 0.390205
Si Si3 0.730337 0.210601 0.544092
Si Si4 0.993432 0.709742 0.704669
Si Si5 0.280764 0.697784 0.197539
Si Si6 0.550858 0.289787 0.093551
Si Si7 0.878344 0.288269 0.897840
Si Si8 0.121816 0.206626 0.967505
O O1 0.436202 0.730716 0.350596
O O2 0.513065 0.748888 0.186165
O O3 0.716385 0.719275 0.138871
O O4 0.561658 0.000000 0.227421
O O5 0.217598 0.274301 0.423922
O O6 0.218175 0.306826 0.303234
O O7 0.000000 0.195404 0.500000
O O8 0.222200 0.000000 0.350899
O O9 0.853177 0.254306 0.420573
O O10 0.728934 0.000000 0.546513
O O11 0.978660 0.500000 0.712381
O O12 0.850821 0.778447 0.758410
O O13 0.980125 0.768324 0.780952
O O14 0.304535 0.500000 0.159353
O O15 0.437526 0.778326 0.114906
O O16 0.548913 0.500000 0.088849
O O17 0.715037 0.229440 0.984613
O O18 0.876131 0.500000 0.901312
O O19 0.918159 0.225633 0.938537
O O20 0.132994 0.000000 0.947130
O O21 0.000000 0.281253 0.000000
#
# Coordination Sequence:
#
# PCOD9142269 Si02
#       8
#     4   4   4   4   4   4   4   4
#     4   9  17  30  49  73  99 123 150 191 242 287
#     4  10  18  28  41  60  88 124 164 206 243 273
#     4  10  19  30  46  67  93 128 165 199 237 281
#     4  10  21  33  45  65  96 134 170 202 234 272
#     4  10  19  28  42  65  91 125 167 207 243 273
#     4   9  17  29  46  67  92 124 163 205 242 277
#     4   9  19  35  51  70  98 129 160 193 234 285
#     4   9  18  34  58  84 102 116 142 187 241 293
#
# _framework density 19.990169999999999
#
# number of rings (size 3 to 8) (size 9 to 14) (size 15 to 20)
#    0.000    2.500    2.500    0.000    0.000    2.500 
#    0.000    2.500    0.000    0.750    0.000   10.500 
#    0.000    0.000    0.000    0.000    0.000    0.000 
#
# Total GULP energy -178302.462201 kJ/mol
# GULP energy per Si atom -5571.951944 kJ/mol
# Density = 1.994467 g / cm^3
# Si number density = 19.990170 Si / 1000 Ang^3
#
#
#
# Elastic Constant Matrix: (Units=GPa)
#
#
# Indices 1 2 3 4 5 6 
#
# 1 110.5042 2.6372 75.3685 0.0000 -15.1132 0.0000
# 2 2.6372 40.3741 -2.4172 0.0000 -4.8181 0.0000
# 3 75.3685 -2.4172 117.9341 0.0000 1.8031 0.0000
# 4 0.0000 0.0000 0.0000 24.4279 0.0000 -0.9618
# 5 -15.1132 -4.8181 1.8031 0.0000 20.6218 0.0000
# 6 0.0000 0.0000 0.0000 -0.9618 0.0000 15.2677
#
#
#
# Elastic Compliance Matrix: (Units=1/GPa)
#
#
# Indices 1 2 3 4 5 6 
#
# 1 0.020207 -0.000209 -0.013161 0.000000 0.015911 0.000000
# 2 -0.000209 0.025503 0.000568 0.000000 0.005756 0.000000
# 3 -0.013161 0.000568 0.017070 0.000000 -0.011006 0.000000
# 4 0.000000 0.000000 0.000000 0.041039 0.000000 0.002585
# 5 0.015911 0.005756 -0.011006 0.000000 0.062460 0.000000
# 6 0.000000 0.000000 0.000000 0.002585 0.000000 0.065661
#
#
# Mechanical properties :
#
#
# Convention : Reuss Voigt Hill
#
# Bulk Modulus (GPa) = 26.89907 46.66551 36.78229
# Shear Modulus (GPa) = 18.52289 24.94509 21.73399
#
# Velocity S-wave (km/s) = 3.04731 3.53635 3.30090
# Velocity P-wave (km/s) = 5.08595 6.33003 5.74178
#
# Compressibility (1/GPa) = 0.03717600
#
# Stress axis : x y z
#
# Youngs Moduli (GPa) = 49.48734 39.21129 58.58117
#
# Poissons Ratio (x) = 0.00820 0.77101
# Poissons Ratio (y) = 0.01035 -0.03329
# Poissons Ratio (z) = 0.65132 -0.02228
#
# Static dielectric constant tensor:
#      x y z
#    x 1.702710 0.000000 -0.040990 
#    y 0.000000 1.790340 0.000000 
#    z -0.040990 0.000000 1.758480 
# 
# From -- ./inp_files/89939.got.cif
#   From: 2010.05.17/outbox.cif.g08.bks.cpg/sg10_45_cif.got.tgz:89939.got - 2010.06.03 11:33:40.
