data_PCOD9142273
_publ_section_title
;
Structure prediction by ZEFSAII (Michael W. Deem and Ramdas Pophale) SiO2 
 PCOD9142273
Probable space group: P 2/M
;
_chemical_formula_sum "Si O2"
_cell_formula_units_Z 32
_cell_length_a 13.838786
_cell_length_b 8.889820
_cell_length_c 17.659146
_cell_angle_alpha 90.000000
_cell_angle_beta 100.077974
_cell_angle_gamma 90.000000
_cell_volume 2138.983761
_symmetry_space_group_name_H-M "P 2/M"
_symmetry_group_IT_number 10
_symmetry_cell_setting 'monoclinic'
loop_
_space_group_symop_operation_xyz
x,y,z
-x,y,-z
-x,-y,-z
x,-y,z
loop_
_atom_site_type_symbol
_atom_site_label
_atom_site_fract_x
_atom_site_fract_y
_atom_site_fract_z
Si Si1 0.078203 0.675286 0.410650
Si Si2 0.884238 0.820710 0.314861
Si Si3 0.882827 0.173563 0.000673
Si Si4 0.850444 0.317912 0.839955
Si Si5 0.386528 0.682415 0.472268
Si Si6 0.077849 0.679768 0.838681
Si Si7 0.218593 0.180104 0.550377
Si Si8 0.259529 0.675478 0.318684
O O1 0.055230 0.500000 0.421225
O O2 0.127934 0.750144 0.490479
O O3 0.162127 0.680467 0.357467
O O4 0.984152 0.761481 0.367098
O O5 0.877815 0.745347 0.232085
O O6 0.799078 0.784679 0.363835
O O7 0.889232 0.000000 0.306856
O O8 0.871088 0.256849 0.078874
O O9 0.853270 0.000000 0.002172
O O10 0.835259 0.252702 0.921427
O O11 0.000000 0.178333 0.000000
O O12 0.847227 0.500000 0.842196
O O13 0.772834 0.260884 0.766804
O O14 0.961545 0.278165 0.828262
O O15 0.500000 0.719059 0.500000
O O16 0.375355 0.500000 0.472939
O O17 0.316101 0.751267 0.526617
O O18 0.344754 0.736850 0.384921
O O19 0.082532 0.500000 0.838475
O O20 0.217891 0.000000 0.540949
O O21 0.283512 0.500000 0.308690
#
# Coordination Sequence:
#
# PCOD9142273 Si02
#       8
#     4   4   4   4   4   4   4   4
#     4  10  18  30  45  62  85 117 153 187 221 257
#     4  11  21  30  41  60  90 120 150 186 221 261
#     4   9  17  27  38  56  82 113 147 183 221 255
#     4   9  15  26  41  58  82 113 149 184 215 255
#     4   9  18  33  52  70  88 113 147 188 230 270
#     4  10  18  28  42  59  81 116 156 185 216 256
#     4  10  21  33  44  63  88 117 148 182 226 269
#     4   8  14  26  43  64  87 111 143 182 221 259
#
# _framework density 14.960374
#
# number of rings (size 3 to 8) (size 9 to 14) (size 15 to 20)
#    0.000    2.500    1.250    3.000    0.000    5.750 
#    0.000    0.625    0.000    0.000    0.000    0.000 
#    0.000    1.000    0.000   11.500    0.000    2.875 
#
# Total GULP energy -178294.465198 kJ/mol
# GULP energy per Si atom -5571.702037 kJ/mol
# Density = 1.492632 g / cm^3
# Si number density = 14.960374 Si / 1000 Ang^3
#
#
#
# Elastic Constant Matrix: (Units=GPa)
#
#
# Indices 1 2 3 4 5 6 
#
# 1 46.3567 18.1659 50.7582 0.0000 8.9010 0.0000
# 2 18.1659 41.9441 48.9539 0.0000 -1.1974 0.0000
# 3 50.7582 48.9539 160.6392 0.0000 3.6413 0.0000
# 4 0.0000 0.0000 0.0000 25.1384 0.0000 -4.6410
# 5 8.9010 -1.1974 3.6413 0.0000 14.1970 0.0000
# 6 0.0000 0.0000 0.0000 -4.6410 0.0000 7.0255
#
#
#
# Elastic Compliance Matrix: (Units=1/GPa)
#
#
# Indices 1 2 3 4 5 6 
#
# 1 0.039258 -0.005840 -0.010114 0.000000 -0.022512 0.000000
# 2 -0.005840 0.038394 -0.010070 0.000000 0.009483 0.000000
# 3 -0.010114 -0.010070 0.012438 0.000000 0.002302 0.000000
# 4 0.000000 0.000000 0.000000 0.045305 0.000000 0.029928
# 5 -0.022512 0.009483 0.002302 0.000000 0.084761 0.000000
# 6 0.000000 0.000000 0.000000 0.029928 0.000000 0.162109
#
#
# Mechanical properties :
#
#
# Convention : Reuss Voigt Hill
#
# Bulk Modulus (GPa) = 26.28800 53.85511 40.07156
# Shear Modulus (GPa) = 11.18582 18.00966 14.59774
#
# Velocity S-wave (km/s) = 2.73737 3.47338 3.12711
# Velocity P-wave (km/s) = 5.25365 7.22236 6.31519
#
# Compressibility (1/GPa) = 0.03804017
#
# Stress axis : x y z
#
# Youngs Moduli (GPa) = 25.47271 26.04554 80.40115
#
# Poissons Ratio (x) = 0.15211 0.81321
# Poissons Ratio (y) = 0.14877 0.80964
# Poissons Ratio (z) = 0.25764 0.26228
#
# Static dielectric constant tensor:
#      x y z
#    x 1.470530 0.000000 0.003640 
#    y 0.000000 1.499570 0.000000 
#    z 0.003640 0.000000 1.519110 
# 
# From -- ./inp_files/55242.got.cif
#   From: 2010.05.17/outbox.cif.g08.bks.cpg/sg10_28_cif.got.tgz:55242.got - 2010.06.03 11:33:40.
