data_PCOD9142825
_publ_section_title
;
Structure prediction by ZEFSAII (Michael W. Deem and Ramdas Pophale) SiO2 
 PCOD9142825
Probable space group: P 2/M
;
_chemical_formula_sum "Si O2"
_cell_formula_units_Z 24
_cell_length_a 15.056040
_cell_length_b 13.002712
_cell_length_c 15.056054
_cell_angle_alpha 90.000000
_cell_angle_beta 30.372115
_cell_angle_gamma 90.000000
_cell_volume 1490.304109
_symmetry_space_group_name_H-M "P 2/M"
_symmetry_group_IT_number 10
_symmetry_cell_setting 'monoclinic'
loop_
_space_group_symop_operation_xyz
x,y,z
-x,y,-z
-x,-y,-z
x,-y,z
loop_
_atom_site_type_symbol
_atom_site_label
_atom_site_fract_x
_atom_site_fract_y
_atom_site_fract_z
Si Si1 0.689637 0.121728 0.574041
Si Si2 0.074043 0.121727 0.189635
Si Si3 0.492321 0.725682 0.400025
Si Si4 0.507227 0.500000 0.600418
Si Si5 0.552448 0.124848 0.052451
Si Si6 0.099977 0.274318 0.007678
Si Si7 0.899580 0.500000 0.992775
O O1 0.617158 0.186687 0.554054
O O2 0.898810 0.135236 0.398807
O O3 0.655325 0.000000 0.589891
O O4 0.585651 0.154769 0.752056
O O5 0.252059 0.154770 0.085647
O O6 0.054056 0.186687 0.117156
O O7 0.089891 0.000000 0.155323
O O8 0.500000 0.736515 0.500000
O O9 0.416473 0.611765 0.442143
O O10 0.692464 0.730560 0.192466
O O11 0.500000 0.500000 0.500000
O O12 0.308137 0.500000 0.808135
O O13 0.550636 0.000000 0.050637
O O14 0.500000 0.162481 0.000000
O O15 0.057859 0.388236 0.083525
O O16 0.000000 0.263485 0.000000
O O17 0.000000 0.500000 0.000000
#
# Coordination Sequence:
#
# PCOD9142825 Si02
#       7
#     4   4   4   2   4   4   2
#     4  10  20  33  49  73 102 129 163 201 241 296
#     4  10  20  33  49  73 102 129 163 201 241 296
#     4  10  18  30  47  69 100 134 167 202 242 287
#     4   8  16  28  44  66  92 125 166 207 239 277
#     4   9  18  34  54  73  97 129 163 206 252 290
#     4  10  18  30  47  69 100 134 167 202 242 287
#     4   8  16  28  44  66  92 125 166 207 239 277
#
# _framework density 16.104095000000001
#
# number of rings (size 3 to 8) (size 9 to 14) (size 15 to 20)
#    0.000    2.500    1.667    1.000    0.000    2.667 
#    0.000    3.333    0.000    0.000    0.000    2.333 
#    0.000    2.667    0.000    0.000    0.000    0.000 
#
# Total GULP energy -133654.660720 kJ/mol
# GULP energy per Si atom -5568.944197 kJ/mol
# Density = 1.606744 g / cm^3
# Si number density = 16.104095 Si / 1000 Ang^3
#
#
#
# Elastic Constant Matrix: (Units=GPa)
#
#
# Indices 1 2 3 4 5 6 
#
# 1 88.0247 44.8451 46.6132 0.0000 2.7129 0.0000
# 2 44.8451 67.5913 43.0590 0.0000 0.5157 0.0000
# 3 46.6132 43.0590 91.3909 0.0000 -3.6827 0.0000
# 4 0.0000 0.0000 0.0000 2.7305 0.0000 -1.2485
# 5 2.7129 0.5157 -3.6827 0.0000 17.8542 0.0000
# 6 0.0000 0.0000 0.0000 -1.2485 0.0000 -1.5937
#
#
#
# Elastic Compliance Matrix: (Units=1/GPa)
#
#
# Indices 1 2 3 4 5 6 
#
# 1 0.019054 -0.009037 -0.005613 0.000000 -0.003792 0.000000
# 2 -0.009037 0.025554 -0.007467 0.000000 -0.000905 0.000000
# 3 -0.005613 -0.007467 0.017512 0.000000 0.004681 0.000000
# 4 0.000000 0.000000 0.000000 0.269647 0.000000 -0.211233
# 5 -0.003792 -0.000905 0.004681 0.000000 0.057577 0.000000
# 6 0.000000 0.000000 0.000000 -0.211233 0.000000 -0.461993
#
#
# Mechanical properties :
#
#
# Convention : Reuss Voigt Hill
#
# Bulk Modulus (GPa) = 55.91221 57.33794 56.62508
# Shear Modulus (GPa) = -222.69715 11.29752 -105.69981
#
# Velocity S-wave (km/s) = -11.77227 2.65152 -8.11035
# Velocity P-wave (km/s) = 12.24692 6.71237 7.24331
#
# Compressibility (1/GPa) = 0.01788518
#
# Stress axis : x y z
#
# Youngs Moduli (GPa) = 52.48333 39.13214 57.10406
#
# Poissons Ratio (x) = 0.35363 0.32054
# Poissons Ratio (y) = 0.47428 0.42642
# Poissons Ratio (z) = 0.29460 0.29221
#
# Static dielectric constant tensor:
#      x y z
#    x 1.502150 0.000000 -0.019570 
#    y 0.000000 1.563540 0.000000 
#    z -0.019570 0.000000 1.569940 
# 
# From -- ./inp_files/32108.got.cif
#   From: 2010.05.17/outbox.cif.g08.bks.cpg/sg10_17_cif.got.tgz:32108.got - 2010.06.03 11:33:40.
