data_PCOD9142442
_publ_section_title
;
Structure prediction by ZEFSAII (Michael W. Deem and Ramdas Pophale) SiO2 
 PCOD9142442
Probable space group: P 2/M
;
_chemical_formula_sum "Si O2"
_cell_formula_units_Z 32
_cell_length_a 16.157848
_cell_length_b 8.487949
_cell_length_c 28.479507
_cell_angle_alpha 90.000000
_cell_angle_beta 28.168178
_cell_angle_gamma 90.000000
_cell_volume 1843.813832
_symmetry_space_group_name_H-M "P 2/M"
_symmetry_group_IT_number 10
_symmetry_cell_setting 'monoclinic'
loop_
_space_group_symop_operation_xyz
x,y,z
-x,y,-z
-x,-y,-z
x,-y,z
loop_
_atom_site_type_symbol
_atom_site_label
_atom_site_fract_x
_atom_site_fract_y
_atom_site_fract_z
Si Si1 0.192292 0.810127 0.348411
Si Si2 0.795951 0.190054 0.549468
Si Si3 0.196573 0.690665 0.075828
Si Si4 0.789886 0.813009 0.825476
Si Si5 0.175186 0.690400 0.628830
Si Si6 0.442836 0.690157 0.413289
Si Si7 0.557082 0.311950 0.857647
Si Si8 0.803759 0.691464 0.273126
O O1 0.229372 0.761187 0.383623
O O2 0.334171 0.751849 0.240630
O O3 0.992962 0.758032 0.436265
O O4 0.191241 0.000000 0.348038
O O5 0.650209 0.252172 0.587177
O O6 0.794280 0.000000 0.549188
O O7 0.194418 0.500000 0.077659
O O8 0.234120 0.746938 0.110055
O O9 0.999705 0.744726 0.161653
O O10 0.355369 0.742732 0.963178
O O11 0.655935 0.740061 0.855531
O O12 0.987554 0.766478 0.711869
O O13 0.770241 0.000000 0.835652
O O14 0.155726 0.500000 0.637030
O O15 0.321231 0.737337 0.518294
O O16 0.223718 0.732375 0.658199
O O17 0.445783 0.500000 0.411159
O O18 0.640651 0.747189 0.323798
O O19 0.557513 0.500000 0.855002
O O20 0.803784 0.500000 0.271069
#
# Coordination Sequence:
#
# PCOD9142442 Si02
#       8
#     4   4   4   4   4   4   4   4
#     4   9  19  36  54  71  95 127 157 188 233 288
#     4   9  19  35  52  71  98 128 154 186 236 290
#     4   9  19  35  51  67  94 130 163 198 238 276
#     4  11  21  31  46  70 100 132 163 194 231 280
#     4   9  17  30  47  69  99 131 161 196 236 277
#     4  10  18  28  49  76  96 122 162 200 235 280
#     4  11  21  32  50  74  96 122 159 200 241 282
#     4   8  15  30  49  68  94 128 163 197 234 276
#
# _framework density 17.355329999999999
#
# number of rings (size 3 to 8) (size 9 to 14) (size 15 to 20)
#    0.000    2.500    0.000    4.500    0.000    7.500 
#    0.000    3.750    0.000    4.500    0.000    5.250 
#    0.000    0.000    0.000    0.000    0.000    0.000 
#
# Total GULP energy -178506.050787 kJ/mol
# GULP energy per Si atom -5578.314087 kJ/mol
# Density = 1.731583 g / cm^3
# Si number density = 17.355330 Si / 1000 Ang^3
#
#
#
# Elastic Constant Matrix: (Units=GPa)
#
#
# Indices 1 2 3 4 5 6 
#
# 1 103.7524 9.8189 74.2336 0.0000 -23.6423 0.0000
# 2 9.8189 7.6809 18.2556 0.0000 -1.4358 0.0000
# 3 74.2336 18.2556 148.5836 0.0000 -7.2579 0.0000
# 4 0.0000 0.0000 0.0000 15.1842 0.0000 2.7023
# 5 -23.6423 -1.4358 -7.2579 0.0000 16.8077 0.0000
# 6 0.0000 0.0000 0.0000 2.7023 0.0000 29.8774
#
#
#
# Elastic Compliance Matrix: (Units=1/GPa)
#
#
# Indices 1 2 3 4 5 6 
#
# 1 0.023633 -0.000159 -0.010384 0.000000 0.028746 0.000000
# 2 -0.000159 0.184504 -0.022301 0.000000 0.005908 0.000000
# 3 -0.010384 -0.022301 0.014150 0.000000 -0.010401 0.000000
# 4 0.000000 0.000000 0.000000 0.066936 0.000000 -0.006054
# 5 0.028746 0.005908 -0.010401 0.000000 0.095945 0.000000
# 6 0.000000 0.000000 0.000000 -0.006054 0.000000 0.034018
#
#
# Mechanical properties :
#
#
# Convention : Reuss Voigt Hill
#
# Bulk Modulus (GPa) = 6.38567 51.62589 29.00578
# Shear Modulus (GPa) = 9.30974 22.88779 16.09876
#
# Velocity S-wave (km/s) = 2.31859 3.63543 3.04895
# Velocity P-wave (km/s) = 3.29471 6.88715 5.39852
#
# Compressibility (1/GPa) = 0.15660055
#
# Stress axis : x y z
#
# Youngs Moduli (GPa) = 42.31361 5.41992 70.67195
#
# Poissons Ratio (x) = 0.00086 0.73383
# Poissons Ratio (y) = 0.00672 1.57606
# Poissons Ratio (z) = 0.43937 0.12087
#
# Static dielectric constant tensor:
#      x y z
#    x 1.568390 0.000000 -0.016230 
#    y 0.000000 1.592710 0.000000 
#    z -0.016230 0.000000 1.611620 
# 
# From -- ./inp_files/66535.got.cif
#   From: 2010.05.17/outbox.cif.g08.bks.cpg/sg10_34_cif.got.tgz:66535.got - 2010.06.03 11:33:40.
