data_PCOD9142557
_publ_section_title
;
Structure prediction by ZEFSAII (Michael W. Deem and Ramdas Pophale) SiO2 
 PCOD9142557
Probable space group: P 2/M
;
_chemical_formula_sum "Si O2"
_cell_formula_units_Z 32
_cell_length_a 16.700617
_cell_length_b 23.413074
_cell_length_c 16.100048
_cell_angle_alpha 90.000000
_cell_angle_beta 17.980586
_cell_angle_gamma 90.000000
_cell_volume 1943.333465
_symmetry_space_group_name_H-M "P 2/M"
_symmetry_group_IT_number 10
_symmetry_cell_setting 'monoclinic'
loop_
_space_group_symop_operation_xyz
x,y,z
-x,y,-z
-x,-y,-z
x,-y,z
loop_
_atom_site_type_symbol
_atom_site_label
_atom_site_fract_x
_atom_site_fract_y
_atom_site_fract_z
Si Si1 0.359000 0.653919 0.443905
Si Si2 0.848528 0.688115 0.870785
Si Si3 0.234778 0.433391 0.709655
Si Si4 0.904155 0.127203 0.753939
Si Si5 0.116852 0.193127 0.060901
Si Si6 0.586331 0.067064 0.820162
Si Si7 0.759640 0.242927 0.797955
Si Si8 0.605686 0.227338 0.488209
O O1 0.275330 0.603531 0.587547
O O2 0.378436 0.711184 0.481577
O O3 0.135051 0.662671 0.596396
O O4 0.635490 0.648987 0.126177
O O5 0.758835 0.707796 0.868523
O O6 0.867132 0.746934 0.905014
O O7 0.500000 0.429952 0.500000
O O8 0.817350 0.500000 0.258266
O O9 0.000000 0.412141 0.000000
O O10 0.808561 0.183224 0.797784
O O11 0.164444 0.102933 0.454970
O O12 0.947769 0.146587 0.805600
O O13 0.667451 0.082933 0.982269
O O14 0.396641 0.188366 0.742769
O O15 0.888904 0.200007 0.218856
O O16 0.649320 0.000000 0.753058
O O17 0.500000 0.079793 0.000000
O O18 0.000000 0.252039 0.500000
O O19 0.500000 0.240334 0.000000
O O20 0.500000 0.235391 0.500000
#
# Coordination Sequence:
#
# PCOD9142557 Si02
#       8
#     4   4   4   4   4   4   4   4
#     4  10  18  31  47  65  95 131 158 187 236 278
#     4   9  19  31  45  67  94 123 157 195 229 276
#     4  10  20  32  47  70  98 128 166 204 231 268
#     4  11  20  34  50  67  96 130 157 185 233 277
#     4   9  19  31  45  67  94 123 154 191 226 274
#     4  11  22  34  49  71  97 124 159 196 224 263
#     4  11  20  31  49  71  96 126 160 191 229 282
#     4  10  18  29  46  69  96 124 155 188 228 279
#
# _framework density 16.466550999999999
#
# number of rings (size 3 to 8) (size 9 to 14) (size 15 to 20)
#    0.000    1.875    0.000    5.625    0.000    7.000 
#    0.000    0.000    0.000    0.000    0.000    0.000 
#    0.000   45.000    0.000    0.000    0.000    0.000 
#
# Total GULP energy -178533.414376 kJ/mol
# GULP energy per Si atom -5579.169199 kJ/mol
# Density = 1.642907 g / cm^3
# Si number density = 16.466551 Si / 1000 Ang^3
#
#
#
# Elastic Constant Matrix: (Units=GPa)
#
#
# Indices 1 2 3 4 5 6 
#
# 1 81.6821 22.6162 33.4223 0.0000 -7.7215 0.0000
# 2 22.6162 42.3265 22.1168 0.0000 4.3031 0.0000
# 3 33.4223 22.1168 105.4941 0.0000 -9.8833 0.0000
# 4 0.0000 0.0000 0.0000 17.0997 0.0000 15.2110
# 5 -7.7215 4.3031 -9.8833 0.0000 24.3557 0.0000
# 6 0.0000 0.0000 0.0000 15.2110 0.0000 9.7567
#
#
#
# Elastic Compliance Matrix: (Units=1/GPa)
#
#
# Indices 1 2 3 4 5 6 
#
# 1 0.016054 -0.007527 -0.003022 0.000000 0.005193 0.000000
# 2 -0.007527 0.031342 -0.005123 0.000000 -0.010003 0.000000
# 3 -0.003022 -0.005123 0.011960 0.000000 0.004801 0.000000
# 4 0.000000 0.000000 0.000000 -0.151179 0.000000 0.235691
# 5 0.005193 -0.010003 0.004801 0.000000 0.046420 0.000000
# 6 0.000000 0.000000 0.000000 0.235691 0.000000 -0.264955
#
#
# Mechanical properties :
#
#
# Convention : Reuss Voigt Hill
#
# Bulk Modulus (GPa) = 35.69871 42.86815 39.28343
# Shear Modulus (GPa) = -18.54070 20.33224 0.89577
#
# Velocity S-wave (km/s) = -3.35918 3.51773 0.73836
# Velocity P-wave (km/s) = 2.58480 6.52604 4.96339
#
# Compressibility (1/GPa) = 0.02801222
#
# Stress axis : x y z
#
# Youngs Moduli (GPa) = 62.28975 31.90634 83.60995
#
# Poissons Ratio (x) = 0.24017 0.25263
# Poissons Ratio (y) = 0.46887 0.42835
# Poissons Ratio (z) = 0.18821 0.16346
#
# Static dielectric constant tensor:
#      x y z
#    x 1.550200 0.000000 -0.002890 
#    y 0.000000 1.546750 0.000000 
#    z -0.002890 0.000000 1.558610 
# 
# From -- ./inp_files/67948.got.cif
#   From: 2010.05.17/outbox.cif.g08.bks.cpg/sg10_34_cif.got.tgz:67948.got - 2010.06.03 11:33:40.
