data_PCOD9142509
_publ_section_title
;
Structure prediction by ZEFSAII (Michael W. Deem and Ramdas Pophale) SiO2 
 PCOD9142509
Probable space group: P 2/M
;
_chemical_formula_sum "Si O2"
_cell_formula_units_Z 30
_cell_length_a 18.127309
_cell_length_b 17.412717
_cell_length_c 6.600865
_cell_angle_alpha 90.000000
_cell_angle_beta 59.443854
_cell_angle_gamma 90.000000
_cell_volume 1794.197109
_symmetry_space_group_name_H-M "P 2/M"
_symmetry_group_IT_number 10
_symmetry_cell_setting 'monoclinic'
loop_
_space_group_symop_operation_xyz
x,y,z
-x,y,-z
-x,-y,-z
x,-y,z
loop_
_atom_site_type_symbol
_atom_site_label
_atom_site_fract_x
_atom_site_fract_y
_atom_site_fract_z
Si Si1 0.808848 0.722327 0.986939
Si Si2 0.500000 0.174070 0.000000
Si Si3 0.910759 0.169342 0.547310
Si Si4 0.614156 0.909959 0.505732
Si Si5 0.356604 0.196999 0.912876
Si Si6 0.089664 0.691912 0.764552
Si Si7 0.897623 0.410505 0.611301
Si Si8 0.749913 0.912068 0.637887
O O1 0.709165 0.739896 0.082822
O O2 0.838233 0.717488 0.177541
O O3 0.861219 0.791070 0.804377
O O4 0.843494 0.644469 0.833769
O O5 0.448523 0.120131 0.229709
O O6 0.565585 0.221765 0.049161
O O7 0.927439 0.239442 0.369573
O O8 0.848402 0.110345 0.523278
O O9 0.000000 0.136621 0.500000
O O10 0.609062 0.855788 0.318078
O O11 0.708940 0.901870 0.472977
O O12 0.598990 0.000000 0.482318
O O13 0.300661 0.142446 0.137555
O O14 0.119172 0.619269 0.592254
O O15 0.000000 0.675035 0.000000
O O16 0.879608 0.500000 0.665644
O O17 0.000000 0.398228 0.500000
O O18 0.734890 0.000000 0.716718
#
# Coordination Sequence:
#
# PCOD9142509 Si02
#       8
#     4   2   4   4   4   4   4   4
#     4  10  19  33  49  70  98 132 163 197 239 286
#     4  10  21  34  50  76  97 124 158 202 251 298
#     4  10  18  29  45  65  90 125 172 212 240 277
#     4  10  19  33  50  71  99 127 158 199 251 304
#     4  10  20  33  52  71  96 126 162 201 243 296
#     4  11  17  29  48  69  93 129 167 194 234 282
#     4  10  20  32  48  75 107 134 163 197 234 280
#     4   9  19  32  45  64  92 127 165 207 251 287
#
# _framework density 16.720571
#
# number of rings (size 3 to 8) (size 9 to 14) (size 15 to 20)
#    0.000    2.000    2.667    2.600    0.000    4.267 
#    0.000    0.000    0.000    0.400    0.000    0.467 
#    0.000    3.200    0.000    0.133    0.000    0.000 
#
# Total GULP energy -167262.960671 kJ/mol
# GULP energy per Si atom -5575.432022 kJ/mol
# Density = 1.668251 g / cm^3
# Si number density = 16.720571 Si / 1000 Ang^3
#
#
#
# Elastic Constant Matrix: (Units=GPa)
#
#
# Indices 1 2 3 4 5 6 
#
# 1 140.7600 28.7171 21.8579 0.0000 7.6539 0.0000
# 2 28.7171 35.0115 -5.1749 0.0000 4.3800 0.0000
# 3 21.8579 -5.1749 40.1269 0.0000 9.4770 0.0000
# 4 0.0000 0.0000 0.0000 8.9423 0.0000 -1.5211
# 5 7.6539 4.3800 9.4770 0.0000 22.5913 0.0000
# 6 0.0000 0.0000 0.0000 -1.5211 0.0000 13.6199
#
#
#
# Elastic Compliance Matrix: (Units=1/GPa)
#
#
# Indices 1 2 3 4 5 6 
#
# 1 0.010047 -0.009449 -0.007015 0.000000 0.001371 0.000000
# 2 -0.009449 0.039372 0.012511 0.000000 -0.009681 0.000000
# 3 -0.007015 0.012511 0.033707 0.000000 -0.014189 0.000000
# 4 0.000000 0.000000 0.000000 0.113993 0.000000 0.012731
# 5 0.001371 -0.009681 -0.014189 0.000000 0.051629 0.000000
# 6 0.000000 0.000000 0.000000 0.012731 0.000000 0.074844
#
#
# Mechanical properties :
#
#
# Convention : Reuss Voigt Hill
#
# Bulk Modulus (GPa) = 13.29437 34.07763 23.68600
# Shear Modulus (GPa) = 14.02244 20.39726 17.20985
#
# Velocity S-wave (km/s) = 2.89906 3.49648 3.21169
# Velocity P-wave (km/s) = 4.37884 6.06015 5.28676
#
# Compressibility (1/GPa) = 0.07521981
#
# Stress axis : x y z
#
# Youngs Moduli (GPa) = 99.53422 25.39846 29.66776
#
# Poissons Ratio (x) = 0.23999 0.20812
# Poissons Ratio (y) = 0.94049 -0.37117
# Poissons Ratio (z) = 0.69823 -0.31776
#
# Static dielectric constant tensor:
#      x y z
#    x 1.623980 0.000000 0.003050 
#    y 0.000000 1.536310 0.000000 
#    z 0.003050 0.000000 1.574210 
# 
# From -- ./inp_files/11625.got.cif
#   From: 2010.05.17/outbox.cif.g08.bks.cpg/sg10_6_cif.got.tgz:11625.got - 2010.06.03 11:33:40.
