data_PCOD9142316
_publ_section_title
;
Structure prediction by ZEFSAII (Michael W. Deem and Ramdas Pophale) SiO2 
 PCOD9142316
Probable space group: P 2/M
;
_chemical_formula_sum "Si O2"
_cell_formula_units_Z 28
_cell_length_a 14.631262
_cell_length_b 8.707237
_cell_length_c 11.021489
_cell_angle_alpha 90.000000
_cell_angle_beta 64.556477
_cell_angle_gamma 90.000000
_cell_volume 1267.928026
_symmetry_space_group_name_H-M "P 2/M"
_symmetry_group_IT_number 10
_symmetry_cell_setting 'monoclinic'
loop_
_space_group_symop_operation_xyz
x,y,z
-x,y,-z
-x,-y,-z
x,-y,z
loop_
_atom_site_type_symbol
_atom_site_label
_atom_site_fract_x
_atom_site_fract_y
_atom_site_fract_z
Si Si1 0.612007 0.318963 0.895662
Si Si2 0.984724 0.817815 0.153565
Si Si3 0.203635 0.816118 0.057509
Si Si4 0.575099 0.332028 0.279916
Si Si5 0.570655 0.000000 0.278739
Si Si6 0.341091 0.000000 0.510155
Si Si7 0.652907 0.674523 0.583927
Si Si8 0.210317 0.673979 0.786432
O O1 0.613365 0.500000 0.920737
O O2 0.706414 0.245346 0.911686
O O3 0.632130 0.303889 0.740523
O O4 0.500000 0.262097 0.000000
O O5 0.876910 0.745078 0.245921
O O6 0.088494 0.767434 0.159080
O O7 0.975327 0.000000 0.172708
O O8 0.000000 0.787241 0.000000
O O9 0.206117 0.000000 0.054431
O O10 0.213383 0.757955 0.914108
O O11 0.584531 0.500000 0.210333
O O12 0.463211 0.332235 0.397627
O O13 0.671014 0.330527 0.315934
O O14 0.581853 0.165753 0.209893
O O15 0.456867 0.000000 0.395191
O O16 0.647680 0.000000 0.349923
O O17 0.298336 0.163128 0.486649
O O18 0.697633 0.500000 0.542078
O O19 0.179009 0.500000 0.826365
#
# Coordination Sequence:
#
# PCOD9142316 Si02
#       8
#     4   4   4   4   2   2   4   4
#     4  10  20  33  46  63  90 122 158 193 223 256
#     4   8  16  29  41  58  85 116 151 187 223 263
#     4  10  20  30  42  62  88 121 158 191 221 259
#     4   9  18  30  45  69  95 118 149 184 226 276
#     4   9  18  30  48  68  90 119 145 185 228 268
#     4   9  18  32  47  68  89 115 159 183 216 285
#     4   9  18  32  47  64  93 125 151 191 227 254
#     4  10  18  28  44  64  88 120 153 185 224 270
#
# _framework density 22.083272000000001
#
# number of rings (size 3 to 8) (size 9 to 14) (size 15 to 20)
#    0.000    2.714    0.000    2.571    3.000    6.286 
#    2.571    2.857    0.000    0.000    0.000    0.000 
#    0.000    2.286    0.000    6.286    0.000    0.286 
#
# Total GULP energy -156015.444404 kJ/mol
# GULP energy per Si atom -5571.980157 kJ/mol
# Density = 2.203301 g / cm^3
# Si number density = 22.083272 Si / 1000 Ang^3
#
#
#
# Elastic Constant Matrix: (Units=GPa)
#
#
# Indices 1 2 3 4 5 6 
#
# 1 175.3216 53.0963 41.0400 0.0000 -9.5162 0.0000
# 2 53.0963 160.0457 28.6520 0.0000 6.2921 0.0000
# 3 41.0400 28.6520 61.8217 0.0000 6.5506 0.0000
# 4 0.0000 0.0000 0.0000 13.3322 0.0000 2.0610
# 5 -9.5162 6.2921 6.5506 0.0000 29.4926 0.0000
# 6 0.0000 0.0000 0.0000 2.0610 0.0000 30.0751
#
#
#
# Elastic Compliance Matrix: (Units=1/GPa)
#
#
# Indices 1 2 3 4 5 6 
#
# 1 0.007534 -0.001834 -0.004558 0.000000 0.003835 0.000000
# 2 -0.001834 0.007277 -0.001974 0.000000 -0.001706 0.000000
# 3 -0.004558 -0.001974 0.020715 0.000000 -0.005650 0.000000
# 4 0.000000 0.000000 0.000000 0.075809 0.000000 -0.005195
# 5 0.003835 -0.001706 -0.005650 0.000000 0.036763 0.000000
# 6 0.000000 0.000000 0.000000 -0.005195 0.000000 0.033606
#
#
# Mechanical properties :
#
#
# Convention : Reuss Voigt Hill
#
# Bulk Modulus (GPa) = 53.20927 71.41841 62.31384
# Shear Modulus (GPa) = 24.42567 32.87338 28.64952
#
# Velocity S-wave (km/s) = 3.32937 3.86244 3.60577
# Velocity P-wave (km/s) = 6.23913 7.23201 6.75384
#
# Compressibility (1/GPa) = 0.01879372
#
# Stress axis : x y z
#
# Youngs Moduli (GPa) = 132.72435 137.41373 48.27439
#
# Poissons Ratio (x) = 0.25207 0.22003
# Poissons Ratio (y) = 0.24347 0.09530
# Poissons Ratio (z) = 0.60493 0.27129
#
# Static dielectric constant tensor:
#      x y z
#    x 1.873320 0.000000 -0.032070 
#    y 0.000000 1.870300 0.000000 
#    z -0.032070 0.000000 1.890290 
# 
# From -- ./inp_files/49224.got.cif
#   From: 2010.05.17/outbox.cif.g08.bks.cpg/sg10_25_cif.got.tgz:49224.got - 2010.06.03 11:33:40.
