data_PCOD9142534
_publ_section_title
;
Structure prediction by ZEFSAII (Michael W. Deem and Ramdas Pophale) SiO2 
 PCOD9142534
Probable space group: P 2/M
;
_chemical_formula_sum "Si O2"
_cell_formula_units_Z 32
_cell_length_a 14.096452
_cell_length_b 19.630148
_cell_length_c 18.335197
_cell_angle_alpha 90.000000
_cell_angle_beta 21.701750
_cell_angle_gamma 90.000000
_cell_volume 1876.102994
_symmetry_space_group_name_H-M "P 2/M"
_symmetry_group_IT_number 10
_symmetry_cell_setting 'monoclinic'
loop_
_space_group_symop_operation_xyz
x,y,z
-x,y,-z
-x,-y,-z
x,-y,z
loop_
_atom_site_type_symbol
_atom_site_label
_atom_site_fract_x
_atom_site_fract_y
_atom_site_fract_z
Si Si1 0.920649 0.810435 0.192197
Si Si2 0.025631 0.663244 0.148937
Si Si3 0.921004 0.421291 0.670288
Si Si4 0.742833 0.577377 0.231158
Si Si5 0.227492 0.077430 0.898142
Si Si6 0.568400 0.577730 0.069790
Si Si7 0.687711 0.330963 0.535159
Si Si8 0.466882 0.813105 0.398465
O O1 0.063249 0.738300 0.090828
O O2 0.715534 0.802600 0.272847
O O3 0.763528 0.820688 0.379119
O O4 0.104717 0.873864 0.046673
O O5 0.829917 0.618938 0.240277
O O6 0.886050 0.672704 0.325787
O O7 0.291539 0.624859 0.972073
O O8 0.008810 0.500000 0.598481
O O9 0.717598 0.404650 0.752054
O O10 0.151030 0.368284 0.516842
O O11 0.747811 0.420974 0.868483
O O12 0.656669 0.500000 0.308453
O O13 0.535670 0.619399 0.333535
O O14 0.000000 0.573732 0.000000
O O15 0.465711 0.118995 0.694268
O O16 0.286814 0.000000 0.877140
O O17 0.000000 0.073963 0.000000
O O18 0.568939 0.500000 0.095808
O O19 0.584057 0.253732 0.614305
#
# Coordination Sequence:
#
# PCOD9142534 Si02
#       8
#     4   4   4   4   4   4   4   4
#     4   9  17  28  43  66  92 119 152 187 226 273
#     4  10  18  29  46  65  87 119 154 190 233 277
#     4   8  14  25  42  64  88 115 151 196 239 274
#     4  11  23  31  39  61  89 120 157 194 230 272
#     4   9  18  30  46  66  89 124 153 175 220 274
#     4   8  14  25  42  64  88 115 151 196 239 274
#     4  10  18  29  46  65  87 119 154 190 233 277
#     4   9  17  28  43  66  92 119 152 187 226 273
#
# _framework density 17.056633000000001
#
# number of rings (size 3 to 8) (size 9 to 14) (size 15 to 20)
#    0.000    2.750    1.250    1.875    1.750    2.500 
#    0.000    2.500    0.000    0.750    0.000    3.500 
#    0.000    2.000    0.000    9.750    0.000    0.250 
#
# Total GULP energy -178452.080198 kJ/mol
# GULP energy per Si atom -5576.627506 kJ/mol
# Density = 1.701781 g / cm^3
# Si number density = 17.056633 Si / 1000 Ang^3
#
#
#
# Elastic Constant Matrix: (Units=GPa)
#
#
# Indices 1 2 3 4 5 6 
#
# 1 42.2211 47.4994 25.4174 0.0000 -12.7047 0.0000
# 2 47.4994 166.3879 50.7025 0.0000 -19.3102 0.0000
# 3 25.4174 50.7025 58.1005 0.0000 -11.3544 0.0000
# 4 0.0000 0.0000 0.0000 95.6012 0.0000 4.7193
# 5 -12.7047 -19.3102 -11.3544 0.0000 20.5919 0.0000
# 6 0.0000 0.0000 0.0000 4.7193 0.0000 30.6746
#
#
#
# Elastic Compliance Matrix: (Units=1/GPa)
#
#
# Indices 1 2 3 4 5 6 
#
# 1 0.041745 -0.007599 -0.008955 0.000000 0.013692 0.000000
# 2 -0.007599 0.009906 -0.004955 0.000000 0.001869 0.000000
# 3 -0.008955 -0.004955 0.026300 0.000000 0.004330 0.000000
# 4 0.000000 0.000000 0.000000 0.010540 0.000000 -0.001622
# 5 0.013692 0.001869 0.004330 0.000000 0.061150 0.000000
# 6 0.000000 0.000000 0.000000 -0.001622 0.000000 0.032850
#
#
# Mechanical properties :
#
#
# Convention : Reuss Voigt Hill
#
# Bulk Modulus (GPa) = 28.62709 57.10535 42.86622
# Shear Modulus (GPa) = 21.08336 38.91289 29.99812
#
# Velocity S-wave (km/s) = 3.51961 4.78158 4.19828
# Velocity P-wave (km/s) = 5.77381 8.00232 6.97761
#
# Compressibility (1/GPa) = 0.03493195
#
# Stress axis : x y z
#
# Youngs Moduli (GPa) = 23.95491 100.94539 38.02348
#
# Poissons Ratio (x) = 0.76712 0.34050
# Poissons Ratio (y) = 0.18204 0.18842
# Poissons Ratio (z) = 0.21451 0.50021
#
# Static dielectric constant tensor:
#      x y z
#    x 1.601920 0.000000 0.037840 
#    y 0.000000 1.572920 0.000000 
#    z 0.037840 0.000000 1.613210 
# 
# From -- ./inp_files/70879.got.cif
#   From: 2010.05.17/outbox.cif.g08.bks.cpg/sg10_36_cif.got.tgz:70879.got - 2010.06.03 11:33:40.
