data_PCOD9142303
_publ_section_title
;
Structure prediction by ZEFSAII (Michael W. Deem and Ramdas Pophale) SiO2 
 PCOD9142303
Probable space group: P 2/M
;
_chemical_formula_sum "Si O2"
_cell_formula_units_Z 26
_cell_length_a 12.007299
_cell_length_b 15.328619
_cell_length_c 8.185450
_cell_angle_alpha 90.000000
_cell_angle_beta 86.629356
_cell_angle_gamma 90.000000
_cell_volume 1503.969300
_symmetry_space_group_name_H-M "P 2/M"
_symmetry_group_IT_number 10
_symmetry_cell_setting 'monoclinic'
loop_
_space_group_symop_operation_xyz
x,y,z
-x,y,-z
-x,-y,-z
x,-y,z
loop_
_atom_site_type_symbol
_atom_site_label
_atom_site_fract_x
_atom_site_fract_y
_atom_site_fract_z
Si Si1 0.346757 0.213012 0.349273
Si Si2 0.121200 0.900292 0.910961
Si Si3 0.690359 0.232922 0.015022
Si Si4 0.587272 0.402416 0.144074
Si Si5 0.500000 0.346959 0.500000
Si Si6 0.444141 0.099890 0.766433
Si Si7 0.219342 0.903582 0.564658
O O1 0.328058 0.252023 0.172759
O O2 0.395818 0.284482 0.466870
O O3 0.443706 0.140025 0.318057
O O4 0.235450 0.168694 0.427134
O O5 0.128055 0.890567 0.713623
O O6 0.166306 0.000000 0.938018
O O7 0.197298 0.822709 0.972426
O O8 0.000000 0.896613 0.000000
O O9 0.672989 0.322193 0.115997
O O10 0.598382 0.164986 0.090443
O O11 0.635272 0.500000 0.126239
O O12 0.528760 0.394648 0.327356
O O13 0.500000 0.392267 0.000000
O O14 0.338760 0.099402 0.650820
O O15 0.462259 0.000000 0.814683
O O16 0.205504 0.000000 0.494600
#
# Coordination Sequence:
#
# PCOD9142303 Si02
#       7
#     4   4   4   4   2   4   4
#     4  12  19  28  48  74 112 144 172 213 263 323
#     4   9  19  37  57  74  99 139 186 235 282 322
#     4  11  20  34  50  75 104 139 184 223 264 322
#     4  11  22  37  55  79 112 148 186 222 263 322
#     4  12  19  34  51  76 110 152 179 218 257 322
#     4  10  18  28  43  67 104 143 172 200 248 313
#     4   9  17  28  43  68 100 137 176 212 253 311
#
# _framework density 17.287586999999998
#
# number of rings (size 3 to 8) (size 9 to 14) (size 15 to 20)
#    0.000    1.538    4.615    3.462    0.000    4.308 
#    0.000    0.769    0.000    3.231    0.000    0.000 
#    0.000    2.462    0.000    0.000    0.000    0.000 
#
# Total GULP energy -144949.663885 kJ/mol
# GULP energy per Si atom -5574.987073 kJ/mol
# Density = 1.724824 g / cm^3
# Si number density = 17.287587 Si / 1000 Ang^3
#
#
#
# Elastic Constant Matrix: (Units=GPa)
#
#
# Indices 1 2 3 4 5 6 
#
# 1 36.3907 29.8490 17.1060 0.0000 -22.7272 0.0000
# 2 29.8490 111.3654 30.5255 0.0000 -7.2563 0.0000
# 3 17.1060 30.5255 102.2664 0.0000 -12.7067 0.0000
# 4 0.0000 0.0000 0.0000 17.5883 0.0000 -0.0668
# 5 -22.7272 -7.2563 -12.7067 0.0000 24.4895 0.0000
# 6 0.0000 0.0000 0.0000 -0.0668 0.0000 14.9299
#
#
#
# Elastic Compliance Matrix: (Units=1/GPa)
#
#
# Indices 1 2 3 4 5 6 
#
# 1 0.096104 -0.020432 0.000378 0.000000 0.083330 0.000000
# 2 -0.020432 0.014174 -0.002830 0.000000 -0.016231 0.000000
# 3 0.000378 -0.002830 0.011223 0.000000 0.005335 0.000000
# 4 0.000000 0.000000 0.000000 0.056857 0.000000 0.000254
# 5 0.083330 -0.016231 0.005335 0.000000 0.116127 0.000000
# 6 0.000000 0.000000 0.000000 0.000254 0.000000 0.066981
#
#
# Mechanical properties :
#
#
# Convention : Reuss Voigt Hill
#
# Bulk Modulus (GPa) = 13.20455 44.99819 29.10137
# Shear Modulus (GPa) = 11.56128 22.90433 17.23281
#
# Velocity S-wave (km/s) = 2.58885 3.64387 3.16069
# Velocity P-wave (km/s) = 4.07320 6.61735 5.49456
#
# Compressibility (1/GPa) = 0.07573145
#
# Stress axis : x y z
#
# Youngs Moduli (GPa) = 10.40540 70.55172 89.10461
#
# Poissons Ratio (x) = 1.44154 -0.03364
# Poissons Ratio (y) = 0.21261 0.25214
# Poissons Ratio (z) = -0.00393 0.19964
#
# Static dielectric constant tensor:
#      x y z
#    x 1.586370 0.000000 0.016290 
#    y 0.000000 1.592100 0.000000 
#    z 0.016290 0.000000 1.656530 
# 
# From -- ./inp_files/24627.got.cif
#   From: 2010.05.17/outbox.cif.g08.bks.cpg/sg10_13_cif.got.tgz:24627.got - 2010.06.03 11:33:40.
