data_PCOD9142100
_publ_section_title
;
Structure prediction by ZEFSAII (Michael W. Deem and Ramdas Pophale) SiO2 
 PCOD9142100
Probable space group: P 2/M
;
_chemical_formula_sum "Si O2"
_cell_formula_units_Z 32
_cell_length_a 15.567217
_cell_length_b 13.516701
_cell_length_c 12.557411
_cell_angle_alpha 90.000000
_cell_angle_beta 140.661608
_cell_angle_gamma 90.000000
_cell_volume 1674.950730
_symmetry_space_group_name_H-M "P 2/M"
_symmetry_group_IT_number 10
_symmetry_cell_setting 'monoclinic'
loop_
_space_group_symop_operation_xyz
x,y,z
-x,y,-z
-x,-y,-z
x,-y,z
loop_
_atom_site_type_symbol
_atom_site_label
_atom_site_fract_x
_atom_site_fract_y
_atom_site_fract_z
Si Si1 0.904437 0.291222 0.316530
Si Si2 0.637886 0.613352 0.067136
Si Si3 0.763204 0.271559 0.577565
Si Si4 0.047249 0.383403 0.866293
Si Si5 0.280073 0.722675 0.218548
Si Si6 0.060842 0.113702 0.363902
Si Si7 0.497405 0.615046 0.291419
Si Si8 0.105803 0.889857 0.014106
O O1 0.749825 0.305202 0.204187
O O2 0.905138 0.350621 0.205907
O O3 0.000000 0.335089 0.500000
O O4 0.969836 0.183810 0.352941
O O5 0.688172 0.500000 0.134879
O O6 0.500000 0.625395 0.000000
O O7 0.594140 0.620309 0.901989
O O8 0.715390 0.252552 0.652512
O O9 0.808485 0.178029 0.548869
O O10 0.642213 0.334399 0.410389
O O11 0.899260 0.334905 0.727539
O O12 0.039556 0.500000 0.867834
O O13 0.152176 0.343833 0.055748
O O14 0.413112 0.671068 0.301604
O O15 0.239883 0.826667 0.127319
O O16 0.086423 0.000000 0.423989
O O17 0.974043 0.107359 0.172246
O O18 0.516864 0.500000 0.338280
O O19 0.138654 0.000000 0.082958
O O20 0.000000 0.846972 0.000000
#
# Coordination Sequence:
#
# PCOD9142100 Si02
#       8
#     4   4   4   4   4   4   4   4
#     4  11  23  39  63  92 115 150 197 257 305 357
#     4  10  22  40  62  87 120 161 201 243 296 355
#     4  11  23  36  57  88 118 160 205 240 288 355
#     4  11  22  36  56  84 120 155 199 251 293 345
#     4  12  20  37  57  86 121 158 201 243 295 351
#     4  10  21  39  63  89 119 152 194 254 312 356
#     4  11  24  40  56  81 125 170 203 239 293 358
#     4  10  17  32  60  88 113 147 194 244 297 350
#
# _framework density 19.105039000000001
#
# number of rings (size 3 to 8) (size 9 to 14) (size 15 to 20)
#    0.000    1.250    5.000    1.875    3.500    4.250 
#    0.000    0.625    0.000    2.625    0.000    0.000 
#    0.000    0.000    0.000    0.000    0.000    0.000 
#
# Total GULP energy -178459.839242 kJ/mol
# GULP energy per Si atom -5576.869976 kJ/mol
# Density = 1.906156 g / cm^3
# Si number density = 19.105039 Si / 1000 Ang^3
#
#
#
# Elastic Constant Matrix: (Units=GPa)
#
#
# Indices 1 2 3 4 5 6 
#
# 1 79.7008 43.8304 19.7420 0.0000 17.7513 0.0000
# 2 43.8304 120.3875 22.1049 0.0000 25.3962 0.0000
# 3 19.7420 22.1049 68.4087 0.0000 18.0809 0.0000
# 4 0.0000 0.0000 0.0000 4.0349 0.0000 -0.3328
# 5 17.7513 25.3962 18.0809 0.0000 29.8782 0.0000
# 6 0.0000 0.0000 0.0000 -0.3328 0.0000 17.5282
#
#
#
# Elastic Compliance Matrix: (Units=1/GPa)
#
#
# Indices 1 2 3 4 5 6 
#
# 1 0.016688 -0.004714 -0.002061 0.000000 -0.004661 0.000000
# 2 -0.004714 0.011535 -0.000614 0.000000 -0.006632 0.000000
# 3 -0.002061 -0.000614 0.017796 0.000000 -0.009023 0.000000
# 4 0.000000 0.000000 0.000000 0.248223 0.000000 0.004713
# 5 -0.004661 -0.006632 -0.009023 0.000000 0.047336 0.000000
# 6 0.000000 0.000000 0.000000 0.004713 0.000000 0.057140
#
#
# Mechanical properties :
#
#
# Convention : Reuss Voigt Hill
#
# Bulk Modulus (GPa) = 32.00935 48.87242 40.44088
# Shear Modulus (GPa) = 11.79498 22.47624 17.13561
#
# Velocity S-wave (km/s) = 2.48740 3.43367 2.99810
# Velocity P-wave (km/s) = 5.00403 6.43091 5.76181
#
# Compressibility (1/GPa) = 0.03124087
#
# Stress axis : x y z
#
# Youngs Moduli (GPa) = 59.92362 86.69577 56.19240
#
# Poissons Ratio (x) = 0.40870 0.11580
# Poissons Ratio (y) = 0.28249 0.03449
# Poissons Ratio (z) = 0.12349 0.05322
#
# Static dielectric constant tensor:
#      x y z
#    x 1.733910 0.000000 -0.013490 
#    y 0.000000 1.696920 0.000000 
#    z -0.013490 0.000000 1.663420 
# 
# From -- ./inp_files/51640.got.cif
#   From: 2010.05.17/outbox.cif.g08.bks.cpg/sg10_26_cif.got.tgz:51640.got - 2010.06.03 11:33:40.
