data_PCOD9142065
_publ_section_title
;
Structure prediction by ZEFSAII (Michael W. Deem and Ramdas Pophale) SiO2 
 PCOD9142065
Probable space group: P 2/M
;
_chemical_formula_sum "Si O2"
_cell_formula_units_Z 28
_cell_length_a 14.884402
_cell_length_b 22.421142
_cell_length_c 8.720564
_cell_angle_alpha 90.000000
_cell_angle_beta 30.697225
_cell_angle_gamma 90.000000
_cell_volume 1485.697945
_symmetry_space_group_name_H-M "P 2/M"
_symmetry_group_IT_number 10
_symmetry_cell_setting 'monoclinic'
loop_
_space_group_symop_operation_xyz
x,y,z
-x,y,-z
-x,-y,-z
x,-y,z
loop_
_atom_site_type_symbol
_atom_site_label
_atom_site_fract_x
_atom_site_fract_y
_atom_site_fract_z
Si Si1 0.803013 0.130654 0.354320
Si Si2 0.193151 0.431200 0.645078
Si Si3 0.195988 0.431076 0.273626
Si Si4 0.491313 0.217174 0.826631
Si Si5 0.196847 0.875776 0.275809
Si Si6 0.496930 0.650179 0.687227
Si Si7 0.326859 0.000000 0.142411
Si Si8 0.806715 0.000000 0.347701
O O1 0.663191 0.181109 0.517252
O O2 0.812279 0.130352 0.525907
O O3 0.730686 0.064487 0.415071
O O4 0.000000 0.138681 0.000000
O O5 0.245345 0.500000 0.603386
O O6 0.193059 0.424644 0.461530
O O7 0.329718 0.384446 0.511522
O O8 0.000000 0.422338 0.000000
O O9 0.243835 0.500000 0.168264
O O10 0.000000 0.420601 0.500000
O O11 0.332874 0.387034 0.994332
O O12 0.488552 0.283109 0.764408
O O13 0.500000 0.219811 0.000000
O O14 0.318560 0.178347 0.039869
O O15 0.297555 0.938553 0.097192
O O16 0.000000 0.876189 0.500000
O O17 0.500000 0.651272 0.500000
O O18 0.176147 0.000000 0.493606
O O19 0.500000 0.000000 0.000000
O O20 0.000000 0.000000 0.000000
#
# Coordination Sequence:
#
# PCOD9142065 Si02
#       8
#     4   4   4   4   4   4   2   2
#     4   9  18  34  57  80 106 144 184 227 282 346
#     4  10  21  39  64  93 122 151 187 235 290 347
#     4  10  21  39  64  92 120 150 187 235 289 343
#     4  10  22  39  55  75 108 153 196 233 282 341
#     4  10  20  34  55  83 112 142 181 235 289 337
#     4  12  25  39  58  84 117 158 200 241 285 339
#     4  10  17  31  56  83 109 140 182 226 279 347
#     4   8  14  27  50  79 102 126 169 220 272 329
#
# _framework density 18.846361000000002
#
# number of rings (size 3 to 8) (size 9 to 14) (size 15 to 20)
#    0.000    2.000    0.000    4.929    0.000    5.714 
#    0.000    2.857    0.000    0.000    0.000   14.000 
#    0.000    0.000    0.000    0.000    0.000    0.000 
#
# Total GULP energy -156237.718951 kJ/mol
# GULP energy per Si atom -5579.918534 kJ/mol
# Density = 1.880347 g / cm^3
# Si number density = 18.846361 Si / 1000 Ang^3
#
#
#
# Elastic Constant Matrix: (Units=GPa)
#
#
# Indices 1 2 3 4 5 6 
#
# 1 75.8075 74.2092 38.1508 0.0000 -26.6592 0.0000
# 2 74.2092 207.2228 104.2062 0.0000 -25.4757 0.0000
# 3 38.1508 104.2062 126.5410 0.0000 -11.6991 0.0000
# 4 0.0000 0.0000 0.0000 104.6220 0.0000 -30.8587
# 5 -26.6592 -25.4757 -11.6991 0.0000 31.6102 0.0000
# 6 0.0000 0.0000 0.0000 -30.8587 0.0000 30.9485
#
#
#
# Elastic Compliance Matrix: (Units=1/GPa)
#
#
# Indices 1 2 3 4 5 6 
#
# 1 0.026040 -0.007083 -0.000533 0.000000 0.016055 0.000000
# 2 -0.007083 0.010761 -0.006706 0.000000 0.000217 0.000000
# 3 -0.000533 -0.006706 0.013507 0.000000 -0.000856 0.000000
# 4 0.000000 0.000000 0.000000 0.013540 0.000000 0.013501
# 5 0.016055 0.000217 -0.000856 0.000000 0.045034 0.000000
# 6 0.000000 0.000000 0.000000 0.013501 0.000000 0.045774
#
#
# Mechanical properties :
#
#
# Convention : Reuss Voigt Hill
#
# Bulk Modulus (GPa) = 46.16346 93.63375 69.89861
# Shear Modulus (GPa) = 26.24354 46.30317 36.27336
#
# Velocity S-wave (km/s) = 3.73567 4.96207 4.39189
# Velocity P-wave (km/s) = 6.56923 9.08955 7.93016
#
# Compressibility (1/GPa) = 0.02166215
#
# Stress axis : x y z
#
# Youngs Moduli (GPa) = 38.40303 92.92417 74.03541
#
# Poissons Ratio (x) = 0.65819 0.03949
# Poissons Ratio (y) = 0.27201 0.49652
# Poissons Ratio (z) = 0.02049 0.62319
#
# Static dielectric constant tensor:
#      x y z
#    x 1.893050 0.000000 0.289000 
#    y 0.000000 1.667500 0.000000 
#    z 0.289000 0.000000 1.970360 
# 
# From -- ./inp_files/30441.got.cif
#   From: 2010.05.17/outbox.cif.g08.bks.cpg/sg10_16_cif.got.tgz:30441.got - 2010.06.03 11:33:40.
