data_PCOD9142554
_publ_section_title
;
Structure prediction by ZEFSAII (Michael W. Deem and Ramdas Pophale) SiO2 
 PCOD9142554
Probable space group: P 2/M
;
_chemical_formula_sum "Si O2"
_cell_formula_units_Z 32
_cell_length_a 23.395221
_cell_length_b 16.074082
_cell_length_c 24.001148
_cell_angle_alpha 90.000000
_cell_angle_beta 12.246482
_cell_angle_gamma 90.000000
_cell_volume 1914.530074
_symmetry_space_group_name_H-M "P 2/M"
_symmetry_group_IT_number 10
_symmetry_cell_setting 'monoclinic'
loop_
_space_group_symop_operation_xyz
x,y,z
-x,y,-z
-x,-y,-z
x,-y,z
loop_
_atom_site_type_symbol
_atom_site_label
_atom_site_fract_x
_atom_site_fract_y
_atom_site_fract_z
Si Si1 0.166631 0.293036 0.648548
Si Si2 0.296213 0.904668 0.744142
Si Si3 0.300592 0.596895 0.237706
Si Si4 0.724233 0.668034 0.616423
Si Si5 0.372773 0.905286 0.883613
Si Si6 0.156919 0.403219 0.121131
Si Si7 0.086802 0.827449 0.617771
Si Si8 0.288154 0.214500 0.857139
O O1 0.126407 0.229466 0.635149
O O2 0.482648 0.285784 0.358803
O O3 0.019685 0.374424 0.764053
O O4 0.999814 0.257087 0.859165
O O5 0.500000 0.886015 0.500000
O O6 0.316580 0.840236 0.775003
O O7 0.349999 0.000000 0.712350
O O8 0.000000 0.902565 0.000000
O O9 0.373471 0.500000 0.178815
O O10 0.313900 0.642933 0.283606
O O11 0.000000 0.599744 0.500000
O O12 0.500000 0.629237 0.000000
O O13 0.835458 0.761753 0.503865
O O14 0.955629 0.613704 0.365037
O O15 0.432572 0.650962 0.864821
O O16 0.688047 0.897939 0.595708
O O17 0.323889 0.848775 0.875410
O O18 0.289156 0.000000 0.953224
O O19 0.204954 0.866298 0.094831
O O20 0.230900 0.500000 0.048507
#
# Coordination Sequence:
#
# PCOD9142554 Si02
#       8
#     4   4   4   4   4   4   4   4
#     4   9  18  30  45  66  92 121 154 190 227 277
#     4  10  20  32  46  67  94 123 160 199 227 263
#     4  10  20  32  46  67  94 123 160 199 227 263
#     4  11  20  33  49  67  97 133 160 189 237 279
#     4  10  18  29  46  68  93 121 154 187 226 279
#     4  11  20  31  49  72  97 126 160 192 231 286
#     4   9  18  30  44  65  92 121 153 189 226 275
#     4  10  18  31  47  64  93 128 155 185 233 274
#
# _framework density 16.714282999999998
#
# number of rings (size 3 to 8) (size 9 to 14) (size 15 to 20)
#    0.000    2.000    0.000    7.125    0.000    1.000 
#    0.000    3.750    0.000    0.000    0.000    0.000 
#    0.000   20.000    0.000    0.000    0.000    0.000 
#
# Total GULP energy -178322.692740 kJ/mol
# GULP energy per Si atom -5572.584148 kJ/mol
# Density = 1.667624 g / cm^3
# Si number density = 16.714283 Si / 1000 Ang^3
#
#
#
# Elastic Constant Matrix: (Units=GPa)
#
#
# Indices 1 2 3 4 5 6 
#
# 1 60.5790 17.7596 21.4352 0.0000 17.8519 0.0000
# 2 17.7596 47.2861 18.5409 0.0000 4.8394 0.0000
# 3 21.4352 18.5409 100.4749 0.0000 17.8014 0.0000
# 4 0.0000 0.0000 0.0000 13.0047 0.0000 22.2641
# 5 17.8519 4.8394 17.8014 0.0000 22.7529 0.0000
# 6 0.0000 0.0000 0.0000 22.2641 0.0000 -9.5621
#
#
#
# Elastic Compliance Matrix: (Units=1/GPa)
#
#
# Indices 1 2 3 4 5 6 
#
# 1 0.023670 -0.006867 -0.000872 0.000000 -0.016429 0.000000
# 2 -0.006867 0.024854 -0.003645 0.000000 0.002953 0.000000
# 3 -0.000872 -0.003645 0.012251 0.000000 -0.008126 0.000000
# 4 0.000000 0.000000 0.000000 0.015422 0.000000 0.035907
# 5 -0.016429 0.002953 -0.008126 0.000000 0.062570 0.000000
# 6 0.000000 0.000000 0.000000 0.035907 0.000000 -0.020974
#
#
# Mechanical properties :
#
#
# Convention : Reuss Voigt Hill
#
# Bulk Modulus (GPa) = 26.30983 35.97904 31.14443
# Shear Modulus (GPa) = 32.63094 15.27940 23.95517
#
# Velocity S-wave (km/s) = 4.42325 3.02677 3.78989
# Velocity P-wave (km/s) = 6.47008 5.81273 6.15019
#
# Compressibility (1/GPa) = 0.03800861
#
# Stress axis : x y z
#
# Youngs Moduli (GPa) = 42.24678 40.23544 81.62661
#
# Poissons Ratio (x) = 0.27629 0.07117
# Poissons Ratio (y) = 0.29010 0.29749
# Poissons Ratio (z) = 0.03683 0.14664
#
# Static dielectric constant tensor:
#      x y z
#    x 1.546670 0.000000 -0.002230 
#    y 0.000000 1.589720 0.000000 
#    z -0.002230 0.000000 1.590360 
# 
# From -- ./inp_files/91134.got.cif
#   From: 2010.05.17/outbox.cif.g08.bks.cpg/sg10_46_cif.got.tgz:91134.got - 2010.06.03 11:33:40.
