data_PCOD9142823
_publ_section_title
;
Structure prediction by ZEFSAII (Michael W. Deem and Ramdas Pophale) SiO2 
 PCOD9142823
Probable space group: P 2/M
;
_chemical_formula_sum "Si O2"
_cell_formula_units_Z 32
_cell_length_a 27.725043
_cell_length_b 9.179556
_cell_length_c 22.277449
_cell_angle_alpha 90.000000
_cell_angle_beta 161.339041
_cell_angle_gamma 90.000000
_cell_volume 1814.116696
_symmetry_space_group_name_H-M "P 2/M"
_symmetry_group_IT_number 10
_symmetry_cell_setting 'monoclinic'
loop_
_space_group_symop_operation_xyz
x,y,z
-x,y,-z
-x,-y,-z
x,-y,z
loop_
_atom_site_type_symbol
_atom_site_label
_atom_site_fract_x
_atom_site_fract_y
_atom_site_fract_z
Si Si1 0.818093 0.830382 0.907581
Si Si2 0.025176 0.674294 0.598886
Si Si3 0.341747 0.673138 0.033924
Si Si4 0.671179 0.673945 0.381283
Si Si5 0.183423 0.831390 0.334558
Si Si6 0.213223 0.174748 0.994463
Si Si7 0.107905 0.174014 0.446067
Si Si8 0.816166 0.332987 0.785131
O O1 0.768626 0.734859 0.792662
O O2 0.774769 0.000000 0.848101
O O3 0.766224 0.779195 0.912255
O O4 0.001215 0.827115 0.123972
O O5 0.000646 0.500000 0.576518
O O6 0.000000 0.712850 0.500000
O O7 0.920256 0.760476 0.521466
O O8 0.195658 0.706306 0.821308
O O9 0.342227 0.500000 0.046056
O O10 0.495268 0.710032 0.181104
O O11 0.322640 0.754039 0.074765
O O12 0.688915 0.500000 0.397658
O O13 0.750295 0.733928 0.534531
O O14 0.751817 0.752205 0.421127
O O15 0.230852 0.766505 0.326283
O O16 0.229105 0.000000 0.395028
O O17 0.042921 0.209364 0.771002
O O18 0.227573 0.000000 0.009713
O O19 0.122399 0.000000 0.464541
O O20 0.766918 0.500000 0.720197
O O21 0.000000 0.332761 0.000000
#
# Coordination Sequence:
#
# PCOD9142823 Si02
#       8
#     4   4   4   4   4   4   4   4
#     4   9  16  28  45  68  97 128 166 211 258 304
#     4   9  18  36  60  82 105 136 172 208 249 298
#     4   9  20  35  51  76 105 134 168 208 254 304
#     4  11  21  33  50  74 106 137 169 210 256 304
#     4  10  18  30  47  68  98 134 170 209 258 306
#     4   9  17  31  50  73  99 130 169 213 256 302
#     4  10  19  33  53  79 106 134 172 211 250 298
#     4   9  17  27  40  66  98 129 168 210 256 306
#
# _framework density 17.639438999999999
#
# number of rings (size 3 to 8) (size 9 to 14) (size 15 to 20)
#    0.000    2.500    1.250    1.500    0.000    4.250 
#    0.000    0.625    0.000    4.500    0.000    5.250 
#    0.000    0.000    0.000    0.000    0.000    0.000 
#
# Total GULP energy -178497.993813 kJ/mol
# GULP energy per Si atom -5578.062307 kJ/mol
# Density = 1.759929 g / cm^3
# Si number density = 17.639439 Si / 1000 Ang^3
#
#
#
# Elastic Constant Matrix: (Units=GPa)
#
#
# Indices 1 2 3 4 5 6 
#
# 1 169.7107 64.9792 45.3886 0.0000 -1.2852 0.0000
# 2 64.9792 58.0614 25.0598 0.0000 6.9397 0.0000
# 3 45.3886 25.0598 24.5212 0.0000 7.9064 0.0000
# 4 0.0000 0.0000 0.0000 14.3004 0.0000 -3.2619
# 5 -1.2852 6.9397 7.9064 0.0000 24.6034 0.0000
# 6 0.0000 0.0000 0.0000 -3.2619 0.0000 31.7422
#
#
#
# Elastic Compliance Matrix: (Units=1/GPa)
#
#
# Indices 1 2 3 4 5 6 
#
# 1 0.015514 -0.008511 -0.023488 0.000000 0.010759 0.000000
# 2 -0.008511 0.035541 -0.019179 0.000000 -0.004306 0.000000
# 3 -0.023488 -0.019179 0.114358 0.000000 -0.032567 0.000000
# 4 0.000000 0.000000 0.000000 0.071606 0.000000 0.007358
# 5 0.010759 -0.004306 -0.032567 0.000000 0.052887 0.000000
# 6 0.000000 0.000000 0.000000 0.007358 0.000000 0.032260
#
#
# Mechanical properties :
#
#
# Convention : Reuss Voigt Hill
#
# Bulk Modulus (GPa) = 15.85868 58.12762 36.99315
# Shear Modulus (GPa) = 11.22230 21.92025 16.57127
#
# Velocity S-wave (km/s) = 2.52505 3.52900 3.06836
# Velocity P-wave (km/s) = 4.18463 7.04484 5.79400
#
# Compressibility (1/GPa) = 0.06305694
#
# Stress axis : x y z
#
# Youngs Moduli (GPa) = 64.45591 28.13660 8.74450
#
# Poissons Ratio (x) = 0.23948 0.20539
# Poissons Ratio (y) = 0.54860 0.16771
# Poissons Ratio (z) = 1.51394 0.53962
#
# Static dielectric constant tensor:
#      x y z
#    x 1.588990 0.000000 0.008380 
#    y 0.000000 1.587320 0.000000 
#    z 0.008380 0.000000 1.600490 
# 
# From -- ./inp_files/87028.got.cif
#   From: 2010.05.17/outbox.cif.g08.bks.cpg/sg10_44_cif.got.tgz:87028.got - 2010.06.03 11:33:40.
