data_PCOD9142966
_publ_section_title
;
Structure prediction by ZEFSAII (Michael W. Deem and Ramdas Pophale) SiO2 
 PCOD9142966
Probable space group: P 2/M
;
_chemical_formula_sum "Si O2"
_cell_formula_units_Z 32
_cell_length_a 22.319725
_cell_length_b 7.226738
_cell_length_c 21.977281
_cell_angle_alpha 90.000000
_cell_angle_beta 19.765938
_cell_angle_gamma 90.000000
_cell_volume 1198.812106
_symmetry_space_group_name_H-M "P 2/M"
_symmetry_group_IT_number 10
_symmetry_cell_setting 'monoclinic'
loop_
_space_group_symop_operation_xyz
x,y,z
-x,y,-z
-x,-y,-z
x,-y,z
loop_
_atom_site_type_symbol
_atom_site_label
_atom_site_fract_x
_atom_site_fract_y
_atom_site_fract_z
Si Si1 0.031191 0.290490 0.061354
Si Si2 0.595843 0.276658 0.259559
Si Si3 0.062614 0.224385 0.710480
Si Si4 0.468585 0.225811 0.933120
Si Si5 0.840351 0.775431 0.609948
Si Si6 0.655104 0.274682 0.397553
Si Si7 0.423787 0.787350 0.304034
Si Si8 0.911344 0.776000 0.731457
O O1 0.052471 0.500000 0.018150
O O2 0.979765 0.296328 0.182257
O O3 0.856408 0.210045 0.196442
O O4 0.227377 0.208347 0.875652
O O5 0.602679 0.500000 0.253659
O O6 0.422742 0.218882 0.462561
O O7 0.577623 0.217689 0.207489
O O8 0.251702 0.289140 0.502898
O O9 0.926283 0.279110 0.787313
O O10 0.062586 0.000000 0.715551
O O11 0.637622 0.285265 0.811270
O O12 0.515868 0.283815 0.818676
O O13 0.465063 0.000000 0.940627
O O14 0.265681 0.285239 0.134294
O O15 0.000000 0.711891 0.500000
O O16 0.912441 0.726567 0.473927
O O17 0.836636 0.000000 0.618812
O O18 0.500000 0.219530 0.500000
O O19 0.663339 0.500000 0.387944
O O20 0.376676 0.000000 0.336108
O O21 0.906417 0.000000 0.736260
#
# Coordination Sequence:
#
# PCOD9142966 Si02
#       8
#     4   4   4   4   4   4   4   4
#     4  10  20  33  51  75 100 125 155 194 238 280
#     4  10  20  33  51  75 100 125 155 194 238 280
#     4  10  18  30  50  72  96 128 160 192 236 287
#     4   9  16  26  40  59  85 117 152 189 230 277
#     4   9  16  25  36  54  83 117 154 193 230 272
#     4   9  18  33  51  71  97 127 158 193 232 276
#     4  10  18  30  50  72  96 128 160 192 236 287
#     4   9  16  26  40  59  85 117 152 189 230 277
#
# _framework density 26.693090999999999
#
# number of rings (size 3 to 8) (size 9 to 14) (size 15 to 20)
#    0.000    2.500    2.500    0.750    0.000    2.500 
#    0.000    5.000    0.000    1.500    0.000    1.750 
#    0.000    2.000    0.000    5.250    0.000    5.000 
#
# Total GULP energy -178943.925637 kJ/mol
# GULP energy per Si atom -5591.997676 kJ/mol
# Density = 2.663234 g / cm^3
# Si number density = 26.693091 Si / 1000 Ang^3
#
#
#
# Elastic Constant Matrix: (Units=GPa)
#
#
# Indices 1 2 3 4 5 6 
#
# 1 107.3989 -10.8268 18.5850 0.0000 -35.9170 0.0000
# 2 -10.8268 129.5532 -3.8327 0.0000 -0.9424 0.0000
# 3 18.5850 -3.8327 151.6181 0.0000 -42.7002 0.0000
# 4 0.0000 0.0000 0.0000 -11.4040 0.0000 7.8021
# 5 -35.9170 -0.9424 -42.7002 0.0000 56.5669 0.0000
# 6 0.0000 0.0000 0.0000 7.8021 0.0000 -2.3395
#
#
#
# Elastic Compliance Matrix: (Units=1/GPa)
#
#
# Indices 1 2 3 4 5 6 
#
# 1 0.012060 0.001095 0.000903 0.000000 0.008358 0.000000
# 2 0.001095 0.007830 0.000376 0.000000 0.001110 0.000000
# 3 0.000903 0.000376 0.008455 0.000000 0.006962 0.000000
# 4 0.000000 0.000000 0.000000 0.068423 0.000000 0.228182
# 5 0.008358 0.001110 0.006962 0.000000 0.028259 0.000000
# 6 0.000000 0.000000 0.000000 0.228182 0.000000 0.333524
#
#
# Mechanical properties :
#
#
# Convention : Reuss Voigt Hill
#
# Bulk Modulus (GPa) = 30.21661 44.04680 37.13170
# Shear Modulus (GPa) = 10.75656 34.20765 22.48211
#
# Velocity S-wave (km/s) = 2.00959 3.58371 2.90529
# Velocity P-wave (km/s) = 4.09014 5.80181 5.01947
#
# Compressibility (1/GPa) = 0.03309438
#
# Stress axis : x y z
#
# Youngs Moduli (GPa) = 82.91730 127.72070 118.27230
#
# Poissons Ratio (x) = -0.13990 -0.10681
# Poissons Ratio (y) = -0.09083 -0.04450
# Poissons Ratio (z) = -0.07488 -0.04806
#
# Static dielectric constant tensor:
#      x y z
#    x 2.086890 0.000000 -0.026820 
#    y 0.000000 2.042970 0.000000 
#    z -0.026820 0.000000 2.049030 
# 
# From -- ./inp_files/90568.got.cif
#   From: 2010.05.17/outbox.cif.g08.bks.cpg/sg10_46_cif.got.tgz:90568.got - 2010.06.03 11:33:40.
