data_PCOD9142813
_publ_section_title
;
Structure prediction by ZEFSAII (Michael W. Deem and Ramdas Pophale) SiO2 
 PCOD9142813
Probable space group: P 2/M
;
_chemical_formula_sum "Si O2"
_cell_formula_units_Z 28
_cell_length_a 19.680383
_cell_length_b 7.419370
_cell_length_c 14.164483
_cell_angle_alpha 90.000000
_cell_angle_beta 145.602114
_cell_angle_gamma 90.000000
_cell_volume 1168.425385
_symmetry_space_group_name_H-M "P 2/M"
_symmetry_group_IT_number 10
_symmetry_cell_setting 'monoclinic'
loop_
_space_group_symop_operation_xyz
x,y,z
-x,y,-z
-x,-y,-z
x,-y,z
loop_
_atom_site_type_symbol
_atom_site_label
_atom_site_fract_x
_atom_site_fract_y
_atom_site_fract_z
Si Si1 0.727432 0.711427 0.100506
Si Si2 0.528407 0.718207 0.138785
Si Si3 0.687616 0.792749 0.486091
Si Si4 0.898581 0.784196 0.456386
Si Si5 0.534249 0.782851 0.647351
Si Si6 0.199246 0.796214 0.011115
Si Si7 0.938107 0.777827 0.715784
O O1 0.730762 0.500000 0.085138
O O2 0.775824 0.739192 0.261415
O O3 0.590263 0.774906 0.938920
O O4 0.806074 0.802408 0.109656
O O5 0.535109 0.500000 0.145767
O O6 0.643353 0.788560 0.326290
O O7 0.500000 0.777042 0.000000
O O8 0.576765 0.710646 0.417291
O O9 0.822488 0.718038 0.643264
O O10 0.697077 0.000000 0.528350
O O11 0.914759 0.718347 0.580894
O O12 0.000000 0.715559 0.500000
O O13 0.907636 0.000000 0.470237
O O14 0.500000 0.754052 0.500000
O O15 0.669928 0.712682 0.819504
O O16 0.540486 0.000000 0.672012
O O17 0.203899 0.000000 0.054377
O O18 0.071981 0.717838 0.898001
O O19 0.938985 0.000000 0.717273
#
# Coordination Sequence:
#
# PCOD9142813 Si02
#       7
#     4   4   4   4   4   4   4
#     4  11  21  31  47  73 103 134 179 222 253 300
#     4  10  21  35  49  70 107 145 174 214 265 311
#     4  10  19  33  54  78 103 133 177 223 255 309
#     4  10  18  30  47  67 100 144 183 213 249 302
#     4   9  18  33  56  83 105 130 170 221 274 321
#     4  10  18  34  55  72 100 138 170 208 265 315
#     4   9  18  31  49  75 103 135 176 216 252 301
#
# _framework density 23.963875999999999
#
# number of rings (size 3 to 8) (size 9 to 14) (size 15 to 20)
#    0.000    2.143    2.857    1.286    0.000    1.143 
#    0.000    1.429    0.000    6.000    0.000    0.000 
#    0.000    2.286    0.000    0.000    0.000    0.000 
#
# Total GULP energy -156388.417486 kJ/mol
# GULP energy per Si atom -5585.300624 kJ/mol
# Density = 2.390933 g / cm^3
# Si number density = 23.963876 Si / 1000 Ang^3
#
#
#
# Elastic Constant Matrix: (Units=GPa)
#
#
# Indices 1 2 3 4 5 6 
#
# 1 102.5498 6.0621 77.9181 0.0000 42.3069 0.0000
# 2 6.0621 82.8791 4.8730 0.0000 3.6650 0.0000
# 3 77.9181 4.8730 140.8638 0.0000 50.8546 0.0000
# 4 0.0000 0.0000 0.0000 -389.5518 0.0000 51.1639
# 5 42.3069 3.6650 50.8546 0.0000 51.8459 0.0000
# 6 0.0000 0.0000 0.0000 51.1639 0.0000 -17.4558
#
#
#
# Elastic Compliance Matrix: (Units=1/GPa)
#
#
# Indices 1 2 3 4 5 6 
#
# 1 0.018738 -0.000581 -0.007493 0.000000 -0.007900 0.000000
# 2 -0.000581 0.012124 0.000062 0.000000 -0.000444 0.000000
# 3 -0.007493 0.000062 0.013990 0.000000 -0.007613 0.000000
# 4 0.000000 0.000000 0.000000 -0.004174 0.000000 -0.012234
# 5 -0.007900 -0.000444 -0.007613 0.000000 0.033233 0.000000
# 6 0.000000 0.000000 0.000000 -0.012234 0.000000 -0.093146
#
#
# Mechanical properties :
#
#
# Convention : Reuss Voigt Hill
#
# Bulk Modulus (GPa) = 34.68692 55.99990 45.34341
# Shear Modulus (GPa) = 781.65451 -55.20301 363.22575
#
# Velocity S-wave (km/s) = 18.08006 -4.80478 12.32482
# Velocity P-wave (km/s) = 21.22162 2.71331 14.88280
#
# Compressibility (1/GPa) = 0.02882931
#
# Stress axis : x y z
#
# Youngs Moduli (GPa) = 53.36855 82.47945 71.48142
#
# Poissons Ratio (x) = 0.04789 0.53558
# Poissons Ratio (y) = 0.03099 -0.00444
# Poissons Ratio (z) = 0.39987 -0.00512
#
# Static dielectric constant tensor:
#      x y z
#    x 1.930540 0.000000 0.049130 
#    y 0.000000 1.875410 0.000000 
#    z 0.049130 0.000000 1.933380 
# 
# From -- ./inp_files/70283.got.cif
#   From: 2010.05.17/outbox.cif.g08.bks.cpg/sg10_36_cif.got.tgz:70283.got - 2010.06.03 11:33:40.
