data_PCOD9142275
_publ_section_title
;
Structure prediction by ZEFSAII (Michael W. Deem and Ramdas Pophale) SiO2 
 PCOD9142275
Probable space group: P 2/M
;
_chemical_formula_sum "Si O2"
_cell_formula_units_Z 32
_cell_length_a 14.208569
_cell_length_b 27.910973
_cell_length_c 13.380320
_cell_angle_alpha 90.000000
_cell_angle_beta 158.914319
_cell_angle_gamma 90.000000
_cell_volume 1909.013874
_symmetry_space_group_name_H-M "P 2/M"
_symmetry_group_IT_number 10
_symmetry_cell_setting 'monoclinic'
loop_
_space_group_symop_operation_xyz
x,y,z
-x,y,-z
-x,-y,-z
x,-y,z
loop_
_atom_site_type_symbol
_atom_site_label
_atom_site_fract_x
_atom_site_fract_y
_atom_site_fract_z
Si Si1 0.756867 0.446937 0.185855
Si Si2 0.753319 0.945668 0.182047
Si Si3 0.513434 0.947058 0.393927
Si Si4 0.878825 0.848106 0.198342
Si Si5 0.988533 0.882965 0.106711
Si Si6 0.054995 0.300433 0.434834
Si Si7 0.551496 0.649714 0.930333
Si Si8 0.633267 0.796443 0.240800
O O1 0.806492 0.500000 0.190730
O O2 0.000000 0.435260 0.500000
O O3 0.500000 0.451079 0.000000
O O4 0.685419 0.401819 0.046303
O O5 0.794095 0.901883 0.146442
O O6 0.000000 0.945956 0.500000
O O7 0.730496 0.000000 0.116678
O O8 0.500000 0.936663 0.000000
O O9 0.500000 0.952828 0.500000
O O10 0.775446 0.918424 0.633266
O O11 0.507515 0.000000 0.342889
O O12 0.271195 0.913505 0.132945
O O13 0.982986 0.843840 0.187963
O O14 0.124592 0.833699 0.512451
O O15 0.618510 0.815854 0.949352
O O16 0.000000 0.869237 0.000000
O O17 0.260357 0.340976 0.603117
O O18 0.214887 0.251680 0.575847
O O19 0.000000 0.301955 0.500000
O O20 0.764187 0.310799 0.106914
O O21 0.500000 0.653523 0.000000
O O22 0.500000 0.789068 0.000000
#
# Coordination Sequence:
#
# PCOD9142275 Si02
#       8
#     4   4   4   4   4   4   4   4
#     4   9  15  21  30  46  69  99 135 174 213 253
#     4  10  21  36  51  67  89 115 142 170 201 247
#     4   9  17  31  51  72  94 117 137 162 197 238
#     4  12  23  36  53  72  91 117 146 176 221 265
#     4  10  21  36  52  72  97 120 144 174 210 256
#     4  10  18  28  42  60  80 106 137 176 227 271
#     4   9  15  24  37  53  76 105 138 174 219 269
#     4  12  23  35  51  70  91 113 144 186 228 270
#
# _framework density 16.762581999999998
#
# number of rings (size 3 to 8) (size 9 to 14) (size 15 to 20)
#    0.000    1.875    0.000    7.875    0.000    2.500 
#    0.000    1.250    0.000    0.000    0.000    0.000 
#    0.000    0.000    0.000    0.000    0.000    0.000 
#
# Total GULP energy -178151.148271 kJ/mol
# GULP energy per Si atom -5567.223383 kJ/mol
# Density = 1.672443 g / cm^3
# Si number density = 16.762582 Si / 1000 Ang^3
#
#
#
# Elastic Constant Matrix: (Units=GPa)
#
#
# Indices 1 2 3 4 5 6 
#
# 1 49.2167 26.8127 23.1155 0.0000 8.9602 0.0000
# 2 26.8127 85.2560 26.0528 0.0000 14.1876 0.0000
# 3 23.1155 26.0528 110.2952 0.0000 32.3940 0.0000
# 4 0.0000 0.0000 0.0000 29.8482 0.0000 10.4344
# 5 8.9602 14.1876 32.3940 0.0000 29.1306 0.0000
# 6 0.0000 0.0000 0.0000 10.4344 0.0000 5.0269
#
#
#
# Elastic Compliance Matrix: (Units=1/GPa)
#
#
# Indices 1 2 3 4 5 6 
#
# 1 0.025907 -0.006948 -0.003626 0.000000 -0.000552 0.000000
# 2 -0.006948 0.014863 -0.000826 0.000000 -0.004183 0.000000
# 3 -0.003626 -0.000826 0.014220 0.000000 -0.014296 0.000000
# 4 0.000000 0.000000 0.000000 0.122107 0.000000 -0.253458
# 5 -0.000552 -0.004183 -0.014296 0.000000 0.052433 0.000000
# 6 0.000000 0.000000 0.000000 -0.253458 0.000000 0.725032
#
#
# Mechanical properties :
#
#
# Convention : Reuss Voigt Hill
#
# Bulk Modulus (GPa) = 31.06508 44.08110 37.57309
# Shear Modulus (GPa) = 5.06026 24.05360 14.55693
#
# Velocity S-wave (km/s) = 1.73935 3.79219 2.95009
# Velocity P-wave (km/s) = 4.75462 6.74750 5.83674
#
# Compressibility (1/GPa) = 0.03219048
#
# Stress axis : x y z
#
# Youngs Moduli (GPa) = 38.59970 67.28149 70.32150
#
# Poissons Ratio (x) = 0.46744 0.25500
# Poissons Ratio (y) = 0.26817 0.05809
# Poissons Ratio (z) = 0.13997 0.05558
#
# Static dielectric constant tensor:
#      x y z
#    x 1.569780 0.000000 -0.034250 
#    y 0.000000 1.673460 0.000000 
#    z -0.034250 0.000000 1.645120 
# 
# From -- ./inp_files/68057.got.cif
#   From: 2010.05.17/outbox.cif.g08.bks.cpg/sg10_35_cif.got.tgz:68057.got - 2010.06.03 11:33:40.
