data_PCOD9142639
_publ_section_title
;
Structure prediction by ZEFSAII (Michael W. Deem and Ramdas Pophale) SiO2 
 PCOD9142639
Probable space group: P 2/M
;
_chemical_formula_sum "Si O2"
_cell_formula_units_Z 32
_cell_length_a 20.836463
_cell_length_b 7.356391
_cell_length_c 27.081874
_cell_angle_alpha 90.000000
_cell_angle_beta 21.273145
_cell_angle_gamma 90.000000
_cell_volume 1506.094253
_symmetry_space_group_name_H-M "P 2/M"
_symmetry_group_IT_number 10
_symmetry_cell_setting 'monoclinic'
loop_
_space_group_symop_operation_xyz
x,y,z
-x,y,-z
-x,-y,-z
x,-y,z
loop_
_atom_site_type_symbol
_atom_site_label
_atom_site_fract_x
_atom_site_fract_y
_atom_site_fract_z
Si Si1 0.303452 0.782108 0.151593
Si Si2 0.174113 0.787122 0.349073
Si Si3 0.640543 0.722299 0.594510
Si Si4 0.526428 0.719255 0.785687
Si Si5 0.974047 0.721032 0.097681
Si Si6 0.716338 0.720955 0.200184
Si Si7 0.122144 0.722452 0.094344
Si Si8 0.004925 0.716075 0.285537
O O1 0.223710 0.710100 0.260084
O O2 0.171870 0.745701 0.201111
O O3 0.318411 0.000000 0.146119
O O4 0.500000 0.712181 0.000000
O O5 0.339678 0.772767 0.267119
O O6 0.000000 0.708156 0.500000
O O7 0.135642 0.000000 0.368256
O O8 0.642201 0.500000 0.594292
O O9 0.598079 0.780602 0.680932
O O10 0.478390 0.779228 0.675678
O O11 0.827914 0.785533 0.439027
O O12 0.522249 0.500000 0.787291
O O13 0.325698 0.779419 0.939941
O O14 0.971626 0.500000 0.099811
O O15 0.800906 0.780114 0.191502
O O16 0.005950 0.780021 0.130617
O O17 0.143731 0.773026 0.942771
O O18 0.714461 0.500000 0.202019
O O19 0.123667 0.500000 0.093640
O O20 0.046846 0.785377 0.200696
O O21 0.979719 0.500000 0.298492
#
# Coordination Sequence:
#
# PCOD9142639 Si02
#       8
#     4   4   4   4   4   4   4   4
#     4  10  21  37  53  67  87 119 155 188 222 269
#     4  10  21  35  49  67  91 115 143 186 232 268
#     4   9  16  27  41  64  95 123 151 184 224 267
#     4  10  18  29  48  68  88 116 150 186 221 266
#     4   8  12  20  37  60  88 123 157 183 213 259
#     4   8  12  20  37  60  88 124 157 181 212 262
#     4   9  16  27  41  64  93 119 149 187 225 259
#     4  10  20  31  46  68  96 122 144 184 236 273
#
# _framework density 21.24701
#
# number of rings (size 3 to 8) (size 9 to 14) (size 15 to 20)
#    0.000    2.750    1.250    2.250    0.000    1.000 
#    0.000    0.625    0.000    3.750    0.000    0.000 
#    0.000    6.000    0.000    0.000    0.000    0.000 
#
# Total GULP energy -178715.071730 kJ/mol
# GULP energy per Si atom -5584.845992 kJ/mol
# Density = 2.119865 g / cm^3
# Si number density = 21.247010 Si / 1000 Ang^3
#
#
#
# Elastic Constant Matrix: (Units=GPa)
#
#
# Indices 1 2 3 4 5 6 
#
# 1 176.5211 -10.7994 55.8080 0.0000 18.8191 0.0000
# 2 -10.7994 77.0019 0.8471 0.0000 10.0374 0.0000
# 3 55.8080 0.8471 73.6435 0.0000 27.3278 0.0000
# 4 0.0000 0.0000 0.0000 -10.3020 0.0000 -23.1043
# 5 18.8191 10.0374 27.3278 0.0000 35.9807 0.0000
# 6 0.0000 0.0000 0.0000 -23.1043 0.0000 29.8721
#
#
#
# Elastic Compliance Matrix: (Units=1/GPa)
#
#
# Indices 1 2 3 4 5 6 
#
# 1 0.007546 0.001104 -0.005782 0.000000 0.000137 0.000000
# 2 0.001104 0.013798 0.000901 0.000000 -0.005111 0.000000
# 3 -0.005782 0.000901 0.023562 0.000000 -0.015123 0.000000
# 4 0.000000 0.000000 0.000000 -0.035497 0.000000 -0.027454
# 5 0.000137 -0.005111 -0.015123 0.000000 0.040633 0.000000
# 6 0.000000 0.000000 0.000000 -0.027454 0.000000 0.012242
#
#
# Mechanical properties :
#
#
# Convention : Reuss Voigt Hill
#
# Bulk Modulus (GPa) = 26.77175 46.54201 36.65688
# Shear Modulus (GPa) = 60.76224 29.86422 45.31323
#
# Velocity S-wave (km/s) = 5.35351 3.75316 4.62311
# Velocity P-wave (km/s) = 7.13029 6.38235 6.76666
#
# Compressibility (1/GPa) = 0.03735281
#
# Stress axis : x y z
#
# Youngs Moduli (GPa) = 132.52083 72.47499 42.44134
#
# Poissons Ratio (x) = -0.08002 0.24539
# Poissons Ratio (y) = -0.14632 -0.03825
# Poissons Ratio (z) = 0.76621 -0.06531
#
# Static dielectric constant tensor:
#      x y z
#    x 1.730890 0.000000 0.012970 
#    y 0.000000 1.808140 0.000000 
#    z 0.012970 0.000000 1.742190 
# 
# From -- ./inp_files/34654.got.cif
#   From: 2010.05.17/outbox.cif.g08.bks.cpg/sg10_18_cif.got.tgz:34654.got - 2010.06.03 11:33:40.
