data_PCOD9142480
_publ_section_title
;
Structure prediction by ZEFSAII (Michael W. Deem and Ramdas Pophale) SiO2 
 PCOD9142480
Probable space group: P 2/M
;
_chemical_formula_sum "Si O2"
_cell_formula_units_Z 30
_cell_length_a 5.303086
_cell_length_b 22.279858
_cell_length_c 18.735193
_cell_angle_alpha 90.000000
_cell_angle_beta 84.078748
_cell_angle_gamma 90.000000
_cell_volume 2201.790183
_symmetry_space_group_name_H-M "P 2/M"
_symmetry_group_IT_number 10
_symmetry_cell_setting 'monoclinic'
loop_
_space_group_symop_operation_xyz
x,y,z
-x,y,-z
-x,-y,-z
x,-y,z
loop_
_atom_site_type_symbol
_atom_site_label
_atom_site_fract_x
_atom_site_fract_y
_atom_site_fract_z
Si Si1 0.916311 0.773936 0.418596
Si Si2 0.500000 0.833330 0.500000
Si Si3 0.091652 0.072854 0.831042
Si Si4 0.558333 0.927328 0.918322
Si Si5 0.971718 0.361441 0.587285
Si Si6 0.600536 0.932454 0.596777
Si Si7 0.948095 0.890817 0.328749
Si Si8 0.528467 0.430777 0.412551
O O1 0.619054 0.789370 0.437998
O O2 0.996360 0.824867 0.360600
O O3 0.000000 0.779836 0.500000
O O4 0.989817 0.707697 0.392704
O O5 0.673452 0.882049 0.536226
O O6 0.338845 0.090102 0.869295
O O7 0.083774 0.104276 0.754661
O O8 0.837211 0.088137 0.882131
O O9 0.096531 0.000000 0.819920
O O10 0.550813 0.000000 0.921398
O O11 0.500000 0.905408 0.000000
O O12 0.699912 0.390454 0.610618
O O13 0.000000 0.361917 0.500000
O O14 0.199417 0.401783 0.610610
O O15 0.314000 0.916610 0.629767
O O16 0.804466 0.927417 0.653901
O O17 0.610772 0.000000 0.568923
O O18 0.500000 0.430537 0.500000
O O19 0.510082 0.500000 0.390345
#
# Coordination Sequence:
#
# PCOD9142480 Si02
#       8
#     4   2   4   4   4   4   4   4
#     4  10  20  33  44  57  78 102 144 171 205 238
#     4  10  21  32  44  56  71  96 132 182 210 246
#     4  10  18  29  44  62  83 103 125 154 201 248
#     4   9  17  29  46  65  82  99 120 149 189 246
#     4   9  18  25  43  56  73 100 123 157 195 237
#     4  11  21  33  45  57  73  95 130 170 217 253
#     4  11  22  33  46  61  80 106 130 171 206 248
#     4   9  16  27  39  59  78  93 115 149 199 249
#
# _framework density 13.625275999999999
#
# number of rings (size 3 to 8) (size 9 to 14) (size 15 to 20)
#    0.000    2.133    1.333    3.000    4.667    4.267 
#    0.000    2.000    0.000    0.000    0.000    0.000 
#    0.000    0.000    0.000    0.000    0.000    0.000 
#
# Total GULP energy -167066.773974 kJ/mol
# GULP energy per Si atom -5568.892466 kJ/mol
# Density = 1.359426 g / cm^3
# Si number density = 13.625276 Si / 1000 Ang^3
#
#
#
# Elastic Constant Matrix: (Units=GPa)
#
#
# Indices 1 2 3 4 5 6 
#
# 1 67.2942 31.1722 -0.7822 0.0000 8.1654 0.0000
# 2 31.1722 95.9189 11.0618 0.0000 3.5496 0.0000
# 3 -0.7822 11.0618 38.1735 0.0000 5.1556 0.0000
# 4 0.0000 0.0000 0.0000 4.3052 0.0000 2.6448
# 5 8.1654 3.5496 5.1556 0.0000 16.4272 0.0000
# 6 0.0000 0.0000 0.0000 2.6448 0.0000 9.8659
#
#
#
# Elastic Compliance Matrix: (Units=1/GPa)
#
#
# Indices 1 2 3 4 5 6 
#
# 1 0.018873 -0.006189 0.003411 0.000000 -0.009114 0.000000
# 2 -0.006189 0.012847 -0.004062 0.000000 0.001576 0.000000
# 3 0.003411 -0.004062 0.028773 0.000000 -0.009848 0.000000
# 4 0.000000 0.000000 0.000000 0.278075 0.000000 -0.074545
# 5 -0.009114 0.001576 -0.009848 0.000000 0.068155 0.000000
# 6 0.000000 0.000000 0.000000 -0.074545 0.000000 0.121343
#
#
# Mechanical properties :
#
#
# Convention : Reuss Voigt Hill
#
# Bulk Modulus (GPa) = 21.36203 31.58779 26.47491
# Shear Modulus (GPa) = 8.97099 16.78198 12.87649
#
# Velocity S-wave (km/s) = 2.56873 3.51334 3.07749
# Velocity P-wave (km/s) = 4.95077 6.30013 5.66576
#
# Compressibility (1/GPa) = 0.04681203
#
# Stress axis : x y z
#
# Youngs Moduli (GPa) = 52.98629 77.83827 34.75431
#
# Poissons Ratio (x) = 0.48178 -0.11856
# Poissons Ratio (y) = 0.32796 0.14119
# Poissons Ratio (z) = -0.18075 0.31621
#
# Static dielectric constant tensor:
#      x y z
#    x 1.541360 0.000000 0.006730 
#    y 0.000000 1.439740 0.000000 
#    z 0.006730 0.000000 1.438610 
# 
# From -- ./inp_files/59548.got.cif
#   From: 2010.05.17/outbox.cif.g08.bks.cpg/sg10_30_cif.got.tgz:59548.got - 2010.06.03 11:33:40.
