data_PCOD9142489
_publ_section_title
;
Structure prediction by ZEFSAII (Michael W. Deem and Ramdas Pophale) SiO2 
 PCOD9142489
Probable space group: P 2/M
;
_chemical_formula_sum "Si O2"
_cell_formula_units_Z 28
_cell_length_a 20.101493
_cell_length_b 8.006192
_cell_length_c 15.750248
_cell_angle_alpha 90.000000
_cell_angle_beta 44.328932
_cell_angle_gamma 90.000000
_cell_volume 1771.250804
_symmetry_space_group_name_H-M "P 2/M"
_symmetry_group_IT_number 10
_symmetry_cell_setting 'monoclinic'
loop_
_space_group_symop_operation_xyz
x,y,z
-x,y,-z
-x,-y,-z
x,-y,z
loop_
_atom_site_type_symbol
_atom_site_label
_atom_site_fract_x
_atom_site_fract_y
_atom_site_fract_z
Si Si1 0.679079 0.195713 0.977915
Si Si2 0.286317 0.802534 0.246437
Si Si3 0.856192 0.000000 0.070399
Si Si4 0.517141 0.302966 0.887508
Si Si5 0.921539 0.701119 0.504549
Si Si6 0.076498 0.000000 0.806242
Si Si7 0.817844 0.312715 0.995054
Si Si8 0.966298 0.305012 0.269134
O O1 0.704840 0.260523 0.859365
O O2 0.738589 0.288032 0.995342
O O3 0.704137 0.000000 0.959144
O O4 0.565305 0.217251 0.091472
O O5 0.371267 0.729274 0.226473
O O6 0.182566 0.765579 0.376781
O O7 0.302218 0.000000 0.228237
O O8 0.857915 0.000000 0.170471
O O9 0.811492 0.833936 0.070007
O O10 0.967028 0.000000 0.939629
O O11 0.499106 0.500000 0.900772
O O12 0.500000 0.241966 0.000000
O O13 0.918973 0.500000 0.513352
O O14 0.950246 0.740771 0.381989
O O15 0.000000 0.763591 0.500000
O O16 0.085434 0.831842 0.742328
O O17 0.812285 0.500000 0.036229
O O18 0.921499 0.296080 0.855881
O O19 0.937372 0.500000 0.282453
#
# Coordination Sequence:
#
# PCOD9142489 Si02
#       8
#     4   4   2   4   4   2   4   4
#     4  10  18  29  44  65  95 124 156 195 232 277
#     4  10  20  30  43  64  90 124 162 198 231 267
#     4   9  18  32  46  72  92 117 153 189 234 286
#     4   9  17  29  44  61  84 120 160 193 231 275
#     4  10  20  33  46  64  93 126 163 201 229 262
#     4   9  18  32  51  64  93 123 151 193 236 281
#     4  10  18  30  48  69  96 124 153 190 234 282
#     4   9  19  32  47  68  93 126 163 195 229 271
#
# _framework density 15.808038
#
# number of rings (size 3 to 8) (size 9 to 14) (size 15 to 20)
#    0.000    2.429    0.714    2.143    1.000    5.429 
#    0.000    2.857    0.000    0.000    0.000    0.000 
#    0.000    2.286    0.000    6.000    0.000    0.286 
#
# Total GULP energy -156040.888344 kJ/mol
# GULP energy per Si atom -5572.888869 kJ/mol
# Density = 1.577206 g / cm^3
# Si number density = 15.808038 Si / 1000 Ang^3
#
#
#
# Elastic Constant Matrix: (Units=GPa)
#
#
# Indices 1 2 3 4 5 6 
#
# 1 99.6243 55.4147 33.3863 0.0000 8.6054 0.0000
# 2 55.4147 79.5984 26.3933 0.0000 11.4256 0.0000
# 3 33.3863 26.3933 42.4054 0.0000 -1.0357 0.0000
# 4 0.0000 0.0000 0.0000 17.9134 0.0000 -4.0035
# 5 8.6054 11.4256 -1.0357 0.0000 22.1404 0.0000
# 6 0.0000 0.0000 0.0000 -4.0035 0.0000 20.4388
#
#
#
# Elastic Compliance Matrix: (Units=1/GPa)
#
#
# Indices 1 2 3 4 5 6 
#
# 1 0.018535 -0.009661 -0.008644 0.000000 -0.002623 0.000000
# 2 -0.009661 0.022709 -0.006730 0.000000 -0.008279 0.000000
# 3 -0.008644 -0.006730 0.034783 0.000000 0.008460 0.000000
# 4 0.000000 0.000000 0.000000 0.058380 0.000000 0.011435
# 5 -0.002623 -0.008279 0.008460 0.000000 0.050854 0.000000
# 6 0.000000 0.000000 0.000000 0.011435 0.000000 0.051166
#
#
# Mechanical properties :
#
#
# Convention : Reuss Voigt Hill
#
# Bulk Modulus (GPa) = 38.52560 50.22408 44.37484
# Shear Modulus (GPa) = 16.94069 19.19411 18.06740
#
# Velocity S-wave (km/s) = 3.27716 3.48832 3.38439
# Velocity P-wave (km/s) = 6.22443 6.93287 6.58818
#
# Compressibility (1/GPa) = 0.02595677
#
# Stress axis : x y z
#
# Youngs Moduli (GPa) = 53.95284 44.03605 28.75001
#
# Poissons Ratio (x) = 0.42543 0.24851
# Poissons Ratio (y) = 0.52123 0.19349
# Poissons Ratio (z) = 0.46635 0.29636
#
# Static dielectric constant tensor:
#      x y z
#    x 1.523250 0.000000 -0.011870 
#    y 0.000000 1.553950 0.000000 
#    z -0.011870 0.000000 1.515380 
# 
# From -- ./inp_files/68655.got.cif
#   From: 2010.05.17/outbox.cif.g08.bks.cpg/sg10_35_cif.got.tgz:68655.got - 2010.06.03 11:33:40.
