data_PCOD9142853
_publ_section_title
;
Structure prediction by ZEFSAII (Michael W. Deem and Ramdas Pophale) SiO2 
 PCOD9142853
Probable space group: P 2/M
;
_chemical_formula_sum "Si O2"
_cell_formula_units_Z 32
_cell_length_a 29.407446
_cell_length_b 7.750244
_cell_length_c 15.015423
_cell_angle_alpha 90.000000
_cell_angle_beta 151.190363
_cell_angle_gamma 90.000000
_cell_volume 1649.180292
_symmetry_space_group_name_H-M "P 2/M"
_symmetry_group_IT_number 10
_symmetry_cell_setting 'monoclinic'
loop_
_space_group_symop_operation_xyz
x,y,z
-x,y,-z
-x,-y,-z
x,-y,z
loop_
_atom_site_type_symbol
_atom_site_label
_atom_site_fract_x
_atom_site_fract_y
_atom_site_fract_z
Si Si1 0.708579 0.290346 0.215251
Si Si2 0.233311 0.193923 0.157245
Si Si3 0.875607 0.711647 0.374209
Si Si4 0.639028 0.294959 0.469095
Si Si5 0.606297 0.711502 0.212471
Si Si6 0.388925 0.702961 0.288109
Si Si7 0.910257 0.296032 0.237807
Si Si8 0.438949 0.710184 0.186214
O O1 0.715024 0.500000 0.229470
O O2 0.799171 0.228160 0.315238
O O3 0.682851 0.232045 0.270278
O O4 0.617777 0.247986 0.999376
O O5 0.269528 0.268902 0.312920
O O6 0.323269 0.204958 0.245714
O O7 0.206425 0.000000 0.129671
O O8 0.149544 0.269744 0.953701
O O9 0.870517 0.500000 0.367074
O O10 0.861751 0.766727 0.246916
O O11 0.982004 0.767792 0.581175
O O12 0.625716 0.500000 0.439641
O O13 0.634031 0.229548 0.359291
O O14 0.546016 0.227808 0.361082
O O15 0.605434 0.500000 0.211089
O O16 0.500000 0.762500 0.000000
O O17 0.500000 0.711806 0.500000
O O18 0.361053 0.500000 0.244457
O O19 0.383614 0.769993 0.178444
O O20 0.918818 0.500000 0.265233
O O21 0.441097 0.500000 0.198887
#
# Coordination Sequence:
#
# PCOD9142853 Si02
#       8
#     4   4   4   4   4   4   4   4
#     4   9  14  22  41  74 106 124 147 198 257 295
#     4  12  24  34  46  68  99 136 169 207 249 287
#     4   8  15  28  51  78 101 123 157 207 255 296
#     4  10  18  31  48  69  97 133 170 199 232 289
#     4   9  15  24  43  73 105 129 156 200 249 292
#     4  10  18  30  48  68  92 129 167 197 231 285
#     4   9  17  33  54  75  98 129 166 202 245 302
#     4   9  15  24  43  70  99 127 157 190 232 287
#
# _framework density 19.403580000000002
#
# number of rings (size 3 to 8) (size 9 to 14) (size 15 to 20)
#    0.000    2.500    2.500    2.625    0.000    2.250 
#    0.000    1.250    0.000    1.125    0.000    7.000 
#    0.000    0.000    0.000    0.000    0.000    0.000 
#
# Total GULP energy -178371.664985 kJ/mol
# GULP energy per Si atom -5574.114531 kJ/mol
# Density = 1.935942 g / cm^3
# Si number density = 19.403580 Si / 1000 Ang^3
#
#
#
# Elastic Constant Matrix: (Units=GPa)
#
#
# Indices 1 2 3 4 5 6 
#
# 1 118.5227 3.2964 63.7615 0.0000 -16.3962 0.0000
# 2 3.2964 19.1629 0.0018 0.0000 1.4666 0.0000
# 3 63.7615 0.0018 109.9542 0.0000 -17.5697 0.0000
# 4 0.0000 0.0000 0.0000 -34.1140 0.0000 2.9713
# 5 -16.3962 1.4666 -17.5697 0.0000 33.7680 0.0000
# 6 0.0000 0.0000 0.0000 2.9713 0.0000 -16.2662
#
#
#
# Elastic Compliance Matrix: (Units=1/GPa)
#
#
# Indices 1 2 3 4 5 6 
#
# 1 0.012558 -0.002361 -0.006862 0.000000 0.002630 0.000000
# 2 -0.002361 0.052818 0.000893 0.000000 -0.002976 0.000000
# 3 -0.006862 0.000893 0.013672 0.000000 0.003743 0.000000
# 4 0.000000 0.000000 0.000000 -0.029787 0.000000 -0.005441
# 5 0.002630 -0.002976 0.003743 0.000000 0.032968 0.000000
# 6 0.000000 0.000000 0.000000 -0.005441 0.000000 -0.062471
#
#
# Mechanical properties :
#
#
# Convention : Reuss Voigt Hill
#
# Bulk Modulus (GPa) = 16.02884 42.41770 29.22327
# Shear Modulus (GPa) = 87.39141 8.71624 48.05382
#
# Velocity S-wave (km/s) = 6.71838 2.12175 4.98189
# Velocity P-wave (km/s) = 8.27410 5.28305 6.94159
#
# Compressibility (1/GPa) = 0.06238754
#
# Stress axis : x y z
#
# Youngs Moduli (GPa) = 79.62845 18.93297 73.14164
#
# Poissons Ratio (x) = 0.04470 0.50191
# Poissons Ratio (y) = 0.18800 -0.06530
# Poissons Ratio (z) = 0.54643 -0.01690
#
# Static dielectric constant tensor:
#      x y z
#    x 1.697730 0.000000 -0.035100 
#    y 0.000000 1.724950 0.000000 
#    z -0.035100 0.000000 1.748220 
# 
# From -- ./inp_files/66067.got.cif
#   From: 2010.05.17/outbox.cif.g08.bks.cpg/sg10_34_cif.got.tgz:66067.got - 2010.06.03 11:33:40.
