data_PCOD9142533
_publ_section_title
;
Structure prediction by ZEFSAII (Michael W. Deem and Ramdas Pophale) SiO2 
 PCOD9142533
Probable space group: P 2/M
;
_chemical_formula_sum "Si O2"
_cell_formula_units_Z 32
_cell_length_a 12.220095
_cell_length_b 7.355227
_cell_length_c 25.302919
_cell_angle_alpha 90.000000
_cell_angle_beta 137.261137
_cell_angle_gamma 90.000000
_cell_volume 1543.448912
_symmetry_space_group_name_H-M "P 2/M"
_symmetry_group_IT_number 10
_symmetry_cell_setting 'monoclinic'
loop_
_space_group_symop_operation_xyz
x,y,z
-x,y,-z
-x,-y,-z
x,-y,z
loop_
_atom_site_type_symbol
_atom_site_label
_atom_site_fract_x
_atom_site_fract_y
_atom_site_fract_z
Si Si1 0.034530 0.723442 0.643155
Si Si2 0.948067 0.293272 0.233157
Si Si3 0.017160 0.277186 0.142859
Si Si4 0.653049 0.722392 0.312633
Si Si5 0.415716 0.211800 0.916928
Si Si6 0.835766 0.290262 0.476663
Si Si7 0.271319 0.718786 0.034438
Si Si8 0.709307 0.721670 0.841052
O O1 0.034492 0.500000 0.642820
O O2 0.017881 0.787198 0.697247
O O3 0.206665 0.776793 0.678627
O O4 0.893377 0.785262 0.553222
O O5 0.009267 0.500000 0.257160
O O6 0.015206 0.212797 0.202536
O O7 0.754348 0.298183 0.157297
O O8 0.013104 0.500000 0.142838
O O9 0.169865 0.221789 0.162203
O O10 0.856416 0.218053 0.054535
O O11 0.655770 0.500000 0.314451
O O12 0.704278 0.785952 0.389574
O O13 0.474604 0.778974 0.233496
O O14 0.548329 0.230287 0.918394
O O15 0.381331 0.000000 0.914029
O O16 0.500000 0.286088 0.000000
O O17 0.789965 0.500000 0.470054
O O18 0.000000 0.290517 0.500000
O O19 0.263478 0.500000 0.031697
O O20 0.234323 0.779828 0.080706
O O21 0.710590 0.500000 0.841560
#
# Coordination Sequence:
#
# PCOD9142533 Si02
#       8
#     4   4   4   4   4   4   4   4
#     4   8  13  21  36  60  83 105 138 176 210 248
#     4  10  18  29  46  65  86 113 146 178 210 253
#     4   9  17  27  40  60  84 112 145 183 218 245
#     4   8  12  19  32  53  83 114 138 167 213 259
#     4  11  22  33  45  63  89 115 138 172 218 261
#     4   7  10  17  30  50  80 112 136 163 206 256
#     4  10  18  30  48  65  83 110 147 183 214 252
#     4   9  16  25  40  63  87 111 145 185 216 245
#
# _framework density 20.732790000000001
#
# number of rings (size 3 to 8) (size 9 to 14) (size 15 to 20)
#    0.000    3.000    1.250    3.000    0.000    4.000 
#    0.000    0.000    0.000    3.000    0.000    5.250 
#    0.000   12.500    0.000    1.125    0.000    1.375 
#
# Total GULP energy -178536.390456 kJ/mol
# GULP energy per Si atom -5579.262202 kJ/mol
# Density = 2.068560 g / cm^3
# Si number density = 20.732790 Si / 1000 Ang^3
#
#
#
# Elastic Constant Matrix: (Units=GPa)
#
#
# Indices 1 2 3 4 5 6 
#
# 1 126.6562 -0.7070 48.3551 0.0000 -38.7848 0.0000
# 2 -0.7070 77.8894 4.3771 0.0000 -4.1131 0.0000
# 3 48.3551 4.3771 96.7984 0.0000 -45.8600 0.0000
# 4 0.0000 0.0000 0.0000 -21.3592 0.0000 -11.4693
# 5 -38.7848 -4.1131 -45.8600 0.0000 37.5861 0.0000
# 6 0.0000 0.0000 0.0000 -11.4693 0.0000 -134.8201
#
#
#
# Elastic Compliance Matrix: (Units=1/GPa)
#
#
# Indices 1 2 3 4 5 6 
#
# 1 0.011588 0.000739 -0.000281 0.000000 0.011695 0.000000
# 2 0.000739 0.012962 0.000185 0.000000 0.002406 0.000000
# 3 -0.000281 0.000185 0.024494 0.000000 0.029616 0.000000
# 4 0.000000 0.000000 0.000000 -0.049059 0.000000 0.004174
# 5 0.011695 0.002406 0.029616 0.000000 0.075073 0.000000
# 6 0.000000 0.000000 0.000000 0.004174 0.000000 -0.007772
#
#
# Mechanical properties :
#
#
# Convention : Reuss Voigt Hill
#
# Bulk Modulus (GPa) = 19.86937 45.04381 32.45659
# Shear Modulus (GPa) = 60.40311 -7.09739 26.65286
#
# Velocity S-wave (km/s) = 5.40346 -1.85221 3.58933
# Velocity P-wave (km/s) = 6.96665 4.14714 5.73293
#
# Compressibility (1/GPa) = 0.05032872
#
# Stress axis : x y z
#
# Youngs Moduli (GPa) = 86.29377 77.14796 40.82644
#
# Poissons Ratio (x) = -0.05698 0.01149
# Poissons Ratio (y) = -0.06374 -0.00755
# Poissons Ratio (z) = 0.02428 -0.01426
#
# Static dielectric constant tensor:
#      x y z
#    x 1.707750 0.000000 -0.037880 
#    y 0.000000 1.809110 0.000000 
#    z -0.037880 0.000000 1.745850 
# 
# From -- ./inp_files/92457.got.cif
#   From: 2010.05.17/outbox.cif.g08.bks.cpg/sg10_47_cif.got.tgz:92457.got - 2010.06.03 11:33:40.
