data_PCOD9142196
_publ_section_title
;
Structure prediction by ZEFSAII (Michael W. Deem and Ramdas Pophale) SiO2 
 PCOD9142196
Probable space group: P 2/M
;
_chemical_formula_sum "Si O2"
_cell_formula_units_Z 32
_cell_length_a 24.484647
_cell_length_b 15.871150
_cell_length_c 24.020415
_cell_angle_alpha 90.000000
_cell_angle_beta 168.117710
_cell_angle_gamma 90.000000
_cell_volume 1921.952833
_symmetry_space_group_name_H-M "P 2/M"
_symmetry_group_IT_number 10
_symmetry_cell_setting 'monoclinic'
loop_
_space_group_symop_operation_xyz
x,y,z
-x,y,-z
-x,-y,-z
x,-y,z
loop_
_atom_site_type_symbol
_atom_site_label
_atom_site_fract_x
_atom_site_fract_y
_atom_site_fract_z
Si Si1 0.912460 0.398087 0.352089
Si Si2 0.850737 0.596190 0.651589
Si Si3 0.123108 0.827154 0.917180
Si Si4 0.405550 0.231501 0.465948
Si Si5 0.381302 0.904104 0.541679
Si Si6 0.413153 0.398521 0.784080
Si Si7 0.356616 0.672793 0.099639
Si Si8 0.094564 0.308365 0.989238
O O1 0.929390 0.500000 0.371455
O O2 0.000000 0.366390 0.500000
O O3 0.122029 0.372433 0.513725
O O4 0.616986 0.378974 0.037487
O O5 0.765306 0.500000 0.559209
O O6 0.098582 0.616961 0.858118
O O7 0.972520 0.612684 0.834478
O O8 0.596907 0.655179 0.383720
O O9 0.245065 0.768156 0.990847
O O10 0.107417 0.759666 0.951954
O O11 0.834087 0.867581 0.629552
O O12 0.334445 0.896415 0.145876
O O13 0.500000 0.200838 0.500000
O O14 0.393256 0.156270 0.499170
O O15 0.118927 0.273892 0.180413
O O16 0.615793 0.302810 0.695659
O O17 0.317564 0.000000 0.463070
O O18 0.416234 0.500000 0.777994
O O19 0.517692 0.354410 0.833083
#
# Coordination Sequence:
#
# PCOD9142196 Si02
#       8
#     4   4   4   4   4   4   4   4
#     4   9  17  28  40  55  81 120 161 196 228 261
#     4  11  20  31  48  67  89 115 148 191 232 269
#     4   9  18  32  47  65  91 120 145 171 213 274
#     4  10  19  32  50  68  88 114 143 177 219 261
#     4  10  19  32  50  71  92 114 144 175 207 261
#     4  10  18  27  41  62  87 115 155 200 229 251
#     4  11  20  31  46  68  94 119 150 188 234 272
#     4   9  18  32  47  64  86 116 147 174 215 274
#
# _framework density 16.649730999999999
#
# number of rings (size 3 to 8) (size 9 to 14) (size 15 to 20)
#    0.000    2.125    0.000    6.750    0.000    2.750 
#    0.000    0.000    0.000    6.750    0.000    0.000 
#    0.000    0.000    0.000    0.000    0.000   43.750 
#
# Total GULP energy -178256.713766 kJ/mol
# GULP energy per Si atom -5570.522305 kJ/mol
# Density = 1.661184 g / cm^3
# Si number density = 16.649731 Si / 1000 Ang^3
#
#
#
# Elastic Constant Matrix: (Units=GPa)
#
#
# Indices 1 2 3 4 5 6 
#
# 1 42.7990 17.0921 0.6222 0.0000 4.7118 0.0000
# 2 17.0921 32.6849 5.3266 0.0000 0.6226 0.0000
# 3 0.6222 5.3266 68.1201 0.0000 9.8130 0.0000
# 4 0.0000 0.0000 0.0000 16.6899 0.0000 2.9808
# 5 4.7118 0.6226 9.8130 0.0000 21.3618 0.0000
# 6 0.0000 0.0000 0.0000 2.9808 0.0000 9.9821
#
#
#
# Elastic Compliance Matrix: (Units=1/GPa)
#
#
# Indices 1 2 3 4 5 6 
#
# 1 0.030596 -0.016192 0.002025 0.000000 -0.007207 0.000000
# 2 -0.016192 0.039561 -0.003527 0.000000 0.004039 0.000000
# 3 0.002025 -0.003527 0.016049 0.000000 -0.007716 0.000000
# 4 0.000000 0.000000 0.000000 0.063292 0.000000 -0.018900
# 5 -0.007207 0.004039 -0.007716 0.000000 0.051829 0.000000
# 6 0.000000 0.000000 0.000000 -0.018900 0.000000 0.105823
#
#
# Mechanical properties :
#
#
# Convention : Reuss Voigt Hill
#
# Bulk Modulus (GPa) = 19.67901 21.07618 20.37760
# Shear Modulus (GPa) = 13.90910 17.64430 15.77670
#
# Velocity S-wave (km/s) = 2.89346 3.25889 3.08159
# Velocity P-wave (km/s) = 4.79665 5.18136 4.99271
#
# Compressibility (1/GPa) = 0.05081556
#
# Stress axis : x y z
#
# Youngs Moduli (GPa) = 32.68451 25.27767 62.30975
#
# Poissons Ratio (x) = 0.40930 -0.12617
# Poissons Ratio (y) = 0.52924 0.21979
# Poissons Ratio (z) = -0.06618 0.08916
#
# Static dielectric constant tensor:
#      x y z
#    x 1.589630 0.000000 -0.007470 
#    y 0.000000 1.570880 0.000000 
#    z -0.007470 0.000000 1.597770 
# 
# From -- ./inp_files/91146.got.cif
#   From: 2010.05.17/outbox.cif.g08.bks.cpg/sg10_46_cif.got.tgz:91146.got - 2010.06.03 11:33:40.
