data_PCOD9142537
_publ_section_title
;
Structure prediction by ZEFSAII (Michael W. Deem and Ramdas Pophale) SiO2 
 PCOD9142537
Probable space group: P 2/M
;
_chemical_formula_sum "Si O2"
_cell_formula_units_Z 28
_cell_length_a 16.192758
_cell_length_b 20.995350
_cell_length_c 5.334561
_cell_angle_alpha 90.000000
_cell_angle_beta 99.480960
_cell_angle_gamma 90.000000
_cell_volume 1788.831563
_symmetry_space_group_name_H-M "P 2/M"
_symmetry_group_IT_number 10
_symmetry_cell_setting 'monoclinic'
loop_
_space_group_symop_operation_xyz
x,y,z
-x,y,-z
-x,-y,-z
x,-y,z
loop_
_atom_site_type_symbol
_atom_site_label
_atom_site_fract_x
_atom_site_fract_y
_atom_site_fract_z
Si Si1 0.399386 0.572112 0.949693
Si Si2 0.409584 0.117765 0.454792
Si Si3 0.728157 0.771854 0.614078
Si Si4 0.398174 0.347663 0.449088
Si Si5 0.655001 0.930987 0.077500
Si Si6 0.202796 0.823114 0.851399
Si Si7 0.056286 0.072976 0.778143
O O1 0.365251 0.500000 0.932626
O O2 0.379691 0.611038 0.688336
O O3 0.500000 0.566845 0.000000
O O4 0.379691 0.611038 0.191357
O O5 0.500000 0.149968 0.500000
O O6 0.336332 0.169133 0.418166
O O7 0.398849 0.077090 0.699576
O O8 0.398849 0.077090 0.199274
O O9 0.665782 0.711563 0.582891
O O10 0.783870 0.780814 0.391643
O O11 0.783870 0.780814 0.892226
O O12 0.500000 0.332224 0.500000
O O13 0.722235 0.874813 0.111117
O O14 0.696339 0.000000 0.098169
O O15 0.121771 0.868760 0.810886
O O16 0.000000 0.077667 0.500000
O O17 0.092365 0.000000 0.796182
O O18 0.000000 0.077667 0.000000
#
# Coordination Sequence:
#
# PCOD9142537 Si02
#       7
#     4   4   4   4   4   4   4
#     4   9  17  28  43  65  91 120 158 205 246 269
#     4  10  20  31  42  57  79 106 144 191 223 254
#     4  10  20  32  46  64  87 121 155 182 224 266
#     4  10  18  29  46  65  90 125 167 205 228 262
#     4  10  20  31  44  59  77 107 139 176 229 271
#     4  10  20  34  48  65  91 114 142 182 223 276
#     4  10  20  34  54  76  93 113 145 185 231 285
#
# _framework density 15.652673999999999
#
# number of rings (size 3 to 8) (size 9 to 14) (size 15 to 20)
#    0.000    2.143    0.000    3.857    0.000    3.429 
#    0.000    8.571    0.000    0.000    0.000    0.000 
#    0.000    0.000    0.000    0.000    0.000  180.000 
#
# Total GULP energy -155934.846309 kJ/mol
# GULP energy per Si atom -5569.101654 kJ/mol
# Density = 1.561705 g / cm^3
# Si number density = 15.652674 Si / 1000 Ang^3
#
#
#
# Elastic Constant Matrix: (Units=GPa)
#
#
# Indices 1 2 3 4 5 6 
#
# 1 61.0738 29.8444 45.4513 0.0000 -8.7891 0.0000
# 2 29.8444 103.0820 62.8113 0.0000 -10.4594 0.0000
# 3 45.4513 62.8113 160.8821 0.0000 -22.8761 0.0000
# 4 0.0000 0.0000 0.0000 14.9218 0.0000 -6.6357
# 5 -8.7891 -10.4594 -22.8761 0.0000 26.1322 0.0000
# 6 0.0000 0.0000 0.0000 -6.6357 0.0000 -5.9942
#
#
#
# Elastic Compliance Matrix: (Units=1/GPa)
#
#
# Indices 1 2 3 4 5 6 
#
# 1 0.021655 -0.003297 -0.004549 0.000000 0.001982 0.000000
# 2 -0.003297 0.013248 -0.004163 0.000000 0.000550 0.000000
# 3 -0.004549 -0.004163 0.009904 0.000000 0.005474 0.000000
# 4 0.000000 0.000000 0.000000 0.044908 0.000000 -0.049714
# 5 0.001982 0.000550 0.005474 0.000000 0.043946 0.000000
# 6 0.000000 0.000000 0.000000 -0.049714 0.000000 -0.111793
#
#
# Mechanical properties :
#
#
# Convention : Reuss Voigt Hill
#
# Bulk Modulus (GPa) = 48.09854 66.80576 57.45215
# Shear Modulus (GPa) = 94.66992 19.47401 57.07196
#
# Velocity S-wave (km/s) = 7.78543 3.53105 6.04488
# Velocity P-wave (km/s) = 10.56469 7.70696 9.24689
#
# Compressibility (1/GPa) = 0.02079065
#
# Stress axis : x y z
#
# Youngs Moduli (GPa) = 46.17832 75.48501 100.96472
#
# Poissons Ratio (x) = 0.24885 0.45929
# Poissons Ratio (y) = 0.15224 0.42028
# Poissons Ratio (z) = 0.21007 0.31422
#
# Static dielectric constant tensor:
#      x y z
#    x 1.506060 0.000000 -0.013550 
#    y 0.000000 1.519940 0.000000 
#    z -0.013550 0.000000 1.548760 
# 
# From -- ./inp_files/9678.got.cif
#   From: 2010.05.17/outbox.cif.g08.bks.cpg/sg10_5_cif.got.tgz:9678.got - 2010.06.03 11:33:40.
