data_PCOD9142157
_publ_section_title
;
Structure prediction by ZEFSAII (Michael W. Deem and Ramdas Pophale) SiO2 
 PCOD9142157
Probable space group: P 2/M
;
_chemical_formula_sum "Si O2"
_cell_formula_units_Z 28
_cell_length_a 14.965483
_cell_length_b 9.743243
_cell_length_c 12.738960
_cell_angle_alpha 90.000000
_cell_angle_beta 136.857623
_cell_angle_gamma 90.000000
_cell_volume 1270.182128
_symmetry_space_group_name_H-M "P 2/M"
_symmetry_group_IT_number 10
_symmetry_cell_setting 'monoclinic'
loop_
_space_group_symop_operation_xyz
x,y,z
-x,y,-z
-x,-y,-z
x,-y,z
loop_
_atom_site_type_symbol
_atom_site_label
_atom_site_fract_x
_atom_site_fract_y
_atom_site_fract_z
Si Si1 0.903287 0.343419 0.050738
Si Si2 0.846678 0.834674 0.678422
Si Si3 0.047768 0.848305 0.437175
Si Si4 0.699485 0.837424 0.747954
Si Si5 0.521065 0.845473 0.779277
Si Si6 0.622950 0.344746 0.185825
Si Si7 0.776536 0.222744 0.130747
O O1 0.925393 0.500000 0.038618
O O2 0.827465 0.342908 0.097899
O O3 0.036233 0.256055 0.173248
O O4 0.807555 0.258825 0.893521
O O5 0.718725 0.815741 0.640110
O O6 0.849628 0.792201 0.558593
O O7 0.874694 0.000000 0.704351
O O8 0.910283 0.860459 0.257451
O O9 0.000000 0.770780 0.500000
O O10 0.096106 0.000000 0.510360
O O11 0.568217 0.811012 0.701633
O O12 0.727461 0.000000 0.790575
O O13 0.428198 0.738829 0.758031
O O14 0.466248 0.000000 0.733803
O O15 0.655424 0.844104 0.964612
O O16 0.663295 0.500000 0.246059
O O17 0.727741 0.266657 0.203589
O O18 0.500000 0.352983 0.000000
#
# Coordination Sequence:
#
# PCOD9142157 Si02
#       7
#     4   4   4   4   4   4   4
#     4  10  18  26  39  61  86 112 145 180 209 248
#     4   9  17  29  43  58  82 115 143 172 216 263
#     4   9  17  29  46  68  89 111 147 190 223 253
#     4   9  17  28  40  57  85 118 144 168 209 263
#     4   9  17  27  41  63  88 114 145 175 205 252
#     4   9  17  28  42  61  87 117 144 171 210 259
#     4   9  17  28  43  60  89 121 144 172 219 263
#
# _framework density 22.044083000000001
#
# number of rings (size 3 to 8) (size 9 to 14) (size 15 to 20)
#    0.000    2.857    0.000    1.714    0.000   12.286 
#    0.000    0.000    0.000   10.714    0.000    1.000 
#    0.000    6.857    0.000    0.000    0.000    0.000 
#
# Total GULP energy -155940.526503 kJ/mol
# GULP energy per Si atom -5569.304518 kJ/mol
# Density = 2.199391 g / cm^3
# Si number density = 22.044083 Si / 1000 Ang^3
#
#
#
# Elastic Constant Matrix: (Units=GPa)
#
#
# Indices 1 2 3 4 5 6 
#
# 1 216.0651 57.3490 34.7827 0.0000 -55.7646 0.0000
# 2 57.3490 80.0964 9.3176 0.0000 -6.0025 0.0000
# 3 34.7827 9.3176 46.4510 0.0000 6.4964 0.0000
# 4 0.0000 0.0000 0.0000 -3.9368 0.0000 -2.2576
# 5 -55.7646 -6.0025 6.4964 0.0000 44.3636 0.0000
# 6 0.0000 0.0000 0.0000 -2.2576 0.0000 13.7654
#
#
#
# Elastic Compliance Matrix: (Units=1/GPa)
#
#
# Indices 1 2 3 4 5 6 
#
# 1 0.011839 -0.006178 -0.009791 0.000000 0.015480 0.000000
# 2 -0.006178 0.016211 0.002199 0.000000 -0.005894 0.000000
# 3 -0.009791 0.002199 0.030728 0.000000 -0.016510 0.000000
# 4 0.000000 0.000000 0.000000 -0.232176 0.000000 -0.038078
# 5 0.015480 -0.005894 -0.016510 0.000000 0.043619 0.000000
# 6 0.000000 0.000000 0.000000 -0.038078 0.000000 0.066401
#
#
# Mechanical properties :
#
#
# Convention : Reuss Voigt Hill
#
# Bulk Modulus (GPa) = 32.01321 60.61234 46.31278
# Shear Modulus (GPa) = -196.65911 26.91598 -84.87156
#
# Velocity S-wave (km/s) = -9.45544 3.49808 -6.21164
# Velocity P-wave (km/s) = 10.23002 6.62353 5.51281
#
# Compressibility (1/GPa) = 0.03123710
#
# Stress axis : x y z
#
# Youngs Moduli (GPa) = 84.46310 61.68697 32.54398
#
# Poissons Ratio (x) = 0.38110 0.31864
# Poissons Ratio (y) = 0.52181 -0.07155
# Poissons Ratio (z) = 0.82699 -0.13563
#
# Static dielectric constant tensor:
#      x y z
#    x 1.860330 0.000000 -0.048260 
#    y 0.000000 1.757570 0.000000 
#    z -0.048260 0.000000 1.860060 
# 
# From -- ./inp_files/66256.got.cif
#   From: 2010.05.17/outbox.cif.g08.bks.cpg/sg10_34_cif.got.tgz:66256.got - 2010.06.03 11:33:40.
