data_PCOD9142111
_publ_section_title
;
Structure prediction by ZEFSAII (Michael W. Deem and Ramdas Pophale) SiO2 
 PCOD9142111
Probable space group: P 2/M
;
_chemical_formula_sum "Si O2"
_cell_formula_units_Z 20
_cell_length_a 8.469431
_cell_length_b 13.012552
_cell_length_c 9.359302
_cell_angle_alpha 90.000000
_cell_angle_beta 83.296384
_cell_angle_gamma 90.000000
_cell_volume 1024.426559
_symmetry_space_group_name_H-M "P 2/M"
_symmetry_group_IT_number 10
_symmetry_cell_setting 'monoclinic'
loop_
_space_group_symop_operation_xyz
x,y,z
-x,y,-z
-x,-y,-z
x,-y,z
loop_
_atom_site_type_symbol
_atom_site_label
_atom_site_fract_x
_atom_site_fract_y
_atom_site_fract_z
Si Si1 0.440478 0.324427 0.752412
Si Si2 0.500000 0.826894 0.500000
Si Si3 0.863675 0.884335 0.393186
Si Si4 0.659867 0.500000 0.772205
Si Si5 0.119324 0.272540 0.867656
Si Si6 0.983669 0.500000 0.203494
Si Si7 0.721335 0.500000 0.426594
O O1 0.517987 0.240223 0.642290
O O2 0.563014 0.398087 0.817493
O O3 0.309196 0.275737 0.869954
O O4 0.352742 0.401346 0.646954
O O5 0.676787 0.877128 0.462432
O O6 0.894841 0.795212 0.274175
O O7 0.000000 0.872422 0.500000
O O8 0.883396 0.000000 0.331532
O O9 0.829415 0.500000 0.823882
O O10 0.684660 0.500000 0.596820
O O11 0.075758 0.392689 0.853416
O O12 0.000000 0.231464 0.000000
O O13 0.906748 0.500000 0.369407
#
# Coordination Sequence:
#
# PCOD9142111 Si02
#       7
#     4   2   4   2   4   2   2
#     4   9  17  29  49  76 109 153 188 231 282 342
#     4  10  17  33  60  84 120 147 180 242 307 346
#     4  10  23  40  64  93 116 146 196 252 297 343
#     4  11  17  27  47  80 117 150 190 239 282 341
#     4  10  22  40  57  78 117 162 195 230 287 356
#     4  10  22  29  52  81 113 155 193 235 282 343
#     4   9  15  28  42  73 115 148 188 228 285 334
#
# _framework density 19.523119000000001
#
# number of rings (size 3 to 8) (size 9 to 14) (size 15 to 20)
#    0.000    2.200    2.000    2.100    2.800    0.400 
#    0.000    2.000    0.000    0.000    0.000    7.000 
#    0.000    0.000    0.000    0.000    0.000    0.000 
#
# Total GULP energy -111379.011071 kJ/mol
# GULP energy per Si atom -5568.950554 kJ/mol
# Density = 1.947868 g / cm^3
# Si number density = 19.523119 Si / 1000 Ang^3
#
#
#
# Elastic Constant Matrix: (Units=GPa)
#
#
# Indices 1 2 3 4 5 6 
#
# 1 88.4375 23.2151 31.2627 0.0000 -24.1456 0.0000
# 2 23.2151 90.7459 27.7900 0.0000 -7.6950 0.0000
# 3 31.2627 27.7900 85.8454 0.0000 -33.7843 0.0000
# 4 0.0000 0.0000 0.0000 5.1376 0.0000 19.4491
# 5 -24.1456 -7.6950 -33.7843 0.0000 26.2359 0.0000
# 6 0.0000 0.0000 0.0000 19.4491 0.0000 -178.8338
#
#
#
# Elastic Compliance Matrix: (Units=1/GPa)
#
#
# Indices 1 2 3 4 5 6 
#
# 1 0.015866 -0.003148 0.001266 0.000000 0.015309 0.000000
# 2 -0.003148 0.012980 -0.005469 0.000000 -0.006133 0.000000
# 3 0.001266 -0.005469 0.025922 0.000000 0.032941 0.000000
# 4 0.000000 0.000000 0.000000 0.137877 0.000000 0.014995
# 5 0.015309 -0.006133 0.032941 0.000000 0.092825 0.000000
# 6 0.000000 0.000000 0.000000 0.014995 0.000000 -0.003961
#
#
# Mechanical properties :
#
#
# Convention : Reuss Voigt Hill
#
# Bulk Modulus (GPa) = 24.95927 47.72938 36.34432
# Shear Modulus (GPa) = 16.15156 -17.30800 -0.57822
#
# Velocity S-wave (km/s) = 2.87941 -2.98071 -0.54481
# Velocity P-wave (km/s) = 4.88537 3.55732 4.27325
#
# Compressibility (1/GPa) = 0.04006528
#
# Stress axis : x y z
#
# Youngs Moduli (GPa) = 63.02766 77.04167 38.57680
#
# Poissons Ratio (x) = 0.24256 -0.04883
# Poissons Ratio (y) = 0.19844 0.21097
# Poissons Ratio (z) = -0.07979 0.42134
#
# Static dielectric constant tensor:
#      x y z
#    x 1.727850 0.000000 -0.035010 
#    y 0.000000 1.735920 0.000000 
#    z -0.035010 0.000000 1.712530 
# 
# From -- ./inp_files/41655.got.cif
#   From: 2010.05.17/outbox.cif.g08.bks.cpg/sg10_21_cif.got.tgz:41655.got - 2010.06.03 11:33:40.
