data_PCOD9142838
_publ_section_title
;
Structure prediction by ZEFSAII (Michael W. Deem and Ramdas Pophale) SiO2 
 PCOD9142838
Probable space group: P 2/M
;
_chemical_formula_sum "Si O2"
_cell_formula_units_Z 32
_cell_length_a 12.694122
_cell_length_b 8.891757
_cell_length_c 24.473001
_cell_angle_alpha 90.000000
_cell_angle_beta 133.875084
_cell_angle_gamma 90.000000
_cell_volume 1991.241518
_symmetry_space_group_name_H-M "P 2/M"
_symmetry_group_IT_number 10
_symmetry_cell_setting 'monoclinic'
loop_
_space_group_symop_operation_xyz
x,y,z
-x,y,-z
-x,-y,-z
x,-y,z
loop_
_atom_site_type_symbol
_atom_site_label
_atom_site_fract_x
_atom_site_fract_y
_atom_site_fract_z
Si Si1 0.304487 0.319618 0.575681
Si Si2 0.555342 0.318975 0.579775
Si Si3 0.946571 0.819491 0.586253
Si Si4 0.592176 0.318911 0.161555
Si Si5 0.824368 0.820472 0.160741
Si Si6 0.287393 0.819979 0.687734
Si Si7 0.134442 0.180679 0.318404
Si Si8 0.364044 0.326372 0.993888
O O1 0.301082 0.500000 0.579121
O O2 0.436614 0.276147 0.582532
O O3 0.155547 0.261959 0.494156
O O4 0.322662 0.245489 0.641165
O O5 0.500000 0.268413 0.500000
O O6 0.563916 0.500000 0.581908
O O7 0.715464 0.253353 0.646931
O O8 0.896958 0.776959 0.629655
O O9 0.117073 0.784456 0.639385
O O10 0.929556 0.000000 0.574193
O O11 0.599449 0.500000 0.164052
O O12 0.722063 0.255504 0.169935
O O13 0.615996 0.253201 0.229944
O O14 0.439250 0.275648 0.077257
O O15 0.991542 0.776692 0.232229
O O16 0.812101 0.000000 0.162578
O O17 0.761520 0.770068 0.079646
O O18 0.302786 0.000000 0.694093
O O19 0.147589 0.000000 0.321480
O O20 0.316991 0.500000 0.981665
O O21 0.500000 0.323419 0.000000
#
# Coordination Sequence:
#
# PCOD9142838 Si02
#       8
#     4   4   4   4   4   4   4   4
#     4  11  23  37  52  73  99 129 172 215 253 298
#     4  10  21  37  53  72  97 127 168 215 255 296
#     4  10  20  35  51  71 101 134 167 207 250 296
#     4  10  19  31  48  71 102 136 169 203 245 296
#     4  10  18  30  47  73 104 133 167 206 247 296
#     4  11  22  36  52  73 103 135 171 207 248 301
#     4  10  20  33  51  75 101 131 169 208 249 296
#     4   8  16  29  44  68 100 134 167 200 241 295
#
# _framework density 16.070374999999999
#
# number of rings (size 3 to 8) (size 9 to 14) (size 15 to 20)
#    0.000    2.000    2.500    2.625    0.000    7.500 
#    0.000    0.000    0.000    0.000    0.000    0.875 
#    0.000    7.000    0.000    0.000    0.000    0.000 
#
# Total GULP energy -178552.511812 kJ/mol
# GULP energy per Si atom -5579.765994 kJ/mol
# Density = 1.603380 g / cm^3
# Si number density = 16.070375 Si / 1000 Ang^3
#
#
#
# Elastic Constant Matrix: (Units=GPa)
#
#
# Indices 1 2 3 4 5 6 
#
# 1 51.5541 22.4347 44.0124 0.0000 -10.8507 0.0000
# 2 22.4347 35.8587 47.4184 0.0000 -3.6883 0.0000
# 3 44.0124 47.4184 160.2929 0.0000 -6.4714 0.0000
# 4 0.0000 0.0000 0.0000 31.9397 0.0000 1.0294
# 5 -10.8507 -3.6883 -6.4714 0.0000 18.7577 0.0000
# 6 0.0000 0.0000 0.0000 1.0294 0.0000 23.3394
#
#
#
# Elastic Compliance Matrix: (Units=1/GPa)
#
#
# Indices 1 2 3 4 5 6 
#
# 1 0.031598 -0.012464 -0.004411 0.000000 0.014306 0.000000
# 2 -0.012464 0.051082 -0.011738 0.000000 -0.001215 0.000000
# 3 -0.004411 -0.011738 0.010877 0.000000 -0.001107 0.000000
# 4 0.000000 0.000000 0.000000 0.031354 0.000000 -0.001383
# 5 0.014306 -0.001215 -0.001107 0.000000 0.060966 0.000000
# 6 0.000000 0.000000 0.000000 -0.001383 0.000000 0.042907
#
#
# Mechanical properties :
#
#
# Convention : Reuss Voigt Hill
#
# Bulk Modulus (GPa) = 27.52490 52.82628 40.17559
# Shear Modulus (GPa) = 16.77168 23.73005 20.25086
#
# Velocity S-wave (km/s) = 3.23405 3.84687 3.55369
# Velocity P-wave (km/s) = 5.57766 7.25771 6.47243
#
# Compressibility (1/GPa) = 0.03633074
#
# Stress axis : x y z
#
# Youngs Moduli (GPa) = 31.64756 19.57622 91.93299
#
# Poissons Ratio (x) = 0.24400 0.40554
# Poissons Ratio (y) = 0.39446 1.07911
# Poissons Ratio (z) = 0.13960 0.22979
#
# Static dielectric constant tensor:
#      x y z
#    x 1.508930 0.000000 -0.005270 
#    y 0.000000 1.537690 0.000000 
#    z -0.005270 0.000000 1.550500 
# 
# From -- ./inp_files/54794.got.cif
#   From: 2010.05.17/outbox.cif.g08.bks.cpg/sg10_28_cif.got.tgz:54794.got - 2010.06.03 11:33:40.
