data_PCOD9142648
_publ_section_title
;
Structure prediction by ZEFSAII (Michael W. Deem and Ramdas Pophale) SiO2 
 PCOD9142648
Probable space group: P 2/M
;
_chemical_formula_sum "Si O2"
_cell_formula_units_Z 28
_cell_length_a 15.259260
_cell_length_b 12.967391
_cell_length_c 9.833356
_cell_angle_alpha 90.000000
_cell_angle_beta 64.430153
_cell_angle_gamma 90.000000
_cell_volume 1755.186088
_symmetry_space_group_name_H-M "P 2/M"
_symmetry_group_IT_number 10
_symmetry_cell_setting 'monoclinic'
loop_
_space_group_symop_operation_xyz
x,y,z
-x,y,-z
-x,-y,-z
x,-y,z
loop_
_atom_site_type_symbol
_atom_site_label
_atom_site_fract_x
_atom_site_fract_y
_atom_site_fract_z
Si Si1 0.035379 0.735055 0.828501
Si Si2 0.064705 0.882051 0.318847
Si Si3 0.785524 0.879356 0.308452
Si Si4 0.551244 0.120803 0.821428
Si Si5 0.901977 0.381062 0.474953
Si Si6 0.579107 0.124950 0.337854
Si Si7 0.763050 0.192088 0.631957
O O1 0.124387 0.812071 0.798039
O O2 0.071115 0.648302 0.698458
O O3 0.962771 0.804010 0.783145
O O4 0.000000 0.698921 0.000000
O O5 0.174455 0.866843 0.295844
O O6 0.000000 0.863933 0.500000
O O7 0.046028 0.000000 0.289300
O O8 0.686547 0.840993 0.304492
O O9 0.775766 0.863559 0.477469
O O10 0.799640 0.000000 0.270415
O O11 0.467824 0.154114 0.772687
O O12 0.649419 0.186535 0.742428
O O13 0.577464 0.000000 0.773130
O O14 0.500000 0.124123 0.000000
O O15 0.872526 0.500000 0.506301
O O16 0.817621 0.302205 0.578994
O O17 0.000000 0.367380 0.500000
O O18 0.500000 0.159672 0.500000
O O19 0.583322 0.000000 0.340937
#
# Coordination Sequence:
#
# PCOD9142648 Si02
#       7
#     4   4   4   4   4   4   4
#     4  11  22  34  48  77 110 135 165 208 263 320
#     4  11  19  30  49  75 107 143 177 205 243 306
#     4  10  18  29  48  71 101 142 178 205 238 295
#     4  10  20  31  46  74 110 141 171 207 246 296
#     4  10  20  39  61  77  95 126 176 228 269 316
#     4   9  16  28  45  66  93 134 179 206 232 277
#     4  11  18  32  53  77  97 135 179 217 256 299
#
# _framework density 15.952724
#
# number of rings (size 3 to 8) (size 9 to 14) (size 15 to 20)
#    0.000    1.714    5.714    1.714    0.000    2.571 
#    0.000    1.429    0.000    0.429    0.000    8.000 
#    0.000    0.000    0.000    0.000    0.000    0.000 
#
# Total GULP energy -156052.940246 kJ/mol
# GULP energy per Si atom -5573.319294 kJ/mol
# Density = 1.591641 g / cm^3
# Si number density = 15.952724 Si / 1000 Ang^3
#
#
#
# Elastic Constant Matrix: (Units=GPa)
#
#
# Indices 1 2 3 4 5 6 
#
# 1 119.0470 13.7890 20.4772 0.0000 3.1929 0.0000
# 2 13.7890 65.9833 10.2375 0.0000 -3.2225 0.0000
# 3 20.4772 10.2375 51.4448 0.0000 6.7199 0.0000
# 4 0.0000 0.0000 0.0000 11.5321 0.0000 -0.2652
# 5 3.1929 -3.2225 6.7199 0.0000 24.1168 0.0000
# 6 0.0000 0.0000 0.0000 -0.2652 0.0000 16.6833
#
#
#
# Elastic Compliance Matrix: (Units=1/GPa)
#
#
# Indices 1 2 3 4 5 6 
#
# 1 0.009144 -0.001424 -0.003293 0.000000 -0.000483 0.000000
# 2 -0.001424 0.016082 -0.003050 0.000000 0.003187 0.000000
# 3 -0.003293 -0.003050 0.022159 0.000000 -0.006146 0.000000
# 4 0.000000 0.000000 0.000000 0.086746 0.000000 0.001379
# 5 -0.000483 0.003187 -0.006146 0.000000 0.043667 0.000000
# 6 0.000000 0.000000 0.000000 0.001379 0.000000 0.059962
#
#
# Mechanical properties :
#
#
# Convention : Reuss Voigt Hill
#
# Bulk Modulus (GPa) = 31.39600 36.16471 33.78036
# Shear Modulus (GPa) = 18.94574 23.26454 21.10514
#
# Velocity S-wave (km/s) = 3.44992 3.82297 3.64123
# Velocity P-wave (km/s) = 5.96596 6.49661 6.23693
#
# Compressibility (1/GPa) = 0.03185119
#
# Stress axis : x y z
#
# Youngs Moduli (GPa) = 109.35659 62.18241 45.12842
#
# Poissons Ratio (x) = 0.08852 0.14863
# Poissons Ratio (y) = 0.15568 0.13764
# Poissons Ratio (z) = 0.36016 0.18965
#
# Static dielectric constant tensor:
#      x y z
#    x 1.540760 0.000000 -0.008500 
#    y 0.000000 1.526290 0.000000 
#    z -0.008500 0.000000 1.526360 
# 
# From -- ./inp_files/28191.got.cif
#   From: 2010.05.17/outbox.cif.g08.bks.cpg/sg10_15_cif.got.tgz:28191.got - 2010.06.03 11:33:40.
