data_PCOD9142408
_publ_section_title
;
Structure prediction by ZEFSAII (Michael W. Deem and Ramdas Pophale) SiO2 
 PCOD9142408
Probable space group: P 2/M
;
_chemical_formula_sum "Si O2"
_cell_formula_units_Z 30
_cell_length_a 20.188730
_cell_length_b 15.594071
_cell_length_c 5.441676
_cell_angle_alpha 90.000000
_cell_angle_beta 74.374912
_cell_angle_gamma 90.000000
_cell_volume 1649.862088
_symmetry_space_group_name_H-M "P 2/M"
_symmetry_group_IT_number 10
_symmetry_cell_setting 'monoclinic'
loop_
_space_group_symop_operation_xyz
x,y,z
-x,y,-z
-x,-y,-z
x,-y,z
loop_
_atom_site_type_symbol
_atom_site_label
_atom_site_fract_x
_atom_site_fract_y
_atom_site_fract_z
Si Si1 0.231804 0.169581 0.018661
Si Si2 0.455296 0.000000 0.794686
Si Si3 0.395476 0.811160 0.854981
Si Si4 0.735139 0.902763 0.514364
Si Si5 0.809799 0.640553 0.940005
Si Si6 0.620026 0.245846 0.629499
Si Si7 0.726370 0.598129 0.523384
Si Si8 0.030973 0.600489 0.219050
O O1 0.223707 0.116842 0.277299
O O2 0.312255 0.199576 0.938292
O O3 0.223727 0.116786 0.776272
O O4 0.188815 0.256196 0.061468
O O5 0.500000 0.000000 0.500000
O O6 0.411907 0.912150 0.838188
O O7 0.500000 0.000000 0.000000
O O8 0.420316 0.766368 0.582185
O O9 0.420346 0.766516 0.078289
O O10 0.671581 0.836780 0.577843
O O11 0.710014 0.000000 0.539589
O O12 0.770745 0.612608 0.229487
O O13 0.770754 0.612577 0.728577
O O14 0.886969 0.606050 0.862942
O O15 0.666095 0.331127 0.583658
O O16 0.701662 0.500000 0.548031
O O17 0.010460 0.500000 0.239548
O O18 0.000000 0.638836 0.500000
O O19 0.000000 0.638836 0.000000
#
# Coordination Sequence:
#
# PCOD9142408 Si02
#       8
#     4   2   4   4   4   4   4   4
#     4  10  19  32  50  78 103 140 181 225 281 330
#     4  12  26  40  56  90 120 162 204 210 258 344
#     4  10  20  35  55  70 115 146 176 233 260 319
#     4  10  18  28  47  70 107 133 172 211 265 344
#     4  12  20  37  51  78 112 146 193 240 279 343
#     4  10  19  33  48  80 102 146 184 217 277 342
#     4  12  21  33  51  78 115 150 181 229 294 348
#     4  10  21  35  50  72 103 149 199 231 276 344
#
# _framework density 18.183337999999999
#
# number of rings (size 3 to 8) (size 9 to 14) (size 15 to 20)
#    0.000    1.333    5.333    3.200    7.467    1.067 
#    0.000    0.000    0.000    0.000    0.000    0.000 
#    0.000   21.333    0.000    0.000    0.000    0.000 
#
# Total GULP energy -167372.270947 kJ/mol
# GULP energy per Si atom -5579.075698 kJ/mol
# Density = 1.814195 g / cm^3
# Si number density = 18.183338 Si / 1000 Ang^3
#
#
#
# Elastic Constant Matrix: (Units=GPa)
#
#
# Indices 1 2 3 4 5 6 
#
# 1 35.1167 17.6939 49.7108 0.0000 8.7837 0.0000
# 2 17.6939 108.1222 35.0405 0.0000 6.9658 0.0000
# 3 49.7108 35.0405 171.1585 0.0000 46.6067 0.0000
# 4 0.0000 0.0000 0.0000 18.4752 0.0000 -0.5272
# 5 8.7837 6.9658 46.6067 0.0000 19.3044 0.0000
# 6 0.0000 0.0000 0.0000 -0.5272 0.0000 20.1397
#
#
#
# Elastic Compliance Matrix: (Units=1/GPa)
#
#
# Indices 1 2 3 4 5 6 
#
# 1 0.059024 -0.003346 -0.027653 0.000000 0.041115 0.000000
# 2 -0.003346 0.010195 -0.001542 0.000000 0.001566 0.000000
# 3 -0.027653 -0.001542 0.030977 0.000000 -0.061648 0.000000
# 4 0.000000 0.000000 0.000000 0.054167 0.000000 0.001418
# 5 0.041115 0.001566 -0.061648 0.000000 0.181367 0.000000
# 6 0.000000 0.000000 0.000000 0.001418 0.000000 0.049690
#
#
# Mechanical properties :
#
#
# Convention : Reuss Voigt Hill
#
# Bulk Modulus (GPa) = 28.47900 57.69863 43.08881
# Shear Modulus (GPa) = 10.81763 25.71400 18.26582
#
# Velocity S-wave (km/s) = 2.44174 3.76460 3.17288
# Velocity P-wave (km/s) = 4.86268 7.12017 6.09682
#
# Compressibility (1/GPa) = 0.03511360
#
# Stress axis : x y z
#
# Youngs Moduli (GPa) = 16.94214 98.08590 32.28223
#
# Poissons Ratio (x) = 0.32819 0.89272
# Poissons Ratio (y) = 0.05669 0.04978
# Poissons Ratio (z) = 0.46851 0.15124
#
# Static dielectric constant tensor:
#      x y z
#    x 1.609850 0.000000 0.072300 
#    y 0.000000 1.614400 0.000000 
#    z 0.072300 0.000000 1.784990 
# 
# From -- ./inp_files/11410.got.cif
#   From: 2010.05.17/outbox.cif.g08.bks.cpg/sg10_6_cif.got.tgz:11410.got - 2010.06.03 11:33:40.
