data_PCOD9142068
_publ_section_title
;
Structure prediction by ZEFSAII (Michael W. Deem and Ramdas Pophale) SiO2 
 PCOD9142068
Probable space group: P 2/M
;
_chemical_formula_sum "Si O2"
_cell_formula_units_Z 32
_cell_length_a 23.231825
_cell_length_b 16.720757
_cell_length_c 12.250443
_cell_angle_alpha 90.000000
_cell_angle_beta 20.218318
_cell_angle_gamma 90.000000
_cell_volume 1644.608619
_symmetry_space_group_name_H-M "P 2/M"
_symmetry_group_IT_number 10
_symmetry_cell_setting 'monoclinic'
loop_
_space_group_symop_operation_xyz
x,y,z
-x,y,-z
-x,-y,-z
x,-y,z
loop_
_atom_site_type_symbol
_atom_site_label
_atom_site_fract_x
_atom_site_fract_y
_atom_site_fract_z
Si Si1 0.698828 0.090606 0.124186
Si Si2 0.214248 0.406830 0.770843
Si Si3 0.764380 0.843316 0.230246
Si Si4 0.663514 0.322954 0.658649
Si Si5 0.474367 0.695027 0.417239
Si Si6 0.757877 0.206064 0.821374
Si Si7 0.522280 0.151195 0.837972
Si Si8 0.962468 0.272463 0.278370
O O1 0.500000 0.104049 0.500000
O O2 0.786097 0.102156 0.085770
O O3 0.717672 0.000000 0.051441
O O4 0.766351 0.151518 0.913554
O O5 0.178765 0.500000 0.838004
O O6 0.240667 0.375581 0.600314
O O7 0.384861 0.382263 0.527873
O O8 0.072431 0.352233 0.078043
O O9 0.646717 0.770451 0.394673
O O10 0.662036 0.884984 0.509303
O O11 0.931523 0.797824 0.968571
O O12 0.590122 0.242379 0.733933
O O13 0.791783 0.292970 0.521295
O O14 0.500000 0.364420 0.000000
O O15 0.500000 0.689284 0.500000
O O16 0.646538 0.717691 0.053420
O O17 0.921287 0.238383 0.471249
O O18 0.648858 0.157178 0.925215
O O19 0.500000 0.118407 0.000000
#
# Coordination Sequence:
#
# PCOD9142068 Si02
#       8
#     4   4   4   4   4   4   4   4
#     4  11  21  37  65  96 125 153 190 246 307 350
#     4  11  24  38  53  82 123 161 202 255 317 359
#     4  10  19  35  54  91 120 150 199 238 296 353
#     4  11  19  35  58  86 111 147 206 257 297 351
#     4  10  17  36  60  79 108 149 210 251 282 353
#     4  11  18  35  60  90 115 153 203 244 288 358
#     4  10  17  31  57  86 114 142 198 255 270 344
#     4  11  22  33  57  84 116 159 196 246 298 355
#
# _framework density 19.457516999999999
#
# number of rings (size 3 to 8) (size 9 to 14) (size 15 to 20)
#    0.000    1.375   10.000    0.375    0.000    2.000 
#    0.000    3.125    0.000    2.250    0.000    0.875 
#    0.000    0.000    0.000    0.000    0.000    0.000 
#
# Total GULP energy -178528.906513 kJ/mol
# GULP energy per Si atom -5579.028329 kJ/mol
# Density = 1.941323 g / cm^3
# Si number density = 19.457517 Si / 1000 Ang^3
#
#
#
# Elastic Constant Matrix: (Units=GPa)
#
#
# Indices 1 2 3 4 5 6 
#
# 1 93.0511 21.4750 31.9241 0.0000 27.3591 0.0000
# 2 21.4750 63.6117 37.6125 0.0000 6.0141 0.0000
# 3 31.9241 37.6125 106.9084 0.0000 23.5345 0.0000
# 4 0.0000 0.0000 0.0000 7.9234 0.0000 -1.7127
# 5 27.3591 6.0141 23.5345 0.0000 32.1038 0.0000
# 6 0.0000 0.0000 0.0000 -1.7127 0.0000 10.4955
#
#
#
# Elastic Compliance Matrix: (Units=1/GPa)
#
#
# Indices 1 2 3 4 5 6 
#
# 1 0.015310 -0.003647 -0.000676 0.000000 -0.011869 0.000000
# 2 -0.003647 0.020794 -0.007218 0.000000 0.004504 0.000000
# 3 -0.000676 -0.007218 0.013916 0.000000 -0.008273 0.000000
# 4 0.000000 0.000000 0.000000 0.130823 0.000000 0.021348
# 5 -0.011869 0.004504 -0.008273 0.000000 0.046485 0.000000
# 6 0.000000 0.000000 0.000000 0.021348 0.000000 0.098763
#
#
# Mechanical properties :
#
#
# Convention : Reuss Voigt Hill
#
# Bulk Modulus (GPa) = 37.12191 49.51050 43.31621
# Shear Modulus (GPa) = 13.96057 21.60851 17.78454
#
# Velocity S-wave (km/s) = 2.68151 3.33610 3.02655
# Velocity P-wave (km/s) = 5.35791 6.35139 5.87568
#
# Compressibility (1/GPa) = 0.02693827
#
# Stress axis : x y z
#
# Youngs Moduli (GPa) = 65.31697 48.09171 71.85745
#
# Poissons Ratio (x) = 0.17538 0.04858
# Poissons Ratio (y) = 0.23819 0.51867
# Poissons Ratio (z) = 0.04416 0.34713
#
# Static dielectric constant tensor:
#      x y z
#    x 1.723690 0.000000 0.007790 
#    y 0.000000 1.652300 0.000000 
#    z 0.007790 0.000000 1.756960 
# 
# From -- ./inp_files/57091.got.cif
#   From: 2010.05.17/outbox.cif.g08.bks.cpg/sg10_29_cif.got.tgz:57091.got - 2010.06.03 11:33:40.
