data_PCOD9142108
_publ_section_title
;
Structure prediction by ZEFSAII (Michael W. Deem and Ramdas Pophale) SiO2 
 PCOD9142108
Probable space group: P 2/M
;
_chemical_formula_sum "Si O2"
_cell_formula_units_Z 32
_cell_length_a 21.835820
_cell_length_b 15.244213
_cell_length_c 15.604942
_cell_angle_alpha 90.000000
_cell_angle_beta 160.295986
_cell_angle_gamma 90.000000
_cell_volume 1751.355387
_symmetry_space_group_name_H-M "P 2/M"
_symmetry_group_IT_number 10
_symmetry_cell_setting 'monoclinic'
loop_
_space_group_symop_operation_xyz
x,y,z
-x,y,-z
-x,-y,-z
x,-y,z
loop_
_atom_site_type_symbol
_atom_site_label
_atom_site_fract_x
_atom_site_fract_y
_atom_site_fract_z
Si Si1 0.603500 0.378513 0.552055
Si Si2 0.815168 0.898662 0.307926
Si Si3 0.018582 0.675875 0.927402
Si Si4 0.817560 0.096036 0.513513
Si Si5 0.484975 0.211601 0.801833
Si Si6 0.816258 0.149773 0.927430
Si Si7 0.618752 0.598380 0.376146
Si Si8 0.535415 0.825774 0.424785
O O1 0.500000 0.408914 0.500000
O O2 0.559724 0.408320 0.398418
O O3 0.566401 0.274318 0.496092
O O4 0.817185 0.392476 0.848555
O O5 0.848642 0.891329 0.453421
O O6 0.000000 0.882797 0.500000
O O7 0.758685 0.000000 0.216313
O O8 0.661801 0.831395 0.076219
O O9 0.829148 0.631489 0.653547
O O10 0.094606 0.753062 0.967494
O O11 0.000000 0.713696 0.000000
O O12 0.688141 0.172331 0.377127
O O13 0.728868 0.000000 0.408544
O O14 0.009144 0.096089 0.814592
O O15 0.484670 0.317750 0.800095
O O16 0.465958 0.177455 0.678892
O O17 0.657889 0.146333 0.790474
O O18 0.705086 0.126030 0.694225
O O19 0.601337 0.500000 0.316111
#
# Coordination Sequence:
#
# PCOD9142108 Si02
#       8
#     4   4   4   4   4   4   4   4
#     4   9  15  28  49  74 108 150 197 240 274 318
#     4  10  22  42  66  91 113 138 182 239 290 340
#     4   9  16  28  50  72 105 148 191 227 273 322
#     4  11  23  37  59  89 114 141 188 242 285 335
#     4  11  21  37  60  83 115 153 185 233 294 332
#     4  10  17  33  54  80 114 155 188 230 274 336
#     4  10  21  33  49  79 114 149 191 233 280 336
#     4   9  18  31  54  80 115 160 193 221 275 345
#
# _framework density 18.271561999999999
#
# number of rings (size 3 to 8) (size 9 to 14) (size 15 to 20)
#    0.000    2.125    3.750    2.250    0.000    3.500 
#    0.000    3.750    0.000    1.875    0.000    0.000 
#    0.000    0.000    0.000    0.000    0.000    0.000 
#
# Total GULP energy -178273.393762 kJ/mol
# GULP energy per Si atom -5571.043555 kJ/mol
# Density = 1.822998 g / cm^3
# Si number density = 18.271562 Si / 1000 Ang^3
#
#
#
# Elastic Constant Matrix: (Units=GPa)
#
#
# Indices 1 2 3 4 5 6 
#
# 1 74.6085 21.2867 14.7225 0.0000 9.7009 0.0000
# 2 21.2867 93.7326 37.7453 0.0000 -1.7868 0.0000
# 3 14.7225 37.7453 83.7717 0.0000 6.8456 0.0000
# 4 0.0000 0.0000 0.0000 -44.8715 0.0000 -16.8205
# 5 9.7009 -1.7868 6.8456 0.0000 24.9914 0.0000
# 6 0.0000 0.0000 0.0000 -16.8205 0.0000 -46.2164
#
#
#
# Elastic Compliance Matrix: (Units=1/GPa)
#
#
# Indices 1 2 3 4 5 6 
#
# 1 0.015258 -0.003293 -0.000711 0.000000 -0.005964 0.000000
# 2 -0.003293 0.013911 -0.006010 0.000000 0.003919 0.000000
# 3 -0.000711 -0.006010 0.015121 0.000000 -0.004296 0.000000
# 4 0.000000 0.000000 0.000000 -0.025807 0.000000 0.009392
# 5 -0.005964 0.003919 -0.004296 0.000000 0.043785 0.000000
# 6 0.000000 0.000000 0.000000 0.009392 0.000000 -0.025056
#
#
# Mechanical properties :
#
#
# Convention : Reuss Voigt Hill
#
# Bulk Modulus (GPa) = 41.21233 44.40241 42.80737
# Shear Modulus (GPa) = 76.53742 -1.32876 37.60433
#
# Velocity S-wave (km/s) = 6.47918 -0.85370 4.54153
# Velocity P-wave (km/s) = 8.86439 4.83553 7.14002
#
# Compressibility (1/GPa) = 0.02426459
#
# Stress axis : x y z
#
# Youngs Moduli (GPa) = 65.53772 71.88503 66.13377
#
# Poissons Ratio (x) = 0.23669 0.04700
# Poissons Ratio (y) = 0.21579 0.39743
# Poissons Ratio (z) = 0.04658 0.43200
#
# Static dielectric constant tensor:
#      x y z
#    x 1.635290 0.000000 0.008820 
#    y 0.000000 1.663140 0.000000 
#    z 0.008820 0.000000 1.632850 
# 
# From -- ./inp_files/70804.got.cif
#   From: 2010.05.17/outbox.cif.g08.bks.cpg/sg10_36_cif.got.tgz:70804.got - 2010.06.03 11:33:40.
