data_PCOD9142877
_publ_section_title
;
Structure prediction by ZEFSAII (Michael W. Deem and Ramdas Pophale) SiO2 
 PCOD9142877
Probable space group: P 2/M
;
_chemical_formula_sum "Si O2"
_cell_formula_units_Z 28
_cell_length_a 13.464687
_cell_length_b 15.358537
_cell_length_c 5.325147
_cell_angle_alpha 90.000000
_cell_angle_beta 93.394874
_cell_angle_gamma 90.000000
_cell_volume 1099.296668
_symmetry_space_group_name_H-M "P 2/M"
_symmetry_group_IT_number 10
_symmetry_cell_setting 'monoclinic'
loop_
_space_group_symop_operation_xyz
x,y,z
-x,y,-z
-x,-y,-z
x,-y,z
loop_
_atom_site_type_symbol
_atom_site_label
_atom_site_fract_x
_atom_site_fract_y
_atom_site_fract_z
Si Si1 0.123755 0.397473 0.855164
Si Si2 0.135120 0.296228 0.353786
Si Si3 0.634851 0.594207 0.090272
Si Si4 0.629261 0.671035 0.588478
Si Si5 0.067298 0.901900 0.261006
Si Si6 0.606798 0.847329 0.304925
Si Si7 0.621557 0.904333 0.809465
O O1 0.094189 0.500000 0.818757
O O2 0.098682 0.333324 0.618404
O O3 0.245120 0.398205 0.881285
O O4 0.094768 0.355446 0.118680
O O5 0.252589 0.316237 0.375798
O O6 0.120965 0.192790 0.299800
O O7 0.611496 0.500000 0.980336
O O8 0.604191 0.599972 0.375336
O O9 0.595150 0.658476 0.868057
O O10 0.595790 0.755209 0.430904
O O11 0.000000 0.905846 0.500000
O O12 0.117299 0.000000 0.250922
O O13 0.000000 0.895226 0.000000
O O14 0.663119 0.897809 0.535469
O O15 0.497010 0.887540 0.246436
O O16 0.657698 0.843774 0.041024
O O17 0.635999 0.000000 0.914747
#
# Coordination Sequence:
#
# PCOD9142877 Si02
#       7
#     4   4   4   4   4   4   4
#     4   9  17  30  52  79 107 137 163 196 250 312
#     4  10  19  33  54  78 106 132 165 213 258 297
#     4   9  17  30  47  71 101 132 163 194 232 293
#     4  10  19  30  49  78 103 123 156 203 256 294
#     4  10  21  38  58  75  95 134 185 219 243 290
#     4  10  18  30  48  71  97 124 157 199 237 281
#     4  10  19  33  50  68  91 128 171 196 227 293
#
# _framework density 25.470832999999999
#
# number of rings (size 3 to 8) (size 9 to 14) (size 15 to 20)
#    0.000    2.286    0.000    4.714    0.000    3.429 
#    0.000    2.143    0.000   10.286    0.000   40.000 
#    0.000    0.000    0.000    0.000    0.000    0.000 
#
# Total GULP energy -156247.808027 kJ/mol
# GULP energy per Si atom -5580.278858 kJ/mol
# Density = 2.541286 g / cm^3
# Si number density = 25.470833 Si / 1000 Ang^3
#
#
#
# Elastic Constant Matrix: (Units=GPa)
#
#
# Indices 1 2 3 4 5 6 
#
# 1 60.3084 -3.4419 37.4103 0.0000 7.9986 0.0000
# 2 -3.4419 179.4893 83.8529 0.0000 5.4331 0.0000
# 3 37.4103 83.8529 246.7786 0.0000 -20.9080 0.0000
# 4 0.0000 0.0000 0.0000 54.4543 0.0000 6.8619
# 5 7.9986 5.4331 -20.9080 0.0000 35.8222 0.0000
# 6 0.0000 0.0000 0.0000 6.8619 0.0000 17.2176
#
#
#
# Elastic Compliance Matrix: (Units=1/GPa)
#
#
# Indices 1 2 3 4 5 6 
#
# 1 0.020760 0.002874 -0.004790 0.000000 -0.007867 0.000000
# 2 0.002874 0.007229 -0.003198 0.000000 -0.003605 0.000000
# 3 -0.004790 -0.003198 0.006309 0.000000 0.005237 0.000000
# 4 0.000000 0.000000 0.000000 0.019335 0.000000 -0.007706
# 5 -0.007867 -0.003605 0.005237 0.000000 0.033275 0.000000
# 6 0.000000 0.000000 0.000000 -0.007706 0.000000 0.061151
#
#
# Mechanical properties :
#
#
# Convention : Reuss Voigt Hill
#
# Bulk Modulus (GPa) = 41.54386 80.24654 60.89520
# Shear Modulus (GPa) = 30.06413 46.08248 38.07331
#
# Velocity S-wave (km/s) = 3.43933 4.25811 3.87043
# Velocity P-wave (km/s) = 5.66725 7.46653 6.62823
#
# Compressibility (1/GPa) = 0.02407095
#
# Stress axis : x y z
#
# Youngs Moduli (GPa) = 48.16852 138.32373 158.51437
#
# Poissons Ratio (x) = -0.39757 0.75934
# Poissons Ratio (y) = -0.13844 0.50686
# Poissons Ratio (z) = 0.23074 0.44230
#
# Static dielectric constant tensor:
#      x y z
#    x 1.670130 0.000000 -0.360340 
#    y 0.000000 2.172510 0.000000 
#    z -0.360340 0.000000 1.799560 
# 
# From -- ./inp_files/11311.got.cif
#   From: 2010.05.17/outbox.cif.g08.bks.cpg/sg10_6_cif.got.tgz:11311.got - 2010.06.03 11:33:40.
