data_PCOD9142454
_publ_section_title
;
Structure prediction by ZEFSAII (Michael W. Deem and Ramdas Pophale) SiO2 
 PCOD9142454
Probable space group: P 2/M
;
_chemical_formula_sum "Si O2"
_cell_formula_units_Z 24
_cell_length_a 15.941694
_cell_length_b 14.029185
_cell_length_c 10.151561
_cell_angle_alpha 90.000000
_cell_angle_beta 37.385474
_cell_angle_gamma 90.000000
_cell_volume 1378.520416
_symmetry_space_group_name_H-M "P 2/M"
_symmetry_group_IT_number 10
_symmetry_cell_setting 'monoclinic'
loop_
_space_group_symop_operation_xyz
x,y,z
-x,y,-z
-x,-y,-z
x,-y,z
loop_
_atom_site_type_symbol
_atom_site_label
_atom_site_fract_x
_atom_site_fract_y
_atom_site_fract_z
Si Si1 0.741474 0.500000 0.681509
Si Si2 0.854602 0.704404 0.537762
Si Si3 0.513055 0.500000 0.198663
Si Si4 0.655707 0.000000 0.755801
Si Si5 0.565164 0.701713 0.275260
Si Si6 0.152284 0.784746 0.157730
Si Si7 0.145019 0.000000 0.242284
Si Si8 0.401489 0.200076 0.252565
O O1 0.839609 0.591664 0.570564
O O2 0.638633 0.500000 0.681990
O O3 0.630135 0.500000 0.938960
O O4 0.829623 0.754857 0.710674
O O5 0.726442 0.730083 0.605504
O O6 0.001797 0.744164 0.307435
O O7 0.538337 0.595967 0.250610
O O8 0.667558 0.096215 0.659724
O O9 0.745934 0.000000 0.774481
O O10 0.500000 0.000000 0.000000
O O11 0.500000 0.708568 0.500000
O O12 0.491001 0.773939 0.266400
O O13 0.725239 0.732964 0.072722
O O14 0.157500 0.900204 0.148168
O O15 0.000000 0.000000 0.500000
O O16 0.500000 0.208624 0.000000
#
# Coordination Sequence:
#
# PCOD9142454 Si02
#       8
#     2   4   2   2   4   4   2   4
#     4  11  20  34  64  97 114 151 194 263 302 354
#     4  11  20  34  60  88 124 148 192 248 308 347
#     4  11  21  37  63  86 119 156 208 240 301 360
#     4  10  18  28  54  85 112 147 192 245 290 346
#     4  12  25  41  59  85 123 166 203 245 295 363
#     4  11  22  36  57  94 124 154 194 252 302 350
#     4  12  18  34  60  93 126 151 194 253 309 352
#     4  11  18  36  58  86 114 153 200 246 298 349
#
# _framework density 17.409970999999999
#
# number of rings (size 3 to 8) (size 9 to 14) (size 15 to 20)
#    0.000    0.833    8.333    1.250    0.000    2.000 
#    0.000    2.500    0.000    1.000    0.000    3.500 
#    0.000    0.000    0.000    0.000    0.000    0.000 
#
# Total GULP energy -133899.596902 kJ/mol
# GULP energy per Si atom -5579.149871 kJ/mol
# Density = 1.737035 g / cm^3
# Si number density = 17.409971 Si / 1000 Ang^3
#
#
#
# Elastic Constant Matrix: (Units=GPa)
#
#
# Indices 1 2 3 4 5 6 
#
# 1 66.8602 23.3709 46.3715 0.0000 -14.7429 0.0000
# 2 23.3709 136.5503 31.6136 0.0000 -0.2061 0.0000
# 3 46.3715 31.6136 107.8771 0.0000 -6.5415 0.0000
# 4 0.0000 0.0000 0.0000 8.7060 0.0000 -10.5542
# 5 -14.7429 -0.2061 -6.5415 0.0000 31.1933 0.0000
# 6 0.0000 0.0000 0.0000 -10.5542 0.0000 8.4231
#
#
#
# Elastic Compliance Matrix: (Units=1/GPa)
#
#
# Indices 1 2 3 4 5 6 
#
# 1 0.024127 -0.001981 -0.009217 0.000000 0.009457 0.000000
# 2 -0.001981 0.008025 -0.001574 0.000000 -0.001213 0.000000
# 3 -0.009217 -0.001574 0.013601 0.000000 -0.001514 0.000000
# 4 0.000000 0.000000 0.000000 -0.221318 0.000000 -0.277312
# 5 0.009457 -0.001213 -0.001514 0.000000 0.036202 0.000000
# 6 0.000000 0.000000 0.000000 -0.277312 0.000000 -0.228752
#
#
# Mechanical properties :
#
#
# Convention : Reuss Voigt Hill
#
# Bulk Modulus (GPa) = 49.48243 57.11107 53.29675
# Shear Modulus (GPa) = -14.88829 23.65993 4.38582
#
# Velocity S-wave (km/s) = -2.92748 3.69044 1.58890
# Velocity P-wave (km/s) = 4.12998 7.14381 5.83484
#
# Compressibility (1/GPa) = 0.02020919
#
# Stress axis : x y z
#
# Youngs Moduli (GPa) = 41.44732 124.61231 73.52331
#
# Poissons Ratio (x) = 0.24688 0.67767
# Poissons Ratio (y) = 0.08212 0.11570
# Poissons Ratio (z) = 0.38202 0.19610
#
# Static dielectric constant tensor:
#      x y z
#    x 1.578770 0.000000 -0.020350 
#    y 0.000000 1.787960 0.000000 
#    z -0.020350 0.000000 1.572430 
# 
# From -- ./inp_files/29376.got.cif
#   From: 2010.05.17/outbox.cif.g08.bks.cpg/sg10_15_cif.got.tgz:29376.got - 2010.06.03 11:33:40.
