data_PCOD9142182
_publ_section_title
;
Structure prediction by ZEFSAII (Michael W. Deem and Ramdas Pophale) SiO2 
 PCOD9142182
Probable space group: P 2/M
;
_chemical_formula_sum "Si O2"
_cell_formula_units_Z 32
_cell_length_a 20.711410
_cell_length_b 7.583528
_cell_length_c 13.788927
_cell_angle_alpha 90.000000
_cell_angle_beta 58.824541
_cell_angle_gamma 90.000000
_cell_volume 1852.998786
_symmetry_space_group_name_H-M "P 2/M"
_symmetry_group_IT_number 10
_symmetry_cell_setting 'monoclinic'
loop_
_space_group_symop_operation_xyz
x,y,z
-x,y,-z
-x,-y,-z
x,-y,z
loop_
_atom_site_type_symbol
_atom_site_label
_atom_site_fract_x
_atom_site_fract_y
_atom_site_fract_z
Si Si1 0.680687 0.211345 0.567863
Si Si2 0.997107 0.704509 0.620071
Si Si3 0.455303 0.712199 0.826536
Si Si4 0.602245 0.791858 0.825755
Si Si5 0.682872 0.701332 0.955964
Si Si6 0.839620 0.288570 0.509652
Si Si7 0.459203 0.792113 0.437361
Si Si8 0.168362 0.717334 0.260793
O O1 0.649497 0.275811 0.696143
O O2 0.768959 0.250253 0.496239
O O3 0.622843 0.279666 0.531402
O O4 0.672018 0.000000 0.576731
O O5 0.995703 0.500000 0.652624
O O6 0.914630 0.777456 0.709006
O O7 0.000000 0.705568 0.500000
O O8 0.078216 0.781301 0.586599
O O9 0.453508 0.500000 0.826610
O O10 0.515826 0.767241 0.861376
O O11 0.488020 0.774480 0.698459
O O12 0.372319 0.779934 0.919869
O O13 0.631238 0.700276 0.899443
O O14 0.616051 0.000000 0.827967
O O15 0.699030 0.500000 0.972782
O O16 0.762324 0.779406 0.859047
O O17 0.847193 0.500000 0.510496
O O18 0.822412 0.227085 0.633537
O O19 0.500000 0.715015 0.500000
O O20 0.447951 0.000000 0.465363
O O21 0.169165 0.500000 0.260768
#
# Coordination Sequence:
#
# PCOD9142182 Si02
#       8
#     4   4   4   4   4   4   4   4
#     4   9  17  27  40  60  81 102 131 168 206 241
#     4   7  11  19  33  54  75 101 140 174 193 221
#     4  10  20  30  42  62  84 104 133 170 209 248
#     4  10  19  29  40  55  80 114 147 173 199 234
#     4  10  18  27  40  59  83 111 140 171 204 238
#     4   9  14  22  39  58  77 105 140 171 196 230
#     4   9  19  36  52  62  77 104 136 168 206 253
#     4   8  13  22  36  54  79 110 141 169 196 226
#
# _framework density 17.269306
#
# number of rings (size 3 to 8) (size 9 to 14) (size 15 to 20)
#    0.000    3.000    1.250    3.375    0.000    4.750 
#    0.000    0.000    0.000    4.125    0.000    0.000 
#    0.000    1.000    0.000   12.500    0.000    1.000 
#
# Total GULP energy -178177.119609 kJ/mol
# GULP energy per Si atom -5568.034988 kJ/mol
# Density = 1.723000 g / cm^3
# Si number density = 17.269306 Si / 1000 Ang^3
#
#
#
# Elastic Constant Matrix: (Units=GPa)
#
#
# Indices 1 2 3 4 5 6 
#
# 1 146.6966 -2.3247 61.7484 0.0000 -29.5847 0.0000
# 2 -2.3247 37.6506 -10.4779 0.0000 3.0952 0.0000
# 3 61.7484 -10.4779 43.5547 0.0000 -19.9686 0.0000
# 4 0.0000 0.0000 0.0000 23.1390 0.0000 -12.5005
# 5 -29.5847 3.0952 -19.9686 0.0000 32.7047 0.0000
# 6 0.0000 0.0000 0.0000 -12.5005 0.0000 21.4828
#
#
#
# Elastic Compliance Matrix: (Units=1/GPa)
#
#
# Indices 1 2 3 4 5 6 
#
# 1 0.018293 -0.006499 -0.027260 0.000000 0.000519 0.000000
# 2 -0.006499 0.030876 0.017508 0.000000 0.001888 0.000000
# 3 -0.027260 0.017508 0.074649 0.000000 0.019263 0.000000
# 4 0.000000 0.000000 0.000000 0.063031 0.000000 0.036676
# 5 0.000519 0.001888 0.019263 0.000000 0.042628 0.000000
# 6 0.000000 0.000000 0.000000 0.036676 0.000000 0.067890
#
#
# Mechanical properties :
#
#
# Convention : Reuss Voigt Hill
#
# Bulk Modulus (GPa) = 10.95109 36.19931 23.57520
# Shear Modulus (GPa) = 13.87700 27.39572 20.63636
#
# Velocity S-wave (km/s) = 2.83780 3.98726 3.46059
# Velocity P-wave (km/s) = 4.13432 6.49652 5.44506
#
# Compressibility (1/GPa) = 0.09131509
#
# Stress axis : x y z
#
# Youngs Moduli (GPa) = 54.66660 32.38793 13.39596
#
# Poissons Ratio (x) = 0.21050 0.36517
# Poissons Ratio (y) = 0.35530 -0.23453
# Poissons Ratio (z) = 1.49019 -0.56704
#
# Static dielectric constant tensor:
#      x y z
#    x 1.635770 0.000000 -0.050330 
#    y 0.000000 1.640980 0.000000 
#    z -0.050330 0.000000 1.583420 
# 
# From -- ./inp_files/54853.got.cif
#   From: 2010.05.17/outbox.cif.g08.bks.cpg/sg10_28_cif.got.tgz:54853.got - 2010.06.03 11:33:40.
