data_PCOD9142072
_publ_section_title
;
Structure prediction by ZEFSAII (Michael W. Deem and Ramdas Pophale) SiO2 
 PCOD9142072
Probable space group: P 2/M
;
_chemical_formula_sum "Si O2"
_cell_formula_units_Z 25
_cell_length_a 20.377863
_cell_length_b 13.612210
_cell_length_c 12.347421
_cell_angle_alpha 90.000000
_cell_angle_beta 160.018300
_cell_angle_gamma 90.000000
_cell_volume 1170.398949
_symmetry_space_group_name_H-M "P 2/M"
_symmetry_group_IT_number 10
_symmetry_cell_setting 'monoclinic'
loop_
_space_group_symop_operation_xyz
x,y,z
-x,y,-z
-x,-y,-z
x,-y,z
loop_
_atom_site_type_symbol
_atom_site_label
_atom_site_fract_x
_atom_site_fract_y
_atom_site_fract_z
Si Si1 0.372812 0.894656 0.495304
Si Si2 0.799057 0.689535 0.419923
Si Si3 0.866040 0.610015 0.188060
Si Si4 0.514370 0.306300 0.403050
Si Si5 0.593058 0.386126 0.298062
Si Si6 0.351078 0.110079 0.869327
Si Si7 0.000000 0.000000 0.000000
O O1 0.389475 0.800291 0.445917
O O2 0.427446 0.000000 0.528499
O O3 0.521109 0.876754 0.824767
O O4 0.162773 0.915934 0.219129
O O5 0.735933 0.677905 0.446345
O O6 0.797163 0.802526 0.379528
O O7 0.997444 0.637320 0.699947
O O8 0.621765 0.639537 0.078410
O O9 0.781271 0.500000 0.045420
O O10 0.000000 0.606298 0.500000
O O11 0.711551 0.693503 0.973002
O O12 0.500000 0.351980 0.500000
O O13 0.606741 0.363927 0.446338
O O14 0.629421 0.500000 0.332563
O O15 0.267278 0.000000 0.739138
O O16 0.500000 0.115432 0.000000
#
# Coordination Sequence:
#
# PCOD9142072 Si02
#       7
#     4   4   4   4   4   4   1
#     4   9  19  41  64  89 124 165 214 256 312 393
#     4  11  19  37  63  96 124 164 223 274 316 387
#     4  11  22  39  64  92 127 173 224 265 319 402
#     4  12  25  43  61  93 132 176 211 271 338 389
#     4  11  21  37  63  91 126 171 220 275 328 386
#     4  10  17  31  59  95 128 156 193 261 338 378
#     4   8  20  40  72  92 116 170 226 250 308 400
#
# _framework density 21.360239
#
# number of rings (size 3 to 8) (size 9 to 14) (size 15 to 20)
#    0.480    0.960    4.800    2.400    0.000    1.600 
#    5.760    0.800    0.000    4.800    0.000    0.000 
#    0.000    0.000    0.000    0.000    0.000    0.000 
#
# Total GULP energy -139190.384511 kJ/mol
# GULP energy per Si atom -5567.615380 kJ/mol
# Density = 2.131162 g / cm^3
# Si number density = 21.360239 Si / 1000 Ang^3
#
#
#
# Elastic Constant Matrix: (Units=GPa)
#
#
# Indices 1 2 3 4 5 6 
#
# 1 107.4331 14.7267 20.0401 0.0000 -1.5437 0.0000
# 2 14.7267 104.0246 25.7022 0.0000 9.9960 0.0000
# 3 20.0401 25.7022 19.5510 0.0000 9.6111 0.0000
# 4 0.0000 0.0000 0.0000 17.2430 0.0000 12.2796
# 5 -1.5437 9.9960 9.6111 0.0000 34.4421 0.0000
# 6 0.0000 0.0000 0.0000 12.2796 0.0000 15.1929
#
#
#
# Elastic Compliance Matrix: (Units=1/GPa)
#
#
# Indices 1 2 3 4 5 6 
#
# 1 0.012462 0.002249 -0.018177 0.000000 0.004978 0.000000
# 2 0.002249 0.014691 -0.022683 0.000000 0.002167 0.000000
# 3 -0.018177 -0.022683 0.112149 0.000000 -0.025527 0.000000
# 4 0.000000 0.000000 0.000000 0.136647 0.000000 -0.110444
# 5 0.004978 0.002167 -0.025527 0.000000 0.035752 0.000000
# 6 0.000000 0.000000 0.000000 -0.110444 0.000000 0.155086
#
#
# Mechanical properties :
#
#
# Convention : Reuss Voigt Hill
#
# Bulk Modulus (GPa) = 16.10871 39.10520 27.60696
# Shear Modulus (GPa) = 8.85421 24.74493 16.79957
#
# Velocity S-wave (km/s) = 2.03818 3.40730 2.80748
# Velocity P-wave (km/s) = 3.61894 5.81609 4.84374
#
# Compressibility (1/GPa) = 0.06207821
#
# Stress axis : x y z
#
# Youngs Moduli (GPa) = 80.24329 68.06838 8.91674
#
# Poissons Ratio (x) = -0.15305 0.16208
# Poissons Ratio (y) = -0.18043 0.20226
# Poissons Ratio (z) = 1.45859 1.54401
#
# Static dielectric constant tensor:
#      x y z
#    x 1.885830 0.000000 -0.227660 
#    y 0.000000 1.795040 0.000000 
#    z -0.227660 0.000000 2.175400 
# 
# From -- ./inp_files/56070.got.cif
#   From: 2010.05.17/outbox.cif.g08.bks.cpg/sg10_29_cif.got.tgz:56070.got - 2010.06.03 11:33:40.
