data_PCOD9142603
_publ_section_title
;
Structure prediction by ZEFSAII (Michael W. Deem and Ramdas Pophale) SiO2 
 PCOD9142603
Probable space group: P 2/M
;
_chemical_formula_sum "Si O2"
_cell_formula_units_Z 30
_cell_length_a 11.414541
_cell_length_b 7.748100
_cell_length_c 29.103851
_cell_angle_alpha 90.000000
_cell_angle_beta 30.781456
_cell_angle_gamma 90.000000
_cell_volume 1317.269288
_symmetry_space_group_name_H-M "P 2/M"
_symmetry_group_IT_number 10
_symmetry_cell_setting 'monoclinic'
loop_
_space_group_symop_operation_xyz
x,y,z
-x,y,-z
-x,-y,-z
x,-y,z
loop_
_atom_site_type_symbol
_atom_site_label
_atom_site_fract_x
_atom_site_fract_y
_atom_site_fract_z
Si Si1 0.293670 0.789064 0.448623
Si Si2 0.670486 0.307328 0.195021
Si Si3 0.632458 0.711380 0.055416
Si Si4 0.637425 0.208030 0.409087
Si Si5 0.000000 0.752943 0.000000
Si Si6 0.878344 0.293728 0.786429
Si Si7 0.045162 0.709704 0.136400
Si Si8 0.207419 0.203269 0.373837
O O1 0.504866 0.727792 0.408128
O O2 0.283889 0.732879 0.398795
O O3 0.046460 0.732556 0.552547
O O4 0.306304 0.000000 0.444738
O O5 0.615415 0.500000 0.228394
O O6 0.837725 0.319241 0.095240
O O7 0.423990 0.228108 0.268186
O O8 0.821623 0.222218 0.184533
O O9 0.656141 0.500000 0.056440
O O10 0.369622 0.764158 0.147085
O O11 0.735324 0.741410 0.969940
O O12 0.794908 0.812410 0.035825
O O13 0.500000 0.269862 0.500000
O O14 0.902937 0.255377 0.318210
O O15 0.626212 0.000000 0.412985
O O16 0.856734 0.500000 0.797922
O O17 0.927766 0.225260 0.821220
O O18 0.023400 0.500000 0.145103
O O19 0.176071 0.000000 0.389913
#
# Coordination Sequence:
#
# PCOD9142603 Si02
#       8
#     4   4   4   4   2   4   4   4
#     4   8  16  33  53  70  91 123 160 193 233 288
#     4  10  18  29  47  70  97 128 160 192 230 278
#     4   9  16  28  48  72  98 127 158 190 228 280
#     4  10  21  36  51  67  93 130 163 190 231 289
#     4  10  19  32  47  68 101 136 161 184 225 284
#     4  10  19  31  51  76  96 118 156 203 240 269
#     4   8  15  28  47  72  99 125 154 191 234 279
#     4   9  17  31  52  73  92 119 158 201 238 275
#
# _framework density 22.774387000000001
#
# number of rings (size 3 to 8) (size 9 to 14) (size 15 to 20)
#    0.000    2.800    0.000    4.000    0.000    2.933 
#    0.000    2.333    0.000    4.800    0.000    0.000 
#    0.000    0.000    0.000    0.000    0.000    0.000 
#
# Total GULP energy -167114.529282 kJ/mol
# GULP energy per Si atom -5570.484309 kJ/mol
# Density = 2.272255 g / cm^3
# Si number density = 22.774387 Si / 1000 Ang^3
#
#
#
# Elastic Constant Matrix: (Units=GPa)
#
#
# Indices 1 2 3 4 5 6 
#
# 1 51.6528 8.0353 41.3930 0.0000 -1.5569 0.0000
# 2 8.0353 33.1759 5.8276 0.0000 0.3026 0.0000
# 3 41.3930 5.8276 152.4203 0.0000 -30.2699 0.0000
# 4 0.0000 0.0000 0.0000 -5.4168 0.0000 -11.2030
# 5 -1.5569 0.3026 -30.2699 0.0000 27.6698 0.0000
# 6 0.0000 0.0000 0.0000 -11.2030 0.0000 -0.9945
#
#
#
# Elastic Compliance Matrix: (Units=1/GPa)
#
#
# Indices 1 2 3 4 5 6 
#
# 1 0.026835 -0.004904 -0.008674 0.000000 -0.007926 0.000000
# 2 -0.004904 0.031333 0.000014 0.000000 -0.000603 0.000000
# 3 -0.008674 0.000014 0.011267 0.000000 0.011837 0.000000
# 4 0.000000 0.000000 0.000000 0.008279 0.000000 -0.093265
# 5 -0.007926 -0.000603 0.011837 0.000000 0.048651 0.000000
# 6 0.000000 0.000000 0.000000 -0.093265 0.000000 0.045095
#
#
# Mechanical properties :
#
#
# Convention : Reuss Voigt Hill
#
# Bulk Modulus (GPa) = 23.63665 38.64009 31.13837
# Shear Modulus (GPa) = 23.50839 16.38458 19.94648
#
# Velocity S-wave (km/s) = 3.21632 2.68513 2.96265
# Velocity P-wave (km/s) = 4.91875 5.15912 5.04037
#
# Compressibility (1/GPa) = 0.04230719
#
# Stress axis : x y z
#
# Youngs Moduli (GPa) = 37.26447 31.91516 88.75650
#
# Poissons Ratio (x) = 0.15650 0.76989
# Poissons Ratio (y) = 0.18273 -0.00123
# Poissons Ratio (z) = 0.32324 -0.00044
#
# Static dielectric constant tensor:
#      x y z
#    x 1.846700 0.000000 -0.008840 
#    y 0.000000 1.894340 0.000000 
#    z -0.008840 0.000000 1.854110 
# 
# From -- ./inp_files/94863.got.cif
#   From: 2010.05.17/outbox.cif.g08.bks.cpg/sg10_48_cif.got.tgz:94863.got - 2010.06.03 11:33:40.
