data_PCOD9142661
_publ_section_title
;
Structure prediction by ZEFSAII (Michael W. Deem and Ramdas Pophale) SiO2 
 PCOD9142661
Probable space group: P 2/M
;
_chemical_formula_sum "Si O2"
_cell_formula_units_Z 20
_cell_length_a 22.309986
_cell_length_b 8.026783
_cell_length_c 7.414691
_cell_angle_alpha 90.000000
_cell_angle_beta 49.837133
_cell_angle_gamma 90.000000
_cell_volume 1014.726428
_symmetry_space_group_name_H-M "P 2/M"
_symmetry_group_IT_number 10
_symmetry_cell_setting 'monoclinic'
loop_
_space_group_symop_operation_xyz
x,y,z
-x,y,-z
-x,-y,-z
x,-y,z
loop_
_atom_site_type_symbol
_atom_site_label
_atom_site_fract_x
_atom_site_fract_y
_atom_site_fract_z
Si Si1 0.792811 0.702056 0.887645
Si Si2 0.616510 0.808500 0.298446
Si Si3 0.901206 0.703035 0.368218
Si Si4 0.508261 0.693611 0.188122
Si Si5 0.074795 0.703194 0.088866
O O1 0.789517 0.500000 0.897206
O O2 0.826640 0.756173 0.628120
O O3 0.707292 0.766278 0.100594
O O4 0.859532 0.757611 0.899109
O O5 0.572230 0.777295 0.194574
O O6 0.572102 0.706920 0.541249
O O7 0.606164 0.000000 0.368204
O O8 0.901519 0.500000 0.368338
O O9 0.902630 0.754651 0.157732
O O10 0.984508 0.754667 0.294157
O O11 0.530974 0.500000 0.128846
O O12 0.500000 0.760040 0.000000
O O13 0.074268 0.500000 0.095542
#
# Coordination Sequence:
#
# PCOD9142661 Si02
#       5
#     4   4   4   4   4
#     4  10  18  29  48  73 101 133 172 217 260 301
#     4  11  23  37  54  80 114 145 173 208 255 318
#     4   8  14  25  43  69  98 128 168 219 268 305
#     4  10  21  40  65  85 102 130 171 219 266 311
#     4   8  14  25  43  69  98 128 168 219 268 305
#
# _framework density 19.709745000000002
#
# number of rings (size 3 to 8) (size 9 to 14) (size 15 to 20)
#    0.000    2.600    0.000    5.400    0.000    5.600 
#    0.000    4.000    0.000    2.400    0.000    2.800 
#    0.000    0.000    0.000    0.000    0.000    0.000 
#
# Total GULP energy -111559.017556 kJ/mol
# GULP energy per Si atom -5577.950878 kJ/mol
# Density = 1.966488 g / cm^3
# Si number density = 19.709745 Si / 1000 Ang^3
#
#
#
# Elastic Constant Matrix: (Units=GPa)
#
#
# Indices 1 2 3 4 5 6 
#
# 1 50.8604 -1.1277 43.4852 0.0000 7.3436 0.0000
# 2 -1.1277 21.1779 -9.4229 0.0000 1.1867 0.0000
# 3 43.4852 -9.4229 97.1509 0.0000 -4.6697 0.0000
# 4 0.0000 0.0000 0.0000 -62.4717 0.0000 -36.7365
# 5 7.3436 1.1867 -4.6697 0.0000 29.0875 0.0000
# 6 0.0000 0.0000 0.0000 -36.7365 0.0000 -208.4023
#
#
#
# Elastic Compliance Matrix: (Units=1/GPa)
#
#
# Indices 1 2 3 4 5 6 
#
# 1 0.035827 -0.005044 -0.017082 0.000000 -0.011582 0.000000
# 2 -0.005044 0.050104 0.007135 0.000000 0.000375 0.000000
# 3 -0.017082 0.007135 0.018971 0.000000 0.007067 0.000000
# 4 0.000000 0.000000 0.000000 -0.017858 0.000000 0.003148
# 5 -0.011582 0.000375 0.007067 0.000000 0.038422 0.000000
# 6 0.000000 0.000000 0.000000 0.003148 0.000000 -0.005353
#
#
# Mechanical properties :
#
#
# Convention : Reuss Voigt Hill
#
# Bulk Modulus (GPa) = 13.34740 26.11763 19.73251
# Shear Modulus (GPa) = 28.56015 -39.27366 -5.35675
#
# Velocity S-wave (km/s) = 3.81075 -4.46870 -1.65037
# Velocity P-wave (km/s) = 5.11362 3.65319 2.53015
#
# Compressibility (1/GPa) = 0.07492097
#
# Stress axis : x y z
#
# Youngs Moduli (GPa) = 27.91156 19.95839 52.71136
#
# Poissons Ratio (x) = 0.10067 0.90044
# Poissons Ratio (y) = 0.14078 -0.37612
# Poissons Ratio (z) = 0.47680 -0.14241
#
# Static dielectric constant tensor:
#      x y z
#    x 1.680900 0.000000 0.018150 
#    y 0.000000 1.707740 0.000000 
#    z 0.018150 0.000000 1.681850 
# 
# From -- ./inp_files/35613.got.cif
#   From: 2010.05.17/outbox.cif.g08.bks.cpg/sg10_18_cif.got.tgz:35613.got - 2010.06.03 11:33:40.
