data_PCOD9142931
_publ_section_title
;
Structure prediction by ZEFSAII (Michael W. Deem and Ramdas Pophale) SiO2 
 PCOD9142931
Probable space group: P 2/M
;
_chemical_formula_sum "Si O2"
_cell_formula_units_Z 28
_cell_length_a 19.132640
_cell_length_b 13.182202
_cell_length_c 7.874219
_cell_angle_alpha 90.000000
_cell_angle_beta 128.122076
_cell_angle_gamma 90.000000
_cell_volume 1562.348689
_symmetry_space_group_name_H-M "P 2/M"
_symmetry_group_IT_number 10
_symmetry_cell_setting 'monoclinic'
loop_
_space_group_symop_operation_xyz
x,y,z
-x,y,-z
-x,-y,-z
x,-y,z
loop_
_atom_site_type_symbol
_atom_site_label
_atom_site_fract_x
_atom_site_fract_y
_atom_site_fract_z
Si Si1 0.899587 0.885264 0.144906
Si Si2 0.784188 0.694199 0.880203
Si Si3 0.597545 0.383036 0.600584
Si Si4 0.784188 0.694199 0.472359
Si Si5 0.102344 0.500000 0.361503
Si Si6 0.402455 0.616964 0.807951
Si Si7 0.100414 0.885264 0.446149
Si Si8 0.102344 0.500000 0.945530
O O1 0.902138 0.887753 0.353207
O O2 0.000000 0.859251 0.236199
O O3 0.879109 0.000000 0.055420
O O4 0.829694 0.800343 0.989873
O O5 0.683406 0.678195 0.791600
O O6 0.781576 0.685965 0.672363
O O7 0.845324 0.600552 0.032529
O O8 0.500000 0.343334 0.500000
O O9 0.603989 0.500000 0.671967
O O10 0.601762 0.386448 0.402643
O O11 0.845325 0.600552 0.503443
O O12 0.683406 0.678194 0.258617
O O13 0.829693 0.800343 0.499204
O O14 1.000000 0.500000 0.262892
O O15 0.102429 0.500000 0.153645
O O16 0.396012 0.500000 0.860004
O O17 0.500000 0.656668 0.000000
O O18 0.120892 0.000000 0.418097
#
# Coordination Sequence:
#
# PCOD9142931 Si02
#       8
#     4   4   4   4   2   4   4   2
#     4   9  19  35  51  68  95 130 164 199 240 284
#     4  10  18  30  49  73  98 125 160 200 237 281
#     4   9  17  30  47  69  98 128 159 195 236 284
#     4  10  18  30  49  73  98 125 160 200 237 281
#     4   9  16  26  42  67  99 129 151 181 234 287
#     4   9  17  30  47  69  98 128 159 195 236 284
#     4   9  19  35  51  68  95 130 164 199 240 284
#     4   9  16  26  42  67  99 129 151 181 234 287
#
# _framework density 17.921735999999999
#
# number of rings (size 3 to 8) (size 9 to 14) (size 15 to 20)
#    0.000    2.714    1.429    1.714    0.000    3.429 
#    0.000    2.143    0.000    3.429    0.000    0.000 
#    0.000    0.000    0.000    0.000    0.000    0.000 
#
# Total GULP energy -156120.760362 kJ/mol
# GULP energy per Si atom -5575.741442 kJ/mol
# Density = 1.788094 g / cm^3
# Si number density = 17.921736 Si / 1000 Ang^3
#
#
#
# Elastic Constant Matrix: (Units=GPa)
#
#
# Indices 1 2 3 4 5 6 
#
# 1 101.5697 66.3626 40.6693 0.0000 52.7283 0.0000
# 2 66.3626 116.2665 48.2070 0.0000 51.5094 0.0000
# 3 40.6693 48.2070 67.8623 0.0000 42.9046 0.0000
# 4 0.0000 0.0000 0.0000 38.6521 0.0000 -13.7210
# 5 52.7283 51.5094 42.9046 0.0000 49.0290 0.0000
# 6 0.0000 0.0000 0.0000 -13.7210 0.0000 33.8157
#
#
#
# Elastic Compliance Matrix: (Units=1/GPa)
#
#
# Indices 1 2 3 4 5 6 
#
# 1 0.023967 -0.004470 0.004788 0.000000 -0.025269 0.000000
# 2 -0.004470 0.017008 -0.002564 0.000000 -0.010817 0.000000
# 3 0.004788 -0.002564 0.034114 0.000000 -0.032308 0.000000
# 4 0.000000 0.000000 0.000000 0.030225 0.000000 0.012264
# 5 -0.025269 -0.010817 -0.032308 0.000000 0.087208 0.000000
# 6 0.000000 0.000000 0.000000 0.012264 0.000000 0.034548
#
#
# Mechanical properties :
#
#
# Convention : Reuss Voigt Hill
#
# Bulk Modulus (GPa) = 14.16511 66.24182 40.20346
# Shear Modulus (GPa) = 19.60058 32.99667 26.29863
#
# Velocity S-wave (km/s) = 3.31067 4.29552 3.83484
# Velocity P-wave (km/s) = 4.74711 7.85137 6.48764
#
# Compressibility (1/GPa) = 0.07059599
#
# Stress axis : x y z
#
# Youngs Moduli (GPa) = 41.72421 58.79656 29.31372
#
# Poissons Ratio (x) = 0.26284 -0.14035
# Poissons Ratio (y) = 0.18652 0.07516
# Poissons Ratio (z) = -0.19977 0.15075
#
# Static dielectric constant tensor:
#      x y z
#    x 1.641830 0.000000 -0.016330 
#    y 0.000000 1.591580 0.000000 
#    z -0.016330 0.000000 1.647590 
# 
# From -- ./inp_files/34695.got.cif
#   From: 2010.05.17/outbox.cif.g08.bks.cpg/sg10_18_cif.got.tgz:34695.got - 2010.06.03 11:33:40.
