data_PCOD9142357
_publ_section_title
;
Structure prediction by ZEFSAII (Michael W. Deem and Ramdas Pophale) SiO2 
 PCOD9142357
Probable space group: P 2/M
;
_chemical_formula_sum "Si O2"
_cell_formula_units_Z 32
_cell_length_a 16.000734
_cell_length_b 8.878129
_cell_length_c 17.140687
_cell_angle_alpha 90.000000
_cell_angle_beta 50.753237
_cell_angle_gamma 90.000000
_cell_volume 1885.692378
_symmetry_space_group_name_H-M "P 2/M"
_symmetry_group_IT_number 10
_symmetry_cell_setting 'monoclinic'
loop_
_space_group_symop_operation_xyz
x,y,z
-x,y,-z
-x,-y,-z
x,-y,z
loop_
_atom_site_type_symbol
_atom_site_label
_atom_site_fract_x
_atom_site_fract_y
_atom_site_fract_z
Si Si1 0.931136 0.830105 0.120976
Si Si2 0.894794 0.681693 0.731880
Si Si3 0.132034 0.820121 0.581639
Si Si4 0.131423 0.674454 0.421536
Si Si5 0.870933 0.318895 0.916244
Si Si6 0.559844 0.818398 0.344944
Si Si7 0.739440 0.320197 0.145964
Si Si8 0.660220 0.817243 0.451427
O O1 0.824739 0.740337 0.159821
O O2 0.012550 0.751759 0.132548
O O3 0.903501 0.000000 0.162455
O O4 0.000000 0.837767 0.000000
O O5 0.902527 0.500000 0.722679
O O6 0.015811 0.746269 0.663675
O O7 0.840547 0.729486 0.682278
O O8 0.839661 0.721818 0.846416
O O9 0.167888 0.772533 0.473138
O O10 0.222921 0.766869 0.588866
O O11 0.121828 0.000000 0.592368
O O12 0.164329 0.500000 0.412621
O O13 0.000000 0.676649 0.500000
O O14 0.736854 0.500000 0.149888
O O15 0.787579 0.272535 0.033302
O O16 0.623801 0.746945 0.235768
O O17 0.622378 0.771868 0.387629
O O18 0.435731 0.773666 0.432416
O O19 0.564735 0.000000 0.336740
O O20 0.881267 0.500000 0.914881
O O21 0.661698 0.000000 0.449981
#
# Coordination Sequence:
#
# PCOD9142357 Si02
#       8
#     4   4   4   4   4   4   4   4
#     4   9  17  28  41  58  82 114 151 183 209 250
#     4   9  18  31  45  63  90 124 152 174 211 264
#     4  10  18  28  45  69  92 114 145 183 224 262
#     4   8  15  29  45  62  87 118 149 176 212 266
#     4   9  18  31  44  61  89 120 148 181 220 260
#     4   9  17  33  51  63  84 118 152 184 221 263
#     4  10  19  30  44  64  89 116 146 184 227 260
#     4   8  17  32  48  66  87 114 148 185 224 266
#
# _framework density 16.969894
#
# number of rings (size 3 to 8) (size 9 to 14) (size 15 to 20)
#    0.000    3.000    0.000    2.625    1.750    4.750 
#    0.000    3.125    0.000    0.000    0.000    0.875 
#    0.000    7.000    0.000    0.000    0.000    0.000 
#
# Total GULP energy -178243.561980 kJ/mol
# GULP energy per Si atom -5570.111312 kJ/mol
# Density = 1.693127 g / cm^3
# Si number density = 16.969894 Si / 1000 Ang^3
#
#
#
# Elastic Constant Matrix: (Units=GPa)
#
#
# Indices 1 2 3 4 5 6 
#
# 1 20.2956 -0.4285 2.8426 0.0000 3.6902 0.0000
# 2 -0.4285 14.5183 12.2154 0.0000 -0.7297 0.0000
# 3 2.8426 12.2154 82.9596 0.0000 6.5789 0.0000
# 4 0.0000 0.0000 0.0000 20.0009 0.0000 -0.6355
# 5 3.6902 -0.7297 6.5789 0.0000 23.9347 0.0000
# 6 0.0000 0.0000 0.0000 -0.6355 0.0000 6.2837
#
#
#
# Elastic Compliance Matrix: (Units=1/GPa)
#
#
# Indices 1 2 3 4 5 6 
#
# 1 0.050872 0.002406 -0.001514 0.000000 -0.007354 0.000000
# 2 0.002406 0.079501 -0.012218 0.000000 0.005411 0.000000
# 3 -0.001514 -0.012218 0.014226 0.000000 -0.004049 0.000000
# 4 0.000000 0.000000 0.000000 0.050159 0.000000 0.005073
# 5 -0.007354 0.005411 -0.004049 0.000000 0.044192 0.000000
# 6 0.000000 0.000000 0.000000 0.005073 0.000000 0.159656
#
#
# Mechanical properties :
#
#
# Convention : Reuss Voigt Hill
#
# Bulk Modulus (GPa) = 8.20031 16.33694 12.26862
# Shear Modulus (GPa) = 10.82469 16.92011 13.87240
#
# Velocity S-wave (km/s) = 2.52836 3.16106 2.86225
# Velocity P-wave (km/s) = 3.65599 4.79281 4.26247
#
# Compressibility (1/GPa) = 0.12194667
#
# Stress axis : x y z
#
# Youngs Moduli (GPa) = 19.65725 12.57847 70.29355
#
# Poissons Ratio (x) = -0.03026 0.10644
# Poissons Ratio (y) = -0.04729 0.85882
# Poissons Ratio (z) = 0.02976 0.15368
#
# Static dielectric constant tensor:
#      x y z
#    x 1.564100 0.000000 0.028750 
#    y 0.000000 1.571410 0.000000 
#    z 0.028750 0.000000 1.629410 
# 
# From -- ./inp_files/78523.got.cif
#   From: 2010.05.17/outbox.cif.g08.bks.cpg/sg10_40_cif.got.tgz:78523.got - 2010.06.03 11:33:40.
