data_PCOD9142331
_publ_section_title
;
Structure prediction by ZEFSAII (Michael W. Deem and Ramdas Pophale) SiO2 
 PCOD9142331
Probable space group: P 2/M
;
_chemical_formula_sum "Si O2"
_cell_formula_units_Z 28
_cell_length_a 28.684245
_cell_length_b 7.702789
_cell_length_c 22.024616
_cell_angle_alpha 90.000000
_cell_angle_beta 17.178871
_cell_angle_gamma 90.000000
_cell_volume 1437.292642
_symmetry_space_group_name_H-M "P 2/M"
_symmetry_group_IT_number 10
_symmetry_cell_setting 'monoclinic'
loop_
_space_group_symop_operation_xyz
x,y,z
-x,y,-z
-x,-y,-z
x,-y,z
loop_
_atom_site_type_symbol
_atom_site_label
_atom_site_fract_x
_atom_site_fract_y
_atom_site_fract_z
Si Si1 0.504014 0.796296 0.857353
Si Si2 0.836053 0.795306 0.674523
Si Si3 0.253265 0.288469 0.804081
Si Si4 0.590459 0.710250 0.613499
Si Si5 0.515120 0.711757 0.381956
Si Si6 0.330299 0.703814 0.234208
Si Si7 0.061908 0.711988 0.856836
O O1 0.536431 0.768808 0.746416
O O2 0.646520 0.726380 0.722497
O O3 0.499049 0.000000 0.876157
O O4 0.329864 0.722551 0.091731
O O5 0.808549 0.777354 0.635723
O O6 0.000000 0.725405 0.500000
O O7 0.836693 0.000000 0.687855
O O8 0.255729 0.500000 0.801288
O O9 0.341249 0.229031 0.754923
O O10 0.357680 0.238174 0.615405
O O11 0.074490 0.233492 0.019546
O O12 0.590576 0.500000 0.614264
O O13 0.486291 0.768499 0.685618
O O14 0.766748 0.769985 0.376873
O O15 0.515642 0.500000 0.381039
O O16 0.326742 0.500000 0.226263
O O17 0.500000 0.776671 0.000000
O O18 0.068273 0.500000 0.851031
O O19 0.000000 0.767026 0.000000
#
# Coordination Sequence:
#
# PCOD9142331 Si02
#       7
#     4   4   4   4   4   4   4
#     4  10  20  34  51  71  99 135 169 200 243 299
#     4   9  18  34  56  79 101 130 169 204 238 289
#     4   8  12  20  35  58  86 112 147 192 242 291
#     4  10  18  28  44  67  95 124 158 202 250 291
#     4   8  13  21  36  59  86 115 146 190 241 288
#     4   9  17  31  53  79 104 128 159 200 244 288
#     4   9  14  22  38  62  89 117 153 198 243 285
#
# _framework density 19.481071
#
# number of rings (size 3 to 8) (size 9 to 14) (size 15 to 20)
#    0.000    3.000    1.429    1.714    0.000    2.571 
#    0.000    1.429    0.000    2.143    0.000    2.000 
#    0.000    0.000    0.000    0.000    0.000    0.000 
#
# Total GULP energy -155895.676892 kJ/mol
# GULP energy per Si atom -5567.702746 kJ/mol
# Density = 1.943673 g / cm^3
# Si number density = 19.481071 Si / 1000 Ang^3
#
#
#
# Elastic Constant Matrix: (Units=GPa)
#
#
# Indices 1 2 3 4 5 6 
#
# 1 167.2961 0.9714 60.5601 0.0000 -8.8393 0.0000
# 2 0.9714 33.9859 5.7239 0.0000 -2.1731 0.0000
# 3 60.5601 5.7239 68.5264 0.0000 -12.0407 0.0000
# 4 0.0000 0.0000 0.0000 67.0035 0.0000 69.4644
# 5 -8.8393 -2.1731 -12.0407 0.0000 33.9935 0.0000
# 6 0.0000 0.0000 0.0000 69.4644 0.0000 83.0657
#
#
#
# Elastic Compliance Matrix: (Units=1/GPa)
#
#
# Indices 1 2 3 4 5 6 
#
# 1 0.008835 0.001062 -0.007977 0.000000 -0.000460 0.000000
# 2 0.001062 0.030010 -0.003262 0.000000 0.001039 0.000000
# 3 -0.007977 -0.003262 0.022942 0.000000 0.005843 0.000000
# 4 0.000000 0.000000 0.000000 0.112192 0.000000 -0.093822
# 5 -0.000460 0.001039 0.005843 0.000000 0.031434 0.000000
# 6 0.000000 0.000000 0.000000 -0.093822 0.000000 0.090498
#
#
# Mechanical properties :
#
#
# Convention : Reuss Voigt Hill
#
# Bulk Modulus (GPa) = 24.13689 44.92436 34.53062
# Shear Modulus (GPa) = 15.14802 50.31606 32.73204
#
# Velocity S-wave (km/s) = 2.79153 5.08766 4.10347
# Velocity P-wave (km/s) = 4.77567 7.59098 6.34153
#
# Compressibility (1/GPa) = 0.04143036
#
# Stress axis : x y z
#
# Youngs Moduli (GPa) = 113.19120 33.32277 43.58833
#
# Poissons Ratio (x) = -0.03537 0.34771
# Poissons Ratio (y) = -0.12016 0.14220
# Poissons Ratio (z) = 0.90294 0.10871
#
# Static dielectric constant tensor:
#      x y z
#    x 1.724220 0.000000 -0.024660 
#    y 0.000000 1.733080 0.000000 
#    z -0.024660 0.000000 1.682590 
# 
# From -- ./inp_files/79307.got.cif
#   From: 2010.05.17/outbox.cif.g08.bks.cpg/sg10_40_cif.got.tgz:79307.got - 2010.06.03 11:33:40.
