data_PCOD9142673
_publ_section_title
;
Structure prediction by ZEFSAII (Michael W. Deem and Ramdas Pophale) SiO2 
 PCOD9142673
Probable space group: P 2/M
;
_chemical_formula_sum "Si O2"
_cell_formula_units_Z 28
_cell_length_a 16.234643
_cell_length_b 7.517154
_cell_length_c 10.910928
_cell_angle_alpha 90.000000
_cell_angle_beta 98.403673
_cell_angle_gamma 90.000000
_cell_volume 1317.254320
_symmetry_space_group_name_H-M "P 2/M"
_symmetry_group_IT_number 10
_symmetry_cell_setting 'monoclinic'
loop_
_space_group_symop_operation_xyz
x,y,z
-x,y,-z
-x,-y,-z
x,-y,z
loop_
_atom_site_type_symbol
_atom_site_label
_atom_site_fract_x
_atom_site_fract_y
_atom_site_fract_z
Si Si1 0.138871 0.713055 0.486780
Si Si2 0.563777 0.217047 0.904789
Si Si3 0.080075 0.713747 0.944026
Si Si4 0.736544 0.212353 0.056325
Si Si5 0.477296 0.217808 0.633929
Si Si6 0.704260 0.791202 0.324263
Si Si7 0.012684 0.283239 0.676679
O O1 0.145683 0.500000 0.481258
O O2 0.227590 0.775392 0.553477
O O3 0.083761 0.774023 0.358382
O O4 0.073537 0.762273 0.579021
O O5 0.535447 0.272096 0.761946
O O6 0.562722 0.000000 0.903498
O O7 0.500000 0.270147 0.000000
O O8 0.655615 0.277343 0.965421
O O9 0.075155 0.500000 0.944513
O O10 0.175896 0.753492 0.991260
O O11 0.060310 0.781930 0.804654
O O12 0.000000 0.779919 0.000000
O O13 0.734424 0.280977 0.197847
O O14 0.728838 0.000000 0.061185
O O15 0.500000 0.274649 0.500000
O O16 0.384546 0.279591 0.650813
O O17 0.478551 0.000000 0.631836
O O18 0.690768 0.000000 0.300954
O O19 0.010314 0.500000 0.678601
#
# Coordination Sequence:
#
# PCOD9142673 Si02
#       7
#     4   4   4   4   4   4   4
#     4   9  16  29  50  69  89 122 161 199 234 281
#     4   9  15  28  50  73  97 131 170 200 238 302
#     4  10  20  35  53  70  95 132 170 208 249 296
#     4  10  19  31  51  76 100 128 165 209 250 293
#     4   9  17  30  48  70  99 131 162 200 243 291
#     4  10  18  29  48  75 100 122 158 205 247 288
#     4   8  15  29  48  68  88 119 163 196 228 285
#
# _framework density 21.256335
#
# number of rings (size 3 to 8) (size 9 to 14) (size 15 to 20)
#    0.000    2.714    2.857    0.857    0.000    0.286 
#    2.571    2.143    0.000    1.714    0.000    0.000 
#    0.000    0.000    0.000    0.000    0.000    0.000 
#
# Total GULP energy -155927.758605 kJ/mol
# GULP energy per Si atom -5568.848522 kJ/mol
# Density = 2.120795 g / cm^3
# Si number density = 21.256335 Si / 1000 Ang^3
#
#
#
# Elastic Constant Matrix: (Units=GPa)
#
#
# Indices 1 2 3 4 5 6 
#
# 1 181.6786 2.7513 70.9917 0.0000 27.9412 0.0000
# 2 2.7513 50.4642 1.8137 0.0000 -2.9757 0.0000
# 3 70.9917 1.8137 84.5076 0.0000 19.2106 0.0000
# 4 0.0000 0.0000 0.0000 0.9267 0.0000 13.9640
# 5 27.9412 -2.9757 19.2106 0.0000 35.8850 0.0000
# 6 0.0000 0.0000 0.0000 13.9640 0.0000 -7.2452
#
#
#
# Elastic Compliance Matrix: (Units=1/GPa)
#
#
# Indices 1 2 3 4 5 6 
#
# 1 0.008511 -0.000424 -0.006406 0.000000 -0.003233 0.000000
# 2 -0.000424 0.019997 -0.000597 0.000000 0.002308 0.000000
# 3 -0.006406 -0.000597 0.018336 0.000000 -0.004878 0.000000
# 4 0.000000 0.000000 0.000000 0.035920 0.000000 0.069229
# 5 -0.003233 0.002308 -0.004878 0.000000 0.033187 0.000000
# 6 0.000000 0.000000 0.000000 0.069229 0.000000 -0.004594
#
#
# Mechanical properties :
#
#
# Convention : Reuss Voigt Hill
#
# Bulk Modulus (GPa) = 31.26096 51.97375 41.61736
# Shear Modulus (GPa) = 36.53005 21.98622 29.25813
#
# Velocity S-wave (km/s) = 4.15004 3.21960 3.71407
# Velocity P-wave (km/s) = 6.14022 6.19073 6.16553
#
# Compressibility (1/GPa) = 0.03198878
#
# Stress axis : x y z
#
# Youngs Moduli (GPa) = 117.49659 50.00812 54.53720
#
# Poissons Ratio (x) = 0.02122 0.34935
# Poissons Ratio (y) = 0.04987 0.03258
# Poissons Ratio (z) = 0.75264 0.02987
#
# Static dielectric constant tensor:
#      x y z
#    x 1.785420 0.000000 -0.004360 
#    y 0.000000 1.818250 0.000000 
#    z -0.004360 0.000000 1.852610 
# 
# From -- ./inp_files/46143.got.cif
#   From: 2010.05.17/outbox.cif.g08.bks.cpg/sg10_24_cif.got.tgz:46143.got - 2010.06.03 11:33:40.
