data_PCOD9142711
_publ_section_title
;
Structure prediction by ZEFSAII (Michael W. Deem and Ramdas Pophale) SiO2 
 PCOD9142711
Probable space group: P 2/M
;
_chemical_formula_sum "Si O2"
_cell_formula_units_Z 32
_cell_length_a 16.186240
_cell_length_b 7.632049
_cell_length_c 11.879101
_cell_angle_alpha 90.000000
_cell_angle_beta 100.665715
_cell_angle_gamma 90.000000
_cell_volume 1442.122456
_symmetry_space_group_name_H-M "P 2/M"
_symmetry_group_IT_number 10
_symmetry_cell_setting 'monoclinic'
loop_
_space_group_symop_operation_xyz
x,y,z
-x,y,-z
-x,-y,-z
x,-y,z
loop_
_atom_site_type_symbol
_atom_site_label
_atom_site_fract_x
_atom_site_fract_y
_atom_site_fract_z
Si Si1 0.045318 0.712184 0.333439
Si Si2 0.699049 0.789348 0.402056
Si Si3 0.879806 0.292845 0.411551
Si Si4 0.488105 0.200149 0.661977
Si Si5 0.081120 0.207544 0.084590
Si Si6 0.559679 0.706481 0.915501
Si Si7 0.337336 0.213711 0.363297
Si Si8 0.264870 0.788187 0.105809
O O1 0.049051 0.500000 0.330130
O O2 0.098340 0.774257 0.456492
O O3 0.074071 0.773252 0.217931
O O4 0.949882 0.770188 0.340733
O O5 0.782645 0.735476 0.358272
O O6 0.605279 0.723361 0.348832
O O7 0.708907 0.733765 0.534967
O O8 0.697689 0.000000 0.394855
O O9 0.893621 0.500000 0.421728
O O10 0.530717 0.199044 0.795138
O O11 0.565382 0.275609 0.608538
O O12 0.475538 0.000000 0.619782
O O13 0.170701 0.277385 0.063481
O O14 0.082719 0.000000 0.061439
O O15 0.000000 0.282197 0.000000
O O16 0.545097 0.500000 0.894894
O O17 0.659120 0.734134 0.956365
O O18 0.500000 0.767781 0.000000
O O19 0.293150 0.272648 0.238050
O O20 0.339293 0.000000 0.361066
O O21 0.263823 0.000000 0.106753
#
# Coordination Sequence:
#
# PCOD9142711 Si02
#       8
#     4   4   4   4   4   4   4   4
#     4   9  19  37  57  75 102 144 186 220 263 323
#     4  10  18  29  49  79 108 136 171 208 257 318
#     4   9  19  35  53  75 106 143 181 221 265 315
#     4   9  18  32  50  74 104 137 170 208 258 315
#     4  10  21  37  57  84 114 139 173 230 284 321
#     4  10  21  37  55  75 100 134 178 225 262 300
#     4   8  14  27  49  73  99 131 168 205 244 300
#     4   9  18  34  56  79 103 137 174 210 263 319
#
# _framework density 22.189516999999999
#
# number of rings (size 3 to 8) (size 9 to 14) (size 15 to 20)
#    0.000    2.750    0.000    3.000    0.000    5.750 
#    2.250    5.000    0.000    3.750    0.000    0.000 
#    0.000    0.000    0.000    0.000    0.000    0.000 
#
# Total GULP energy -178459.619067 kJ/mol
# GULP energy per Si atom -5576.863096 kJ/mol
# Density = 2.213901 g / cm^3
# Si number density = 22.189517 Si / 1000 Ang^3
#
#
#
# Elastic Constant Matrix: (Units=GPa)
#
#
# Indices 1 2 3 4 5 6 
#
# 1 199.5677 1.5332 28.3295 0.0000 -11.4356 0.0000
# 2 1.5332 42.0689 -3.0402 0.0000 4.8512 0.0000
# 3 28.3295 -3.0402 31.2869 0.0000 -11.8502 0.0000
# 4 0.0000 0.0000 0.0000 9.9870 0.0000 -6.6360
# 5 -11.4356 4.8512 -11.8502 0.0000 29.6511 0.0000
# 6 0.0000 0.0000 0.0000 -6.6360 0.0000 31.1364
#
#
#
# Elastic Compliance Matrix: (Units=1/GPa)
#
#
# Indices 1 2 3 4 5 6 
#
# 1 0.005766 -0.000614 -0.005185 0.000000 0.000252 0.000000
# 2 -0.000614 0.024320 0.001558 0.000000 -0.003593 0.000000
# 3 -0.005185 0.001558 0.042368 0.000000 0.014678 0.000000
# 4 0.000000 0.000000 0.000000 0.116650 0.000000 0.024861
# 5 0.000252 -0.003593 0.014678 0.000000 0.040277 0.000000
# 6 0.000000 0.000000 0.000000 0.024861 0.000000 0.037415
#
#
# Mechanical properties :
#
#
# Convention : Reuss Voigt Hill
#
# Bulk Modulus (GPa) = 15.63180 36.28538 25.95859
# Shear Modulus (GPa) = 16.85763 30.56165 23.70964
#
# Velocity S-wave (km/s) = 2.75928 3.71523 3.27235
# Velocity P-wave (km/s) = 4.14867 5.89846 5.09918
#
# Compressibility (1/GPa) = 0.06397214
#
# Stress axis : x y z
#
# Youngs Moduli (GPa) = 173.42902 41.11874 23.60267
#
# Poissons Ratio (x) = 0.02524 0.12239
# Poissons Ratio (y) = 0.10647 -0.03678
# Poissons Ratio (z) = 0.89927 -0.06407
#
# Static dielectric constant tensor:
#      x y z
#    x 1.894440 0.000000 -0.004110 
#    y 0.000000 1.824000 0.000000 
#    z -0.004110 0.000000 1.800590 
# 
# From -- ./inp_files/49826.got.cif
#   From: 2010.05.17/outbox.cif.g08.bks.cpg/sg10_25_cif.got.tgz:49826.got - 2010.06.03 11:33:40.
