data_PCOD9142530
_publ_section_title
;
Structure prediction by ZEFSAII (Michael W. Deem and Ramdas Pophale) SiO2 
 PCOD9142530
Probable space group: P 2/M
;
_chemical_formula_sum "Si O2"
_cell_formula_units_Z 32
_cell_length_a 21.069644
_cell_length_b 14.003963
_cell_length_c 19.673907
_cell_angle_alpha 90.000000
_cell_angle_beta 20.769098
_cell_angle_gamma 90.000000
_cell_volume 2058.452403
_symmetry_space_group_name_H-M "P 2/M"
_symmetry_group_IT_number 10
_symmetry_cell_setting 'monoclinic'
loop_
_space_group_symop_operation_xyz
x,y,z
-x,y,-z
-x,-y,-z
x,-y,z
loop_
_atom_site_type_symbol
_atom_site_label
_atom_site_fract_x
_atom_site_fract_y
_atom_site_fract_z
Si Si1 0.751795 0.762494 0.600788
Si Si2 0.585466 0.388334 0.675735
Si Si3 0.205339 0.616366 0.797679
Si Si4 0.695420 0.392976 0.921036
Si Si5 0.083402 0.604022 0.491032
Si Si6 0.498794 0.615394 0.393979
Si Si7 0.420297 0.190667 0.007065
Si Si8 0.036023 0.111630 0.385358
O O1 0.724043 0.691509 0.564955
O O2 0.775448 0.685121 0.637562
O O3 0.919371 0.830771 0.446983
O O4 0.571967 0.819230 0.797849
O O5 0.650318 0.500000 0.609653
O O6 0.523155 0.360543 0.662751
O O7 0.418830 0.386912 0.895382
O O8 0.200497 0.500000 0.802882
O O9 0.327588 0.645036 0.610770
O O10 0.319940 0.646879 0.749150
O O11 0.000000 0.649288 0.000000
O O12 0.665895 0.500000 0.921442
O O13 0.637031 0.302347 0.935632
O O14 0.910658 0.384636 0.713037
O O15 0.164672 0.500000 0.420701
O O16 0.000000 0.608053 0.500000
O O17 0.502028 0.500000 0.393544
O O18 0.244343 0.131497 0.166171
O O19 0.500000 0.162536 0.000000
O O20 0.000000 0.144236 0.500000
O O21 0.992403 0.000000 0.425806
#
# Coordination Sequence:
#
# PCOD9142530 Si02
#       8
#     4   4   4   4   4   4   4   4
#     4  11  20  33  50  66  91 117 147 187 234 283
#     4   9  18  31  45  66  97 130 160 189 228 276
#     4   8  13  23  40  61  84 117 163 199 222 246
#     4   9  18  30  44  64  91 122 153 184 223 274
#     4  10  18  29  46  64  87 118 152 189 230 272
#     4   8  14  26  40  58  90 123 155 197 225 249
#     4  11  20  32  51  68  87 111 144 187 237 286
#     4  11  23  38  53  69  86 106 145 199 250 294
#
# _framework density 15.545659000000001
#
# number of rings (size 3 to 8) (size 9 to 14) (size 15 to 20)
#    0.000    2.375    2.500    2.250    0.000    1.500 
#    2.250    0.000    0.000    0.000    0.000    0.000 
#    0.000    0.000    0.000    2.250    0.000   25.250 
#
# Total GULP energy -178149.117375 kJ/mol
# GULP energy per Si atom -5567.159918 kJ/mol
# Density = 1.551028 g / cm^3
# Si number density = 15.545659 Si / 1000 Ang^3
#
#
#
# Elastic Constant Matrix: (Units=GPa)
#
#
# Indices 1 2 3 4 5 6 
#
# 1 93.5057 21.6848 34.4140 0.0000 -10.2142 0.0000
# 2 21.6848 35.3693 11.1075 0.0000 -4.9739 0.0000
# 3 34.4140 11.1075 77.0857 0.0000 -18.4888 0.0000
# 4 0.0000 0.0000 0.0000 0.2765 0.0000 -1.0458
# 5 -10.2142 -4.9739 -18.4888 0.0000 13.9466 0.0000
# 6 0.0000 0.0000 0.0000 -1.0458 0.0000 8.3541
#
#
#
# Elastic Compliance Matrix: (Units=1/GPa)
#
#
# Indices 1 2 3 4 5 6 
#
# 1 0.014329 -0.007012 -0.005087 0.000000 0.001250 0.000000
# 2 -0.007012 0.033545 -0.000096 0.000000 0.006701 0.000000
# 3 -0.005087 -0.000096 0.021048 0.000000 0.024143 0.000000
# 4 0.000000 0.000000 0.000000 6.869072 0.000000 0.859877
# 5 0.001250 0.006701 0.024143 0.000000 0.107014 0.000000
# 6 0.000000 0.000000 0.000000 0.859877 0.000000 0.227342
#
#
# Mechanical properties :
#
#
# Convention : Reuss Voigt Hill
#
# Bulk Modulus (GPa) = 22.45566 37.81926 30.13746
# Shear Modulus (GPa) = 0.68385 13.76573 7.22479
#
# Velocity S-wave (km/s) = 0.66397 2.97897 2.15814
# Velocity P-wave (km/s) = 3.88125 6.01772 5.06345
#
# Compressibility (1/GPa) = 0.04453221
#
# Stress axis : x y z
#
# Youngs Moduli (GPa) = 69.78632 29.81110 47.51002
#
# Poissons Ratio (x) = 0.20903 0.24168
# Poissons Ratio (y) = 0.48934 0.00456
# Poissons Ratio (z) = 0.35500 0.00286
#
# Static dielectric constant tensor:
#      x y z
#    x 1.517750 0.000000 -0.011150 
#    y 0.000000 1.522670 0.000000 
#    z -0.011150 0.000000 1.569200 
# 
# From -- ./inp_files/86343.got.cif
#   From: 2010.05.17/outbox.cif.g08.bks.cpg/sg10_44_cif.got.tgz:86343.got - 2010.06.03 11:33:40.
