data_PCOD9142185
_publ_section_title
;
Structure prediction by ZEFSAII (Michael W. Deem and Ramdas Pophale) SiO2 
 PCOD9142185
Probable space group: P 2/M
;
_chemical_formula_sum "Si O2"
_cell_formula_units_Z 32
_cell_length_a 8.844794
_cell_length_b 14.585071
_cell_length_c 14.174302
_cell_angle_alpha 90.000000
_cell_angle_beta 89.552207
_cell_angle_gamma 90.000000
_cell_volume 1828.456732
_symmetry_space_group_name_H-M "P 2/M"
_symmetry_group_IT_number 10
_symmetry_cell_setting 'monoclinic'
loop_
_space_group_symop_operation_xyz
x,y,z
-x,y,-z
-x,-y,-z
x,-y,z
loop_
_atom_site_type_symbol
_atom_site_label
_atom_site_fract_x
_atom_site_fract_y
_atom_site_fract_z
Si Si1 0.863058 0.897260 0.298081
Si Si2 0.837233 0.895043 0.949602
Si Si3 0.433526 0.895635 0.604321
Si Si4 0.436716 0.606956 0.101920
Si Si5 0.369628 0.107142 0.877666
Si Si6 0.439909 0.763244 0.239938
Si Si7 0.928454 0.606370 0.900118
Si Si8 0.900610 0.764970 0.772529
O O1 0.747829 0.892280 0.385803
O O2 0.756761 0.885596 0.205212
O O3 0.989045 0.820390 0.295245
O O4 0.928362 0.000000 0.292266
O O5 0.861895 0.830424 0.861243
O O6 0.801450 0.000000 0.922318
O O7 0.712595 0.862681 0.026053
O O8 0.000000 0.897372 0.000000
O O9 0.500000 0.888321 0.500000
O O10 0.489926 0.812744 0.669446
O O11 0.473849 0.000000 0.640256
O O12 0.477187 0.500000 0.114508
O O13 0.491498 0.668965 0.189151
O O14 0.254120 0.613418 0.095783
O O15 0.500000 0.637322 0.000000
O O16 0.513828 0.163704 0.842280
O O17 0.406665 0.000000 0.887205
O O18 0.265364 0.747011 0.266310
O O19 0.968884 0.500000 0.883999
O O20 0.975378 0.674423 0.816491
O O21 0.000000 0.634469 0.000000
#
# Coordination Sequence:
#
# PCOD9142185 Si02
#       8
#     4   4   4   4   4   4   4   4
#     4   9  17  30  48  70  94 123 158 194 238 293
#     4  10  18  27  40  61  92 132 168 195 233 287
#     4   9  19  38  59  75  97 131 166 205 257 313
#     4   9  19  34  50  71 103 139 172 208 251 294
#     4   9  18  30  42  61  94 133 169 198 231 287
#     4  10  21  31  50  73  98 127 170 212 250 296
#     4   9  19  32  45  64  92 131 175 208 237 282
#     4  11  20  28  45  70  98 126 159 209 250 283
#
# _framework density 17.501097999999999
#
# number of rings (size 3 to 8) (size 9 to 14) (size 15 to 20)
#    0.000    2.500    1.250    1.875    3.500    3.000 
#    0.000    1.875    0.000    2.625    0.000    0.000 
#    0.000    4.000    0.000    0.000    0.000    0.000 
#
# Total GULP energy -178319.593178 kJ/mol
# GULP energy per Si atom -5572.487287 kJ/mol
# Density = 1.746126 g / cm^3
# Si number density = 17.501098 Si / 1000 Ang^3
#
#
#
# Elastic Constant Matrix: (Units=GPa)
#
#
# Indices 1 2 3 4 5 6 
#
# 1 35.1079 22.9268 14.4987 0.0000 -12.4451 0.0000
# 2 22.9268 76.8800 29.1440 0.0000 -6.7423 0.0000
# 3 14.4987 29.1440 64.1452 0.0000 -23.4840 0.0000
# 4 0.0000 0.0000 0.0000 21.3401 0.0000 -0.4528
# 5 -12.4451 -6.7423 -23.4840 0.0000 21.7837 0.0000
# 6 0.0000 0.0000 0.0000 -0.4528 0.0000 21.5001
#
#
#
# Elastic Compliance Matrix: (Units=1/GPa)
#
#
# Indices 1 2 3 4 5 6 
#
# 1 0.044425 -0.013132 0.006160 0.000000 0.027957 0.000000
# 2 -0.013132 0.019890 -0.010840 0.000000 -0.013032 0.000000
# 3 0.006160 -0.010840 0.031690 0.000000 0.034327 0.000000
# 4 0.000000 0.000000 0.000000 0.046881 0.000000 0.000987
# 5 0.027957 -0.013032 0.034327 0.000000 0.094850 0.000000
# 6 0.000000 0.000000 0.000000 0.000987 0.000000 0.046532
#
#
# Mechanical properties :
#
#
# Convention : Reuss Voigt Hill
#
# Bulk Modulus (GPa) = 16.56125 34.36356 25.46241
# Shear Modulus (GPa) = 14.70511 20.22902 17.46707
#
# Velocity S-wave (km/s) = 2.90183 3.40350 3.16263
# Velocity P-wave (km/s) = 4.55094 5.92645 5.28365
#
# Compressibility (1/GPa) = 0.06038191
#
# Stress axis : x y z
#
# Youngs Moduli (GPa) = 22.50972 50.27764 31.55610
#
# Poissons Ratio (x) = 0.66023 -0.19438
# Poissons Ratio (y) = 0.29559 0.34205
# Poissons Ratio (z) = -0.13866 0.54499
#
# Static dielectric constant tensor:
#      x y z
#    x 1.647340 0.000000 0.006640 
#    y 0.000000 1.624410 0.000000 
#    z 0.006640 0.000000 1.588620 
# 
# From -- ./inp_files/61538.got.cif
#   From: 2010.05.17/outbox.cif.g08.bks.cpg/sg10_31_cif.got.tgz:61538.got - 2010.06.03 11:33:40.
