data_PCOD9142499
_publ_section_title
;
Structure prediction by ZEFSAII (Michael W. Deem and Ramdas Pophale) SiO2 
 PCOD9142499
Probable space group: P 2/M
;
_chemical_formula_sum "Si O2"
_cell_formula_units_Z 32
_cell_length_a 12.345534
_cell_length_b 9.240032
_cell_length_c 20.928519
_cell_angle_alpha 90.000000
_cell_angle_beta 119.415550
_cell_angle_gamma 90.000000
_cell_volume 2079.601719
_symmetry_space_group_name_H-M "P 2/M"
_symmetry_group_IT_number 10
_symmetry_cell_setting 'monoclinic'
loop_
_space_group_symop_operation_xyz
x,y,z
-x,y,-z
-x,-y,-z
x,-y,z
loop_
_atom_site_type_symbol
_atom_site_label
_atom_site_fract_x
_atom_site_fract_y
_atom_site_fract_z
Si Si1 0.583495 0.175296 0.118054
Si Si2 0.318513 0.667066 0.330689
Si Si3 0.713649 0.830473 0.806791
Si Si4 0.349688 0.167037 0.466693
Si Si5 0.584852 0.829969 0.260304
Si Si6 0.311228 0.825118 0.985144
Si Si7 0.852251 0.329342 0.962084
Si Si8 0.618831 0.333477 0.397384
O O1 0.618003 0.225073 0.198964
O O2 0.441653 0.213296 0.058139
O O3 0.584443 0.000000 0.120548
O O4 0.669922 0.216760 0.083502
O O5 0.278507 0.500000 0.319311
O O6 0.265017 0.755115 0.255325
O O7 0.294634 0.745366 0.391008
O O8 0.468738 0.667639 0.364495
O O9 0.565624 0.821390 0.778247
O O10 0.786687 0.748648 0.883412
O O11 0.746163 0.000000 0.814687
O O12 0.500000 0.167756 0.500000
O O13 0.326200 0.244245 0.527388
O O14 0.310266 0.000000 0.455387
O O15 0.639976 0.741207 0.335249
O O16 0.617273 0.000000 0.275866
O O17 0.202036 0.745251 0.990215
O O18 0.297509 0.000000 0.985153
O O19 0.822746 0.500000 0.953218
O O20 0.000000 0.312040 0.000000
O O21 0.659083 0.500000 0.410043
#
# Coordination Sequence:
#
# PCOD9142499 Si02
#       8
#     4   4   4   4   4   4   4   4
#     4   8  14  26  46  67  86 106 134 176 220 255
#     4   9  16  25  37  53  76 103 131 170 213 249
#     4  10  18  29  45  61  77 103 142 179 210 254
#     4   9  15  23  34  49  70 101 140 174 202 240
#     4   9  15  25  40  59  81 107 135 169 210 251
#     4   9  16  30  49  66  82 106 140 176 214 261
#     4  11  23  35  45  60  86 115 142 179 224 262
#     4   9  16  23  32  50  76 106 137 169 204 243
#
# _framework density 15.387563
#
# number of rings (size 3 to 8) (size 9 to 14) (size 15 to 20)
#    0.000    2.750    1.250    2.625    0.000    6.000 
#    0.000    1.875    0.000    0.000    0.000    0.000 
#    0.000    0.000    0.000    1.125    0.000   21.875 
#
# Total GULP energy -178243.518535 kJ/mol
# GULP energy per Si atom -5570.109954 kJ/mol
# Density = 1.535254 g / cm^3
# Si number density = 15.387563 Si / 1000 Ang^3
#
#
#
# Elastic Constant Matrix: (Units=GPa)
#
#
# Indices 1 2 3 4 5 6 
#
# 1 54.4172 44.0209 43.5006 0.0000 -25.2641 0.0000
# 2 44.0209 107.7124 58.7693 0.0000 -25.1352 0.0000
# 3 43.5006 58.7693 94.6392 0.0000 -48.2937 0.0000
# 4 0.0000 0.0000 0.0000 17.6358 0.0000 3.5896
# 5 -25.2641 -25.1352 -48.2937 0.0000 30.3366 0.0000
# 6 0.0000 0.0000 0.0000 3.5896 0.0000 3.9303
#
#
#
# Elastic Compliance Matrix: (Units=1/GPa)
#
#
# Indices 1 2 3 4 5 6 
#
# 1 0.036995 -0.010822 0.004593 0.000000 0.029154 0.000000
# 2 -0.010822 0.018074 -0.017088 0.000000 -0.021241 0.000000
# 3 0.004593 -0.017088 0.073507 0.000000 0.106684 0.000000
# 4 0.000000 0.000000 0.000000 0.069651 0.000000 -0.063614
# 5 0.029154 -0.021241 0.106684 0.000000 0.209477 0.000000
# 6 0.000000 0.000000 0.000000 -0.063614 0.000000 0.312535
#
#
# Mechanical properties :
#
#
# Convention : Reuss Voigt Hill
#
# Bulk Modulus (GPa) = 12.20395 61.03892 36.62144
# Shear Modulus (GPa) = 6.29574 17.74574 12.02074
#
# Velocity S-wave (km/s) = 2.02493 3.39964 2.79802
# Velocity P-wave (km/s) = 3.66270 7.42724 5.85573
#
# Compressibility (1/GPa) = 0.08194065
#
# Stress axis : x y z
#
# Youngs Moduli (GPa) = 27.03080 55.32896 13.60413
#
# Poissons Ratio (x) = 0.59877 -0.06248
# Poissons Ratio (y) = 0.29253 0.23247
# Poissons Ratio (z) = -0.12414 0.94546
#
# Static dielectric constant tensor:
#      x y z
#    x 1.492130 0.000000 -0.028620 
#    y 0.000000 1.511910 0.000000 
#    z -0.028620 0.000000 1.509240 
# 
# From -- ./inp_files/83388.got.cif
#   From: 2010.05.17/outbox.cif.g08.bks.cpg/sg10_42_cif.got.tgz:83388.got - 2010.06.03 11:33:40.
