data_PCOD9142247
_publ_section_title
;
Structure prediction by ZEFSAII (Michael W. Deem and Ramdas Pophale) SiO2 
 PCOD9142247
Probable space group: P 2/M
;
_chemical_formula_sum "Si O2"
_cell_formula_units_Z 32
_cell_length_a 16.781297
_cell_length_b 7.352129
_cell_length_c 20.844504
_cell_angle_alpha 90.000000
_cell_angle_beta 151.185602
_cell_angle_gamma 90.000000
_cell_volume 1239.520460
_symmetry_space_group_name_H-M "P 2/M"
_symmetry_group_IT_number 10
_symmetry_cell_setting 'monoclinic'
loop_
_space_group_symop_operation_xyz
x,y,z
-x,y,-z
-x,-y,-z
x,-y,z
loop_
_atom_site_type_symbol
_atom_site_label
_atom_site_fract_x
_atom_site_fract_y
_atom_site_fract_z
Si Si1 0.961441 0.715695 0.137647
Si Si2 0.810850 0.222097 0.372220
Si Si3 0.841960 0.791314 0.195354
Si Si4 0.393610 0.717316 0.154294
Si Si5 0.506097 0.789493 0.090133
Si Si6 0.512576 0.201230 0.373873
Si Si7 0.186614 0.223337 0.482667
Si Si8 0.154403 0.787815 0.152812
O O1 0.971899 0.500000 0.154531
O O2 0.108914 0.776018 0.195923
O O3 0.916406 0.794295 0.175220
O O4 0.800914 0.755953 0.981178
O O5 0.690262 0.286925 0.230145
O O6 0.757444 0.278559 0.406346
O O7 0.000000 0.276231 0.500000
O O8 0.805811 0.000000 0.366859
O O9 0.997201 0.713054 0.342683
O O10 0.822320 0.000000 0.202948
O O11 0.654620 0.712669 0.060348
O O12 0.415455 0.500000 0.173928
O O13 0.449046 0.782847 0.124039
O O14 0.474187 0.812095 0.271052
O O15 0.519313 0.000000 0.081369
O O16 0.696480 0.284203 0.494412
O O17 0.341241 0.289692 0.276880
O O18 0.529233 0.000000 0.415370
O O19 0.184058 0.000000 0.478258
O O20 0.169818 0.000000 0.145318
O O21 0.000000 0.714211 0.000000
#
# Coordination Sequence:
#
# PCOD9142247 Si02
#       8
#     4   4   4   4   4   4   4   4
#     4  10  20  32  47  69 100 131 163 209 259 299
#     4   9  16  27  49  80 108 131 156 195 248 295
#     4   9  18  32  52  72  94 131 174 208 239 286
#     4  10  18  27  44  71  97 123 159 203 246 288
#     4   9  16  29  49  72  97 129 165 200 238 286
#     4  10  18  30  48  69  95 129 164 203 250 294
#     4   9  17  31  50  73 100 129 164 204 245 293
#     4  10  19  29  46  72  98 128 169 213 252 296
#
# _framework density 25.816433
#
# number of rings (size 3 to 8) (size 9 to 14) (size 15 to 20)
#    0.000    2.500    2.500    0.750    0.000    1.750 
#    0.000    1.875    0.000    7.875    0.000    0.000 
#    0.000    4.000    0.000    0.000    0.000    0.000 
#
# Total GULP energy -178516.167733 kJ/mol
# GULP energy per Si atom -5578.630242 kJ/mol
# Density = 2.575767 g / cm^3
# Si number density = 25.816433 Si / 1000 Ang^3
#
#
#
# Elastic Constant Matrix: (Units=GPa)
#
#
# Indices 1 2 3 4 5 6 
#
# 1 89.2090 -3.2204 39.7122 0.0000 27.2789 0.0000
# 2 -3.2204 97.0177 5.2867 0.0000 3.9847 0.0000
# 3 39.7122 5.2867 197.9981 0.0000 28.5473 0.0000
# 4 0.0000 0.0000 0.0000 4.8894 0.0000 35.0860
# 5 27.2789 3.9847 28.5473 0.0000 52.7764 0.0000
# 6 0.0000 0.0000 0.0000 35.0860 0.0000 89.2660
#
#
#
# Elastic Compliance Matrix: (Units=1/GPa)
#
#
# Indices 1 2 3 4 5 6 
#
# 1 0.014013 0.000828 -0.001930 0.000000 -0.006262 0.000000
# 2 0.000828 0.010394 -0.000291 0.000000 -0.001055 0.000000
# 3 -0.001930 -0.000291 0.005747 0.000000 -0.002089 0.000000
# 4 0.000000 0.000000 0.000000 -0.112346 0.000000 0.044157
# 5 -0.006262 -0.001055 -0.002089 0.000000 0.023394 0.000000
# 6 0.000000 0.000000 0.000000 0.044157 0.000000 -0.006154
#
#
# Mechanical properties :
#
#
# Convention : Reuss Voigt Hill
#
# Bulk Modulus (GPa) = 36.54118 51.97575 44.25846
# Shear Modulus (GPa) = -94.26560 52.21612 -21.02474
#
# Velocity S-wave (km/s) = -6.04922 4.50220 -2.85685
# Velocity P-wave (km/s) = 5.88267 6.87044 2.50970
#
# Compressibility (1/GPa) = 0.02736639
#
# Stress axis : x y z
#
# Youngs Moduli (GPa) = 71.36032 96.20873 174.01633
#
# Poissons Ratio (x) = -0.07961 0.33584
# Poissons Ratio (y) = -0.05905 0.05071
# Poissons Ratio (z) = 0.13772 0.02804
#
# Static dielectric constant tensor:
#      x y z
#    x 2.032560 0.000000 0.080620 
#    y 0.000000 1.971320 0.000000 
#    z 0.080620 0.000000 2.155780 
# 
# From -- ./inp_files/54830.got.cif
#   From: 2010.05.17/outbox.cif.g08.bks.cpg/sg10_28_cif.got.tgz:54830.got - 2010.06.03 11:33:40.
