data_PCOD9142644
_publ_section_title
;
Structure prediction by ZEFSAII (Michael W. Deem and Ramdas Pophale) SiO2 
 PCOD9142644
Probable space group: P 2/M
;
_chemical_formula_sum "Si O2"
_cell_formula_units_Z 28
_cell_length_a 16.775018
_cell_length_b 11.798936
_cell_length_c 19.919425
_cell_angle_alpha 90.000000
_cell_angle_beta 159.683360
_cell_angle_gamma 90.000000
_cell_volume 1368.902094
_symmetry_space_group_name_H-M "P 2/M"
_symmetry_group_IT_number 10
_symmetry_cell_setting 'monoclinic'
loop_
_space_group_symop_operation_xyz
x,y,z
-x,y,-z
-x,-y,-z
x,-y,z
loop_
_atom_site_type_symbol
_atom_site_label
_atom_site_fract_x
_atom_site_fract_y
_atom_site_fract_z
Si Si1 0.098738 0.500000 0.206188
Si Si2 0.518131 0.255197 0.664963
Si Si3 0.432098 0.867497 0.091063
Si Si4 0.821236 0.868351 0.517328
Si Si5 0.896285 0.746415 0.074456
Si Si6 0.580615 0.500000 0.663639
Si Si7 0.799378 0.130662 0.784003
Si Si8 0.814373 0.137512 0.297259
O O1 0.346066 0.500000 0.436479
O O2 0.188743 0.500000 0.199796
O O3 0.964343 0.614129 0.121192
O O4 0.276363 0.212530 0.502011
O O5 0.700202 0.221334 0.865461
O O6 0.558829 0.387739 0.689600
O O7 0.592729 0.199270 0.654167
O O8 0.635092 0.866015 0.308586
O O9 0.222118 0.791259 0.951265
O O10 0.565192 0.829155 0.128558
O O11 0.362172 0.000000 0.029514
O O12 0.064629 0.833223 0.677330
O O13 0.829316 0.000000 0.545975
O O14 0.110137 0.815128 0.213071
O O15 0.743490 0.000000 0.731021
O O16 0.000000 0.137426 0.000000
O O17 0.000000 0.174287 0.500000
O O18 0.809515 0.000000 0.294041
#
# Coordination Sequence:
#
# PCOD9142644 Si02
#       8
#     2   4   4   4   4   2   4   4
#     4  11  23  37  49  60  83 120 160 195 229 268
#     4  10  18  29  48  70  91 116 151 189 221 261
#     4   8  13  22  40  69 100 124 145 175 220 270
#     4   8  13  22  40  69 100 124 145 175 220 270
#     4  10  18  29  48  70  91 116 151 189 221 261
#     4  11  23  37  49  60  83 120 160 195 229 268
#     4   9  16  25  41  68  96 115 134 173 226 269
#     4   7  10  18  34  61  99 130 144 165 212 269
#
# _framework density 20.454348
#
# number of rings (size 3 to 8) (size 9 to 14) (size 15 to 20)
#    0.000    3.000    1.429    3.000    0.000    4.000 
#    0.000    0.000    0.000    5.143    0.000    7.000 
#    0.000    3.429    0.000    0.000    0.000    0.000 
#
# Total GULP energy -156154.113490 kJ/mol
# GULP energy per Si atom -5576.932625 kJ/mol
# Density = 2.040779 g / cm^3
# Si number density = 20.454348 Si / 1000 Ang^3
#
#
#
# Elastic Constant Matrix: (Units=GPa)
#
#
# Indices 1 2 3 4 5 6 
#
# 1 142.4663 66.7830 53.2206 0.0000 63.9132 0.0000
# 2 66.7830 106.2200 24.7817 0.0000 53.3484 0.0000
# 3 53.2206 24.7817 104.5029 0.0000 29.9148 0.0000
# 4 0.0000 0.0000 0.0000 204.1546 0.0000 -43.2409
# 5 63.9132 53.3484 29.9148 0.0000 57.2370 0.0000
# 6 0.0000 0.0000 0.0000 -43.2409 0.0000 2.2334
#
#
#
# Elastic Compliance Matrix: (Units=1/GPa)
#
#
# Indices 1 2 3 4 5 6 
#
# 1 0.015251 -0.002138 -0.003475 0.000000 -0.013221 0.000000
# 2 -0.002138 0.018034 0.001106 0.000000 -0.015000 0.000000
# 3 -0.003475 0.001106 0.012066 0.000000 -0.003456 0.000000
# 4 0.000000 0.000000 0.000000 -0.001580 0.000000 -0.030584
# 5 -0.013221 -0.015000 -0.003456 0.000000 0.048021 0.000000
# 6 0.000000 0.000000 0.000000 -0.030584 0.000000 -0.144399
#
#
# Mechanical properties :
#
#
# Convention : Reuss Voigt Hill
#
# Bulk Modulus (GPa) = 27.52037 71.41775 49.46906
# Shear Modulus (GPa) = -158.82702 66.61859 -46.10421
#
# Velocity S-wave (km/s) = -8.82146 5.71315 -4.75279
# Velocity P-wave (km/s) = 9.50125 8.86068 2.42509
#
# Compressibility (1/GPa) = 0.03633672
#
# Stress axis : x y z
#
# Youngs Moduli (GPa) = 65.57157 55.45114 82.87632
#
# Poissons Ratio (x) = 0.11853 0.28802
# Poissons Ratio (y) = 0.14016 -0.09165
# Poissons Ratio (z) = 0.22788 -0.06132
#
# Static dielectric constant tensor:
#      x y z
#    x 1.799520 0.000000 -0.040410 
#    y 0.000000 1.681570 0.000000 
#    z -0.040410 0.000000 1.823170 
# 
# From -- ./inp_files/54720.got.cif
#   From: 2010.05.17/outbox.cif.g08.bks.cpg/sg10_28_cif.got.tgz:54720.got - 2010.06.03 11:33:40.
