data_PCOD9142056
_publ_section_title
;
Structure prediction by ZEFSAII (Michael W. Deem and Ramdas Pophale) SiO2 
 PCOD9142056
Probable space group: P 2/M
;
_chemical_formula_sum "Si O2"
_cell_formula_units_Z 28
_cell_length_a 14.414006
_cell_length_b 14.889736
_cell_length_c 8.971097
_cell_angle_alpha 90.000000
_cell_angle_beta 48.812758
_cell_angle_gamma 90.000000
_cell_volume 1448.969620
_symmetry_space_group_name_H-M "P 2/M"
_symmetry_group_IT_number 10
_symmetry_cell_setting 'monoclinic'
loop_
_space_group_symop_operation_xyz
x,y,z
-x,y,-z
-x,-y,-z
x,-y,z
loop_
_atom_site_type_symbol
_atom_site_label
_atom_site_fract_x
_atom_site_fract_y
_atom_site_fract_z
Si Si1 0.630645 0.152419 0.788101
Si Si2 0.745205 0.397409 0.346513
Si Si3 0.456818 0.752676 0.386724
Si Si4 0.038663 0.271220 0.786786
Si Si5 0.614793 0.337236 0.967418
Si Si6 0.163122 0.402190 0.092243
Si Si7 0.900174 0.900118 0.473907
O O1 0.606553 0.167649 0.638790
O O2 0.651581 0.254374 0.823416
O O3 0.758391 0.102982 0.681489
O O4 0.500000 0.121418 0.000000
O O5 0.725574 0.500000 0.416700
O O6 0.630572 0.332537 0.492556
O O7 0.857137 0.347912 0.310867
O O8 0.777410 0.400189 0.136458
O O9 0.500000 0.785910 0.500000
O O10 0.564005 0.712735 0.168952
O O11 0.082779 0.181039 0.660157
O O12 0.928179 0.317917 0.811950
O O13 0.000000 0.253473 0.000000
O O14 0.730515 0.393752 0.897148
O O15 0.500000 0.381841 0.000000
O O16 0.100790 0.500000 0.172445
O O17 0.000000 0.887883 0.500000
O O18 0.921256 0.000000 0.387398
#
# Coordination Sequence:
#
# PCOD9142056 Si02
#       7
#     4   4   4   4   4   4   4
#     4   9  20  38  59  85 117 152 191 238 287 351
#     4  10  19  31  53  83 112 150 195 235 272 329
#     4  10  17  31  55  81 110 151 193 229 281 329
#     4  10  21  38  60  83 114 149 187 238 291 340
#     4   9  19  32  51  75 111 156 188 234 279 328
#     4  10  19  32  52  80 114 153 193 233 276 331
#     4  11  23  40  66  91 113 147 191 240 299 358
#
# _framework density 19.324076999999999
#
# number of rings (size 3 to 8) (size 9 to 14) (size 15 to 20)
#    0.000    2.429    2.857    1.286    0.000    3.429 
#    0.000    2.143    0.000    2.571    0.000    0.000 
#    0.000    0.000    0.000    0.000    0.000    0.000 
#
# Total GULP energy -156058.824757 kJ/mol
# GULP energy per Si atom -5573.529456 kJ/mol
# Density = 1.928009 g / cm^3
# Si number density = 19.324077 Si / 1000 Ang^3
#
#
#
# Elastic Constant Matrix: (Units=GPa)
#
#
# Indices 1 2 3 4 5 6 
#
# 1 135.2992 45.8911 34.5804 0.0000 1.3321 0.0000
# 2 45.8911 79.4525 20.3494 0.0000 -7.6461 0.0000
# 3 34.5804 20.3494 41.9751 0.0000 -1.2044 0.0000
# 4 0.0000 0.0000 0.0000 3.0461 0.0000 -0.2220
# 5 1.3321 -7.6461 -1.2044 0.0000 22.3628 0.0000
# 6 0.0000 0.0000 0.0000 -0.2220 0.0000 -7.3305
#
#
#
# Elastic Compliance Matrix: (Units=1/GPa)
#
#
# Indices 1 2 3 4 5 6 
#
# 1 0.010715 -0.004750 -0.006599 0.000000 -0.002618 0.000000
# 2 -0.004750 0.016953 -0.004137 0.000000 0.005857 0.000000
# 3 -0.006599 -0.004137 0.031285 0.000000 0.000663 0.000000
# 4 0.000000 0.000000 0.000000 0.327563 0.000000 -0.009919
# 5 -0.002618 0.005857 0.000663 0.000000 0.046911 0.000000
# 6 0.000000 0.000000 0.000000 -0.009919 0.000000 -0.136116
#
#
# Mechanical properties :
#
#
# Convention : Reuss Voigt Hill
#
# Bulk Modulus (GPa) = 35.74093 50.92986 43.33540
# Shear Modulus (GPa) = 14.80989 14.00941 14.40965
#
# Velocity S-wave (km/s) = 2.77139 2.69545 2.73368
# Velocity P-wave (km/s) = 5.36437 6.00834 5.69546
#
# Compressibility (1/GPa) = 0.02797912
#
# Stress axis : x y z
#
# Youngs Moduli (GPa) = 93.32928 58.98581 31.96412
#
# Poissons Ratio (x) = 0.28021 0.21094
# Poissons Ratio (y) = 0.44336 0.13224
# Poissons Ratio (z) = 0.61590 0.24404
#
# Static dielectric constant tensor:
#      x y z
#    x 1.719490 0.000000 -0.016960 
#    y 0.000000 1.639670 0.000000 
#    z -0.016960 0.000000 1.709240 
# 
# From -- ./inp_files/29415.got.cif
#   From: 2010.05.17/outbox.cif.g08.bks.cpg/sg10_15_cif.got.tgz:29415.got - 2010.06.03 11:33:40.
