data_PCOD9142264
_publ_section_title
;
Structure prediction by ZEFSAII (Michael W. Deem and Ramdas Pophale) SiO2 
 PCOD9142264
Probable space group: P 2/M
;
_chemical_formula_sum "Si O2"
_cell_formula_units_Z 32
_cell_length_a 13.263923
_cell_length_b 10.540249
_cell_length_c 19.465260
_cell_angle_alpha 90.000000
_cell_angle_beta 142.288684
_cell_angle_gamma 90.000000
_cell_volume 1664.599242
_symmetry_space_group_name_H-M "P 2/M"
_symmetry_group_IT_number 10
_symmetry_cell_setting 'monoclinic'
loop_
_space_group_symop_operation_xyz
x,y,z
-x,y,-z
-x,-y,-z
x,-y,z
loop_
_atom_site_type_symbol
_atom_site_label
_atom_site_fract_x
_atom_site_fract_y
_atom_site_fract_z
Si Si1 0.271348 0.846837 0.321250
Si Si2 0.227116 0.359668 0.866481
Si Si3 0.028509 0.153539 0.938240
Si Si4 0.976545 0.145959 0.704970
Si Si5 0.541136 0.640086 0.136938
Si Si6 0.597344 0.145421 0.853341
Si Si7 0.457315 0.851737 0.630658
Si Si8 0.109813 0.850837 0.496541
O O1 0.440715 0.797597 0.379088
O O2 0.116814 0.804893 0.190544
O O3 0.205754 0.823868 0.362974
O O4 0.285975 0.000000 0.323513
O O5 0.150327 0.500000 0.832945
O O6 0.102537 0.244598 0.804909
O O7 0.308055 0.351976 0.834462
O O8 0.378769 0.352938 0.001078
O O9 0.019322 0.000000 0.934583
O O10 0.218454 0.182006 0.024130
O O11 0.000000 0.200887 0.000000
O O12 0.983482 0.153331 0.626594
O O13 0.013112 0.000000 0.745063
O O14 0.542466 0.500000 0.170600
O O15 0.529275 0.756295 0.182178
O O16 0.583565 0.148035 0.763318
O O17 0.563332 0.000000 0.856086
O O18 0.289087 0.795773 0.572058
O O19 0.416693 0.000000 0.592511
O O20 0.000000 0.797486 0.500000
O O21 0.139773 0.000000 0.530946
#
# Coordination Sequence:
#
# PCOD9142264 Si02
#       8
#     4   4   4   4   4   4   4   4
#     4   9  16  27  44  71 104 132 168 210 250 302
#     4   9  19  36  53  70  99 139 173 199 249 318
#     4   9  14  23  39  66 102 132 159 199 249 295
#     4  10  20  32  52  79 102 128 166 223 264 286
#     4   9  19  34  50  70 101 138 169 204 251 305
#     4  10  18  27  48  77 100 133 174 209 247 299
#     4   9  17  29  46  71 102 140 174 202 254 315
#     4   9  19  33  47  69 105 138 165 210 270 313
#
# _framework density 19.223846000000002
#
# number of rings (size 3 to 8) (size 9 to 14) (size 15 to 20)
#    0.000    2.750    1.250    1.500    1.750    2.500 
#    0.000    3.750    0.000    2.250    0.000    0.875 
#    0.000    0.000    0.000    0.000    0.000    0.000 
#
# Total GULP energy -178167.607888 kJ/mol
# GULP energy per Si atom -5567.737747 kJ/mol
# Density = 1.918009 g / cm^3
# Si number density = 19.223846 Si / 1000 Ang^3
#
#
#
# Elastic Constant Matrix: (Units=GPa)
#
#
# Indices 1 2 3 4 5 6 
#
# 1 129.7158 34.5653 13.0867 0.0000 9.7011 0.0000
# 2 34.5653 55.7413 13.9351 0.0000 8.7831 0.0000
# 3 13.0867 13.9351 46.6977 0.0000 15.8373 0.0000
# 4 0.0000 0.0000 0.0000 5.0242 0.0000 2.0081
# 5 9.7011 8.7831 15.8373 0.0000 27.5392 0.0000
# 6 0.0000 0.0000 0.0000 2.0081 0.0000 4.5189
#
#
#
# Elastic Compliance Matrix: (Units=1/GPa)
#
#
# Indices 1 2 3 4 5 6 
#
# 1 0.009306 -0.005436 -0.000574 0.000000 -0.001214 0.000000
# 2 -0.005436 0.022845 -0.004313 0.000000 -0.002890 0.000000
# 3 -0.000574 -0.004313 0.027737 0.000000 -0.014373 0.000000
# 4 0.000000 0.000000 0.000000 0.242021 0.000000 -0.107550
# 5 -0.001214 -0.002890 -0.014373 0.000000 0.045927 0.000000
# 6 0.000000 0.000000 0.000000 -0.107550 0.000000 0.269085
#
#
# Mechanical properties :
#
#
# Convention : Reuss Voigt Hill
#
# Bulk Modulus (GPa) = 25.48347 39.48100 32.48224
# Shear Modulus (GPa) = 7.68464 18.78766 13.23615
#
# Velocity S-wave (km/s) = 2.00153 3.12959 2.62683
# Velocity P-wave (km/s) = 4.31584 5.80010 5.11213
#
# Compressibility (1/GPa) = 0.03924112
#
# Stress axis : x y z
#
# Youngs Moduli (GPa) = 107.45235 43.77379 36.05301
#
# Poissons Ratio (x) = 0.23796 0.02069
# Poissons Ratio (y) = 0.58412 0.15551
# Poissons Ratio (z) = 0.06168 0.18881
#
# Static dielectric constant tensor:
#      x y z
#    x 1.728330 0.000000 0.003490 
#    y 0.000000 1.630400 0.000000 
#    z 0.003490 0.000000 1.720620 
# 
# From -- ./inp_files/83890.got.cif
#   From: 2010.05.17/outbox.cif.g08.bks.cpg/sg10_42_cif.got.tgz:83890.got - 2010.06.03 11:33:40.
