data_PCOD9142202
_publ_section_title
;
Structure prediction by ZEFSAII (Michael W. Deem and Ramdas Pophale) SiO2 
 PCOD9142202
Probable space group: P 2/M
;
_chemical_formula_sum "Si O2"
_cell_formula_units_Z 32
_cell_length_a 7.918220
_cell_length_b 15.275182
_cell_length_c 14.596121
_cell_angle_alpha 90.000000
_cell_angle_beta 93.353779
_cell_angle_gamma 90.000000
_cell_volume 1762.410123
_symmetry_space_group_name_H-M "P 2/M"
_symmetry_group_IT_number 10
_symmetry_cell_setting 'monoclinic'
loop_
_space_group_symop_operation_xyz
x,y,z
-x,y,-z
-x,-y,-z
x,-y,z
loop_
_atom_site_type_symbol
_atom_site_label
_atom_site_fract_x
_atom_site_fract_y
_atom_site_fract_z
Si Si1 0.145530 0.404022 0.638681
Si Si2 0.818482 0.893839 0.883773
Si Si3 0.247077 0.404438 0.429557
Si Si4 0.048432 0.901947 0.392494
Si Si5 0.244466 0.219371 0.652136
Si Si6 0.485809 0.105701 0.766656
Si Si7 0.669168 0.781267 0.549034
Si Si8 0.198622 0.894488 0.907576
O O1 0.174008 0.500000 0.682618
O O2 0.225012 0.409445 0.538890
O O3 0.216634 0.316882 0.689128
O O4 0.942908 0.393367 0.616431
O O5 0.670920 0.870088 0.809059
O O6 0.010763 0.863697 0.872577
O O7 0.819718 0.000000 0.883634
O O8 0.772204 0.866380 0.986359
O O9 0.314663 0.500000 0.401970
O O10 0.350795 0.316264 0.410922
O O11 0.221885 0.849125 0.391264
O O12 0.000000 0.908408 0.500000
O O13 0.904628 0.849477 0.334623
O O14 0.063889 0.000000 0.357280
O O15 0.415680 0.169791 0.685638
O O16 0.225989 0.233094 0.542100
O O17 0.351274 0.124703 0.844137
O O18 0.478140 0.000000 0.745067
O O19 0.500000 0.818366 0.500000
O O20 0.189661 0.000000 0.909687
#
# Coordination Sequence:
#
# PCOD9142202 Si02
#       8
#     4   4   4   4   4   4   4   4
#     4   8  13  24  44  62  74  97 132 170 215 260
#     4   8  14  26  43  63  88 112 140 172 199 246
#     4   8  13  24  43  63  77  91 124 176 224 263
#     4   9  17  30  44  52  68 104 145 176 201 237
#     4  10  18  30  43  59  81 106 138 178 215 250
#     4  10  18  27  41  63  89 116 143 170 207 248
#     4  10  19  30  42  58  78 105 143 180 216 254
#     4   8  14  26  44  63  84 115 143 166 205 247
#
# _framework density 18.156953999999999
#
# number of rings (size 3 to 8) (size 9 to 14) (size 15 to 20)
#    0.000    3.125    1.250    2.250    0.000    2.500 
#    2.250    0.000    0.000    0.000    0.000    0.000 
#    0.000    2.000    0.000    2.750    0.000    0.250 
#
# Total GULP energy -178148.083207 kJ/mol
# GULP energy per Si atom -5567.127600 kJ/mol
# Density = 1.811563 g / cm^3
# Si number density = 18.156954 Si / 1000 Ang^3
#
#
#
# Elastic Constant Matrix: (Units=GPa)
#
#
# Indices 1 2 3 4 5 6 
#
# 1 52.6580 25.5817 23.6931 0.0000 24.6532 0.0000
# 2 25.5817 101.1552 32.9636 0.0000 26.1379 0.0000
# 3 23.6931 32.9636 54.4241 0.0000 7.2738 0.0000
# 4 0.0000 0.0000 0.0000 7.3213 0.0000 5.9960
# 5 24.6532 26.1379 7.2738 0.0000 33.7265 0.0000
# 6 0.0000 0.0000 0.0000 5.9960 0.0000 12.3225
#
#
#
# Elastic Compliance Matrix: (Units=1/GPa)
#
#
# Indices 1 2 3 4 5 6 
#
# 1 0.035573 0.001612 -0.013201 0.000000 -0.024405 0.000000
# 2 0.001612 0.015050 -0.008341 0.000000 -0.011043 0.000000
# 3 -0.013201 -0.008341 0.027821 0.000000 0.010114 0.000000
# 4 0.000000 0.000000 0.000000 0.227083 0.000000 -0.110497
# 5 -0.024405 -0.011043 0.010114 0.000000 0.053866 0.000000
# 6 0.000000 0.000000 0.000000 -0.110497 0.000000 0.134920
#
#
# Mechanical properties :
#
#
# Convention : Reuss Voigt Hill
#
# Bulk Modulus (GPa) = 25.91781 41.41269 33.66525
# Shear Modulus (GPa) = 9.14018 19.07397 14.10707
#
# Velocity S-wave (km/s) = 2.24609 3.24467 2.79041
# Velocity P-wave (km/s) = 4.58605 6.07411 5.38176
#
# Compressibility (1/GPa) = 0.03858350
#
# Stress axis : x y z
#
# Youngs Moduli (GPa) = 28.11125 66.44653 35.94345
#
# Poissons Ratio (x) = -0.10709 0.47448
# Poissons Ratio (y) = -0.04530 0.29981
# Poissons Ratio (z) = 0.37109 0.55424
#
# Static dielectric constant tensor:
#      x y z
#    x 1.706130 0.000000 -0.034440 
#    y 0.000000 1.678690 0.000000 
#    z -0.034440 0.000000 1.652860 
# 
# From -- ./inp_files/75115.got.cif
#   From: 2010.05.17/outbox.cif.g08.bks.cpg/sg10_38_cif.got.tgz:75115.got - 2010.06.03 11:33:40.
