data_PCOD9142927
_publ_section_title
;
Structure prediction by ZEFSAII (Michael W. Deem and Ramdas Pophale) SiO2 
 PCOD9142927
Probable space group: P 2/M
;
_chemical_formula_sum "Si O2"
_cell_formula_units_Z 28
_cell_length_a 13.719121
_cell_length_b 8.509864
_cell_length_c 16.944923
_cell_angle_alpha 90.000000
_cell_angle_beta 135.646548
_cell_angle_gamma 90.000000
_cell_volume 1382.983619
_symmetry_space_group_name_H-M "P 2/M"
_symmetry_group_IT_number 10
_symmetry_cell_setting 'monoclinic'
loop_
_space_group_symop_operation_xyz
x,y,z
-x,y,-z
-x,-y,-z
x,-y,z
loop_
_atom_site_type_symbol
_atom_site_label
_atom_site_fract_x
_atom_site_fract_y
_atom_site_fract_z
Si Si1 0.760938 0.684712 0.066700
Si Si2 0.806039 0.318600 0.334104
Si Si3 0.262168 0.685594 0.520412
Si Si4 0.983553 0.820578 0.311250
Si Si5 0.477680 0.816988 0.868541
Si Si6 0.553284 0.309209 0.739376
Si Si7 0.851614 0.690392 0.942875
O O1 0.728057 0.500000 0.044069
O O2 0.884240 0.716697 0.198875
O O3 0.615104 0.773283 0.997541
O O4 0.818502 0.734872 0.013896
O O5 0.847613 0.500000 0.349036
O O6 0.774014 0.290934 0.407528
O O7 0.924079 0.211428 0.364532
O O8 0.662296 0.284602 0.204039
O O9 0.248601 0.500000 0.496395
O O10 0.425074 0.730647 0.607646
O O11 0.145333 0.774930 0.403764
O O12 0.963010 0.000000 0.277221
O O13 0.522966 0.776192 0.804654
O O14 0.443772 0.000000 0.857389
O O15 0.544301 0.500000 0.747468
O O16 0.713254 0.270236 0.812001
O O17 0.860145 0.500000 0.946998
O O18 0.000000 0.752944 0.000000
#
# Coordination Sequence:
#
# PCOD9142927 Si02
#       7
#     4   4   4   4   4   4   4
#     4  10  20  35  52  71 100 135 165 196 247 306
#     4  10  20  35  53  72  96 130 172 211 249 292
#     4   9  18  33  51  70  96 133 173 206 240 289
#     4  12  24  34  47  70  99 131 170 213 251 288
#     4  10  18  30  49  73 101 129 163 207 248 288
#     4   8  15  29  50  75 102 132 163 197 242 294
#     4   8  14  28  55  86 105 119 151 202 249 290
#
# _framework density 20.246082000000001
#
# number of rings (size 3 to 8) (size 9 to 14) (size 15 to 20)
#    0.000    2.429    0.000    5.571    0.000    5.143 
#    0.000    2.857    0.000   11.571    0.000    6.000 
#    0.000    0.000    0.000    0.000    0.000    0.000 
#
# Total GULP energy -156195.439303 kJ/mol
# GULP energy per Si atom -5578.408547 kJ/mol
# Density = 2.020000 g / cm^3
# Si number density = 20.246082 Si / 1000 Ang^3
#
#
#
# Elastic Constant Matrix: (Units=GPa)
#
#
# Indices 1 2 3 4 5 6 
#
# 1 51.7479 1.7636 17.6307 0.0000 30.9719 0.0000
# 2 1.7636 23.4539 3.5152 0.0000 1.7762 0.0000
# 3 17.6307 3.5152 90.9848 0.0000 30.4673 0.0000
# 4 0.0000 0.0000 0.0000 14.9033 0.0000 2.6824
# 5 30.9719 1.7762 30.4673 0.0000 30.4910 0.0000
# 6 0.0000 0.0000 0.0000 2.6824 0.0000 -1.3207
#
#
#
# Elastic Compliance Matrix: (Units=1/GPa)
#
#
# Indices 1 2 3 4 5 6 
#
# 1 0.057627 -0.000846 0.012700 0.000000 -0.071177 0.000000
# 2 -0.000846 0.042930 -0.001420 0.000000 -0.000222 0.000000
# 3 0.012700 -0.001420 0.019352 0.000000 -0.032155 0.000000
# 4 0.000000 0.000000 0.000000 0.049137 0.000000 0.099800
# 5 -0.071177 -0.000222 -0.032155 0.000000 0.137239 0.000000
# 6 0.000000 0.000000 0.000000 0.099800 0.000000 -0.554491
#
#
# Mechanical properties :
#
#
# Convention : Reuss Voigt Hill
#
# Bulk Modulus (GPa) = 7.10345 23.55619 15.32982
# Shear Modulus (GPa) = -22.50747 18.36652 -2.07047
#
# Velocity S-wave (km/s) = -3.33783 3.01518 -1.01236
# Velocity P-wave (km/s) = 3.36728 4.87668 2.49433
#
# Compressibility (1/GPa) = 0.14077664
#
# Stress axis : x y z
#
# Youngs Moduli (GPa) = 17.35311 23.29366 51.67360
#
# Poissons Ratio (x) = 0.01971 -0.65627
# Poissons Ratio (y) = 0.01469 0.07339
# Poissons Ratio (z) = -0.22039 0.03308
#
# Static dielectric constant tensor:
#      x y z
#    x 1.750390 0.000000 0.009840 
#    y 0.000000 1.679560 0.000000 
#    z 0.009840 0.000000 1.776820 
# 
# From -- ./inp_files/68622.got.cif
#   From: 2010.05.17/outbox.cif.g08.bks.cpg/sg10_35_cif.got.tgz:68622.got - 2010.06.03 11:33:40.
