data_PCOD9142205
_publ_section_title
;
Structure prediction by ZEFSAII (Michael W. Deem and Ramdas Pophale) SiO2 
 PCOD9142205
Probable space group: P 2/M
;
_chemical_formula_sum "Si O2"
_cell_formula_units_Z 30
_cell_length_a 18.598041
_cell_length_b 13.285648
_cell_length_c 8.714701
_cell_angle_alpha 90.000000
_cell_angle_beta 30.715246
_cell_angle_gamma 90.000000
_cell_volume 1099.839367
_symmetry_space_group_name_H-M "P 2/M"
_symmetry_group_IT_number 10
_symmetry_cell_setting 'monoclinic'
loop_
_space_group_symop_operation_xyz
x,y,z
-x,y,-z
-x,-y,-z
x,-y,z
loop_
_atom_site_type_symbol
_atom_site_label
_atom_site_fract_x
_atom_site_fract_y
_atom_site_fract_z
Si Si1 0.497185 0.205864 0.837924
Si Si2 0.068454 0.388175 0.727094
Si Si3 0.156442 0.622943 0.260581
Si Si4 0.248979 0.389027 0.779201
Si Si5 0.500000 0.212955 0.500000
Si Si6 0.188471 0.881506 0.404574
Si Si7 0.792695 0.190508 0.300008
Si Si8 0.192446 0.881388 0.054040
O O1 0.496721 0.264694 0.675181
O O2 0.638642 0.137902 0.578937
O O3 0.500000 0.258602 0.000000
O O4 0.355570 0.140934 0.094398
O O5 0.120254 0.500000 0.681506
O O6 0.174811 0.345660 0.405436
O O7 0.920864 0.403620 0.910140
O O8 0.000000 0.335142 0.000000
O O9 0.159701 0.500000 0.260772
O O10 0.000000 0.656030 0.500000
O O11 0.264969 0.649757 0.925649
O O12 0.313271 0.500000 0.640065
O O13 0.262285 0.306552 0.621777
O O14 0.640892 0.144536 0.247690
O O15 0.143388 0.835820 0.652776
O O16 0.159751 0.000000 0.466350
O O17 0.139473 0.849259 0.321848
O O18 0.862913 0.165073 0.006639
O O19 0.169681 0.000000 0.085229
#
# Coordination Sequence:
#
# PCOD9142205 Si02
#       8
#     4   4   4   4   2   4   4   4
#     4   8  15  24  38  58  81 111 144 177 215 260
#     4   8  13  24  44  67  85 106 139 177 220 264
#     4   7  11  22  40  58  78 105 133 164 205 253
#     4   9  17  29  42  60  91 124 148 174 213 258
#     4   8  13  22  38  60  81 102 131 170 218 270
#     4   9  17  29  45  65  89 114 145 190 236 273
#     4  10  18  27  41  63  91 120 147 178 221 271
#     4   9  16  26  41  62  86 110 138 176 226 274
#
# _framework density 27.276709
#
# number of rings (size 3 to 8) (size 9 to 14) (size 15 to 20)
#    0.000    3.467    0.000    2.200    0.000    5.600 
#    2.400    0.000    0.000    3.600    0.000   15.867 
#    0.000   21.333    0.000    0.000    0.000    0.000 
#
# Total GULP energy -167048.161064 kJ/mol
# GULP energy per Si atom -5568.272035 kJ/mol
# Density = 2.721463 g / cm^3
# Si number density = 27.276709 Si / 1000 Ang^3
#
#
#
# Elastic Constant Matrix: (Units=GPa)
#
#
# Indices 1 2 3 4 5 6 
#
# 1 173.2534 34.0558 68.3100 0.0000 58.5216 0.0000
# 2 34.0558 119.9274 58.9923 0.0000 30.9015 0.0000
# 3 68.3100 58.9923 193.4800 0.0000 85.6127 0.0000
# 4 0.0000 0.0000 0.0000 32.1873 0.0000 14.8718
# 5 58.5216 30.9015 85.6127 0.0000 80.7192 0.0000
# 6 0.0000 0.0000 0.0000 14.8718 0.0000 18.8236
#
#
#
# Elastic Compliance Matrix: (Units=1/GPa)
#
#
# Indices 1 2 3 4 5 6 
#
# 1 0.007725 -0.000766 -0.000274 0.000000 -0.005017 0.000000
# 2 -0.000766 0.009938 -0.002491 0.000000 -0.000607 0.000000
# 3 -0.000274 -0.002491 0.010392 0.000000 -0.009870 0.000000
# 4 0.000000 0.000000 0.000000 0.048929 0.000000 -0.038657
# 5 -0.005017 -0.000607 -0.009870 0.000000 0.026726 0.000000
# 6 0.000000 0.000000 0.000000 -0.038657 0.000000 0.083666
#
#
# Mechanical properties :
#
#
# Convention : Reuss Voigt Hill
#
# Bulk Modulus (GPa) = 47.63582 89.93078 68.78330
# Shear Modulus (GPa) = 24.82175 48.03285 36.42730
#
# Velocity S-wave (km/s) = 3.01989 4.20092 3.65838
# Velocity P-wave (km/s) = 5.44624 7.52141 6.56632
#
# Compressibility (1/GPa) = 0.02099261
#
# Stress axis : x y z
#
# Youngs Moduli (GPa) = 129.44800 100.62749 96.22843
#
# Poissons Ratio (x) = 0.07711 0.02635
# Poissons Ratio (y) = 0.09920 0.23969
# Poissons Ratio (z) = 0.03545 0.25065
#
# Static dielectric constant tensor:
#      x y z
#    x 2.357580 0.000000 -0.027110 
#    y 0.000000 2.127160 0.000000 
#    z -0.027110 0.000000 2.241110 
# 
# From -- ./inp_files/36139.got.cif
#   From: 2010.05.17/outbox.cif.g08.bks.cpg/sg10_19_cif.got.tgz:36139.got - 2010.06.03 11:33:40.
