data_PCOD9142388
_publ_section_title
;
Structure prediction by ZEFSAII (Michael W. Deem and Ramdas Pophale) SiO2 
 PCOD9142388
Probable space group: P 2/M
;
_chemical_formula_sum "Si O2"
_cell_formula_units_Z 32
_cell_length_a 17.852394
_cell_length_b 19.018479
_cell_length_c 12.038169
_cell_angle_alpha 90.000000
_cell_angle_beta 28.942642
_cell_angle_gamma 90.000000
_cell_volume 1977.965188
_symmetry_space_group_name_H-M "P 2/M"
_symmetry_group_IT_number 10
_symmetry_cell_setting 'monoclinic'
loop_
_space_group_symop_operation_xyz
x,y,z
-x,y,-z
-x,-y,-z
x,-y,z
loop_
_atom_site_type_symbol
_atom_site_label
_atom_site_fract_x
_atom_site_fract_y
_atom_site_fract_z
Si Si1 0.833480 0.916910 0.157361
Si Si2 0.590979 0.919115 0.665060
Si Si3 0.971791 0.421718 0.402891
Si Si4 0.145444 0.706841 0.223934
Si Si5 0.673067 0.667681 0.804408
Si Si6 0.750613 0.175983 0.634179
Si Si7 0.239829 0.079396 0.162588
Si Si8 0.101653 0.155132 0.150835
O O1 0.695698 0.902466 0.422655
O O2 0.828215 0.000000 0.135801
O O3 0.822631 0.872019 0.059774
O O4 0.000000 0.904484 0.000000
O O5 0.634751 0.867099 0.707335
O O6 0.629136 0.000000 0.648103
O O7 0.407654 0.916032 0.885487
O O8 0.993381 0.500000 0.328832
O O9 0.910845 0.358662 0.777929
O O10 0.800815 0.390427 0.605562
O O11 0.000000 0.426969 0.500000
O O12 0.287481 0.684208 0.117466
O O13 0.171504 0.775032 0.116392
O O14 0.000000 0.721979 0.500000
O O15 0.703860 0.743047 0.706993
O O16 0.500000 0.645593 0.000000
O O17 0.759817 0.137005 0.740954
O O18 0.922060 0.170683 0.361645
O O19 0.115474 0.096968 0.229814
O O20 0.222611 0.000000 0.228721
#
# Coordination Sequence:
#
# PCOD9142388 Si02
#       8
#     4   4   4   4   4   4   4   4
#     4  10  21  36  52  67  88 127 170 211 252 292
#     4  10  22  38  50  66  96 129 167 209 254 299
#     4   8  15  28  46  67  97 137 166 188 228 289
#     4   9  16  31  45  69 100 128 158 194 245 288
#     4  10  18  28  46  71 101 132 160 195 244 290
#     4  12  20  32  51  71  99 129 163 200 252 300
#     4  11  23  33  48  73  95 124 161 209 257 296
#     4  12  20  33  51  70  95 125 167 206 243 296
#
# _framework density 16.178241
#
# number of rings (size 3 to 8) (size 9 to 14) (size 15 to 20)
#    0.000    2.000    5.000    2.250    0.000    3.750 
#    0.000    1.875    0.000    0.000    0.000    0.000 
#    0.000    4.500    0.000    1.625    0.000    0.250 
#
# Total GULP energy -178386.522511 kJ/mol
# GULP energy per Si atom -5574.578828 kJ/mol
# Density = 1.614142 g / cm^3
# Si number density = 16.178241 Si / 1000 Ang^3
#
#
#
# Elastic Constant Matrix: (Units=GPa)
#
#
# Indices 1 2 3 4 5 6 
#
# 1 59.4803 25.3852 17.5668 0.0000 -9.0404 0.0000
# 2 25.3852 83.6870 16.6760 0.0000 9.8410 0.0000
# 3 17.5668 16.6760 47.1011 0.0000 -4.5491 0.0000
# 4 0.0000 0.0000 0.0000 9.7134 0.0000 -0.4414
# 5 -9.0404 9.8410 -4.5491 0.0000 28.6859 0.0000
# 6 0.0000 0.0000 0.0000 -0.4414 0.0000 11.0347
#
#
#
# Elastic Compliance Matrix: (Units=1/GPa)
#
#
# Indices 1 2 3 4 5 6 
#
# 1 0.022565 -0.006832 -0.005163 0.000000 0.008636 0.000000
# 2 -0.006832 0.015741 -0.003813 0.000000 -0.008158 0.000000
# 3 -0.005163 -0.003813 0.024856 0.000000 0.003623 0.000000
# 4 0.000000 0.000000 0.000000 0.103138 0.000000 0.004126
# 5 0.008636 -0.008158 0.003623 0.000000 0.040955 0.000000
# 6 0.000000 0.000000 0.000000 0.004126 0.000000 0.090789
#
#
# Mechanical properties :
#
#
# Convention : Reuss Voigt Hill
#
# Bulk Modulus (GPa) = 31.69860 34.39160 33.04510
# Shear Modulus (GPa) = 14.69833 18.59616 16.64725
#
# Velocity S-wave (km/s) = 3.01744 3.39404 3.21127
# Velocity P-wave (km/s) = 5.63701 6.05503 5.84976
#
# Compressibility (1/GPa) = 0.03154714
#
# Stress axis : x y z
#
# Youngs Moduli (GPa) = 44.31552 63.52994 40.23106
#
# Poissons Ratio (x) = 0.43401 0.20772
# Poissons Ratio (y) = 0.30275 0.15340
# Poissons Ratio (z) = 0.22881 0.24223
#
# Static dielectric constant tensor:
#      x y z
#    x 1.547830 0.000000 -0.020410 
#    y 0.000000 1.563050 0.000000 
#    z -0.020410 0.000000 1.547390 
# 
# From -- ./inp_files/54228.got.cif
#   From: 2010.05.17/outbox.cif.g08.bks.cpg/sg10_28_cif.got.tgz:54228.got - 2010.06.03 11:33:40.
