data_PCOD9142450
_publ_section_title
;
Structure prediction by ZEFSAII (Michael W. Deem and Ramdas Pophale) SiO2 
 PCOD9142450
Probable space group: P 2/M
;
_chemical_formula_sum "Si O2"
_cell_formula_units_Z 24
_cell_length_a 12.845423
_cell_length_b 7.677976
_cell_length_c 14.053823
_cell_angle_alpha 90.000000
_cell_angle_beta 131.604579
_cell_angle_gamma 90.000000
_cell_volume 1036.437633
_symmetry_space_group_name_H-M "P 2/M"
_symmetry_group_IT_number 10
_symmetry_cell_setting 'monoclinic'
loop_
_space_group_symop_operation_xyz
x,y,z
-x,y,-z
-x,-y,-z
x,-y,z
loop_
_atom_site_type_symbol
_atom_site_label
_atom_site_fract_x
_atom_site_fract_y
_atom_site_fract_z
Si Si1 0.161144 0.212802 0.705070
Si Si2 0.208109 0.200107 0.935743
Si Si3 0.406983 0.200076 0.526543
Si Si4 0.838190 0.213010 0.504235
Si Si5 0.928561 0.702345 0.852139
Si Si6 0.657489 0.296603 0.785572
O O1 0.212992 0.266157 0.632335
O O2 0.998486 0.264423 0.610605
O O3 0.164227 0.000000 0.709404
O O4 0.233153 0.274458 0.845714
O O5 0.282181 0.283446 0.071457
O O6 0.251955 0.000000 0.963496
O O7 0.040619 0.207126 0.852733
O O8 0.500000 0.283075 0.500000
O O9 0.262197 0.278549 0.473528
O O10 0.512055 0.203888 0.679922
O O11 0.379882 0.000000 0.482716
O O12 0.834823 0.000000 0.504555
O O13 0.919273 0.500000 0.818585
O O14 0.774867 0.772913 0.782223
O O15 0.000000 0.707101 0.000000
O O16 0.639729 0.500000 0.754485
#
# Coordination Sequence:
#
# PCOD9142450 Si02
#       6
#     4   4   4   4   4   4
#     4   8  15  28  51  78 104 135 166 202 258 314
#     4  10  18  28  51  82 103 126 171 222 259 293
#     4  10  21  34  54  80 105 131 168 218 260 295
#     4   8  15  31  50  74 108 137 163 204 258 312
#     4   8  16  30  45  65  98 138 169 197 246 305
#     4  10  21  36  50  68 104 146 175 201 250 318
#
# _framework density 23.156241000000001
#
# number of rings (size 3 to 8) (size 9 to 14) (size 15 to 20)
#    0.000    3.000    0.000    3.000    2.333    4.000 
#    0.000    0.833    0.000    7.000    0.000    5.833 
#    0.000    0.000    0.000    0.000    0.000    0.000 
#
# Total GULP energy -133902.343730 kJ/mol
# GULP energy per Si atom -5579.264322 kJ/mol
# Density = 2.310354 g / cm^3
# Si number density = 23.156241 Si / 1000 Ang^3
#
#
#
# Elastic Constant Matrix: (Units=GPa)
#
#
# Indices 1 2 3 4 5 6 
#
# 1 93.0434 -0.2780 15.9504 0.0000 -20.9916 0.0000
# 2 -0.2780 53.5037 7.2992 0.0000 -2.1151 0.0000
# 3 15.9504 7.2992 79.2886 0.0000 -26.7714 0.0000
# 4 0.0000 0.0000 0.0000 -16.7634 0.0000 21.3012
# 5 -20.9916 -2.1151 -26.7714 0.0000 39.0501 0.0000
# 6 0.0000 0.0000 0.0000 21.3012 0.0000 -9.2720
#
#
#
# Elastic Compliance Matrix: (Units=1/GPa)
#
#
# Indices 1 2 3 4 5 6 
#
# 1 0.012244 0.000363 -0.000348 0.000000 0.006363 0.000000
# 2 0.000363 0.018940 -0.001827 0.000000 -0.000032 0.000000
# 3 -0.000348 -0.001827 0.016595 0.000000 0.011091 0.000000
# 4 0.000000 0.000000 0.000000 0.031082 0.000000 0.071406
# 5 0.006363 -0.000032 0.011091 0.000000 0.036630 0.000000
# 6 0.000000 0.000000 0.000000 0.071406 0.000000 0.056194
#
#
# Mechanical properties :
#
#
# Convention : Reuss Voigt Hill
#
# Bulk Modulus (GPa) = 22.64815 30.19768 26.42291
# Shear Modulus (GPa) = 26.31172 16.12722 21.21947
#
# Velocity S-wave (km/s) = 3.37452 2.64190 3.03043
# Velocity P-wave (km/s) = 4.99850 4.73026 4.86623
#
# Compressibility (1/GPa) = 0.04415371
#
# Stress axis : x y z
#
# Youngs Moduli (GPa) = 81.67298 52.79769 60.25824
#
# Poissons Ratio (x) = -0.01915 0.02098
# Poissons Ratio (y) = -0.02962 0.11011
# Poissons Ratio (z) = 0.02843 0.09648
#
# Static dielectric constant tensor:
#      x y z
#    x 1.890820 0.000000 -0.014940 
#    y 0.000000 1.827420 0.000000 
#    z -0.014940 0.000000 1.926760 
# 
# From -- ./inp_files/46230.got.cif
#   From: 2010.05.17/outbox.cif.g08.bks.cpg/sg10_24_cif.got.tgz:46230.got - 2010.06.03 11:33:40.
