data_PCOD9142525
_publ_section_title
;
Structure prediction by ZEFSAII (Michael W. Deem and Ramdas Pophale) SiO2 
 PCOD9142525
Probable space group: P 2/M
;
_chemical_formula_sum "Si O2"
_cell_formula_units_Z 32
_cell_length_a 25.470868
_cell_length_b 8.715422
_cell_length_c 12.746999
_cell_angle_alpha 90.000000
_cell_angle_beta 49.011785
_cell_angle_gamma 90.000000
_cell_volume 2135.982137
_symmetry_space_group_name_H-M "P 2/M"
_symmetry_group_IT_number 10
_symmetry_cell_setting 'monoclinic'
loop_
_space_group_symop_operation_xyz
x,y,z
-x,y,-z
-x,-y,-z
x,-y,z
loop_
_atom_site_type_symbol
_atom_site_label
_atom_site_fract_x
_atom_site_fract_y
_atom_site_fract_z
Si Si1 0.578030 0.682555 0.880992
Si Si2 0.835253 0.183549 0.759866
Si Si3 0.938867 0.317534 0.792655
Si Si4 0.830496 0.682389 0.342575
Si Si5 0.288215 0.318164 0.183820
Si Si6 0.926338 0.182670 0.039360
Si Si7 0.909776 0.816319 0.441347
Si Si8 0.701908 0.818886 0.609342
O O1 0.575548 0.500000 0.863639
O O2 0.628157 0.703328 0.917503
O O3 0.622807 0.760867 0.729533
O O4 0.500000 0.739241 0.000000
O O5 0.877050 0.259585 0.799407
O O6 0.757155 0.248149 0.848883
O O7 0.874935 0.222451 0.598671
O O8 0.834534 0.000000 0.771726
O O9 0.946658 0.500000 0.774924
O O10 0.010357 0.236648 0.663356
O O11 0.925235 0.267905 0.930080
O O12 0.834841 0.500000 0.329495
O O13 0.866484 0.760133 0.195678
O O14 0.872503 0.738138 0.390807
O O15 0.750713 0.735245 0.462270
O O16 0.274657 0.500000 0.211687
O O17 0.266258 0.229428 0.318942
O O18 0.921322 0.000000 0.029057
O O19 0.000000 0.213534 0.000000
O O20 0.905574 0.000000 0.432577
O O21 0.704800 0.000000 0.591898
#
# Coordination Sequence:
#
# PCOD9142525 Si02
#       8
#     4   4   4   4   4   4   4   4
#     4   8  15  28  46  70 103 137 166 198 238 287
#     4  11  22  35  51  69  97 130 165 205 249 300
#     4  12  25  37  51  70  94 123 164 210 253 301
#     4  12  22  33  53  74  97 127 167 210 253 302
#     4   9  17  29  46  68  96 130 164 195 234 282
#     4  11  23  39  57  71  92 124 163 211 263 307
#     4  11  21  34  51  71  94 124 161 204 254 300
#     4  10  18  29  45  70 100 132 165 197 240 290
#
# _framework density 14.981399
#
# number of rings (size 3 to 8) (size 9 to 14) (size 15 to 20)
#    0.750    0.750    2.500    4.875    0.000    3.750 
#    0.000    0.000    0.000    0.000    0.000    0.000 
#    0.000    1.000    0.000   10.750    0.000    4.750 
#
# Total GULP energy -178347.798602 kJ/mol
# GULP energy per Si atom -5573.368706 kJ/mol
# Density = 1.494730 g / cm^3
# Si number density = 14.981399 Si / 1000 Ang^3
#
#
#
# Elastic Constant Matrix: (Units=GPa)
#
#
# Indices 1 2 3 4 5 6 
#
# 1 61.2063 11.8686 31.7581 0.0000 -10.8147 0.0000
# 2 11.8686 42.3182 11.4125 0.0000 0.1966 0.0000
# 3 31.7581 11.4125 51.6363 0.0000 -11.5718 0.0000
# 4 0.0000 0.0000 0.0000 36.4364 0.0000 1.3962
# 5 -10.8147 0.1966 -11.5718 0.0000 26.0110 0.0000
# 6 0.0000 0.0000 0.0000 1.3962 0.0000 20.1666
#
#
#
# Elastic Compliance Matrix: (Units=1/GPa)
#
#
# Indices 1 2 3 4 5 6 
#
# 1 0.024763 -0.003315 -0.013534 0.000000 0.004300 0.000000
# 2 -0.003315 0.025778 -0.004455 0.000000 -0.003555 0.000000
# 3 -0.013534 -0.004455 0.030458 0.000000 0.007957 0.000000
# 4 0.000000 0.000000 0.000000 0.027518 0.000000 -0.001905
# 5 0.004300 -0.003555 0.007957 0.000000 0.043800 0.000000
# 6 0.000000 0.000000 0.000000 -0.001905 0.000000 0.049719
#
#
# Mechanical properties :
#
#
# Convention : Reuss Voigt Hill
#
# Bulk Modulus (GPa) = 26.04796 29.47101 27.75949
# Shear Modulus (GPa) = 19.42189 23.19756 21.30973
#
# Velocity S-wave (km/s) = 3.60446 3.93927 3.77558
# Velocity P-wave (km/s) = 5.89470 6.35649 6.12994
#
# Compressibility (1/GPa) = 0.03839072
#
# Stress axis : x y z
#
# Youngs Moduli (GPa) = 40.38266 38.79228 32.83232
#
# Poissons Ratio (x) = 0.12861 0.44435
# Poissons Ratio (y) = 0.13388 0.14628
# Poissons Ratio (z) = 0.54653 0.17283
#
# Static dielectric constant tensor:
#      x y z
#    x 1.505150 0.000000 -0.021420 
#    y 0.000000 1.495760 0.000000 
#    z -0.021420 0.000000 1.494180 
# 
# From -- ./inp_files/57168.got.cif
#   From: 2010.05.17/outbox.cif.g08.bks.cpg/sg10_29_cif.got.tgz:57168.got - 2010.06.03 11:33:40.
