data_PCOD9142841
_publ_section_title
;
Structure prediction by ZEFSAII (Michael W. Deem and Ramdas Pophale) SiO2 
 PCOD9142841
Probable space group: P 2/M
;
_chemical_formula_sum "Si O2"
_cell_formula_units_Z 28
_cell_length_a 20.167809
_cell_length_b 7.423934
_cell_length_c 12.148999
_cell_angle_alpha 90.000000
_cell_angle_beta 52.958438
_cell_angle_gamma 90.000000
_cell_volume 1451.925591
_symmetry_space_group_name_H-M "P 2/M"
_symmetry_group_IT_number 10
_symmetry_cell_setting 'monoclinic'
loop_
_space_group_symop_operation_xyz
x,y,z
-x,y,-z
-x,-y,-z
x,-y,z
loop_
_atom_site_type_symbol
_atom_site_label
_atom_site_fract_x
_atom_site_fract_y
_atom_site_fract_z
Si Si1 0.596663 0.220948 0.403337
Si Si2 0.818134 0.778871 0.809457
Si Si3 0.500001 0.715597 0.125667
Si Si4 0.999999 0.791086 0.366355
Si Si5 0.818133 0.778871 0.554279
Si Si6 0.336860 0.788500 0.895345
Si Si7 0.336861 0.788500 0.430933
O O1 0.500000 0.274558 0.500000
O O2 0.640529 0.283804 0.247673
O O3 0.640529 0.283803 0.471269
O O4 0.596624 0.000000 0.403376
O O5 0.909876 0.716520 0.755172
O O6 0.804672 0.726542 0.695329
O O7 0.819401 0.000000 0.808190
O O8 0.743306 0.715436 0.960953
O O9 0.500001 0.500000 0.122718
O O10 0.582083 0.772638 0.109032
O O11 0.417919 0.772638 0.273197
O O12 0.500000 0.782535 0.000000
O O13 0.000000 0.788454 0.500000
O O14 0.909875 0.716520 0.425078
O O15 0.999999 0.000000 0.331422
O O16 0.743304 0.715437 0.552439
O O17 0.819400 0.000000 0.553011
O O18 0.320222 0.000000 0.896272
O O19 0.320223 0.000000 0.463281
#
# Coordination Sequence:
#
# PCOD9142841 Si02
#       7
#     4   4   4   4   4   4   4
#     4   9  16  28  44  63  85 111 146 189 225 240
#     4   8  13  21  37  62  86 109 139 175 215 256
#     4  11  23  34  43  62  92 117 136 173 230 269
#     4   7  10  18  32  55  88 112 129 167 218 257
#     4   8  13  21  37  62  86 109 139 175 215 256
#     4  10  18  30  48  65  84 114 153 184 207 252
#     4  10  18  30  48  65  84 114 153 184 207 252
#
# _framework density 19.284735000000001
#
# number of rings (size 3 to 8) (size 9 to 14) (size 15 to 20)
#    0.000    3.000    1.429    3.000    0.000    2.286 
#    0.000    1.429    0.000    0.857    0.000    7.000 
#    0.000    5.714    0.000    2.571    0.000    4.000 
#
# Total GULP energy -156127.843433 kJ/mol
# GULP energy per Si atom -5575.994408 kJ/mol
# Density = 1.924084 g / cm^3
# Si number density = 19.284735 Si / 1000 Ang^3
#
#
#
# Elastic Constant Matrix: (Units=GPa)
#
#
# Indices 1 2 3 4 5 6 
#
# 1 171.2901 1.2759 137.9391 0.0000 -22.3833 0.0000
# 2 1.2759 60.3139 1.6145 0.0000 0.6129 0.0000
# 3 137.9391 1.6145 154.9280 0.0000 -7.4191 0.0000
# 4 0.0000 0.0000 0.0000 -14.0130 0.0000 13.0759
# 5 -22.3833 0.6129 -7.4191 0.0000 37.7601 0.0000
# 6 0.0000 0.0000 0.0000 13.0759 0.0000 -21.1986
#
#
#
# Elastic Compliance Matrix: (Units=1/GPa)
#
#
# Indices 1 2 3 4 5 6 
#
# 1 0.023911 -0.000051 -0.020806 0.000000 0.010087 0.000000
# 2 -0.000051 0.016588 -0.000143 0.000000 -0.000328 0.000000
# 3 -0.020806 -0.000143 0.024621 0.000000 -0.007493 0.000000
# 4 0.000000 0.000000 0.000000 -0.168140 0.000000 -0.103714
# 5 0.010087 -0.000328 -0.007493 0.000000 0.030995 0.000000
# 6 0.000000 0.000000 0.000000 -0.103714 0.000000 -0.111147
#
#
# Mechanical properties :
#
#
# Convention : Reuss Voigt Hill
#
# Bulk Modulus (GPa) = 43.25042 74.24344 58.74693
# Shear Modulus (GPa) = -37.46332 16.88987 -10.28673
#
# Velocity S-wave (km/s) = -4.41232 2.96263 -2.31208
# Velocity P-wave (km/s) = 1.86605 7.09119 4.83750
#
# Compressibility (1/GPa) = 0.02312116
#
# Stress axis : x y z
#
# Youngs Moduli (GPa) = 41.82143 60.28399 40.61509
#
# Poissons Ratio (x) = 0.00310 0.84502
# Poissons Ratio (y) = 0.00215 0.00580
# Poissons Ratio (z) = 0.87012 0.00861
#
# Static dielectric constant tensor:
#      x y z
#    x 1.670310 0.000000 -0.019530 
#    y 0.000000 1.709800 0.000000 
#    z -0.019530 0.000000 1.659570 
# 
# From -- ./inp_files/54727.got.cif
#   From: 2010.05.17/outbox.cif.g08.bks.cpg/sg10_28_cif.got.tgz:54727.got - 2010.06.03 11:33:40.
