data_PCOD9142287
_publ_section_title
;
Structure prediction by ZEFSAII (Michael W. Deem and Ramdas Pophale) SiO2 
 PCOD9142287
Probable space group: P 2/M
;
_chemical_formula_sum "Si O2"
_cell_formula_units_Z 28
_cell_length_a 15.012658
_cell_length_b 8.488777
_cell_length_c 14.186605
_cell_angle_alpha 90.000000
_cell_angle_beta 104.211492
_cell_angle_gamma 90.000000
_cell_volume 1752.598653
_symmetry_space_group_name_H-M "P 2/M"
_symmetry_group_IT_number 10
_symmetry_cell_setting 'monoclinic'
loop_
_space_group_symop_operation_xyz
x,y,z
-x,y,-z
-x,-y,-z
x,-y,z
loop_
_atom_site_type_symbol
_atom_site_label
_atom_site_fract_x
_atom_site_fract_y
_atom_site_fract_z
Si Si1 0.898999 0.812637 0.080811
Si Si2 0.214470 0.189589 0.130432
Si Si3 0.594327 0.312692 0.133593
Si Si4 0.602340 0.812244 0.923646
Si Si5 0.074459 0.687278 0.229846
Si Si6 0.970293 0.691857 0.389478
Si Si7 0.792584 0.309621 0.232360
O O1 0.829629 0.770957 0.147188
O O2 0.994870 0.736293 0.135530
O O3 0.912536 0.000000 0.078267
O O4 0.852543 0.757488 0.972200
O O5 0.316855 0.238473 0.126180
O O6 0.170435 0.249216 0.215593
O O7 0.212954 0.000000 0.131664
O O8 0.580800 0.500000 0.136038
O O9 0.499954 0.228687 0.137263
O O10 0.685701 0.268790 0.215342
O O11 0.612479 0.268540 0.028653
O O12 0.610202 0.000000 0.940250
O O13 0.078691 0.500000 0.235014
O O14 0.037683 0.744760 0.322180
O O15 0.973967 0.500000 0.391668
O O16 0.866173 0.733546 0.331935
O O17 0.000000 0.748616 0.500000
O O18 0.797898 0.500000 0.221128
#
# Coordination Sequence:
#
# PCOD9142287 Si02
#       7
#     4   4   4   4   4   4   4
#     4  10  18  29  43  60  87 122 153 179 211 255
#     4  10  20  31  42  60  87 122 154 180 213 254
#     4  10  18  28  42  64  91 117 148 187 226 252
#     4  10  19  30  43  60  86 122 160 183 208 255
#     4  10  20  30  44  66  87 113 147 183 222 264
#     4   8  15  30  49  68  89 112 141 179 224 272
#     4   9  17  28  45  68  91 116 148 184 223 263
#
# _framework density 15.976277
#
# number of rings (size 3 to 8) (size 9 to 14) (size 15 to 20)
#    0.000    2.429    1.429    3.857    0.000    4.571 
#    0.000    0.000    0.000   10.714    0.000    1.000 
#    0.000    8.000    0.000    0.000    0.000    0.000 
#
# Total GULP energy -156040.770132 kJ/mol
# GULP energy per Si atom -5572.884648 kJ/mol
# Density = 1.593991 g / cm^3
# Si number density = 15.976277 Si / 1000 Ang^3
#
#
#
# Elastic Constant Matrix: (Units=GPa)
#
#
# Indices 1 2 3 4 5 6 
#
# 1 131.3588 12.4668 56.6998 0.0000 -11.4549 0.0000
# 2 12.4668 12.9033 8.3828 0.0000 -4.2283 0.0000
# 3 56.6998 8.3828 80.8595 0.0000 4.4396 0.0000
# 4 0.0000 0.0000 0.0000 332.6821 0.0000 179.4030
# 5 -11.4549 -4.2283 4.4396 0.0000 10.0233 0.0000
# 6 0.0000 0.0000 0.0000 179.4030 0.0000 128.9748
#
#
#
# Elastic Compliance Matrix: (Units=1/GPa)
#
#
# Indices 1 2 3 4 5 6 
#
# 1 0.014310 0.000579 -0.011280 0.000000 0.021594 0.000000
# 2 0.000579 0.102206 -0.013739 0.000000 0.049862 0.000000
# 3 -0.011280 -0.013739 0.023294 0.000000 -0.029004 0.000000
# 4 0.000000 0.000000 0.000000 0.012029 0.000000 -0.016732
# 5 0.021594 0.049862 -0.029004 0.000000 0.158327 0.000000
# 6 0.000000 0.000000 0.000000 -0.016732 0.000000 0.031027
#
#
# Mechanical properties :
#
#
# Convention : Reuss Voigt Hill
#
# Bulk Modulus (GPa) = 10.99770 42.24673 26.62222
# Shear Modulus (GPa) = 11.89393 104.17419 58.03406
#
# Velocity S-wave (km/s) = 2.73147 8.08376 6.03357
# Velocity P-wave (km/s) = 4.10446 10.65975 8.07703
#
# Compressibility (1/GPa) = 0.09092808
#
# Stress axis : x y z
#
# Youngs Moduli (GPa) = 69.88287 9.78418 42.93035
#
# Poissons Ratio (x) = -0.00566 0.48424
# Poissons Ratio (y) = -0.04044 0.58983
# Poissons Ratio (z) = 0.78826 0.13443
#
# Static dielectric constant tensor:
#      x y z
#    x 1.572670 0.000000 0.003210 
#    y 0.000000 1.543090 0.000000 
#    z 0.003210 0.000000 1.519490 
# 
# From -- ./inp_files/65717.got.cif
#   From: 2010.05.17/outbox.cif.g08.bks.cpg/sg10_33_cif.got.tgz:65717.got - 2010.06.03 11:33:40.
