data_PCOD9142953
_publ_section_title
;
Structure prediction by ZEFSAII (Michael W. Deem and Ramdas Pophale) SiO2 
 PCOD9142953
Probable space group: P 2/M
;
_chemical_formula_sum "Si O2"
_cell_formula_units_Z 32
_cell_length_a 25.068401
_cell_length_b 11.763669
_cell_length_c 12.081518
_cell_angle_alpha 90.000000
_cell_angle_beta 150.389320
_cell_angle_gamma 90.000000
_cell_volume 1760.391428
_symmetry_space_group_name_H-M "P 2/M"
_symmetry_group_IT_number 10
_symmetry_cell_setting 'monoclinic'
loop_
_space_group_symop_operation_xyz
x,y,z
-x,y,-z
-x,-y,-z
x,-y,z
loop_
_atom_site_type_symbol
_atom_site_label
_atom_site_fract_x
_atom_site_fract_y
_atom_site_fract_z
Si Si1 0.794998 0.630752 0.924837
Si Si2 0.257015 0.203614 0.360562
Si Si3 0.600519 0.369551 0.996578
Si Si4 0.795178 0.633463 0.175040
Si Si5 0.024325 0.125511 0.925476
Si Si6 0.955669 0.313539 0.650580
Si Si7 0.777057 0.377381 0.504405
Si Si8 0.511966 0.128902 0.154978
O O1 0.758481 0.500000 0.852224
O O2 0.735275 0.708994 0.728028
O O3 0.780353 0.675316 0.023686
O O4 0.924627 0.634531 0.137230
O O5 0.228199 0.278792 0.416252
O O6 0.364199 0.135879 0.582514
O O7 0.152779 0.128156 0.146192
O O8 0.551184 0.500000 0.899477
O O9 0.686643 0.358848 0.051871
O O10 0.671096 0.371550 0.236436
O O11 0.536042 0.249816 0.885928
O O12 0.822884 0.500000 0.215839
O O13 0.893294 0.685418 0.422298
O O14 0.972734 0.189069 0.730287
O O15 0.978612 0.000000 0.849057
O O16 0.000000 0.183378 0.000000
O O17 0.876627 0.370545 0.598304
O O18 0.781189 0.500000 0.569304
O O19 0.470022 0.000000 0.110253
O O20 0.500000 0.135277 0.000000
#
# Coordination Sequence:
#
# PCOD9142953 Si02
#       8
#     4   4   4   4   4   4   4   4
#     4  10  20  32  53  82 113 150 185 221 269 329
#     4  11  21  35  51  78 113 144 177 227 277 334
#     4   9  19  36  59  83 112 143 181 233 284 330
#     4   9  18  35  56  81 111 145 187 227 269 323
#     4  10  20  34  50  72 105 144 183 219 269 334
#     4  10  18  31  53  79 110 145 183 224 271 323
#     4  10  18  30  49  80 114 142 172 221 278 331
#     4  11  23  39  60  86 113 142 184 233 285 344
#
# _framework density 18.177773999999999
#
# number of rings (size 3 to 8) (size 9 to 14) (size 15 to 20)
#    0.000    2.000    2.500    3.000    0.000    2.250 
#    0.000    5.000    0.000   13.500    0.000    0.000 
#    0.000    0.000    0.000    0.000    0.000    0.000 
#
# Total GULP energy -178197.035767 kJ/mol
# GULP energy per Si atom -5568.657368 kJ/mol
# Density = 1.813640 g / cm^3
# Si number density = 18.177774 Si / 1000 Ang^3
#
#
#
# Elastic Constant Matrix: (Units=GPa)
#
#
# Indices 1 2 3 4 5 6 
#
# 1 54.2464 25.4042 20.4601 0.0000 -25.2002 0.0000
# 2 25.4042 93.3127 26.1655 0.0000 0.8364 0.0000
# 3 20.4601 26.1655 65.6660 0.0000 -9.2756 0.0000
# 4 0.0000 0.0000 0.0000 -18.7577 0.0000 7.3821
# 5 -25.2002 0.8364 -9.2756 0.0000 26.0699 0.0000
# 6 0.0000 0.0000 0.0000 7.3821 0.0000 6.0368
#
#
#
# Elastic Compliance Matrix: (Units=1/GPa)
#
#
# Indices 1 2 3 4 5 6 
#
# 1 0.045002 -0.011701 -0.003329 0.000000 0.042692 0.000000
# 2 -0.011701 0.015229 -0.004306 0.000000 -0.013331 0.000000
# 3 -0.003329 -0.004306 0.018475 0.000000 0.003494 0.000000
# 4 0.000000 0.000000 0.000000 -0.035991 0.000000 0.044011
# 5 0.042692 -0.013331 0.003494 0.000000 0.081297 0.000000
# 6 0.000000 0.000000 0.000000 0.044011 0.000000 0.111831
#
#
# Mechanical properties :
#
#
# Convention : Reuss Voigt Hill
#
# Bulk Modulus (GPa) = 24.97790 39.69830 32.33810
# Shear Modulus (GPa) = 17.36961 12.08283 14.72622
#
# Velocity S-wave (km/s) = 3.09454 2.58098 2.84935
# Velocity P-wave (km/s) = 5.15160 5.54692 5.35291
#
# Compressibility (1/GPa) = 0.04003539
#
# Stress axis : x y z
#
# Youngs Moduli (GPa) = 22.22114 65.66419 54.12760
#
# Poissons Ratio (x) = 0.76833 0.18018
# Poissons Ratio (y) = 0.26001 0.23305
# Poissons Ratio (z) = 0.07397 0.28272
#
# Static dielectric constant tensor:
#      x y z
#    x 1.638850 0.000000 0.017040 
#    y 0.000000 1.670240 0.000000 
#    z 0.017040 0.000000 1.619760 
# 
# From -- ./inp_files/46703.got.cif
#   From: 2010.05.17/outbox.cif.g08.bks.cpg/sg10_24_cif.got.tgz:46703.got - 2010.06.03 11:33:40.
