data_PCOD9142477
_publ_section_title
;
Structure prediction by ZEFSAII (Michael W. Deem and Ramdas Pophale) SiO2 
 PCOD9142477
Probable space group: P 2/M
;
_chemical_formula_sum "Si O2"
_cell_formula_units_Z 24
_cell_length_a 13.872626
_cell_length_b 7.554871
_cell_length_c 12.563312
_cell_angle_alpha 90.000000
_cell_angle_beta 72.846040
_cell_angle_gamma 90.000000
_cell_volume 1258.136292
_symmetry_space_group_name_H-M "P 2/M"
_symmetry_group_IT_number 10
_symmetry_cell_setting 'monoclinic'
loop_
_space_group_symop_operation_xyz
x,y,z
-x,y,-z
-x,-y,-z
x,-y,z
loop_
_atom_site_type_symbol
_atom_site_label
_atom_site_fract_x
_atom_site_fract_y
_atom_site_fract_z
Si Si1 0.156532 0.200198 0.721792
Si Si2 0.888101 0.216740 0.497951
Si Si3 0.384806 0.216445 0.041297
Si Si4 0.944236 0.702079 0.866318
Si Si5 0.219892 0.785830 0.257745
Si Si6 0.771909 0.212405 0.085905
O O1 0.141802 0.281201 0.609796
O O2 0.222188 0.282681 0.795708
O O3 0.044402 0.191435 0.808284
O O4 0.194498 0.000000 0.692240
O O5 0.807766 0.269271 0.614241
O O6 0.000000 0.272243 0.500000
O O7 0.891802 0.000000 0.492199
O O8 0.323509 0.270298 0.167320
O O9 0.385045 0.000000 0.039528
O O10 0.500000 0.275673 0.000000
O O11 0.317799 0.275560 0.961936
O O12 0.976139 0.500000 0.866918
O O13 0.869530 0.723813 0.790564
O O14 0.876257 0.751960 0.989366
O O15 0.217885 0.000000 0.256366
O O16 0.762524 0.000000 0.095847
#
# Coordination Sequence:
#
# PCOD9142477 Si02
#       6
#     4   4   4   4   4   4
#     4  10  18  29  44  61  85 118 152 178 204 252
#     4   9  15  25  44  64  84 114 151 182 203 240
#     4   8  14  26  46  68  85 105 140 185 224 255
#     4  11  20  28  41  63  92 119 144 178 218 254
#     4   9  16  29  47  65  86 116 151 178 210 255
#     4   9  18  30  45  63  84 114 148 178 214 260
#
# _framework density 19.075835000000001
#
# number of rings (size 3 to 8) (size 9 to 14) (size 15 to 20)
#    0.000    2.667    1.667    3.000    0.000    2.667 
#    0.000    1.667    0.000    9.000    0.000    7.000 
#    0.000    0.000    0.000   13.500    0.000   15.000 
#
# Total GULP energy -133816.495256 kJ/mol
# GULP energy per Si atom -5575.687302 kJ/mol
# Density = 1.903242 g / cm^3
# Si number density = 19.075835 Si / 1000 Ang^3
#
#
#
# Elastic Constant Matrix: (Units=GPa)
#
#
# Indices 1 2 3 4 5 6 
#
# 1 87.9903 6.1181 80.3216 0.0000 -2.6963 0.0000
# 2 6.1181 49.9089 8.9099 0.0000 0.9189 0.0000
# 3 80.3216 8.9099 182.0695 0.0000 30.3073 0.0000
# 4 0.0000 0.0000 0.0000 -16.8762 0.0000 3.6447
# 5 -2.6963 0.9189 30.3073 0.0000 26.8505 0.0000
# 6 0.0000 0.0000 0.0000 3.6447 0.0000 -16.7376
#
#
#
# Elastic Compliance Matrix: (Units=1/GPa)
#
#
# Indices 1 2 3 4 5 6 
#
# 1 0.024598 -0.000881 -0.013822 0.000000 0.018101 0.000000
# 2 -0.000881 0.020251 -0.000581 0.000000 -0.000125 0.000000
# 3 -0.013822 -0.000581 0.014587 0.000000 -0.017833 0.000000
# 4 0.000000 0.000000 0.000000 -0.062179 0.000000 -0.013540
# 5 0.018101 -0.000125 -0.017833 0.000000 0.059194 0.000000
# 6 0.000000 0.000000 0.000000 -0.013540 0.000000 -0.062694
#
#
# Mechanical properties :
#
#
# Convention : Reuss Voigt Hill
#
# Bulk Modulus (GPa) = 34.64162 56.74088 45.69125
# Shear Modulus (GPa) = 147.29175 13.62194 80.45684
#
# Velocity S-wave (km/s) = 8.79667 2.67515 6.50146
# Velocity P-wave (km/s) = 11.01701 6.27307 8.96454
#
# Compressibility (1/GPa) = 0.02886701
#
# Stress axis : x y z
#
# Youngs Moduli (GPa) = 40.65410 49.38120 68.55518
#
# Poissons Ratio (x) = 0.04351 0.94754
# Poissons Ratio (y) = 0.03582 0.03986
# Poissons Ratio (z) = 0.56190 0.02871
#
# Static dielectric constant tensor:
#      x y z
#    x 1.641470 0.000000 0.031830 
#    y 0.000000 1.689370 0.000000 
#    z 0.031830 0.000000 1.690320 
# 
# From -- ./inp_files/48449.got.cif
#   From: 2010.05.17/outbox.cif.g08.bks.cpg/sg10_25_cif.got.tgz:48449.got - 2010.06.03 11:33:40.
