data_PCOD9142426
_publ_section_title
;
Structure prediction by ZEFSAII (Michael W. Deem and Ramdas Pophale) SiO2 
 PCOD9142426
Probable space group: P 2/M
;
_chemical_formula_sum "Si O2"
_cell_formula_units_Z 24
_cell_length_a 19.410025
_cell_length_b 10.848625
_cell_length_c 12.136528
_cell_angle_alpha 90.000000
_cell_angle_beta 156.747403
_cell_angle_gamma 90.000000
_cell_volume 1008.919344
_symmetry_space_group_name_H-M "P 2/M"
_symmetry_group_IT_number 10
_symmetry_cell_setting 'monoclinic'
loop_
_space_group_symop_operation_xyz
x,y,z
-x,y,-z
-x,-y,-z
x,-y,z
loop_
_atom_site_type_symbol
_atom_site_label
_atom_site_fract_x
_atom_site_fract_y
_atom_site_fract_z
Si Si1 0.687515 0.229466 0.993082
Si Si2 0.286495 0.644440 0.191835
Si Si3 0.725790 0.000000 0.458880
Si Si4 0.114607 0.640383 0.571200
Si Si5 0.299112 0.000000 0.835507
Si Si6 0.712145 0.230703 0.583889
Si Si7 0.323206 0.355092 0.688935
O O1 0.765378 0.275133 0.991289
O O2 0.486592 0.195029 0.676341
O O3 0.700128 0.348995 0.091739
O O4 0.753008 0.118037 0.166929
O O5 0.500000 0.642292 0.500000
O O6 0.234407 0.500000 0.111805
O O7 0.216698 0.711472 0.199150
O O8 0.770419 0.000000 0.393344
O O9 0.784883 0.883138 0.619274
O O10 0.512065 0.000000 0.142028
O O11 0.055839 0.500000 0.473772
O O12 0.158609 0.693487 0.517360
O O13 0.000000 0.698898 0.500000
O O14 0.699225 0.334296 0.471660
O O15 0.327062 0.500000 0.718226
O O16 0.500000 0.296524 0.000000
#
# Coordination Sequence:
#
# PCOD9142426 Si02
#       7
#     4   4   2   4   2   4   4
#     4  10  18  31  48  68  99 133 166 208 250 301
#     4   9  18  29  45  70 100 133 167 208 255 301
#     4   9  18  27  43  69 104 133 159 209 264 298
#     4  10  20  32  48  72 101 132 166 210 265 311
#     4   9  18  29  46  71  96 132 171 206 253 306
#     4  10  18  29  47  72 100 129 169 208 249 302
#     4  10  18  28  48  73  97 126 163 212 257 297
#
# _framework density 23.787827
#
# number of rings (size 3 to 8) (size 9 to 14) (size 15 to 20)
#    0.000    2.333    1.667    2.000    2.333    2.000 
#    0.000    3.750    0.000    1.000    0.000    4.667 
#    0.000    4.000    0.000    0.000    0.000    0.000 
#
# Total GULP energy -133642.078739 kJ/mol
# GULP energy per Si atom -5568.419947 kJ/mol
# Density = 2.373369 g / cm^3
# Si number density = 23.787827 Si / 1000 Ang^3
#
#
#
# Elastic Constant Matrix: (Units=GPa)
#
#
# Indices 1 2 3 4 5 6 
#
# 1 239.7954 75.1137 43.7580 0.0000 -47.2757 0.0000
# 2 75.1137 133.1828 22.2192 0.0000 -20.8084 0.0000
# 3 43.7580 22.2192 45.1770 0.0000 -24.3417 0.0000
# 4 0.0000 0.0000 0.0000 5.6339 0.0000 -4.6698
# 5 -47.2757 -20.8084 -24.3417 0.0000 44.8776 0.0000
# 6 0.0000 0.0000 0.0000 -4.6698 0.0000 36.1562
#
#
#
# Elastic Compliance Matrix: (Units=1/GPa)
#
#
# Indices 1 2 3 4 5 6 
#
# 1 0.006200 -0.002432 -0.002681 0.000000 0.003949 0.000000
# 2 -0.002432 0.009302 -0.001802 0.000000 0.000773 0.000000
# 3 -0.002681 -0.001802 0.033411 0.000000 0.014462 0.000000
# 4 0.000000 0.000000 0.000000 0.198778 0.000000 0.025674
# 5 0.003949 0.000773 0.014462 0.000000 0.034646 0.000000
# 6 0.000000 0.000000 0.000000 0.025674 0.000000 0.030974
#
#
# Mechanical properties :
#
#
# Convention : Reuss Voigt Hill
#
# Bulk Modulus (GPa) = 28.50560 77.81522 53.16041
# Shear Modulus (GPa) = 14.75645 35.80448 25.28047
#
# Velocity S-wave (km/s) = 2.49336 3.88385 3.26352
# Velocity P-wave (km/s) = 4.50537 7.27293 6.04954
#
# Compressibility (1/GPa) = 0.03508082
#
# Stress axis : x y z
#
# Youngs Moduli (GPa) = 161.29065 107.50610 29.93053
#
# Poissons Ratio (x) = 0.26150 0.08024
# Poissons Ratio (y) = 0.39233 0.05395
# Poissons Ratio (z) = 0.43243 0.19377
#
# Static dielectric constant tensor:
#      x y z
#    x 1.921600 0.000000 0.106540 
#    y 0.000000 1.964350 0.000000 
#    z 0.106540 0.000000 2.098690 
# 
# From -- ./inp_files/53614.got.cif
#   From: 2010.05.17/outbox.cif.g08.bks.cpg/sg10_27_cif.got.tgz:53614.got - 2010.06.03 11:33:40.
