data_PCOD9142621
_publ_section_title
;
Structure prediction by ZEFSAII (Michael W. Deem and Ramdas Pophale) SiO2 
 PCOD9142621
Probable space group: P 2/M
;
_chemical_formula_sum "Si O2"
_cell_formula_units_Z 26
_cell_length_a 9.536178
_cell_length_b 12.784173
_cell_length_c 19.499307
_cell_angle_alpha 90.000000
_cell_angle_beta 139.800200
_cell_angle_gamma 90.000000
_cell_volume 1534.377243
_symmetry_space_group_name_H-M "P 2/M"
_symmetry_group_IT_number 10
_symmetry_cell_setting 'monoclinic'
loop_
_space_group_symop_operation_xyz
x,y,z
-x,y,-z
-x,-y,-z
x,-y,z
loop_
_atom_site_type_symbol
_atom_site_label
_atom_site_fract_x
_atom_site_fract_y
_atom_site_fract_z
Si Si1 0.686702 0.230736 0.761174
Si Si2 0.549723 0.229851 0.183660
Si Si3 0.192848 0.770339 0.929410
Si Si4 0.834594 0.622083 0.205253
Si Si5 0.743305 0.000000 0.802943
Si Si6 0.221292 0.000000 0.931642
Si Si7 0.456233 0.000000 0.828147
Si Si8 0.349185 0.622140 0.379123
O O1 0.562326 0.252499 0.785407
O O2 0.611498 0.303231 0.670935
O O3 0.947743 0.245047 0.865406
O O4 0.661977 0.106573 0.737977
O O5 0.360381 0.227321 0.054815
O O6 0.720606 0.316065 0.224067
O O7 0.652166 0.112559 0.223545
O O8 0.237451 0.679723 0.891668
O O9 0.206004 0.883296 0.895076
O O10 0.778276 0.500000 0.183983
O O11 0.095653 0.632443 0.304681
O O12 0.653375 0.000000 0.846540
O O13 0.004271 0.000000 0.898252
O O14 0.439065 0.000000 0.057598
O O15 0.500000 0.647890 0.500000
O O16 0.385862 0.500000 0.374622
#
# Coordination Sequence:
#
# PCOD9142621 Si02
#       8
#     4   4   4   4   2   2   2   4
#     4   9  17  30  50  74  97 125 160 192 228 275
#     4  10  18  29  47  72 102 130 158 190 223 270
#     4   9  17  29  46  69 100 134 161 188 223 268
#     4  10  21  34  47  67  95 126 157 192 240 285
#     4   8  13  24  43  69 100 123 146 191 236 268
#     4   8  13  23  42  66  90 125 171 197 210 251
#     4   8  15  25  40  65  97 132 159 184 223 261
#     4   9  19  38  58  70  85 114 155 203 247 283
#
# _framework density 16.944984000000002
#
# number of rings (size 3 to 8) (size 9 to 14) (size 15 to 20)
#    0.000    2.923    0.000    1.154    0.000    6.154 
#    0.000    4.231    0.000    7.385    0.000    3.231 
#    0.000    0.000    0.000    0.000    0.000    0.000 
#
# Total GULP energy -144808.001195 kJ/mol
# GULP energy per Si atom -5569.538507 kJ/mol
# Density = 1.690642 g / cm^3
# Si number density = 16.944984 Si / 1000 Ang^3
#
#
#
# Elastic Constant Matrix: (Units=GPa)
#
#
# Indices 1 2 3 4 5 6 
#
# 1 98.4712 74.1922 23.6292 0.0000 -17.1730 0.0000
# 2 74.1922 149.4309 50.0817 0.0000 -14.8950 0.0000
# 3 23.6292 50.0817 71.3760 0.0000 -12.5074 0.0000
# 4 0.0000 0.0000 0.0000 12.7017 0.0000 -12.1529
# 5 -17.1730 -14.8950 -12.5074 0.0000 10.0000 0.0000
# 6 0.0000 0.0000 0.0000 -12.1529 0.0000 23.9311
#
#
#
# Elastic Compliance Matrix: (Units=1/GPa)
#
#
# Indices 1 2 3 4 5 6 
#
# 1 0.020670 -0.008948 0.004252 0.000000 0.027488 0.000000
# 2 -0.008948 0.013006 -0.006995 0.000000 -0.004742 0.000000
# 3 0.004252 -0.006995 0.021726 0.000000 0.024058 0.000000
# 4 0.000000 0.000000 0.000000 0.153135 0.000000 0.077766
# 5 0.027488 -0.004742 0.024058 0.000000 0.170232 0.000000
# 6 0.000000 0.000000 0.000000 0.077766 0.000000 0.081278
#
#
# Mechanical properties :
#
#
# Convention : Reuss Voigt Hill
#
# Bulk Modulus (GPa) = 31.22858 68.34271 49.78565
# Shear Modulus (GPa) = 10.11935 20.75156 15.43546
#
# Velocity S-wave (km/s) = 2.44639 3.50329 3.02141
# Velocity P-wave (km/s) = 5.14288 7.53550 6.45108
#
# Compressibility (1/GPa) = 0.03202195
#
# Stress axis : x y z
#
# Youngs Moduli (GPa) = 48.37813 76.88549 46.02728
#
# Poissons Ratio (x) = 0.68798 -0.19572
# Poissons Ratio (y) = 0.43289 0.32195
# Poissons Ratio (z) = -0.20572 0.53780
#
# Static dielectric constant tensor:
#      x y z
#    x 1.599570 0.000000 0.007190 
#    y 0.000000 1.610310 0.000000 
#    z 0.007190 0.000000 1.535540 
# 
# From -- ./inp_files/75132.got.cif
#   From: 2010.05.17/outbox.cif.g08.bks.cpg/sg10_38_cif.got.tgz:75132.got - 2010.06.03 11:33:40.
