data_PCOD9142441
_publ_section_title
;
Structure prediction by ZEFSAII (Michael W. Deem and Ramdas Pophale) SiO2 
 PCOD9142441
Probable space group: P 2/M
;
_chemical_formula_sum "Si O2"
_cell_formula_units_Z 32
_cell_length_a 8.610926
_cell_length_b 12.831010
_cell_length_c 14.368586
_cell_angle_alpha 90.000000
_cell_angle_beta 58.103040
_cell_angle_gamma 90.000000
_cell_volume 1347.821195
_symmetry_space_group_name_H-M "P 2/M"
_symmetry_group_IT_number 10
_symmetry_cell_setting 'monoclinic'
loop_
_space_group_symop_operation_xyz
x,y,z
-x,y,-z
-x,-y,-z
x,-y,z
loop_
_atom_site_type_symbol
_atom_site_label
_atom_site_fract_x
_atom_site_fract_y
_atom_site_fract_z
Si Si1 0.089247 0.616075 0.354460
Si Si2 0.912260 0.121602 0.424275
Si Si3 0.476094 0.119087 0.367709
Si Si4 0.891317 0.615594 0.876002
Si Si5 0.253784 0.696621 0.769498
Si Si6 0.460753 0.375694 0.887624
Si Si7 0.301863 0.381995 0.558039
Si Si8 0.284347 0.208192 0.261460
O O1 0.107693 0.500000 0.382674
O O2 0.118788 0.613986 0.233215
O O3 0.243156 0.692073 0.342062
O O4 0.882962 0.656046 0.432900
O O5 0.694464 0.146885 0.508037
O O6 0.000000 0.131003 0.500000
O O7 0.074490 0.171858 0.307907
O O8 0.910861 0.000000 0.399695
O O9 0.644797 0.199332 0.300605
O O10 0.383831 0.124384 0.293428
O O11 0.531305 0.000000 0.370308
O O12 0.954587 0.500000 0.886741
O O13 0.038297 0.701547 0.860772
O O14 0.692908 0.627744 0.984115
O O15 0.358798 0.645797 0.821893
O O16 0.253429 0.619155 0.682070
O O17 0.526163 0.500000 0.865424
O O18 0.584290 0.268043 0.852245
O O19 0.500000 0.332094 0.500000
O O20 0.324206 0.500000 0.515994
#
# Coordination Sequence:
#
# PCOD9142441 Si02
#       8
#     4   4   4   4   4   4   4   4
#     4   9  18  31  46  69 102 137 172 201 234 293
#     4   8  15  30  49  67  89 121 163 204 247 297
#     4   9  19  34  53  75  98 127 167 217 265 305
#     4   9  18  33  51  72 102 139 172 205 245 294
#     4  10  18  30  54  75  95 129 173 211 247 300
#     4  10  19  30  48  75 105 132 166 212 253 290
#     4   9  18  31  47  70 104 142 168 191 237 305
#     4  10  18  28  49  72  97 128 166 206 246 297
#
# _framework density 23.74202
#
# number of rings (size 3 to 8) (size 9 to 14) (size 15 to 20)
#    0.000    2.750    0.000    3.750    1.750    1.500 
#    0.000    1.875    0.000   20.625    0.000    7.875 
#    0.000    0.000    0.000    0.000    0.000    0.000 
#
# Total GULP energy -178143.967784 kJ/mol
# GULP energy per Si atom -5566.998993 kJ/mol
# Density = 2.368798 g / cm^3
# Si number density = 23.742020 Si / 1000 Ang^3
#
#
#
# Elastic Constant Matrix: (Units=GPa)
#
#
# Indices 1 2 3 4 5 6 
#
# 1 42.4911 31.1044 27.5091 0.0000 -15.8191 0.0000
# 2 31.1044 126.8233 61.7046 0.0000 -25.2135 0.0000
# 3 27.5091 61.7046 151.2759 0.0000 -25.2080 0.0000
# 4 0.0000 0.0000 0.0000 40.7665 0.0000 -11.4248
# 5 -15.8191 -25.2135 -25.2080 0.0000 52.3818 0.0000
# 6 0.0000 0.0000 0.0000 -11.4248 0.0000 26.2614
#
#
#
# Elastic Compliance Matrix: (Units=1/GPa)
#
#
# Indices 1 2 3 4 5 6 
#
# 1 0.031156 -0.005267 -0.002579 0.000000 0.005633 0.000000
# 2 -0.005267 0.011197 -0.003236 0.000000 0.002242 0.000000
# 3 -0.002579 -0.003236 0.008708 0.000000 0.001854 0.000000
# 4 0.000000 0.000000 0.000000 0.027936 0.000000 0.012153
# 5 0.005633 0.002242 0.001854 0.000000 0.022763 0.000000
# 6 0.000000 0.000000 0.000000 0.012153 0.000000 0.043366
#
#
# Mechanical properties :
#
#
# Convention : Reuss Voigt Hill
#
# Bulk Modulus (GPa) = 34.60361 62.35851 48.48106
# Shear Modulus (GPa) = 28.26106 37.23340 32.74723
#
# Velocity S-wave (km/s) = 3.45387 3.96441 3.71791
# Velocity P-wave (km/s) = 5.52378 6.87586 6.23657
#
# Compressibility (1/GPa) = 0.02889872
#
# Stress axis : x y z
#
# Youngs Moduli (GPa) = 32.09612 89.31197 114.83368
#
# Poissons Ratio (x) = 0.47039 0.29613
# Poissons Ratio (y) = 0.16904 0.37158
# Poissons Ratio (z) = 0.08277 0.28899
#
# Static dielectric constant tensor:
#      x y z
#    x 1.996020 0.000000 -0.089500 
#    y 0.000000 1.924100 0.000000 
#    z -0.089500 0.000000 2.034460 
# 
# From -- ./inp_files/67334.got.cif
#   From: 2010.05.17/outbox.cif.g08.bks.cpg/sg10_34_cif.got.tgz:67334.got - 2010.06.03 11:33:40.
