data_PCOD9142383
_publ_section_title
;
Structure prediction by ZEFSAII (Michael W. Deem and Ramdas Pophale) SiO2 
 PCOD9142383
Probable space group: P 2/M
;
_chemical_formula_sum "Si O2"
_cell_formula_units_Z 28
_cell_length_a 13.979636
_cell_length_b 8.283040
_cell_length_c 15.120920
_cell_angle_alpha 90.000000
_cell_angle_beta 103.417699
_cell_angle_gamma 90.000000
_cell_volume 1703.117644
_symmetry_space_group_name_H-M "P 2/M"
_symmetry_group_IT_number 10
_symmetry_cell_setting 'monoclinic'
loop_
_space_group_symop_operation_xyz
x,y,z
-x,y,-z
-x,-y,-z
x,-y,z
loop_
_atom_site_type_symbol
_atom_site_label
_atom_site_fract_x
_atom_site_fract_y
_atom_site_fract_z
Si Si1 0.636828 0.188148 0.723089
Si Si2 0.718111 0.803988 0.562712
Si Si3 0.637145 0.695588 0.104984
Si Si4 0.266309 0.191863 0.707864
Si Si5 0.584916 0.307090 0.901233
Si Si6 0.889097 0.196211 0.466779
Si Si7 0.568050 0.687841 0.386972
O O1 0.709667 0.251330 0.662251
O O2 0.634227 0.263911 0.819451
O O3 0.528494 0.213020 0.658198
O O4 0.656332 0.000000 0.739056
O O5 0.814946 0.752504 0.529338
O O6 0.624153 0.742059 0.487391
O O7 0.714732 0.000000 0.560564
O O8 0.641510 0.500000 0.110076
O O9 0.719533 0.765945 0.186948
O O10 0.529041 0.748843 0.117626
O O11 0.638891 0.747022 0.002702
O O12 0.165131 0.237498 0.637006
O O13 0.352435 0.283100 0.673399
O O14 0.280398 0.000000 0.697488
O O15 0.579316 0.500000 0.905649
O O16 0.000000 0.256910 0.500000
O O17 0.892766 0.000000 0.471383
O O18 0.541425 0.500000 0.385782
#
# Coordination Sequence:
#
# PCOD9142383 Si02
#       7
#     4   4   4   4   4   4   4
#     4  11  20  29  42  63  91 120 149 185 223 256
#     4   9  19  32  45  64  89 115 147 186 225 264
#     4   9  17  30  45  63  89 121 154 187 220 256
#     4  10  18  28  46  70  92 116 149 187 226 265
#     4   9  18  30  44  62  88 123 158 185 214 257
#     4   8  15  30  50  69  89 114 144 180 225 274
#     4  11  20  29  42  61  88 123 157 182 210 259
#
# _framework density 16.440439000000001
#
# number of rings (size 3 to 8) (size 9 to 14) (size 15 to 20)
#    0.000    2.429    1.429    4.286    0.000    3.429 
#    0.000    1.429    0.000   10.714    0.000    1.000 
#    0.000    8.000    0.000    0.000    0.000    0.000 
#
# Total GULP energy -156060.097149 kJ/mol
# GULP energy per Si atom -5573.574898 kJ/mol
# Density = 1.640302 g / cm^3
# Si number density = 16.440439 Si / 1000 Ang^3
#
#
#
# Elastic Constant Matrix: (Units=GPa)
#
#
# Indices 1 2 3 4 5 6 
#
# 1 62.5555 -1.3682 53.9517 0.0000 7.8880 0.0000
# 2 -1.3682 10.7622 9.0563 0.0000 -1.3773 0.0000
# 3 53.9517 9.0563 153.4109 0.0000 -6.9144 0.0000
# 4 0.0000 0.0000 0.0000 19.0473 0.0000 -11.2629
# 5 7.8880 -1.3773 -6.9144 0.0000 16.8824 0.0000
# 6 0.0000 0.0000 0.0000 -11.2629 0.0000 -8.2092
#
#
#
# Elastic Compliance Matrix: (Units=1/GPa)
#
#
# Indices 1 2 3 4 5 6 
#
# 1 0.028073 0.010901 -0.011276 0.000000 -0.016845 0.000000
# 2 0.010901 0.102553 -0.009924 0.000000 -0.000791 0.000000
# 3 -0.011276 -0.009924 0.011483 0.000000 0.009162 0.000000
# 4 0.000000 0.000000 0.000000 0.028986 0.000000 -0.039768
# 5 -0.016845 -0.000791 0.009162 0.000000 0.070792 0.000000
# 6 0.000000 0.000000 0.000000 -0.039768 0.000000 -0.067254
#
#
# Mechanical properties :
#
#
# Convention : Reuss Voigt Hill
#
# Bulk Modulus (GPa) = 8.22951 38.88979 23.55965
# Shear Modulus (GPa) = 21.21050 16.55002 18.88026
#
# Velocity S-wave (km/s) = 3.59575 3.17624 3.39249
# Velocity P-wave (km/s) = 4.71760 6.09571 5.45039
#
# Compressibility (1/GPa) = 0.12151389
#
# Stress axis : x y z
#
# Youngs Moduli (GPa) = 35.62132 9.75101 87.08850
#
# Poissons Ratio (x) = -0.10630 0.98197
# Poissons Ratio (y) = -0.38833 0.86423
# Poissons Ratio (z) = 0.40165 0.09676
#
# Static dielectric constant tensor:
#      x y z
#    x 1.540660 0.000000 -0.019960 
#    y 0.000000 1.570040 0.000000 
#    z -0.019960 0.000000 1.595130 
# 
# From -- ./inp_files/65724.got.cif
#   From: 2010.05.17/outbox.cif.g08.bks.cpg/sg10_33_cif.got.tgz:65724.got - 2010.06.03 11:33:40.
