data_PCOD9142476
_publ_section_title
;
Structure prediction by ZEFSAII (Michael W. Deem and Ramdas Pophale) SiO2 
 PCOD9142476
Probable space group: P 2/M
;
_chemical_formula_sum "Si O2"
_cell_formula_units_Z 18
_cell_length_a 6.672755
_cell_length_b 19.414242
_cell_length_c 5.608296
_cell_angle_alpha 90.000000
_cell_angle_beta 102.141855
_cell_angle_gamma 90.000000
_cell_volume 710.282309
_symmetry_space_group_name_H-M "P 2/M"
_symmetry_group_IT_number 10
_symmetry_cell_setting 'monoclinic'
loop_
_space_group_symop_operation_xyz
x,y,z
-x,y,-z
-x,-y,-z
x,-y,z
loop_
_atom_site_type_symbol
_atom_site_label
_atom_site_fract_x
_atom_site_fract_y
_atom_site_fract_z
Si Si1 0.369986 0.000000 0.719781
Si Si2 0.276931 0.793464 0.201265
Si Si3 0.779842 0.419176 0.212223
Si Si4 0.751167 0.367236 0.705966
Si Si5 0.747644 0.847515 0.307763
O O1 0.500000 0.000000 0.500000
O O2 0.241978 0.070211 0.699007
O O3 0.500000 0.000000 0.000000
O O4 0.285973 0.711878 0.239576
O O5 0.504714 0.826405 0.253780
O O6 0.176542 0.823659 0.414923
O O7 0.186518 0.811553 0.920970
O O8 0.801902 0.500000 0.267900
O O9 0.678422 0.384628 0.419297
O O10 0.004513 0.384075 0.251291
O O11 0.688621 0.410380 0.924567
#
# Coordination Sequence:
#
# PCOD9142476 Si02
#       5
#     2   4   4   4   4
#     4  12  16  30  48  68  94 130 154 194 234 244
#     4  10  18  29  43  68  98 126 148 182 232 276
#     4  10  19  33  50  73  91 111 152 203 239 277
#     4  10  18  29  48  70  95 119 146 187 245 280
#     4  10  19  30  45  69  99 123 156 187 217 271
#
# _framework density 25.342034000000002
#
# number of rings (size 3 to 8) (size 9 to 14) (size 15 to 20)
#    0.000    1.778    4.444    4.667    0.000    0.000 
#    0.000    0.000    0.000    0.000    0.000  105.778 
#    0.000  120.889    0.000    0.000    0.000    0.000 
#
# Total GULP energy -100732.009902 kJ/mol
# GULP energy per Si atom -5596.222772 kJ/mol
# Density = 2.528435 g / cm^3
# Si number density = 25.342034 Si / 1000 Ang^3
#
#
#
# Elastic Constant Matrix: (Units=GPa)
#
#
# Indices 1 2 3 4 5 6 
#
# 1 72.0824 -0.3937 57.9709 0.0000 -15.3154 0.0000
# 2 -0.3937 209.1404 48.2324 0.0000 -4.1968 0.0000
# 3 57.9709 48.2324 308.0320 0.0000 -4.5917 0.0000
# 4 0.0000 0.0000 0.0000 65.3390 0.0000 12.6637
# 5 -15.3154 -4.1968 -4.5917 0.0000 71.7814 0.0000
# 6 0.0000 0.0000 0.0000 12.6637 0.0000 -85.0705
#
#
#
# Elastic Compliance Matrix: (Units=1/GPa)
#
#
# Indices 1 2 3 4 5 6 
#
# 1 0.017317 0.000875 -0.003343 0.000000 0.003532 0.000000
# 2 0.000875 0.005009 -0.000943 0.000000 0.000419 0.000000
# 3 -0.003343 -0.000943 0.004016 0.000000 -0.000512 0.000000
# 4 0.000000 0.000000 0.000000 0.014876 0.000000 0.002214
# 5 0.003532 0.000419 -0.000512 0.000000 0.014677 0.000000
# 6 0.000000 0.000000 0.000000 0.002214 0.000000 -0.011425
#
#
# Mechanical properties :
#
#
# Convention : Reuss Voigt Hill
#
# Bulk Modulus (GPa) = 51.23295 88.98603 70.10949
# Shear Modulus (GPa) = 86.50887 42.63967 64.57427
#
# Velocity S-wave (km/s) = 5.84898 4.10636 5.05336
# Velocity P-wave (km/s) = 8.11632 7.59428 7.85964
#
# Compressibility (1/GPa) = 0.01951869
#
# Stress axis : x y z
#
# Youngs Moduli (GPa) = 57.74655 199.64351 249.02905
#
# Poissons Ratio (x) = -0.17459 0.83258
# Poissons Ratio (y) = -0.05050 0.23475
# Poissons Ratio (z) = 0.19306 0.18819
#
# Static dielectric constant tensor:
#      x y z
#    x 2.065480 0.000000 0.038340 
#    y 0.000000 1.853560 0.000000 
#    z 0.038340 0.000000 2.030460 
# 
# From -- ./inp_files/4125.got.cif
#   From: 2010.05.17/outbox.cif.g08.bks.cpg/sg10_3_cif.got.tgz:4125.got - 2010.06.03 11:33:40.
