data_PCOD9142051
_publ_section_title
;
Structure prediction by ZEFSAII (Michael W. Deem and Ramdas Pophale) SiO2 
 PCOD9142051
Probable space group: P 2/M
;
_chemical_formula_sum "Si O2"
_cell_formula_units_Z 28
_cell_length_a 32.422641
_cell_length_b 8.238025
_cell_length_c 9.802700
_cell_angle_alpha 90.000000
_cell_angle_beta 34.469370
_cell_angle_gamma 90.000000
_cell_volume 1481.860176
_symmetry_space_group_name_H-M "P 2/M"
_symmetry_group_IT_number 10
_symmetry_cell_setting 'monoclinic'
loop_
_space_group_symop_operation_xyz
x,y,z
-x,y,-z
-x,-y,-z
x,-y,z
loop_
_atom_site_type_symbol
_atom_site_label
_atom_site_fract_x
_atom_site_fract_y
_atom_site_fract_z
Si Si1 0.554134 0.198125 0.549731
Si Si2 0.081594 0.190397 0.305939
Si Si3 0.600371 0.802446 0.117634
Si Si4 0.764140 0.195056 0.623246
Si Si5 0.798581 0.310874 0.826859
Si Si6 0.191106 0.311859 0.787511
Si Si7 0.687781 0.809669 0.350743
O O1 0.469810 0.249633 0.778865
O O2 0.585918 0.245830 0.314446
O O3 0.608495 0.252089 0.520575
O O4 0.555513 0.000000 0.548939
O O5 0.124498 0.281013 0.309047
O O6 0.000000 0.249258 0.500000
O O7 0.078251 0.000000 0.350209
O O8 0.131857 0.212529 0.035386
O O9 0.600391 0.000000 0.116749
O O10 0.679466 0.748982 0.853502
O O11 0.797320 0.253959 0.675160
O O12 0.804184 0.262411 0.381844
O O13 0.765090 0.000000 0.616642
O O14 0.779271 0.500000 0.889099
O O15 0.739300 0.211359 0.076928
O O16 0.173226 0.500000 0.852101
O O17 0.269200 0.278310 0.646157
O O18 0.683163 0.000000 0.398299
#
# Coordination Sequence:
#
# PCOD9142051 Si02
#       7
#     4   4   4   4   4   4   4
#     4   8  13  24  46  77 104 130 178 235 278 311
#     4  10  21  40  65  89 110 136 175 218 257 309
#     4   8  14  25  46  76 105 134 175 233 280 310
#     4  11  20  35  56  79 108 145 187 229 269 316
#     4  11  21  33  54  83 114 145 177 216 264 321
#     4  11  23  37  54  79 113 147 176 217 271 326
#     4  10  17  31  54  78 103 140 188 232 267 316
#
# _framework density 18.895171000000001
#
# number of rings (size 3 to 8) (size 9 to 14) (size 15 to 20)
#    0.000    2.143    1.429    6.429    0.000    1.143 
#    0.000    1.429    0.000   12.857    0.000    0.000 
#    0.000    0.000    0.000    0.000    0.000    0.000 
#
# Total GULP energy -156252.456786 kJ/mol
# GULP energy per Si atom -5580.444885 kJ/mol
# Density = 1.885216 g / cm^3
# Si number density = 18.895171 Si / 1000 Ang^3
#
#
#
# Elastic Constant Matrix: (Units=GPa)
#
#
# Indices 1 2 3 4 5 6 
#
# 1 88.6399 -7.4993 36.7799 0.0000 -4.1241 0.0000
# 2 -7.4993 26.0447 -8.7903 0.0000 -1.2070 0.0000
# 3 36.7799 -8.7903 44.7831 0.0000 -4.0779 0.0000
# 4 0.0000 0.0000 0.0000 -14.6148 0.0000 20.1762
# 5 -4.1241 -1.2070 -4.0779 0.0000 35.4832 0.0000
# 6 0.0000 0.0000 0.0000 20.1762 0.0000 46.7924
#
#
#
# Elastic Compliance Matrix: (Units=1/GPa)
#
#
# Indices 1 2 3 4 5 6 
#
# 1 0.017120 0.000229 -0.013980 0.000000 0.000391 0.000000
# 2 0.000229 0.041318 0.008137 0.000000 0.002367 0.000000
# 3 -0.013980 0.008137 0.035659 0.000000 0.002750 0.000000
# 4 0.000000 0.000000 0.000000 -0.042892 0.000000 0.018494
# 5 0.000391 0.002367 0.002750 0.000000 0.028624 0.000000
# 6 0.000000 0.000000 0.000000 0.018494 0.000000 0.013397
#
#
# Mechanical properties :
#
#
# Convention : Reuss Voigt Hill
#
# Bulk Modulus (GPa) = 12.06703 22.27202 17.16952
# Shear Modulus (GPa) = 37.85712 22.79731 30.32722
#
# Velocity S-wave (km/s) = 4.48094 3.47726 4.01062
# Velocity P-wave (km/s) = 5.75951 5.28531 5.52750
#
# Compressibility (1/GPa) = 0.08287045
#
# Stress axis : x y z
#
# Youngs Moduli (GPa) = 58.41155 24.20267 28.04343
#
# Poissons Ratio (x) = -0.00555 0.39204
# Poissons Ratio (y) = -0.01340 -0.22820
# Poissons Ratio (z) = 0.81658 -0.19695
#
# Static dielectric constant tensor:
#      x y z
#    x 1.665100 0.000000 -0.023560 
#    y 0.000000 1.655860 0.000000 
#    z -0.023560 0.000000 1.639270 
# 
# From -- ./inp_files/37963.got.cif
#   From: 2010.05.17/outbox.cif.g08.bks.cpg/sg10_19_cif.got.tgz:37963.got - 2010.06.03 11:33:40.
