data_PCOD9142351
_publ_section_title
;
Structure prediction by ZEFSAII (Michael W. Deem and Ramdas Pophale) SiO2 
 PCOD9142351
Probable space group: P 2/M
;
_chemical_formula_sum "Si O2"
_cell_formula_units_Z 32
_cell_length_a 22.098705
_cell_length_b 9.101787
_cell_length_c 12.083820
_cell_angle_alpha 90.000000
_cell_angle_beta 51.472943
_cell_angle_gamma 90.000000
_cell_volume 1901.423670
_symmetry_space_group_name_H-M "P 2/M"
_symmetry_group_IT_number 10
_symmetry_cell_setting 'monoclinic'
loop_
_space_group_symop_operation_xyz
x,y,z
-x,y,-z
-x,-y,-z
x,-y,z
loop_
_atom_site_type_symbol
_atom_site_label
_atom_site_fract_x
_atom_site_fract_y
_atom_site_fract_z
Si Si1 0.239592 0.323422 0.373675
Si Si2 0.416557 0.323051 0.546839
Si Si3 0.788722 0.323156 0.842692
Si Si4 0.174962 0.831510 0.783253
Si Si5 0.330831 0.830426 0.454082
Si Si6 0.045484 0.825027 0.334014
Si Si7 0.905806 0.177694 0.338502
Si Si8 0.732707 0.676267 0.140576
O O1 0.238094 0.500000 0.385507
O O2 0.244204 0.280763 0.239652
O O3 0.308022 0.256886 0.369930
O O4 0.160008 0.256731 0.513716
O O5 0.500000 0.283225 0.500000
O O6 0.413945 0.500000 0.535866
O O7 0.395477 0.246557 0.455282
O O8 0.348191 0.280657 0.710204
O O9 0.792486 0.500000 0.839258
O O10 0.874582 0.260062 0.757571
O O11 0.740522 0.275236 0.004996
O O12 0.252272 0.827898 0.618305
O O13 0.108396 0.781806 0.773736
O O14 0.197354 0.738743 0.864657
O O15 0.160088 0.000000 0.832733
O O16 0.348819 0.000000 0.410776
O O17 0.000000 0.793358 0.500000
O O18 0.988574 0.788449 0.297136
O O19 0.060365 0.000000 0.314731
O O20 0.894065 0.000000 0.359665
O O21 0.736425 0.500000 0.140049
#
# Coordination Sequence:
#
# PCOD9142351 Si02
#       8
#     4   4   4   4   4   4   4   4
#     4  10  18  28  45  68  93 123 161 198 234 278
#     4   9  17  31  54  80 101 123 155 195 236 280
#     4  10  21  33  46  67  96 129 160 196 240 286
#     4   8  15  28  46  66  89 118 154 194 234 279
#     4   9  17  29  47  72 100 125 154 194 236 278
#     4  10  19  31  48  68  92 124 163 204 244 284
#     4   9  17  30  46  67  93 119 155 204 249 283
#     4   9  18  33  49  68  97 126 155 191 235 286
#
# _framework density 16.829494
#
# number of rings (size 3 to 8) (size 9 to 14) (size 15 to 20)
#    0.000    2.750    1.250    1.500    0.000    5.000 
#    0.000    0.625    0.000    4.500    0.000    5.250 
#    0.000    0.000    0.000    0.000    0.000    0.000 
#
# Total GULP energy -178304.236229 kJ/mol
# GULP energy per Si atom -5572.007382 kJ/mol
# Density = 1.679119 g / cm^3
# Si number density = 16.829494 Si / 1000 Ang^3
#
#
#
# Elastic Constant Matrix: (Units=GPa)
#
#
# Indices 1 2 3 4 5 6 
#
# 1 161.0674 46.5985 50.8734 0.0000 21.1072 0.0000
# 2 46.5985 29.0743 25.7258 0.0000 10.6308 0.0000
# 3 50.8734 25.7258 59.1510 0.0000 21.2323 0.0000
# 4 0.0000 0.0000 0.0000 11.9764 0.0000 2.7828
# 5 21.1072 10.6308 21.2323 0.0000 22.1646 0.0000
# 6 0.0000 0.0000 0.0000 2.7828 0.0000 26.5631
#
#
#
# Elastic Compliance Matrix: (Units=1/GPa)
#
#
# Indices 1 2 3 4 5 6 
#
# 1 0.011938 -0.016274 -0.002912 0.000000 -0.000774 0.000000
# 2 -0.016274 0.078518 -0.018589 0.000000 -0.004355 0.000000
# 3 -0.002912 -0.018589 0.035509 0.000000 -0.022327 0.000000
# 4 0.000000 0.000000 0.000000 0.085581 0.000000 -0.008966
# 5 -0.000774 -0.004355 -0.022327 0.000000 0.069330 0.000000
# 6 0.000000 0.000000 0.000000 -0.008966 0.000000 0.038585
#
#
# Mechanical properties :
#
#
# Convention : Reuss Voigt Hill
#
# Bulk Modulus (GPa) = 19.83525 55.07644 37.45584
# Shear Modulus (GPa) = 12.14132 20.54715 16.34424
#
# Velocity S-wave (km/s) = 2.68886 3.49793 3.11973
# Velocity P-wave (km/s) = 4.63158 7.00794 5.93981
#
# Compressibility (1/GPa) = 0.05041529
#
# Stress axis : x y z
#
# Youngs Moduli (GPa) = 83.76684 12.73590 28.16172
#
# Poissons Ratio (x) = 0.20726 0.08200
# Poissons Ratio (y) = 1.36323 0.52350
# Poissons Ratio (z) = 0.24391 0.23675
#
# Static dielectric constant tensor:
#      x y z
#    x 1.573720 0.000000 0.021640 
#    y 0.000000 1.564110 0.000000 
#    z 0.021640 0.000000 1.566930 
# 
# From -- ./inp_files/55291.got.cif
#   From: 2010.05.17/outbox.cif.g08.bks.cpg/sg10_28_cif.got.tgz:55291.got - 2010.06.03 11:33:40.
