data_PCOD9142362
_publ_section_title
;
Structure prediction by ZEFSAII (Michael W. Deem and Ramdas Pophale) SiO2 
 PCOD9142362
Probable space group: P 2/M
;
_chemical_formula_sum "Si O2"
_cell_formula_units_Z 32
_cell_length_a 22.630103
_cell_length_b 8.015147
_cell_length_c 12.567289
_cell_angle_alpha 90.000000
_cell_angle_beta 46.522542
_cell_angle_gamma 90.000000
_cell_volume 1654.108194
_symmetry_space_group_name_H-M "P 2/M"
_symmetry_group_IT_number 10
_symmetry_cell_setting 'monoclinic'
loop_
_space_group_symop_operation_xyz
x,y,z
-x,y,-z
-x,-y,-z
x,-y,z
loop_
_atom_site_type_symbol
_atom_site_label
_atom_site_fract_x
_atom_site_fract_y
_atom_site_fract_z
Si Si1 0.277069 0.695946 0.453807
Si Si2 0.059675 0.193525 0.826587
Si Si3 0.281051 0.298383 0.108563
Si Si4 0.408044 0.802907 0.121649
Si Si5 0.145083 0.703651 0.445589
Si Si6 0.798020 0.700408 0.003069
Si Si7 0.778100 0.196022 0.267920
Si Si8 0.976794 0.691143 0.721854
O O1 0.265262 0.500000 0.482377
O O2 0.354047 0.723994 0.282082
O O3 0.198841 0.760823 0.481465
O O4 0.287481 0.773227 0.558072
O O5 0.141946 0.267558 0.773031
O O6 0.020171 0.301583 0.783241
O O7 0.070225 0.000000 0.776139
O O8 0.000000 0.186537 0.000000
O O9 0.287178 0.500000 0.105479
O O10 0.358120 0.227243 0.074999
O O11 0.199990 0.252128 0.276291
O O12 0.266708 0.244842 0.005421
O O13 0.411381 0.000000 0.138522
O O14 0.500000 0.737880 0.000000
O O15 0.141964 0.500000 0.454253
O O16 0.051548 0.763746 0.559286
O O17 0.804256 0.500000 0.989653
O O18 0.772723 0.740259 0.154781
O O19 0.887533 0.766209 0.855368
O O20 0.791784 0.000000 0.240541
O O21 0.963863 0.500000 0.701137
#
# Coordination Sequence:
#
# PCOD9142362 Si02
#       8
#     4   4   4   4   4   4   4   4
#     4  10  19  33  55  83 111 136 171 217 265 313
#     4  10  19  30  42  63  96 137 183 231 272 306
#     4   9  19  36  54  76 107 141 179 218 262 316
#     4  10  21  38  62  90 113 133 162 202 255 319
#     4   8  15  28  47  71  98 132 174 223 268 303
#     4  10  21  33  48  72 104 146 190 228 263 307
#     4  11  21  32  49  72 104 145 184 224 270 315
#     4  10  18  28  45  69  98 137 184 231 271 303
#
# _framework density 19.345773000000001
#
# number of rings (size 3 to 8) (size 9 to 14) (size 15 to 20)
#    0.000    2.250    2.500    1.875    0.000    2.750 
#    0.000    2.500    0.000    0.750    0.000    8.750 
#    0.000    0.000    0.000    0.000    0.000    0.000 
#
# Total GULP energy -178355.387663 kJ/mol
# GULP energy per Si atom -5573.605864 kJ/mol
# Density = 1.930174 g / cm^3
# Si number density = 19.345773 Si / 1000 Ang^3
#
#
#
# Elastic Constant Matrix: (Units=GPa)
#
#
# Indices 1 2 3 4 5 6 
#
# 1 91.8610 1.5246 59.4070 0.0000 8.2637 0.0000
# 2 1.5246 22.4279 0.2762 0.0000 -1.9128 0.0000
# 3 59.4070 0.2762 80.2233 0.0000 -1.1922 0.0000
# 4 0.0000 0.0000 0.0000 43.7298 0.0000 18.0468
# 5 8.2637 -1.9128 -1.1922 0.0000 25.0161 0.0000
# 6 0.0000 0.0000 0.0000 18.0468 0.0000 22.3384
#
#
#
# Elastic Compliance Matrix: (Units=1/GPa)
#
#
# Indices 1 2 3 4 5 6 
#
# 1 0.022553 -0.002043 -0.016819 0.000000 -0.008408 0.000000
# 2 -0.002043 0.045066 0.001420 0.000000 0.004188 0.000000
# 3 -0.016819 0.001420 0.025017 0.000000 0.006857 0.000000
# 4 0.000000 0.000000 0.000000 0.034305 0.000000 -0.027715
# 5 -0.008408 0.004188 0.006857 0.000000 0.043399 0.000000
# 6 0.000000 0.000000 0.000000 -0.027715 0.000000 0.067156
#
#
# Mechanical properties :
#
#
# Convention : Reuss Voigt Hill
#
# Bulk Modulus (GPa) = 17.31542 35.21420 26.26481
# Shear Modulus (GPa) = 17.14497 27.10383 22.12440
#
# Velocity S-wave (km/s) = 2.98021 3.74708 3.38543
# Velocity P-wave (km/s) = 4.56203 6.07971 5.37471
#
# Compressibility (1/GPa) = 0.05775200
#
# Stress axis : x y z
#
# Youngs Moduli (GPa) = 44.33956 22.18973 39.97277
#
# Poissons Ratio (x) = 0.04534 0.67230
# Poissons Ratio (y) = 0.09059 -0.05676
# Poissons Ratio (z) = 0.74575 -0.03151
#
# Static dielectric constant tensor:
#      x y z
#    x 1.679300 0.000000 0.002800 
#    y 0.000000 1.705670 0.000000 
#    z 0.002800 0.000000 1.744350 
# 
# From -- ./inp_files/55270.got.cif
#   From: 2010.05.17/outbox.cif.g08.bks.cpg/sg10_28_cif.got.tgz:55270.got - 2010.06.03 11:33:40.
