data_PCOD9142805
_publ_section_title
;
Structure prediction by ZEFSAII (Michael W. Deem and Ramdas Pophale) SiO2 
 PCOD9142805
Probable space group: P 2/M
;
_chemical_formula_sum "Si O2"
_cell_formula_units_Z 32
_cell_length_a 11.844212
_cell_length_b 7.356736
_cell_length_c 23.175198
_cell_angle_alpha 90.000000
_cell_angle_beta 126.661094
_cell_angle_gamma 90.000000
_cell_volume 1619.896676
_symmetry_space_group_name_H-M "P 2/M"
_symmetry_group_IT_number 10
_symmetry_cell_setting 'monoclinic'
loop_
_space_group_symop_operation_xyz
x,y,z
-x,y,-z
-x,-y,-z
x,-y,z
loop_
_atom_site_type_symbol
_atom_site_label
_atom_site_fract_x
_atom_site_fract_y
_atom_site_fract_z
Si Si1 0.592504 0.721922 0.583132
Si Si2 0.405329 0.719195 0.055535
Si Si3 0.125287 0.719851 0.388646
Si Si4 0.152454 0.208899 0.530149
Si Si5 0.169114 0.721799 0.752688
Si Si6 0.530490 0.277289 0.208910
Si Si7 0.286514 0.280818 0.905149
Si Si8 0.539774 0.291449 0.339163
O O1 0.500000 0.779980 0.500000
O O2 0.584897 0.500000 0.581531
O O3 0.752586 0.773441 0.618469
O O4 0.529722 0.788358 0.624439
O O5 0.391031 0.500000 0.053213
O O6 0.419659 0.781433 0.125854
O O7 0.559633 0.755697 0.075456
O O8 0.294398 0.785756 0.973621
O O9 0.123917 0.500000 0.390418
O O10 0.163553 0.781915 0.464506
O O11 0.971593 0.782235 0.322086
O O12 0.291559 0.292470 0.600327
O O13 0.000000 0.288736 0.500000
O O14 0.151973 0.000000 0.549431
O O15 0.168141 0.500000 0.752422
O O16 0.312532 0.775832 0.764017
O O17 0.179651 0.781097 0.822951
O O18 0.530581 0.500000 0.209338
O O19 0.505491 0.212404 0.266115
O O20 0.273049 0.500000 0.903958
O O21 0.491351 0.500000 0.322185
#
# Coordination Sequence:
#
# PCOD9142805 Si02
#       8
#     4   4   4   4   4   4   4   4
#     4   9  16  28  44  62  79  99 135 180 213 237
#     4   7   9  14  25  44  74 105 125 149 191 236
#     4  10  18  30  47  62  79 106 140 175 205 235
#     4  11  23  34  43  60  86 109 130 161 206 257
#     4   8  13  20  33  56  79  99 130 166 197 237
#     4   8  13  20  33  56  79  99 130 166 197 237
#     4   7   9  14  25  44  74 105 125 149 191 236
#     4  10  18  30  47  62  79 106 140 175 205 235
#
# _framework density 19.754345000000001
#
# number of rings (size 3 to 8) (size 9 to 14) (size 15 to 20)
#    0.000    3.250    1.250    3.375    0.000    2.000 
#    0.000    1.250    0.000    0.000    0.000    0.875 
#    0.000    8.000    0.000    9.250    0.000   10.000 
#
# Total GULP energy -178308.864944 kJ/mol
# GULP energy per Si atom -5572.152030 kJ/mol
# Density = 1.970938 g / cm^3
# Si number density = 19.754345 Si / 1000 Ang^3
#
#
#
# Elastic Constant Matrix: (Units=GPa)
#
#
# Indices 1 2 3 4 5 6 
#
# 1 76.2480 0.8373 21.8711 0.0000 -32.0691 0.0000
# 2 0.8373 69.2442 -1.3989 0.0000 -1.7796 0.0000
# 3 21.8711 -1.3989 113.4080 0.0000 -50.2558 0.0000
# 4 0.0000 0.0000 0.0000 -25.9533 0.0000 -4.7960
# 5 -32.0691 -1.7796 -50.2558 0.0000 32.3497 0.0000
# 6 0.0000 0.0000 0.0000 -4.7960 0.0000 -14.2588
#
#
#
# Elastic Compliance Matrix: (Units=1/GPa)
#
#
# Indices 1 2 3 4 5 6 
#
# 1 0.045268 0.002782 0.036133 0.000000 0.101162 0.000000
# 2 0.002782 0.014736 0.003937 0.000000 0.009686 0.000000
# 3 0.036133 0.003937 0.057345 0.000000 0.125123 0.000000
# 4 0.000000 0.000000 0.000000 -0.041084 0.000000 0.013819
# 5 0.101162 0.009686 0.125123 0.000000 0.326111 0.000000
# 6 0.000000 0.000000 0.000000 0.013819 0.000000 -0.074780
#
#
# Mechanical properties :
#
#
# Convention : Reuss Voigt Hill
#
# Bulk Modulus (GPa) = 4.92476 33.50212 19.21344
# Shear Modulus (GPa) = 16.15120 14.26691 15.20905
#
# Velocity S-wave (km/s) = 2.86248 2.69032 2.77773
# Velocity P-wave (km/s) = 3.66380 5.16204 4.47605
#
# Compressibility (1/GPa) = 0.20305574
#
# Stress axis : x y z
#
# Youngs Moduli (GPa) = 22.09080 67.85893 17.43823
#
# Poissons Ratio (x) = -0.18882 -0.63010
# Poissons Ratio (y) = -0.06147 -0.06866
# Poissons Ratio (z) = -0.79822 -0.26718
#
# Static dielectric constant tensor:
#      x y z
#    x 1.668880 0.000000 -0.034590 
#    y 0.000000 1.754610 0.000000 
#    z -0.034590 0.000000 1.721750 
# 
# From -- ./inp_files/88567.got.cif
#   From: 2010.05.17/outbox.cif.g08.bks.cpg/sg10_45_cif.got.tgz:88567.got - 2010.06.03 11:33:40.
