data_PCOD9142428
_publ_section_title
;
Structure prediction by ZEFSAII (Michael W. Deem and Ramdas Pophale) SiO2 
 PCOD9142428
Probable space group: P 2/M
;
_chemical_formula_sum "Si O2"
_cell_formula_units_Z 30
_cell_length_a 14.308926
_cell_length_b 8.687623
_cell_length_c 17.588890
_cell_angle_alpha 90.000000
_cell_angle_beta 128.999157
_cell_angle_gamma 90.000000
_cell_volume 1699.237977
_symmetry_space_group_name_H-M "P 2/M"
_symmetry_group_IT_number 10
_symmetry_cell_setting 'monoclinic'
loop_
_space_group_symop_operation_xyz
x,y,z
-x,y,-z
-x,-y,-z
x,-y,z
loop_
_atom_site_type_symbol
_atom_site_label
_atom_site_fract_x
_atom_site_fract_y
_atom_site_fract_z
Si Si1 0.570230 0.185110 0.143649
Si Si2 0.674580 0.314659 0.050576
Si Si3 0.185678 0.682743 0.314928
Si Si4 0.509733 0.813709 0.276344
Si Si5 0.746570 0.173325 0.806158
Si Si6 0.000000 0.751323 0.000000
Si Si7 0.065932 0.324264 0.864393
Si Si8 0.402474 0.185553 0.513456
O O1 0.659315 0.269492 0.131153
O O2 0.576769 0.237474 0.234590
O O3 0.584643 0.000000 0.145403
O O4 0.436177 0.230877 0.047415
O O5 0.662133 0.500000 0.034555
O O6 0.802647 0.258240 0.083940
O O7 0.181780 0.500000 0.324099
O O8 0.241462 0.718839 0.260631
O O9 0.272013 0.758240 0.420656
O O10 0.049157 0.746228 0.237604
O O11 0.367106 0.776668 0.201907
O O12 0.560722 0.760487 0.383476
O O13 0.517586 0.000000 0.279301
O O14 0.873570 0.169041 0.914342
O O15 0.720207 0.000000 0.764166
O O16 0.966896 0.671770 0.062968
O O17 0.074317 0.500000 0.841863
O O18 0.500000 0.236875 0.500000
O O19 0.404307 0.000000 0.514656
#
# Coordination Sequence:
#
# PCOD9142428 Si02
#       8
#     4   4   4   4   4   2   4   4
#     4  10  19  33  52  77 103 128 164 210 252 288
#     4  10  19  34  53  73 100 135 170 200 242 299
#     4  10  20  33  48  71  99 130 167 205 243 291
#     4   9  18  31  50  72  99 131 162 200 251 300
#     4  10  18  31  46  68  99 134 165 198 241 294
#     4  10  18  28  48  74  99 128 169 206 237 284
#     4   9  19  33  49  69 101 137 164 199 250 300
#     4  10  18  33  54  72  97 134 167 201 252 305
#
# _framework density 17.654972000000001
#
# number of rings (size 3 to 8) (size 9 to 14) (size 15 to 20)
#    0.000    2.267    1.333    3.200    0.000    0.800 
#    0.000   10.000    0.000    0.800    0.000    5.600 
#    0.000    0.000    0.000    0.000    0.000    0.000 
#
# Total GULP energy -167060.663007 kJ/mol
# GULP energy per Si atom -5568.688767 kJ/mol
# Density = 1.761479 g / cm^3
# Si number density = 17.654972 Si / 1000 Ang^3
#
#
#
# Elastic Constant Matrix: (Units=GPa)
#
#
# Indices 1 2 3 4 5 6 
#
# 1 92.3263 0.1204 34.8403 0.0000 0.1680 0.0000
# 2 0.1204 18.9913 3.6903 0.0000 1.6411 0.0000
# 3 34.8403 3.6903 93.4875 0.0000 -4.1536 0.0000
# 4 0.0000 0.0000 0.0000 8.9698 0.0000 5.0183
# 5 0.1680 1.6411 -4.1536 0.0000 29.2171 0.0000
# 6 0.0000 0.0000 0.0000 5.0183 0.0000 1.4578
#
#
#
# Elastic Compliance Matrix: (Units=1/GPa)
#
#
# Indices 1 2 3 4 5 6 
#
# 1 0.012636 0.000918 -0.004781 0.000000 -0.000804 0.000000
# 2 0.000918 0.053447 -0.002602 0.000000 -0.003377 0.000000
# 3 -0.004781 -0.002602 0.012669 0.000000 0.001975 0.000000
# 4 0.000000 0.000000 0.000000 -0.120406 0.000000 0.414489
# 5 -0.000804 -0.003377 0.001975 0.000000 0.034702 0.000000
# 6 0.000000 0.000000 0.000000 0.414489 0.000000 -0.740869
#
#
# Mechanical properties :
#
#
# Convention : Reuss Voigt Hill
#
# Bulk Modulus (GPa) = 15.19237 31.34524 23.26880
# Shear Modulus (GPa) = -7.01310 19.00588 5.99639
#
# Velocity S-wave (km/s) = -1.99523 3.28459 1.84494
# Velocity P-wave (km/s) = 1.82097 5.67253 4.21269
#
# Compressibility (1/GPa) = 0.06582254
#
# Stress axis : x y z
#
# Youngs Moduli (GPa) = 79.14188 18.70996 78.93426
#
# Poissons Ratio (x) = -0.01718 0.37738
# Poissons Ratio (y) = -0.07268 0.20539
# Poissons Ratio (z) = 0.37837 0.04869
#
# Static dielectric constant tensor:
#      x y z
#    x 1.622420 0.000000 0.007650 
#    y 0.000000 1.615290 0.000000 
#    z 0.007650 0.000000 1.619650 
# 
# From -- ./inp_files/77571.got.cif
#   From: 2010.05.17/outbox.cif.g08.bks.cpg/sg10_39_cif.got.tgz:77571.got - 2010.06.03 11:33:40.
