data_PCOD9142601
_publ_section_title
;
Structure prediction by ZEFSAII (Michael W. Deem and Ramdas Pophale) SiO2 
 PCOD9142601
Probable space group: P 2/M
;
_chemical_formula_sum "Si O2"
_cell_formula_units_Z 32
_cell_length_a 18.385892
_cell_length_b 19.410080
_cell_length_c 9.610330
_cell_angle_alpha 90.000000
_cell_angle_beta 24.485513
_cell_angle_gamma 90.000000
_cell_volume 1421.465271
_symmetry_space_group_name_H-M "P 2/M"
_symmetry_group_IT_number 10
_symmetry_cell_setting 'monoclinic'
loop_
_space_group_symop_operation_xyz
x,y,z
-x,y,-z
-x,-y,-z
x,-y,z
loop_
_atom_site_type_symbol
_atom_site_label
_atom_site_fract_x
_atom_site_fract_y
_atom_site_fract_z
Si Si1 0.793773 0.424139 0.331872
Si Si2 0.116411 0.223242 0.664217
Si Si3 0.864574 0.283113 0.907395
Si Si4 0.207895 0.075838 0.514554
Si Si5 0.505107 0.923715 0.758265
Si Si6 0.623445 0.286618 0.609203
Si Si7 0.289730 0.424060 0.850776
Si Si8 0.613445 0.783696 0.169934
O O1 0.758642 0.500000 0.454826
O O2 0.666553 0.361885 0.595046
O O3 0.759545 0.429277 0.226327
O O4 0.000000 0.408386 0.000000
O O5 0.090538 0.141962 0.686980
O O6 0.309932 0.235374 0.387517
O O7 0.000000 0.243619 0.000000
O O8 0.053494 0.267565 0.643485
O O9 0.745609 0.280089 0.256753
O O10 0.819584 0.356669 0.915464
O O11 0.805090 0.225790 0.900215
O O12 0.309052 0.084524 0.485741
O O13 0.124078 0.000000 0.656803
O O14 0.358893 0.075878 0.134434
O O15 0.452533 0.859547 0.755041
O O16 0.503082 0.000000 0.695808
O O17 0.437447 0.265379 0.870176
O O18 0.500000 0.412160 0.500000
O O19 0.252470 0.500000 0.979111
O O20 0.500000 0.760107 0.500000
#
# Coordination Sequence:
#
# PCOD9142601 Si02
#       8
#     4   4   4   4   4   4   4   4
#     4   9  15  22  34  55  86 123 157 189 230 278
#     4  10  18  29  47  70  96 126 156 191 237 287
#     4   9  17  26  39  65  98 125 150 190 240 278
#     4   9  18  34  54  72  91 120 161 202 234 276
#     4   9  18  34  54  72  91 120 160 202 237 276
#     4   9  15  26  41  61  90 124 159 190 227 276
#     4   9  15  24  38  57  87 130 167 189 220 274
#     4  10  18  29  47  70  97 124 154 192 238 284
#
# _framework density 22.511982
#
# number of rings (size 3 to 8) (size 9 to 14) (size 15 to 20)
#    0.000    2.750    1.250    4.500    0.000    0.500 
#    0.000    1.250    0.000    1.500    0.000    0.000 
#    0.000    6.000    0.000    0.000    0.000    0.000 
#
# Total GULP energy -178272.106580 kJ/mol
# GULP energy per Si atom -5571.003331 kJ/mol
# Density = 2.246074 g / cm^3
# Si number density = 22.511982 Si / 1000 Ang^3
#
#
#
# Elastic Constant Matrix: (Units=GPa)
#
#
# Indices 1 2 3 4 5 6 
#
# 1 90.4619 40.9819 39.0874 0.0000 -33.0661 0.0000
# 2 40.9819 171.0470 5.5642 0.0000 -38.3880 0.0000
# 3 39.0874 5.5642 62.5690 0.0000 -15.2372 0.0000
# 4 0.0000 0.0000 0.0000 46.0895 0.0000 10.5547
# 5 -33.0661 -38.3880 -15.2372 0.0000 39.3808 0.0000
# 6 0.0000 0.0000 0.0000 10.5547 0.0000 39.8663
#
#
#
# Elastic Compliance Matrix: (Units=1/GPa)
#
#
# Indices 1 2 3 4 5 6 
#
# 1 0.020322 -0.002009 -0.009757 0.000000 0.011330 0.000000
# 2 -0.002009 0.007768 0.002205 0.000000 0.006739 0.000000
# 3 -0.009757 0.002205 0.022533 0.000000 0.002675 0.000000
# 4 0.000000 0.000000 0.000000 0.023097 0.000000 -0.006115
# 5 0.011330 0.006739 0.002675 0.000000 0.042510 0.000000
# 6 0.000000 0.000000 0.000000 -0.006115 0.000000 0.026703
#
#
# Mechanical properties :
#
#
# Convention : Reuss Voigt Hill
#
# Bulk Modulus (GPa) = 31.74472 55.03831 43.39151
# Shear Modulus (GPa) = 28.97599 40.96361 34.96980
#
# Velocity S-wave (km/s) = 3.59156 4.27035 3.94558
# Velocity P-wave (km/s) = 5.59740 6.98685 6.33036
#
# Compressibility (1/GPa) = 0.03150130
#
# Stress axis : x y z
#
# Youngs Moduli (GPa) = 49.20821 128.72731 44.37865
#
# Poissons Ratio (x) = 0.25860 0.43302
# Poissons Ratio (y) = 0.09885 -0.09787
# Poissons Ratio (z) = 0.48015 -0.28388
#
# Static dielectric constant tensor:
#      x y z
#    x 1.833620 0.000000 0.022170 
#    y 0.000000 1.931790 0.000000 
#    z 0.022170 0.000000 1.932480 
# 
# From -- ./inp_files/54134.got.cif
#   From: 2010.05.17/outbox.cif.g08.bks.cpg/sg10_28_cif.got.tgz:54134.got - 2010.06.03 11:33:40.
