data_PCOD9142677
_publ_section_title
;
Structure prediction by ZEFSAII (Michael W. Deem and Ramdas Pophale) SiO2 
 PCOD9142677
Probable space group: P 2/M
;
_chemical_formula_sum "Si O2"
_cell_formula_units_Z 32
_cell_length_a 13.028701
_cell_length_b 15.261304
_cell_length_c 9.598666
_cell_angle_alpha 90.000000
_cell_angle_beta 73.866155
_cell_angle_gamma 90.000000
_cell_volume 1833.382509
_symmetry_space_group_name_H-M "P 2/M"
_symmetry_group_IT_number 10
_symmetry_cell_setting 'monoclinic'
loop_
_space_group_symop_operation_xyz
x,y,z
-x,y,-z
-x,-y,-z
x,-y,z
loop_
_atom_site_type_symbol
_atom_site_label
_atom_site_fract_x
_atom_site_fract_y
_atom_site_fract_z
Si Si1 0.484797 0.605232 0.161522
Si Si2 0.270438 0.399622 0.402225
Si Si3 0.765845 0.103468 0.822412
Si Si4 0.435458 0.102020 0.303768
Si Si5 0.387871 0.658382 0.622738
Si Si6 0.125944 0.228016 0.436372
Si Si7 0.283623 0.834874 0.601788
Si Si8 0.665566 0.900172 0.139072
O O1 0.480996 0.500000 0.155007
O O2 0.370378 0.631119 0.268981
O O3 0.576704 0.626533 0.238869
O O4 0.500000 0.640799 0.000000
O O5 0.239137 0.500000 0.378894
O O6 0.319690 0.400326 0.540443
O O7 0.181837 0.324149 0.417945
O O8 0.652623 0.106798 0.783533
O O9 0.842149 0.169529 0.709930
O O10 0.800827 0.000000 0.806166
O O11 0.739687 0.135228 0.988476
O O12 0.380526 0.143396 0.459635
O O13 0.548040 0.140517 0.210231
O O14 0.454134 0.000000 0.331781
O O15 0.500000 0.674548 0.500000
O O16 0.315725 0.743837 0.659978
O O17 0.180155 0.176505 0.545817
O O18 0.000000 0.235555 0.500000
O O19 0.355944 0.000000 0.899905
O O20 0.278134 0.900095 0.732343
#
# Coordination Sequence:
#
# PCOD9142677 Si02
#       8
#     4   4   4   4   4   4   4   4
#     4   9  17  29  47  74 106 135 158 183 227 293
#     4   9  18  33  53  77 102 128 161 202 247 295
#     4   9  19  34  51  74 103 134 167 202 245 297
#     4   9  16  28  47  72 105 139 164 190 232 292
#     4   9  16  27  44  69 102 134 160 188 229 284
#     4  10  22  39  55  70  91 126 173 221 263 297
#     4  10  19  30  46  71  99 130 170 206 240 290
#     4  10  18  29  48  75 106 135 161 195 242 297
#
# _framework density 17.454077999999999
#
# number of rings (size 3 to 8) (size 9 to 14) (size 15 to 20)
#    0.000    2.625    0.000    2.250    0.000    7.000 
#    0.000    0.625    0.000    1.500    0.000    0.000 
#    0.000   10.000    0.000    0.000    0.000    0.000 
#
# Total GULP energy -178227.707876 kJ/mol
# GULP energy per Si atom -5569.615871 kJ/mol
# Density = 1.741435 g / cm^3
# Si number density = 17.454078 Si / 1000 Ang^3
#
#
#
# Elastic Constant Matrix: (Units=GPa)
#
#
# Indices 1 2 3 4 5 6 
#
# 1 87.2581 36.1512 60.8084 0.0000 -18.5584 0.0000
# 2 36.1512 54.3237 35.3124 0.0000 -10.3811 0.0000
# 3 60.8084 35.3124 127.6791 0.0000 4.0564 0.0000
# 4 0.0000 0.0000 0.0000 15.7947 0.0000 -3.1395
# 5 -18.5584 -10.3811 4.0564 0.0000 14.9870 0.0000
# 6 0.0000 0.0000 0.0000 -3.1395 0.0000 12.0920
#
#
#
# Elastic Compliance Matrix: (Units=1/GPa)
#
#
# Indices 1 2 3 4 5 6 
#
# 1 0.033668 -0.003277 -0.016523 0.000000 0.043893 0.000000
# 2 -0.003277 0.028368 -0.006839 0.000000 0.017443 0.000000
# 3 -0.016523 -0.006839 0.018553 0.000000 -0.030219 0.000000
# 4 0.000000 0.000000 0.000000 0.066757 0.000000 0.017333
# 5 0.043893 0.017443 -0.030219 0.000000 0.141339 0.000000
# 6 0.000000 0.000000 0.000000 0.017333 0.000000 0.087199
#
#
# Mechanical properties :
#
#
# Convention : Reuss Voigt Hill
#
# Bulk Modulus (GPa) = 36.61573 59.31165 47.96369
# Shear Modulus (GPa) = 11.40862 17.70735 14.55798
#
# Velocity S-wave (km/s) = 2.55940 3.18859 2.89117
# Velocity P-wave (km/s) = 5.45508 6.90011 6.21970
#
# Compressibility (1/GPa) = 0.02731066
#
# Stress axis : x y z
#
# Youngs Moduli (GPa) = 29.70220 35.25105 53.89996
#
# Poissons Ratio (x) = 0.11551 0.89057
# Poissons Ratio (y) = 0.09733 0.36864
# Poissons Ratio (z) = 0.49076 0.24109
#
# Static dielectric constant tensor:
#      x y z
#    x 1.568140 0.000000 0.020170 
#    y 0.000000 1.651520 0.000000 
#    z 0.020170 0.000000 1.627350 
# 
# From -- ./inp_files/29482.got.cif
#   From: 2010.05.17/outbox.cif.g08.bks.cpg/sg10_15_cif.got.tgz:29482.got - 2010.06.03 11:33:40.
