data_PCOD9142582
_publ_section_title
;
Structure prediction by ZEFSAII (Michael W. Deem and Ramdas Pophale) SiO2 
 PCOD9142582
Probable space group: P 2/M
;
_chemical_formula_sum "Si O2"
_cell_formula_units_Z 32
_cell_length_a 21.900511
_cell_length_b 9.504332
_cell_length_c 20.691678
_cell_angle_alpha 90.000000
_cell_angle_beta 153.784358
_cell_angle_gamma 90.000000
_cell_volume 1902.606143
_symmetry_space_group_name_H-M "P 2/M"
_symmetry_group_IT_number 10
_symmetry_cell_setting 'monoclinic'
loop_
_space_group_symop_operation_xyz
x,y,z
-x,y,-z
-x,-y,-z
x,-y,z
loop_
_atom_site_type_symbol
_atom_site_label
_atom_site_fract_x
_atom_site_fract_y
_atom_site_fract_z
Si Si1 0.155491 0.662019 0.622449
Si Si2 0.643481 0.163649 0.096889
Si Si3 0.615014 0.162464 0.813958
Si Si4 0.719597 0.838863 0.523569
Si Si5 0.686025 0.662764 0.614304
Si Si6 0.352153 0.663377 0.277939
Si Si7 0.250930 0.663546 0.572846
Si Si8 0.581338 0.334297 0.908771
O O1 0.208845 0.500000 0.678273
O O2 0.244268 0.765754 0.750264
O O3 0.168161 0.700831 0.559031
O O4 0.000000 0.663387 0.500000
O O5 0.673229 0.000000 0.110898
O O6 0.500000 0.169640 0.000000
O O7 0.629106 0.253861 0.018117
O O8 0.447942 0.162856 0.644630
O O9 0.679124 0.235839 0.811590
O O10 0.639547 0.256226 0.900675
O O11 0.656864 0.000000 0.861570
O O12 0.748804 0.759020 0.618221
O O13 0.777850 0.758428 0.516579
O O14 0.764216 0.000000 0.568077
O O15 0.727812 0.500000 0.645991
O O16 0.519166 0.666279 0.445939
O O17 0.710381 0.704921 0.711906
O O18 0.316413 0.500000 0.230663
O O19 0.225533 0.500000 0.532683
O O20 0.414002 0.676469 0.745092
O O21 0.616147 0.500000 0.943085
#
# Coordination Sequence:
#
# PCOD9142582 Si02
#       8
#     4   4   4   4   4   4   4   4
#     4  10  21  37  55  74  96 124 160 199 240 289
#     4  11  22  34  51  74  99 125 155 196 242 288
#     4   9  16  24  34  53  81 109 141 184 231 274
#     4   9  16  23  34  53  77 106 142 184 226 271
#     4   8  13  21  32  46  68 101 142 184 220 263
#     4   8  13  21  32  46  68 103 144 180 219 268
#     4   9  17  29  45  64  86 115 149 189 234 278
#     4  10  18  29  47  66  87 117 155 195 233 277
#
# _framework density 16.819036000000001
#
# number of rings (size 3 to 8) (size 9 to 14) (size 15 to 20)
#    0.000    2.750    1.250    2.250    0.000    5.250 
#    0.000    2.500    0.000    0.000    0.000    0.000 
#    0.000    0.000    0.000    1.125    0.000   23.000 
#
# Total GULP energy -178292.818378 kJ/mol
# GULP energy per Si atom -5571.650574 kJ/mol
# Density = 1.678075 g / cm^3
# Si number density = 16.819036 Si / 1000 Ang^3
#
#
#
# Elastic Constant Matrix: (Units=GPa)
#
#
# Indices 1 2 3 4 5 6 
#
# 1 165.7719 109.0426 28.1820 0.0000 -39.1145 0.0000
# 2 109.0426 139.5876 28.7005 0.0000 -28.1168 0.0000
# 3 28.1820 28.7005 11.6657 0.0000 -5.4137 0.0000
# 4 0.0000 0.0000 0.0000 44.3198 0.0000 -34.9534
# 5 -39.1145 -28.1168 -5.4137 0.0000 17.0727 0.0000
# 6 0.0000 0.0000 0.0000 -34.9534 0.0000 37.3377
#
#
#
# Elastic Compliance Matrix: (Units=1/GPa)
#
#
# Indices 1 2 3 4 5 6 
#
# 1 0.020886 -0.005130 -0.022924 0.000000 0.032133 0.000000
# 2 -0.005130 0.019800 -0.031239 0.000000 0.010950 0.000000
# 3 -0.022924 -0.031239 0.198991 0.000000 -0.040866 0.000000
# 4 0.000000 0.000000 0.000000 0.086218 0.000000 0.080713
# 5 0.032133 0.010950 -0.040866 0.000000 0.137267 0.000000
# 6 0.000000 0.000000 0.000000 0.080713 0.000000 0.102341
#
#
# Mechanical properties :
#
#
# Convention : Reuss Voigt Hill
#
# Bulk Modulus (GPa) = 8.25812 72.09728 40.17770
# Shear Modulus (GPa) = 6.90178 29.81939 18.36058
#
# Velocity S-wave (km/s) = 2.02792 4.21521 3.30760
# Velocity P-wave (km/s) = 3.22551 8.16396 6.20702
#
# Compressibility (1/GPa) = 0.12109289
#
# Stress axis : x y z
#
# Youngs Moduli (GPa) = 47.87980 50.50609 5.02535
#
# Poissons Ratio (x) = 0.25907 0.11520
# Poissons Ratio (y) = 0.24560 0.15699
# Poissons Ratio (z) = 1.09758 1.57774
#
# Static dielectric constant tensor:
#      x y z
#    x 1.569250 0.000000 -0.004210 
#    y 0.000000 1.565630 0.000000 
#    z -0.004210 0.000000 1.531540 
# 
# From -- ./inp_files/86152.got.cif
#   From: 2010.05.17/outbox.cif.g08.bks.cpg/sg10_44_cif.got.tgz:86152.got - 2010.06.03 11:33:40.
