data_PCOD9142146
_publ_section_title
;
Structure prediction by ZEFSAII (Michael W. Deem and Ramdas Pophale) SiO2 
 PCOD9142146
Probable space group: P 2/M
;
_chemical_formula_sum "Si O2"
_cell_formula_units_Z 28
_cell_length_a 5.603057
_cell_length_b 24.390917
_cell_length_c 9.070359
_cell_angle_alpha 90.000000
_cell_angle_beta 96.816330
_cell_angle_gamma 90.000000
_cell_volume 1230.827046
_symmetry_space_group_name_H-M "P 2/M"
_symmetry_group_IT_number 10
_symmetry_cell_setting 'monoclinic'
loop_
_space_group_symop_operation_xyz
x,y,z
-x,y,-z
-x,-y,-z
x,-y,z
loop_
_atom_site_type_symbol
_atom_site_label
_atom_site_fract_x
_atom_site_fract_y
_atom_site_fract_z
Si Si1 0.828459 0.730798 0.777994
Si Si2 0.663875 0.767021 0.194490
Si Si3 0.443134 0.105202 0.832827
Si Si4 0.056254 0.064658 0.175132
Si Si5 0.707688 0.434621 0.333885
Si Si6 0.247530 0.815070 0.487721
Si Si7 0.205246 0.608176 0.326357
O O1 0.583216 0.735426 0.852122
O O2 0.791493 0.781311 0.662945
O O3 0.821312 0.672896 0.695382
O O4 0.096445 0.741413 0.856517
O O5 0.621988 0.830781 0.154303
O O6 0.716409 0.770836 0.376061
O O7 0.695346 0.095317 0.767865
O O8 0.194158 0.078331 0.761451
O O9 0.500000 0.081524 0.000000
O O10 0.101404 0.000000 0.185451
O O11 0.000000 0.080457 0.000000
O O12 0.695487 0.500000 0.347440
O O13 0.750639 0.408994 0.500115
O O14 0.448079 0.412415 0.263359
O O15 0.948896 0.418263 0.263405
O O16 0.500000 0.845620 0.500000
O O17 0.000000 0.845675 0.500000
#
# Coordination Sequence:
#
# PCOD9142146 Si02
#       7
#     4   4   4   4   4   4   4
#     4  10  19  28  42  62  83 112 152 191 213 243
#     4  10  19  29  41  61  91 112 146 181 209 256
#     4  10  19  31  47  67  94 124 143 166 215 263
#     4   9  17  30  49  70  90 112 143 178 211 255
#     4  10  19  27  37  55  79 109 154 181 206 266
#     4   8  16  25  39  54  82 102 138 179 215 229
#     4  10  18  25  41  52  76 109 146 185 215 244
#
# _framework density 22.748933000000001
#
# number of rings (size 3 to 8) (size 9 to 14) (size 15 to 20)
#    0.000    2.429    0.000    4.286   12.000    1.714 
#    0.000    0.000    0.000    0.000    0.000    0.000 
#    0.000  102.857    0.000    0.000    0.000   82.857 
#
# Total GULP energy -156124.094615 kJ/mol
# GULP energy per Si atom -5575.860522 kJ/mol
# Density = 2.269716 g / cm^3
# Si number density = 22.748933 Si / 1000 Ang^3
#
#
#
# Elastic Constant Matrix: (Units=GPa)
#
#
# Indices 1 2 3 4 5 6 
#
# 1 283.5264 56.0391 27.0771 0.0000 47.3635 0.0000
# 2 56.0391 105.3891 6.0514 0.0000 19.5801 0.0000
# 3 27.0771 6.0514 42.4148 0.0000 9.1081 0.0000
# 4 0.0000 0.0000 0.0000 140.9785 0.0000 -48.0185
# 5 47.3635 19.5801 9.1081 0.0000 26.0724 0.0000
# 6 0.0000 0.0000 0.0000 -48.0185 0.0000 63.5203
#
#
#
# Elastic Compliance Matrix: (Units=1/GPa)
#
#
# Indices 1 2 3 4 5 6 
#
# 1 0.005265 -0.001201 -0.001437 0.000000 -0.008160 0.000000
# 2 -0.001201 0.011303 0.000550 0.000000 -0.006499 0.000000
# 3 -0.001437 0.000550 0.025886 0.000000 -0.006844 0.000000
# 4 0.000000 0.000000 0.000000 0.009553 0.000000 0.007222
# 5 -0.008160 -0.006499 -0.006844 0.000000 0.060450 0.000000
# 6 0.000000 0.000000 0.000000 0.007222 0.000000 0.021202
#
#
# Mechanical properties :
#
#
# Convention : Reuss Voigt Hill
#
# Bulk Modulus (GPa) = 26.12593 67.74061 46.93327
# Shear Modulus (GPa) = 33.20164 68.92508 51.06336
#
# Velocity S-wave (km/s) = 3.82446 5.51035 4.74291
# Velocity P-wave (km/s) = 5.56879 8.38614 7.11824
#
# Compressibility (1/GPa) = 0.03827615
#
# Stress axis : x y z
#
# Youngs Moduli (GPa) = 189.94116 88.47152 38.63148
#
# Poissons Ratio (x) = 0.10624 0.05553
# Poissons Ratio (y) = 0.22810 -0.02123
# Poissons Ratio (z) = 0.27301 -0.04862
#
# Static dielectric constant tensor:
#      x y z
#    x 1.733060 0.000000 0.135290 
#    y 0.000000 1.765560 0.000000 
#    z 0.135290 0.000000 1.794200 
# 
# From -- ./inp_files/9957.got.cif
#   From: 2010.05.17/outbox.cif.g08.bks.cpg/sg10_5_cif.got.tgz:9957.got - 2010.06.03 11:33:40.
