data_PCOD9142022
_publ_section_title
;
Structure prediction by ZEFSAII (Michael W. Deem and Ramdas Pophale) SiO2 
 PCOD9142022
Probable space group: P 2/M
;
_chemical_formula_sum "Si O2"
_cell_formula_units_Z 24
_cell_length_a 10.121470
_cell_length_b 18.817891
_cell_length_c 10.207797
_cell_angle_alpha 90.000000
_cell_angle_beta 42.971490
_cell_angle_gamma 90.000000
_cell_volume 1325.250691
_symmetry_space_group_name_H-M "P 2/M"
_symmetry_group_IT_number 10
_symmetry_cell_setting 'monoclinic'
loop_
_space_group_symop_operation_xyz
x,y,z
-x,y,-z
-x,-y,-z
x,-y,z
loop_
_atom_site_type_symbol
_atom_site_label
_atom_site_fract_x
_atom_site_fract_y
_atom_site_fract_z
Si Si1 0.341284 0.700398 0.310783
Si Si2 0.164692 0.147354 0.493802
Si Si3 0.928050 0.419966 0.400608
Si Si4 0.538394 0.917654 0.121033
Si Si5 0.223626 0.314290 0.091813
Si Si6 0.915701 0.832120 0.917013
O O1 0.274437 0.776301 0.414851
O O2 0.242387 0.637817 0.465696
O O3 0.262132 0.700946 0.218186
O O4 0.569286 0.685561 0.130060
O O5 0.333758 0.091937 0.340598
O O6 0.000000 0.148134 0.500000
O O7 0.057460 0.133217 0.707348
O O8 0.875300 0.500000 0.399420
O O9 0.000000 0.423796 0.500000
O O10 0.098031 0.386165 0.188331
O O11 0.597295 0.000000 0.074803
O O12 0.500000 0.892337 0.000000
O O13 0.707242 0.869838 0.058370
O O14 0.107827 0.249098 0.113634
O O15 0.000000 0.836153 0.000000
#
# Coordination Sequence:
#
# PCOD9142022 Si02
#       6
#     4   4   4   4   4   4
#     4  10  17  30  58  83 109 151 204 247 286 346
#     4  12  20  37  66  88 115 160 207 246 294 355
#     4   9  17  29  48  84 122 150 192 250 302 348
#     4  11  24  42  66  95 122 155 204 254 297 361
#     4  10  18  32  54  82 113 154 195 243 296 351
#     4  12  25  40  61  92 125 158 203 254 305 356
#
# _framework density 18.109781000000002
#
# number of rings (size 3 to 8) (size 9 to 14) (size 15 to 20)
#    0.000    1.333    6.667    0.500    0.000    2.667 
#    0.000    4.167    0.000    0.500    0.000    1.167 
#    0.000    0.000    0.000    0.000    0.000    0.000 
#
# Total GULP energy -133914.003515 kJ/mol
# GULP energy per Si atom -5579.750146 kJ/mol
# Density = 1.806856 g / cm^3
# Si number density = 18.109781 Si / 1000 Ang^3
#
#
#
# Elastic Constant Matrix: (Units=GPa)
#
#
# Indices 1 2 3 4 5 6 
#
# 1 77.7621 32.1454 49.1220 0.0000 0.5242 0.0000
# 2 32.1454 62.9093 4.4900 0.0000 -1.5066 0.0000
# 3 49.1220 4.4900 102.2166 0.0000 -8.8712 0.0000
# 4 0.0000 0.0000 0.0000 32.1525 0.0000 1.6676
# 5 0.5242 -1.5066 -8.8712 0.0000 19.2698 0.0000
# 6 0.0000 0.0000 0.0000 1.6676 0.0000 17.4723
#
#
#
# Elastic Compliance Matrix: (Units=1/GPa)
#
#
# Indices 1 2 3 4 5 6 
#
# 1 0.026121 -0.012624 -0.012651 0.000000 -0.007522 0.000000
# 2 -0.012624 0.022065 0.005497 0.000000 0.004599 0.000000
# 3 -0.012651 0.005497 0.016341 0.000000 0.008297 0.000000
# 4 0.000000 0.000000 0.000000 0.031257 0.000000 -0.002983
# 5 -0.007522 0.004599 0.008297 0.000000 0.056279 0.000000
# 6 0.000000 0.000000 0.000000 -0.002983 0.000000 0.057518
#
#
# Mechanical properties :
#
#
# Convention : Reuss Voigt Hill
#
# Bulk Modulus (GPa) = 40.04884 46.04475 43.04679
# Shear Modulus (GPa) = 19.42045 24.25429 21.83737
#
# Velocity S-wave (km/s) = 3.27826 3.66360 3.47628
# Velocity P-wave (km/s) = 6.04085 6.58609 6.31935
#
# Compressibility (1/GPa) = 0.02496951
#
# Stress axis : x y z
#
# Youngs Moduli (GPa) = 38.28377 45.32154 61.19409
#
# Poissons Ratio (x) = 0.57216 0.77417
# Poissons Ratio (y) = 0.48331 -0.33637
# Poissons Ratio (z) = 0.48433 -0.24912
#
# Static dielectric constant tensor:
#      x y z
#    x 1.605500 0.000000 -0.010150 
#    y 0.000000 1.616400 0.000000 
#    z -0.010150 0.000000 1.638360 
# 
# From -- ./inp_files/20148.got.cif
#   From: 2010.05.17/outbox.cif.g08.bks.cpg/sg10_11_cif.got.tgz:20148.got - 2010.06.03 11:33:40.
