data_PCOD9142122
_publ_section_title
;
Structure prediction by ZEFSAII (Michael W. Deem and Ramdas Pophale) SiO2 
 PCOD9142122
Probable space group: P 2/M
;
_chemical_formula_sum "Si O2"
_cell_formula_units_Z 26
_cell_length_a 10.793451
_cell_length_b 15.492572
_cell_length_c 10.692862
_cell_angle_alpha 90.000000
_cell_angle_beta 48.408266
_cell_angle_gamma 90.000000
_cell_volume 1337.265933
_symmetry_space_group_name_H-M "P 2/M"
_symmetry_group_IT_number 10
_symmetry_cell_setting 'monoclinic'
loop_
_space_group_symop_operation_xyz
x,y,z
-x,y,-z
-x,-y,-z
x,-y,z
loop_
_atom_site_type_symbol
_atom_site_label
_atom_site_fract_x
_atom_site_fract_y
_atom_site_fract_z
Si Si1 0.471230 0.252384 0.168209
Si Si2 0.858131 0.168485 0.677778
Si Si3 0.000000 0.832265 0.000000
Si Si4 0.316860 0.401735 0.610481
Si Si5 0.292755 0.598860 0.916137
Si Si6 0.287316 0.904134 0.973260
Si Si7 0.982600 0.702828 0.236085
O O1 0.285364 0.216678 0.304599
O O2 0.545164 0.340611 0.175044
O O3 0.500000 0.261972 0.000000
O O4 0.587279 0.173926 0.134884
O O5 0.776560 0.109834 0.841083
O O6 0.000000 0.124351 0.500000
O O7 0.951864 0.242373 0.692868
O O8 0.940031 0.768709 0.151219
O O9 0.139151 0.889161 0.974333
O O10 0.500000 0.362799 0.500000
O O11 0.336094 0.500000 0.550861
O O12 0.251538 0.404214 0.796619
O O13 0.180770 0.351061 0.624963
O O14 0.319498 0.500000 0.939982
O O15 0.136795 0.643303 0.088697
O O16 0.357554 0.000000 0.914066
#
# Coordination Sequence:
#
# PCOD9142122 Si02
#       7
#     4   4   2   4   4   4   4
#     4  10  19  38  54  81 111 143 191 230 270 332
#     4  10  23  37  55  80 114 153 189 226 278 337
#     4  10  17  34  59  86 114 132 179 228 283 328
#     4  10  21  33  49  80 112 143 187 233 282 335
#     4  11  20  34  58  82 110 148 190 234 276 329
#     4  10  20  36  63  88 111 142 181 235 283 335
#     4  11  18  36  56  79 111 148 189 234 273 329
#
# _framework density 19.442654999999998
#
# number of rings (size 3 to 8) (size 9 to 14) (size 15 to 20)
#    0.000    1.692    6.154    0.692    2.154    4.615 
#    0.000    0.000    0.000    2.308    0.000    3.231 
#    0.000    0.000    0.000    0.000    0.000    0.000 
#
# Total GULP energy -145006.376346 kJ/mol
# GULP energy per Si atom -5577.168321 kJ/mol
# Density = 1.939840 g / cm^3
# Si number density = 19.442655 Si / 1000 Ang^3
#
#
#
# Elastic Constant Matrix: (Units=GPa)
#
#
# Indices 1 2 3 4 5 6 
#
# 1 75.0317 27.0851 2.1160 0.0000 -6.0879 0.0000
# 2 27.0851 98.8597 -4.4785 0.0000 0.1728 0.0000
# 3 2.1160 -4.4785 39.0950 0.0000 -10.8856 0.0000
# 4 0.0000 0.0000 0.0000 8.9174 0.0000 3.0597
# 5 -6.0879 0.1728 -10.8856 0.0000 22.7345 0.0000
# 6 0.0000 0.0000 0.0000 3.0597 0.0000 5.7778
#
#
#
# Elastic Compliance Matrix: (Units=1/GPa)
#
#
# Indices 1 2 3 4 5 6 
#
# 1 0.015163 -0.004170 -0.000183 0.000000 0.004004 0.000000
# 2 -0.004170 0.011321 0.001370 0.000000 -0.000546 0.000000
# 3 -0.000183 0.001370 0.029687 0.000000 0.014155 0.000000
# 4 0.000000 0.000000 0.000000 0.137042 0.000000 -0.072573
# 5 0.004004 -0.000546 0.014155 0.000000 0.051840 0.000000
# 6 0.000000 0.000000 0.000000 -0.072573 0.000000 0.211509
#
#
# Mechanical properties :
#
#
# Convention : Reuss Voigt Hill
#
# Bulk Modulus (GPa) = 19.91818 29.15907 24.53863
# Shear Modulus (GPa) = 10.43271 20.03684 15.23477
#
# Velocity S-wave (km/s) = 2.31895 3.21372 2.80228
# Velocity P-wave (km/s) = 4.17575 5.36663 4.80820
#
# Compressibility (1/GPa) = 0.05020538
#
# Stress axis : x y z
#
# Youngs Moduli (GPa) = 65.95034 88.33342 33.68487
#
# Poissons Ratio (x) = 0.36831 0.00618
# Poissons Ratio (y) = 0.27499 -0.04616
# Poissons Ratio (z) = 0.01209 -0.12105
#
# Static dielectric constant tensor:
#      x y z
#    x 1.689180 0.000000 -0.016930 
#    y 0.000000 1.685400 0.000000 
#    z -0.016930 0.000000 1.715920 
# 
# From -- ./inp_files/47333.got.cif
#   From: 2010.05.17/outbox.cif.g08.bks.cpg/sg10_24_cif.got.tgz:47333.got - 2010.06.03 11:33:40.
