data_PCOD9142381
_publ_section_title
;
Structure prediction by ZEFSAII (Michael W. Deem and Ramdas Pophale) SiO2 
 PCOD9142381
Probable space group: P 2/M
;
_chemical_formula_sum "Si O2"
_cell_formula_units_Z 24
_cell_length_a 21.085869
_cell_length_b 7.847153
_cell_length_c 12.299642
_cell_angle_alpha 90.000000
_cell_angle_beta 140.091648
_cell_angle_gamma 90.000000
_cell_volume 1305.672805
_symmetry_space_group_name_H-M "P 2/M"
_symmetry_group_IT_number 10
_symmetry_cell_setting 'monoclinic'
loop_
_space_group_symop_operation_xyz
x,y,z
-x,y,-z
-x,-y,-z
x,-y,z
loop_
_atom_site_type_symbol
_atom_site_label
_atom_site_fract_x
_atom_site_fract_y
_atom_site_fract_z
Si Si1 0.249812 0.693856 0.341643
Si Si2 0.864994 0.795106 0.609473
Si Si3 0.608782 0.800362 0.659089
Si Si4 0.227323 0.204408 0.962981
Si Si5 0.110110 0.790962 0.604985
Si Si6 0.077592 0.203297 0.960839
O O1 0.282182 0.500000 0.384417
O O2 0.226354 0.750678 0.433143
O O3 0.328263 0.791268 0.369517
O O4 0.146216 0.712687 0.140986
O O5 0.865660 0.735376 0.485719
O O6 0.966773 0.733919 0.799356
O O7 0.872245 0.000000 0.615703
O O8 0.500000 0.724572 0.500000
O O9 0.595727 0.000000 0.668619
O O10 0.677771 0.726474 0.846464
O O11 0.191997 0.268377 0.799668
O O12 0.134622 0.226373 0.922130
O O13 0.241436 0.000000 0.971267
O O14 0.000000 0.740423 0.500000
O O15 0.109930 0.000000 0.605559
O O16 0.076141 0.000000 0.983402
#
# Coordination Sequence:
#
# PCOD9142381 Si02
#       6
#     4   4   4   4   4   4
#     4  11  22  32  44  66  97 128 159 194 235 284
#     4  10  18  28  46  69  96 130 163 194 230 275
#     4   9  18  34  56  76  92 114 150 200 249 286
#     4   8  13  24  44  72  99 118 147 192 238 279
#     4   9  14  23  43  72  99 124 156 192 230 272
#     4   9  16  28  46  67  94 127 161 196 232 273
#
# _framework density 18.381328
#
# number of rings (size 3 to 8) (size 9 to 14) (size 15 to 20)
#    0.000    2.667    1.667    3.000    0.000    3.000 
#    0.000    0.000    0.000    5.500    0.000    7.000 
#    0.000    0.000    0.000    0.000    0.000    0.000 
#
# Total GULP energy -133737.921643 kJ/mol
# GULP energy per Si atom -5572.413402 kJ/mol
# Density = 1.833949 g / cm^3
# Si number density = 18.381328 Si / 1000 Ang^3
#
#
#
# Elastic Constant Matrix: (Units=GPa)
#
#
# Indices 1 2 3 4 5 6 
#
# 1 90.3688 -7.5007 68.2714 0.0000 -12.6114 0.0000
# 2 -7.5007 13.1024 -2.7723 0.0000 -1.1207 0.0000
# 3 68.2714 -2.7723 95.7187 0.0000 8.0855 0.0000
# 4 0.0000 0.0000 0.0000 38.2479 0.0000 7.6626
# 5 -12.6114 -1.1207 8.0855 0.0000 25.5363 0.0000
# 6 0.0000 0.0000 0.0000 7.6626 0.0000 -22.4027
#
#
#
# Elastic Compliance Matrix: (Units=1/GPa)
#
#
# Indices 1 2 3 4 5 6 
#
# 1 0.039770 0.018916 -0.030359 0.000000 0.030084 0.000000
# 2 0.018916 0.085977 -0.012443 0.000000 0.017055 0.000000
# 3 -0.030359 -0.012443 0.033962 0.000000 -0.026293 0.000000
# 4 0.000000 0.000000 0.000000 0.024469 0.000000 0.008369
# 5 0.030084 0.017055 -0.026293 0.000000 0.063091 0.000000
# 6 0.000000 0.000000 0.000000 0.008369 0.000000 -0.041775
#
#
# Mechanical properties :
#
#
# Convention : Reuss Voigt Hill
#
# Bulk Modulus (GPa) = 8.93356 35.02076 21.97716
# Shear Modulus (GPa) = 17.20720 17.68906 17.44813
#
# Velocity S-wave (km/s) = 3.06293 3.10552 3.08430
# Velocity P-wave (km/s) = 4.16886 5.65268 4.96650
#
# Compressibility (1/GPa) = 0.11193744
#
# Stress axis : x y z
#
# Youngs Moduli (GPa) = 25.14471 11.63103 29.44500
#
# Poissons Ratio (x) = -0.22002 0.89393
# Poissons Ratio (y) = -0.47565 0.36638
# Poissons Ratio (z) = 0.76337 0.14472
#
# Static dielectric constant tensor:
#      x y z
#    x 1.637780 0.000000 -0.016090 
#    y 0.000000 1.667730 0.000000 
#    z -0.016090 0.000000 1.658300 
# 
# From -- ./inp_files/45129.got.cif
#   From: 2010.05.17/outbox.cif.g08.bks.cpg/sg10_23_cif.got.tgz:45129.got - 2010.06.03 11:33:40.
