data_PCOD9142387
_publ_section_title
;
Structure prediction by ZEFSAII (Michael W. Deem and Ramdas Pophale) SiO2 
 PCOD9142387
Probable space group: P 2/M
;
_chemical_formula_sum "Si O2"
_cell_formula_units_Z 24
_cell_length_a 17.034705
_cell_length_b 9.453418
_cell_length_c 15.566887
_cell_angle_alpha 90.000000
_cell_angle_beta 144.581044
_cell_angle_gamma 90.000000
_cell_volume 1452.836616
_symmetry_space_group_name_H-M "P 2/M"
_symmetry_group_IT_number 10
_symmetry_cell_setting 'monoclinic'
loop_
_space_group_symop_operation_xyz
x,y,z
-x,y,-z
-x,-y,-z
x,-y,z
loop_
_atom_site_type_symbol
_atom_site_label
_atom_site_fract_x
_atom_site_fract_y
_atom_site_fract_z
Si Si1 0.404987 0.667099 0.637026
Si Si2 0.843078 0.666485 0.883746
Si Si3 0.354861 0.833472 0.417737
Si Si4 0.313094 0.163987 0.910062
Si Si5 0.726493 0.334213 0.960616
Si Si6 0.637685 0.834581 0.234412
O O1 0.376398 0.500000 0.605098
O O2 0.361703 0.750780 0.513679
O O3 0.568079 0.683683 0.793519
O O4 0.338538 0.736921 0.662274
O O5 0.802497 0.500000 0.840218
O O6 0.754535 0.760660 0.741264
O O7 0.813501 0.709955 0.955679
O O8 0.000000 0.677407 0.000000
O O9 0.500000 0.820305 0.500000
O O10 0.327947 0.000000 0.406776
O O11 0.293882 0.211664 0.794328
O O12 0.273439 0.000000 0.879708
O O13 0.247276 0.250987 0.928231
O O14 0.475442 0.170049 0.072031
O O15 0.748867 0.500000 0.996018
O O16 0.670782 0.000000 0.280171
#
# Coordination Sequence:
#
# PCOD9142387 Si02
#       6
#     4   4   4   4   4   4
#     4  10  18  28  46  70  97 128 162 202 246 291
#     4  10  21  37  54  72  99 134 169 207 250 294
#     4  11  22  34  51  74  99 131 168 207 250 295
#     4   8  14  24  40  61  90 128 160 192 238 290
#     4   9  17  28  44  68  95 125 162 203 242 286
#     4   8  14  25  39  61  94 126 158 195 238 289
#
# _framework density 16.519407000000001
#
# number of rings (size 3 to 8) (size 9 to 14) (size 15 to 20)
#    0.000    2.667    1.667    2.000    0.000    3.000 
#    0.000    3.333    0.000    0.000    0.000    1.167 
#    0.000    9.333    0.000    0.000    0.000    0.000 
#
# Total GULP energy -133718.641602 kJ/mol
# GULP energy per Si atom -5571.610067 kJ/mol
# Density = 1.648181 g / cm^3
# Si number density = 16.519407 Si / 1000 Ang^3
#
#
#
# Elastic Constant Matrix: (Units=GPa)
#
#
# Indices 1 2 3 4 5 6 
#
# 1 155.3756 85.6417 50.6414 0.0000 -48.8545 0.0000
# 2 85.6417 97.8459 48.2130 0.0000 -28.5934 0.0000
# 3 50.6414 48.2130 36.1381 0.0000 -17.9516 0.0000
# 4 0.0000 0.0000 0.0000 17.7850 0.0000 -12.5688
# 5 -48.8545 -28.5934 -17.9516 0.0000 28.4981 0.0000
# 6 0.0000 0.0000 0.0000 -12.5688 0.0000 37.0759
#
#
#
# Elastic Compliance Matrix: (Units=1/GPa)
#
#
# Indices 1 2 3 4 5 6 
#
# 1 0.019631 -0.007544 -0.006531 0.000000 0.021970 0.000000
# 2 -0.007544 0.033742 -0.035006 0.000000 -0.001128 0.000000
# 3 -0.006531 -0.035006 0.088078 0.000000 0.009163 0.000000
# 4 0.000000 0.000000 0.000000 0.073942 0.000000 0.025066
# 5 0.021970 -0.001128 0.009163 0.000000 0.077394 0.000000
# 6 0.000000 0.000000 0.000000 0.025066 0.000000 0.035469
#
#
# Mechanical properties :
#
#
# Convention : Reuss Voigt Hill
#
# Bulk Modulus (GPa) = 23.10014 73.15022 48.12518
# Shear Modulus (GPa) = 11.34181 23.66268 17.50224
#
# Velocity S-wave (km/s) = 2.62310 3.78883 3.25852
# Velocity P-wave (km/s) = 4.81541 7.96981 6.58430
#
# Compressibility (1/GPa) = 0.04328978
#
# Stress axis : x y z
#
# Youngs Moduli (GPa) = 50.94017 29.63662 11.35359
#
# Poissons Ratio (x) = 0.22357 0.07415
# Poissons Ratio (y) = 0.38428 0.39744
# Poissons Ratio (z) = 0.33270 1.03744
#
# Static dielectric constant tensor:
#      x y z
#    x 1.566420 0.000000 -0.007790 
#    y 0.000000 1.550830 0.000000 
#    z -0.007790 0.000000 1.532530 
# 
# From -- ./inp_files/48877.got.cif
#   From: 2010.05.17/outbox.cif.g08.bks.cpg/sg10_25_cif.got.tgz:48877.got - 2010.06.03 11:33:40.
