data_PCOD9142790
_publ_section_title
;
Structure prediction by ZEFSAII (Michael W. Deem and Ramdas Pophale) SiO2 
 PCOD9142790
Probable space group: P 2/M
;
_chemical_formula_sum "Si O2"
_cell_formula_units_Z 32
_cell_length_a 12.556149
_cell_length_b 8.787015
_cell_length_c 22.165363
_cell_angle_alpha 90.000000
_cell_angle_beta 132.872956
_cell_angle_gamma 90.000000
_cell_volume 1792.239883
_symmetry_space_group_name_H-M "P 2/M"
_symmetry_group_IT_number 10
_symmetry_cell_setting 'monoclinic'
loop_
_space_group_symop_operation_xyz
x,y,z
-x,y,-z
-x,-y,-z
x,-y,z
loop_
_atom_site_type_symbol
_atom_site_label
_atom_site_fract_x
_atom_site_fract_y
_atom_site_fract_z
Si Si1 0.232826 0.176636 0.275117
Si Si2 0.498674 0.682726 0.305014
Si Si3 0.615272 0.815969 0.094734
Si Si4 0.938664 0.182079 0.357083
Si Si5 0.377369 0.318179 0.771697
Si Si6 0.209955 0.675381 0.515523
Si Si7 0.053632 0.815293 0.779887
Si Si8 0.328334 0.666351 0.425776
O O1 0.353760 0.255392 0.280436
O O2 0.286713 0.200705 0.364581
O O3 0.067764 0.238099 0.219243
O O4 0.227846 0.000000 0.256737
O O5 0.499030 0.500000 0.312936
O O6 0.512149 0.719642 0.239610
O O7 0.651031 0.737002 0.394078
O O8 0.582691 0.751792 0.148445
O O9 0.780931 0.769266 0.143058
O O10 0.613524 0.000000 0.097469
O O11 0.500000 0.767586 0.000000
O O12 0.781393 0.254737 0.307502
O O13 0.976632 0.228735 0.301891
O O14 0.058603 0.236143 0.451240
O O15 0.927855 0.000000 0.353673
O O16 0.367674 0.500000 0.772801
O O17 0.183664 0.500000 0.524447
O O18 0.263446 0.675552 0.466920
O O19 0.047645 0.000000 0.778606
O O20 0.500000 0.667321 0.500000
O O21 0.286865 0.500000 0.383075
#
# Coordination Sequence:
#
# PCOD9142790 Si02
#       8
#     4   4   4   4   4   4   4   4
#     4  11  20  30  48  73 103 135 173 220 263 306
#     4  10  22  38  50  67 101 145 186 219 257 307
#     4   9  18  36  63  88 109 132 158 199 260 321
#     4  10  19  33  51  72 104 136 173 225 271 310
#     4  10  21  37  56  76 103 137 174 215 257 310
#     4  10  19  31  48  68  95 137 186 226 263 306
#     4   8  16  30  48  76 107 130 158 205 258 305
#     4  10  18  30  46  65  95 136 182 227 261 300
#
# _framework density 17.854752000000001
#
# number of rings (size 3 to 8) (size 9 to 14) (size 15 to 20)
#    0.000    2.250    2.500    1.875    0.000    2.500 
#    0.000    3.125    0.000    0.750    0.000    5.250 
#    0.000    0.000    0.000    0.000    0.000    0.000 
#
# Total GULP energy -178336.538021 kJ/mol
# GULP energy per Si atom -5573.016813 kJ/mol
# Density = 1.781411 g / cm^3
# Si number density = 17.854752 Si / 1000 Ang^3
#
#
#
# Elastic Constant Matrix: (Units=GPa)
#
#
# Indices 1 2 3 4 5 6 
#
# 1 115.1664 23.5930 65.1548 0.0000 -4.7473 0.0000
# 2 23.5930 21.8047 23.6411 0.0000 -0.8195 0.0000
# 3 65.1548 23.6411 97.8514 0.0000 11.9771 0.0000
# 4 0.0000 0.0000 0.0000 16.9887 0.0000 -2.5262
# 5 -4.7473 -0.8195 11.9771 0.0000 13.4875 0.0000
# 6 0.0000 0.0000 0.0000 -2.5262 0.0000 -4.8618
#
#
#
# Elastic Compliance Matrix: (Units=1/GPa)
#
#
# Indices 1 2 3 4 5 6 
#
# 1 0.017455 -0.004580 -0.012604 0.000000 0.017058 0.000000
# 2 -0.004580 0.068109 -0.015387 0.000000 0.016190 0.000000
# 3 -0.012604 -0.015387 0.025790 0.000000 -0.028273 0.000000
# 4 0.000000 0.000000 0.000000 0.054641 0.000000 -0.028392
# 5 0.017058 0.016190 -0.028273 0.000000 0.106238 0.000000
# 6 0.000000 0.000000 0.000000 -0.028392 0.000000 -0.190934
#
#
# Mechanical properties :
#
#
# Convention : Reuss Voigt Hill
#
# Bulk Modulus (GPa) = 21.63952 51.06669 36.35311
# Shear Modulus (GPa) = 30.89368 13.28512 22.08940
#
# Velocity S-wave (km/s) = 4.16417 2.73072 3.52116
# Velocity P-wave (km/s) = 5.93856 6.21335 6.07751
#
# Compressibility (1/GPa) = 0.04621174
#
# Stress axis : x y z
#
# Youngs Moduli (GPa) = 57.28982 14.68232 38.77445
#
# Poissons Ratio (x) = 0.06725 0.48871
# Poissons Ratio (y) = 0.26240 0.59663
# Poissons Ratio (z) = 0.72207 0.22592
#
# Static dielectric constant tensor:
#      x y z
#    x 1.646940 0.000000 0.015230 
#    y 0.000000 1.630030 0.000000 
#    z 0.015230 0.000000 1.601930 
# 
# From -- ./inp_files/83631.got.cif
#   From: 2010.05.17/outbox.cif.g08.bks.cpg/sg10_42_cif.got.tgz:83631.got - 2010.06.03 11:33:40.
