data_PCOD9142569
_publ_section_title
;
Structure prediction by ZEFSAII (Michael W. Deem and Ramdas Pophale) SiO2 
 PCOD9142569
Probable space group: P 2/M
;
_chemical_formula_sum "Si O2"
_cell_formula_units_Z 28
_cell_length_a 17.013086
_cell_length_b 8.784996
_cell_length_c 21.834996
_cell_angle_alpha 90.000000
_cell_angle_beta 31.498987
_cell_angle_gamma 90.000000
_cell_volume 1705.101960
_symmetry_space_group_name_H-M "P 2/M"
_symmetry_group_IT_number 10
_symmetry_cell_setting 'monoclinic'
loop_
_space_group_symop_operation_xyz
x,y,z
-x,y,-z
-x,-y,-z
x,-y,z
loop_
_atom_site_type_symbol
_atom_site_label
_atom_site_fract_x
_atom_site_fract_y
_atom_site_fract_z
Si Si1 0.167126 0.318395 0.912347
Si Si2 0.290743 0.817178 0.585616
Si Si3 0.631911 0.816787 0.327555
Si Si4 0.261434 0.320707 0.175757
Si Si5 0.982250 0.316772 0.751155
Si Si6 0.515843 0.320198 0.089752
Si Si7 0.231845 0.819248 0.001690
O O1 0.174755 0.500000 0.915171
O O2 0.283959 0.264385 0.783317
O O3 0.200377 0.239245 0.954681
O O4 0.000000 0.278430 0.000000
O O5 0.454773 0.779283 0.449616
O O6 0.296336 0.776063 0.654101
O O7 0.152174 0.738228 0.644542
O O8 0.273399 0.000000 0.593890
O O9 0.644336 0.000000 0.312795
O O10 0.241576 0.500000 0.202065
O O11 0.104592 0.261288 0.252750
O O12 0.355626 0.259275 0.171024
O O13 0.373002 0.310828 0.043030
O O14 0.974046 0.500000 0.757789
O O15 0.888598 0.253983 0.871395
O O16 0.503729 0.500000 0.113037
O O17 0.603074 0.232765 0.084828
O O18 0.218653 0.000000 0.013714
#
# Coordination Sequence:
#
# PCOD9142569 Si02
#       7
#     4   4   4   4   4   4   4
#     4  11  23  36  50  70  94 121 157 197 231 269
#     4   9  18  33  51  71  95 123 154 189 232 277
#     4   9  19  35  52  69  93 125 157 189 229 278
#     4   7  12  23  41  63  89 122 153 185 228 273
#     4  10  18  29  46  70  98 126 158 193 230 273
#     4   8  13  26  44  61  87 122 157 189 224 271
#     4  11  21  31  45  67  96 128 158 190 234 282
#
# _framework density 16.421305
#
# number of rings (size 3 to 8) (size 9 to 14) (size 15 to 20)
#    0.000    2.714    0.000    5.571    0.000    4.571 
#    0.000    7.857    0.000    0.000    0.000    1.000 
#    0.000    8.000    0.000    0.000    0.000    0.000 
#
# Total GULP energy -155980.808567 kJ/mol
# GULP energy per Si atom -5570.743163 kJ/mol
# Density = 1.638393 g / cm^3
# Si number density = 16.421305 Si / 1000 Ang^3
#
#
#
# Elastic Constant Matrix: (Units=GPa)
#
#
# Indices 1 2 3 4 5 6 
#
# 1 153.6513 50.5644 41.8410 0.0000 -25.5345 0.0000
# 2 50.5644 46.8232 22.5251 0.0000 -5.6868 0.0000
# 3 41.8410 22.5251 42.2034 0.0000 -7.2633 0.0000
# 4 0.0000 0.0000 0.0000 31.8728 0.0000 -3.4345
# 5 -25.5345 -5.6868 -7.2633 0.0000 22.9912 0.0000
# 6 0.0000 0.0000 0.0000 -3.4345 0.0000 13.1937
#
#
#
# Elastic Compliance Matrix: (Units=1/GPa)
#
#
# Indices 1 2 3 4 5 6 
#
# 1 0.013136 -0.010125 -0.005858 0.000000 0.010234 0.000000
# 2 -0.010125 0.036663 -0.010475 0.000000 -0.005485 0.000000
# 3 -0.005858 -0.010475 0.035455 0.000000 0.002104 0.000000
# 4 0.000000 0.000000 0.000000 0.032280 0.000000 0.008403
# 5 0.010234 -0.005485 0.002104 0.000000 0.054169 0.000000
# 6 0.000000 0.000000 0.000000 0.008403 0.000000 0.077981
#
#
# Mechanical properties :
#
#
# Convention : Reuss Voigt Hill
#
# Bulk Modulus (GPa) = 30.92146 52.50433 41.71290
# Shear Modulus (GPa) = 15.95507 22.12802 19.04155
#
# Velocity S-wave (km/s) = 3.12044 3.67484 3.40893
# Velocity P-wave (km/s) = 5.64392 7.07451 6.39932
#
# Compressibility (1/GPa) = 0.03234000
#
# Stress axis : x y z
#
# Youngs Moduli (GPa) = 76.12586 27.27530 28.20449
#
# Poissons Ratio (x) = 0.27615 0.16523
# Poissons Ratio (y) = 0.77074 0.29543
# Poissons Ratio (z) = 0.44596 0.28570
#
# Static dielectric constant tensor:
#      x y z
#    x 1.590130 0.000000 -0.027270 
#    y 0.000000 1.548160 0.000000 
#    z -0.027270 0.000000 1.526600 
# 
# From -- ./inp_files/77704.got.cif
#   From: 2010.05.17/outbox.cif.g08.bks.cpg/sg10_39_cif.got.tgz:77704.got - 2010.06.03 11:33:40.
