data_PCOD9142028
_publ_section_title
;
Structure prediction by ZEFSAII (Michael W. Deem and Ramdas Pophale) SiO2 
 PCOD9142028
Probable space group: P 2/M
;
_chemical_formula_sum "Si O2"
_cell_formula_units_Z 32
_cell_length_a 7.214394
_cell_length_b 13.122127
_cell_length_c 19.597672
_cell_angle_alpha 90.000000
_cell_angle_beta 125.884144
_cell_angle_gamma 90.000000
_cell_volume 1503.151996
_symmetry_space_group_name_H-M "P 2/M"
_symmetry_group_IT_number 10
_symmetry_cell_setting 'monoclinic'
loop_
_space_group_symop_operation_xyz
x,y,z
-x,y,-z
-x,-y,-z
x,-y,z
loop_
_atom_site_type_symbol
_atom_site_label
_atom_site_fract_x
_atom_site_fract_y
_atom_site_fract_z
Si Si1 0.787607 0.173059 0.805617
Si Si2 0.343215 0.667793 0.409511
Si Si3 0.889243 0.885609 0.336496
Si Si4 0.620942 0.888825 0.620685
Si Si5 0.180149 0.876970 0.978465
Si Si6 0.599023 0.610856 0.729081
Si Si7 0.560871 0.116124 0.153365
Si Si8 0.899124 0.689184 0.404529
O O1 0.718105 0.125568 0.718181
O O2 0.712973 0.291410 0.789135
O O3 0.635592 0.117630 0.830303
O O4 0.053287 0.159989 0.882900
O O5 0.500000 0.616239 0.500000
O O6 0.470247 0.776915 0.419720
O O7 0.321384 0.615185 0.332392
O O8 0.096870 0.678195 0.390962
O O9 0.773450 0.841072 0.242158
O O10 0.835280 0.809418 0.385872
O O11 0.156927 0.894077 0.380272
O O12 0.800147 0.000000 0.328499
O O13 0.502464 0.000000 0.589248
O O14 0.427317 0.839984 0.059133
O O15 0.193961 0.000000 0.978088
O O16 0.000000 0.850143 0.000000
O O17 0.649989 0.500000 0.770038
O O18 0.326205 0.628290 0.664649
O O19 0.624806 0.000000 0.149567
O O20 0.000000 0.662095 0.500000
#
# Coordination Sequence:
#
# PCOD9142028 Si02
#       8
#     4   4   4   4   4   4   4   4
#     4  10  17  31  50  70 100 134 170 212 255 307
#     4  10  21  38  55  77 107 134 168 219 267 313
#     4   9  18  32  49  75 111 143 170 206 250 307
#     4   9  18  30  48  73 105 141 172 203 249 310
#     4   8  14  24  45  78 106 132 169 204 244 307
#     4  11  24  39  56  79 100 132 181 228 273 313
#     4   9  15  26  49  77 105 138 170 202 248 306
#     4  11  21  38  58  78 108 136 175 217 264 315
#
# _framework density 21.288599999999999
#
# number of rings (size 3 to 8) (size 9 to 14) (size 15 to 20)
#    0.000    2.375    2.500    1.875    0.000    1.500 
#    0.000    0.625    0.000    6.375    0.000    0.000 
#    0.000    3.500    0.000    0.000    0.000    0.000 
#
# Total GULP energy -178463.123812 kJ/mol
# GULP energy per Si atom -5576.972619 kJ/mol
# Density = 2.124015 g / cm^3
# Si number density = 21.288600 Si / 1000 Ang^3
#
#
#
# Elastic Constant Matrix: (Units=GPa)
#
#
# Indices 1 2 3 4 5 6 
#
# 1 68.6347 2.3311 -4.3673 0.0000 -7.9119 0.0000
# 2 2.3311 93.3239 0.7202 0.0000 4.9047 0.0000
# 3 -4.3673 0.7202 68.9404 0.0000 1.0626 0.0000
# 4 0.0000 0.0000 0.0000 -30.4232 0.0000 -41.1863
# 5 -7.9119 4.9047 1.0626 0.0000 29.1423 0.0000
# 6 0.0000 0.0000 0.0000 -41.1863 0.0000 -66.2058
#
#
#
# Elastic Compliance Matrix: (Units=1/GPa)
#
#
# Indices 1 2 3 4 5 6 
#
# 1 0.015129 -0.000604 0.000900 0.000000 0.004176 0.000000
# 2 -0.000604 0.010836 -0.000121 0.000000 -0.001983 0.000000
# 3 0.000900 -0.000121 0.014568 0.000000 -0.000266 0.000000
# 4 0.000000 0.000000 0.000000 -0.208273 0.000000 0.129565
# 5 0.004176 -0.001983 -0.000266 0.000000 0.035792 0.000000
# 6 0.000000 0.000000 0.000000 0.129565 0.000000 -0.095706
#
#
# Mechanical properties :
#
#
# Convention : Reuss Voigt Hill
#
# Bulk Modulus (GPa) = 24.46026 25.36300 24.91163
# Shear Modulus (GPa) = -23.32331 1.98367 -10.66982
#
# Velocity S-wave (km/s) = -3.31354 0.96635 -2.24118
# Velocity P-wave (km/s) = 1.76766 3.63110 2.24279
#
# Compressibility (1/GPa) = 0.04088264
#
# Stress axis : x y z
#
# Youngs Moduli (GPa) = 66.09767 92.28809 68.64506
#
# Poissons Ratio (x) = 0.05577 -0.06180
# Poissons Ratio (y) = 0.03995 0.00830
# Poissons Ratio (z) = -0.05951 0.01116
#
# Static dielectric constant tensor:
#      x y z
#    x 1.826640 0.000000 0.011670 
#    y 0.000000 1.823860 0.000000 
#    z 0.011670 0.000000 1.821960 
# 
# From -- ./inp_files/88007.got.cif
#   From: 2010.05.17/outbox.cif.g08.bks.cpg/sg10_45_cif.got.tgz:88007.got - 2010.06.03 11:33:40.
