data_PCOD9142158
_publ_section_title
;
Structure prediction by ZEFSAII (Michael W. Deem and Ramdas Pophale) SiO2 
 PCOD9142158
Probable space group: P 2/M
;
_chemical_formula_sum "Si O2"
_cell_formula_units_Z 24
_cell_length_a 24.321991
_cell_length_b 8.570458
_cell_length_c 12.555844
_cell_angle_alpha 90.000000
_cell_angle_beta 145.000547
_cell_angle_gamma 90.000000
_cell_volume 1501.185792
_symmetry_space_group_name_H-M "P 2/M"
_symmetry_group_IT_number 10
_symmetry_cell_setting 'monoclinic'
loop_
_space_group_symop_operation_xyz
x,y,z
-x,y,-z
-x,-y,-z
x,-y,z
loop_
_atom_site_type_symbol
_atom_site_label
_atom_site_fract_x
_atom_site_fract_y
_atom_site_fract_z
Si Si1 0.440515 0.190226 0.803764
Si Si2 0.225780 0.188965 0.420347
Si Si3 0.826985 0.314381 0.896173
Si Si4 0.024635 0.818666 0.165636
Si Si5 0.502188 0.186436 0.666652
Si Si6 0.351355 0.313816 0.256403
O O1 0.329464 0.240758 0.625554
O O2 0.488072 0.233709 0.766516
O O3 0.439692 0.000000 0.805622
O O4 0.500000 0.245469 0.000000
O O5 0.210304 0.240791 0.273802
O O6 0.133495 0.242843 0.342209
O O7 0.222999 0.000000 0.416540
O O8 0.820098 0.500000 0.874413
O O9 0.754982 0.265784 0.876000
O O10 0.937746 0.267623 0.085214
O O11 0.022858 0.000000 0.194518
O O12 0.000000 0.812343 0.000000
O O13 0.421552 0.267315 0.465456
O O14 0.603246 0.232861 0.774741
O O15 0.489008 0.000000 0.637526
O O16 0.354775 0.500000 0.247612
#
# Coordination Sequence:
#
# PCOD9142158 Si02
#       6
#     4   4   4   4   4   4
#     4   9  17  29  46  67  89 114 146 182 217 254
#     4   9  16  28  43  60  86 116 143 175 214 256
#     4  10  18  26  40  62  87 116 143 172 215 259
#     4   8  15  25  39  59  84 113 141 172 213 258
#     4  10  18  28  45  65  84 113 149 179 211 256
#     4  10  19  29  42  61  90 119 141 175 221 259
#
# _framework density 15.987361999999999
#
# number of rings (size 3 to 8) (size 9 to 14) (size 15 to 20)
#    0.000    2.667    1.667    3.500    0.000    5.000 
#    0.000    0.000    0.000    4.500    0.000    1.167 
#    0.000    9.333    0.000    0.000    0.000    0.000 
#
# Total GULP energy -133655.281607 kJ/mol
# GULP energy per Si atom -5568.970067 kJ/mol
# Density = 1.595097 g / cm^3
# Si number density = 15.987362 Si / 1000 Ang^3
#
#
#
# Elastic Constant Matrix: (Units=GPa)
#
#
# Indices 1 2 3 4 5 6 
#
# 1 122.6109 7.9195 63.3379 0.0000 30.3696 0.0000
# 2 7.9195 7.5310 6.1882 0.0000 4.6973 0.0000
# 3 63.3379 6.1882 81.0390 0.0000 14.7941 0.0000
# 4 0.0000 0.0000 0.0000 3.3512 0.0000 12.4289
# 5 30.3696 4.6973 14.7941 0.0000 27.5171 0.0000
# 6 0.0000 0.0000 0.0000 12.4289 0.0000 13.4561
#
#
#
# Elastic Compliance Matrix: (Units=1/GPa)
#
#
# Indices 1 2 3 4 5 6 
#
# 1 0.016997 -0.000985 -0.010884 0.000000 -0.012740 0.000000
# 2 -0.000985 0.152831 -0.007026 0.000000 -0.021225 0.000000
# 3 -0.010884 -0.007026 0.021035 0.000000 0.001902 0.000000
# 4 0.000000 0.000000 0.000000 -0.123016 0.000000 0.113626
# 5 -0.012740 -0.021225 0.001902 0.000000 0.053002 0.000000
# 6 0.000000 0.000000 0.000000 0.113626 0.000000 -0.030637
#
#
# Mechanical properties :
#
#
# Convention : Reuss Voigt Hill
#
# Bulk Modulus (GPa) = 6.53276 40.67469 23.60373
# Shear Modulus (GPa) = 27.92890 17.78057 22.85473
#
# Velocity S-wave (km/s) = 4.18417 3.33853 3.78504
# Velocity P-wave (km/s) = 5.23814 6.35280 5.82221
#
# Compressibility (1/GPa) = 0.15307464
#
# Stress axis : x y z
#
# Youngs Moduli (GPa) = 58.83303 6.54318 47.53883
#
# Poissons Ratio (x) = 0.00644 0.51740
# Poissons Ratio (y) = 0.05795 0.33400
# Poissons Ratio (z) = 0.64032 0.04597
#
# Static dielectric constant tensor:
#      x y z
#    x 1.564940 0.000000 0.043750 
#    y 0.000000 1.540740 0.000000 
#    z 0.043750 0.000000 1.523200 
# 
# From -- ./inp_files/56261.got.cif
#   From: 2010.05.17/outbox.cif.g08.bks.cpg/sg10_29_cif.got.tgz:56261.got - 2010.06.03 11:33:40.
