data_PCOD9142238
_publ_section_title
;
Structure prediction by ZEFSAII (Michael W. Deem and Ramdas Pophale) SiO2 
 PCOD9142238
Probable space group: P 2/M
;
_chemical_formula_sum "Si O2"
_cell_formula_units_Z 32
_cell_length_a 18.147485
_cell_length_b 9.056305
_cell_length_c 24.428892
_cell_angle_alpha 90.000000
_cell_angle_beta 149.235867
_cell_angle_gamma 90.000000
_cell_volume 2053.625217
_symmetry_space_group_name_H-M "P 2/M"
_symmetry_group_IT_number 10
_symmetry_cell_setting 'monoclinic'
loop_
_space_group_symop_operation_xyz
x,y,z
-x,y,-z
-x,-y,-z
x,-y,z
loop_
_atom_site_type_symbol
_atom_site_label
_atom_site_fract_x
_atom_site_fract_y
_atom_site_fract_z
Si Si1 0.102608 0.824063 0.443296
Si Si2 0.633152 0.323052 0.816962
Si Si3 0.062063 0.177652 0.980097
Si Si4 0.241297 0.176931 0.418960
Si Si5 0.882938 0.670455 0.375673
Si Si6 0.670204 0.321283 0.328993
Si Si7 0.193946 0.822386 0.264378
Si Si8 0.451040 0.676855 0.362016
O O1 0.134106 0.786563 0.400329
O O2 0.229716 0.750935 0.560587
O O3 0.952776 0.764455 0.372030
O O4 0.108912 0.000000 0.453987
O O5 0.649851 0.500000 0.830367
O O6 0.494860 0.281606 0.765258
O O7 0.594377 0.285000 0.729249
O O8 0.781510 0.246972 0.927886
O O9 0.946316 0.220582 0.860131
O O10 0.074572 0.000000 0.988040
O O11 0.000000 0.222416 0.000000
O O12 0.183232 0.213325 0.321659
O O13 0.392523 0.257420 0.525564
O O14 0.266451 0.000000 0.436827
O O15 0.869012 0.500000 0.349670
O O16 0.736866 0.720374 0.312575
O O17 0.000000 0.674673 0.500000
O O18 0.684354 0.500000 0.342753
O O19 0.333071 0.744983 0.327242
O O20 0.211258 0.000000 0.270036
O O21 0.454278 0.500000 0.368887
#
# Coordination Sequence:
#
# PCOD9142238 Si02
#       8
#     4   4   4   4   4   4   4   4
#     4  10  18  27  43  68  95 122 155 190 226 269
#     4  10  20  32  49  71  96 124 153 192 238 278
#     4  10  20  34  52  70  88 118 161 202 236 277
#     4  10  21  34  48  67  95 132 161 188 232 283
#     4   8  15  27  44  63  90 126 155 179 222 282
#     4   9  17  31  46  65  94 127 155 181 227 285
#     4  10  21  37  51  65  92 127 162 197 236 281
#     4  11  21  32  49  72  96 123 158 198 234 273
#
# _framework density 15.5822
#
# number of rings (size 3 to 8) (size 9 to 14) (size 15 to 20)
#    0.000    2.250    2.500    1.875    0.000    6.500 
#    0.000    0.000    0.000    0.000    0.000    0.875 
#    0.000    7.000    0.000    0.000    0.000    0.000 
#
# Total GULP energy -178428.738742 kJ/mol
# GULP energy per Si atom -5575.898086 kJ/mol
# Density = 1.554673 g / cm^3
# Si number density = 15.582200 Si / 1000 Ang^3
#
#
#
# Elastic Constant Matrix: (Units=GPa)
#
#
# Indices 1 2 3 4 5 6 
#
# 1 164.7968 48.4529 73.8320 0.0000 14.3941 0.0000
# 2 48.4529 22.2641 29.0720 0.0000 -0.2308 0.0000
# 3 73.8320 29.0720 69.5173 0.0000 -4.8676 0.0000
# 4 0.0000 0.0000 0.0000 18.8259 0.0000 7.2877
# 5 14.3941 -0.2308 -4.8676 0.0000 21.5142 0.0000
# 6 0.0000 0.0000 0.0000 7.2877 0.0000 23.9492
#
#
#
# Elastic Compliance Matrix: (Units=1/GPa)
#
#
# Indices 1 2 3 4 5 6 
#
# 1 0.023323 -0.037282 -0.010466 0.000000 -0.018372 0.000000
# 2 -0.037282 0.160075 -0.025890 0.000000 0.020803 0.000000
# 3 -0.010466 -0.025890 0.037391 0.000000 0.015184 0.000000
# 4 0.000000 0.000000 0.000000 0.060211 0.000000 -0.018322
# 5 -0.018372 0.020803 0.015184 0.000000 0.062432 0.000000
# 6 0.000000 0.000000 0.000000 -0.018322 0.000000 0.047330
#
#
# Mechanical properties :
#
#
# Convention : Reuss Voigt Hill
#
# Bulk Modulus (GPa) = 13.60318 62.14355 37.87337
# Shear Modulus (GPa) = 8.88821 19.87262 14.38041
#
# Velocity S-wave (km/s) = 2.39091 3.57507 3.04118
# Velocity P-wave (km/s) = 4.04609 7.55044 6.05723
#
# Compressibility (1/GPa) = 0.07351222
#
# Stress axis : x y z
#
# Youngs Moduli (GPa) = 42.87553 6.24707 26.74446
#
# Poissons Ratio (x) = 0.23291 0.27991
# Poissons Ratio (y) = 1.59850 0.69242
# Poissons Ratio (z) = 0.44873 0.16174
#
# Static dielectric constant tensor:
#      x y z
#    x 1.538050 0.000000 0.003850 
#    y 0.000000 1.522060 0.000000 
#    z 0.003850 0.000000 1.488040 
# 
# From -- ./inp_files/52800.got.cif
#   From: 2010.05.17/outbox.cif.g08.bks.cpg/sg10_27_cif.got.tgz:52800.got - 2010.06.03 11:33:40.
