data_PCOD9142314
_publ_section_title
;
Structure prediction by ZEFSAII (Michael W. Deem and Ramdas Pophale) SiO2 
 PCOD9142314
Probable space group: P 2/M
;
_chemical_formula_sum "Si O2"
_cell_formula_units_Z 32
_cell_length_a 22.330049
_cell_length_b 7.492480
_cell_length_c 22.280988
_cell_angle_alpha 90.000000
_cell_angle_beta 154.192619
_cell_angle_gamma 90.000000
_cell_volume 1622.876032
_symmetry_space_group_name_H-M "P 2/M"
_symmetry_group_IT_number 10
_symmetry_cell_setting 'monoclinic'
loop_
_space_group_symop_operation_xyz
x,y,z
-x,y,-z
-x,-y,-z
x,-y,z
loop_
_atom_site_type_symbol
_atom_site_label
_atom_site_fract_x
_atom_site_fract_y
_atom_site_fract_z
Si Si1 0.470939 0.706366 0.284206
Si Si2 0.167280 0.200731 0.977203
Si Si3 0.871879 0.782556 0.305732
Si Si4 0.429666 0.786033 0.749860
Si Si5 0.879485 0.780937 0.936015
Si Si6 0.737238 0.780665 0.060382
Si Si7 0.427230 0.213502 0.374616
Si Si8 0.183532 0.782030 0.611431
O O1 0.433540 0.500000 0.247449
O O2 0.329996 0.808997 0.141306
O O3 0.577835 0.743765 0.327654
O O4 0.508994 0.748983 0.386778
O O5 0.101663 0.281274 0.978042
O O6 0.111563 0.000000 0.920983
O O7 0.172296 0.280944 0.915201
O O8 0.796279 0.723244 0.177408
O O9 0.804054 0.727538 0.307693
O O10 0.031784 0.728501 0.452468
O O11 0.870032 0.000000 0.303517
O O12 0.305125 0.718800 0.678135
O O13 0.430339 0.000000 0.755739
O O14 0.579595 0.723395 0.907726
O O15 0.729172 0.722371 0.777177
O O16 0.877866 0.000000 0.936588
O O17 0.000000 0.726946 0.000000
O O18 0.738232 0.000000 0.059590
O O19 0.500000 0.283648 0.500000
O O20 0.417922 0.000000 0.372184
O O21 0.185145 0.000000 0.612316
#
# Coordination Sequence:
#
# PCOD9142314 Si02
#       8
#     4   4   4   4   4   4   4   4
#     4  10  18  28  44  64  85 112 143 174 209 249
#     4   8  14  26  42  60  83 110 139 173 212 252
#     4   8  13  22  35  57  86 112 136 168 214 259
#     4   9  16  27  42  62  84 107 137 174 212 249
#     4   8  13  23  41  63  85 108 136 170 205 241
#     4   8  13  21  36  57  81 106 136 173 209 246
#     4   9  17  30  47  66  89 115 141 171 208 249
#     4   8  14  23  36  56  87 116 135 165 213 261
#
# _framework density 19.718078999999999
#
# number of rings (size 3 to 8) (size 9 to 14) (size 15 to 20)
#    0.000    3.500    0.000    3.375    0.000    0.750 
#    0.000    3.750    0.000   12.000    0.000   19.250 
#    0.000    0.000    0.000    0.000    0.000    0.000 
#
# Total GULP energy -178235.350467 kJ/mol
# GULP energy per Si atom -5569.854702 kJ/mol
# Density = 1.967320 g / cm^3
# Si number density = 19.718079 Si / 1000 Ang^3
#
#
#
# Elastic Constant Matrix: (Units=GPa)
#
#
# Indices 1 2 3 4 5 6 
#
# 1 233.5658 -3.5638 93.0043 0.0000 -10.6767 0.0000
# 2 -3.5638 56.3951 1.6180 0.0000 1.9859 0.0000
# 3 93.0043 1.6180 76.7693 0.0000 -22.3947 0.0000
# 4 0.0000 0.0000 0.0000 -12.8873 0.0000 4.8475
# 5 -10.6767 1.9859 -22.3947 0.0000 32.6322 0.0000
# 6 0.0000 0.0000 0.0000 4.8475 0.0000 -26.2135
#
#
#
# Elastic Compliance Matrix: (Units=1/GPa)
#
#
# Indices 1 2 3 4 5 6 
#
# 1 0.009122 0.001150 -0.012784 0.000000 -0.005859 0.000000
# 2 0.001150 0.017961 -0.002476 0.000000 -0.002416 0.000000
# 3 -0.012784 -0.002476 0.034245 0.000000 0.019470 0.000000
# 4 0.000000 0.000000 0.000000 -0.083397 0.000000 -0.015422
# 5 -0.005859 -0.002416 0.019470 0.000000 0.042236 0.000000
# 6 0.000000 0.000000 0.000000 -0.015422 0.000000 -0.041000
#
#
# Mechanical properties :
#
#
# Convention : Reuss Voigt Hill
#
# Bulk Modulus (GPa) = 30.20522 60.98301 45.59412
# Shear Modulus (GPa) = 271.38221 17.08440 144.23330
#
# Velocity S-wave (km/s) = 11.74436 2.94672 8.56192
# Velocity P-wave (km/s) = 14.11589 6.52473 10.99615
#
# Compressibility (1/GPa) = 0.03310686
#
# Stress axis : x y z
#
# Youngs Moduli (GPa) = 109.62859 55.67676 29.20092
#
# Poissons Ratio (x) = -0.06400 0.37331
# Poissons Ratio (y) = -0.12602 0.07230
# Poissons Ratio (z) = 1.40150 0.13786
#
# Static dielectric constant tensor:
#      x y z
#    x 1.720380 0.000000 -0.018310 
#    y 0.000000 1.726880 0.000000 
#    z -0.018310 0.000000 1.655130 
# 
# From -- ./inp_files/86131.got.cif
#   From: 2010.05.17/outbox.cif.g08.bks.cpg/sg10_44_cif.got.tgz:86131.got - 2010.06.03 11:33:40.
