data_PCOD9142978
_publ_section_title
;
Structure prediction by ZEFSAII (Michael W. Deem and Ramdas Pophale) SiO2 
 PCOD9142978
Probable space group: P 2/M
;
_chemical_formula_sum "Si O2"
_cell_formula_units_Z 28
_cell_length_a 19.266704
_cell_length_b 8.599521
_cell_length_c 10.999160
_cell_angle_alpha 90.000000
_cell_angle_beta 56.317920
_cell_angle_gamma 90.000000
_cell_volume 1516.460637
_symmetry_space_group_name_H-M "P 2/M"
_symmetry_group_IT_number 10
_symmetry_cell_setting 'monoclinic'
loop_
_space_group_symop_operation_xyz
x,y,z
-x,y,-z
-x,-y,-z
x,-y,z
loop_
_atom_site_type_symbol
_atom_site_label
_atom_site_fract_x
_atom_site_fract_y
_atom_site_fract_z
Si Si1 0.940599 0.812303 0.669015
Si Si2 0.578200 0.321072 0.014216
Si Si3 0.748042 0.184210 0.870595
Si Si4 0.761489 0.317995 0.120619
Si Si5 0.040983 0.682050 0.083512
Si Si6 0.624717 0.318921 0.425516
Si Si7 0.519981 0.177833 0.313887
O O1 0.843051 0.761921 0.748721
O O2 0.972542 0.757723 0.770789
O O3 0.000000 0.760869 0.500000
O O4 0.939630 0.000000 0.670602
O O5 0.585301 0.500000 0.048870
O O6 0.551920 0.210869 0.149793
O O7 0.500000 0.313931 0.000000
O O8 0.669958 0.267431 0.881410
O O9 0.743338 0.000000 0.854875
O O10 0.736888 0.221561 0.025314
O O11 0.739219 0.500000 0.121538
O O12 0.715289 0.269871 0.289295
O O13 0.860195 0.308441 0.034778
O O14 0.016647 0.500000 0.116714
O O15 0.000000 0.747747 0.000000
O O16 0.624406 0.500000 0.459654
O O17 0.570176 0.289391 0.356580
O O18 0.577071 0.220486 0.573260
O O19 0.535170 0.000000 0.333989
#
# Coordination Sequence:
#
# PCOD9142978 Si02
#       7
#     4   4   4   4   4   4   4
#     4   9  19  36  57  82 112 145 181 220 271 333
#     4  11  23  38  54  72 100 139 179 219 267 323
#     4  10  19  32  54  79 103 134 176 224 264 311
#     4   9  17  30  51  75 103 138 173 213 258 311
#     4   9  18  33  53  80 111 141 178 224 270 316
#     4  10  18  30  50  73 101 134 168 207 255 304
#     4  11  21  32  49  73 101 129 166 212 256 301
#
# _framework density 18.464047999999998
#
# number of rings (size 3 to 8) (size 9 to 14) (size 15 to 20)
#    0.000    2.143    1.429    3.429    0.000    2.857 
#    0.000    1.429    0.000    5.143    0.000    0.000 
#    0.000    0.000    0.000    0.000    0.000    0.000 
#
# Total GULP energy -155985.144732 kJ/mol
# GULP energy per Si atom -5570.898026 kJ/mol
# Density = 1.842202 g / cm^3
# Si number density = 18.464048 Si / 1000 Ang^3
#
#
#
# Elastic Constant Matrix: (Units=GPa)
#
#
# Indices 1 2 3 4 5 6 
#
# 1 82.4061 20.4575 36.2509 0.0000 -2.8183 0.0000
# 2 20.4575 32.2778 16.8151 0.0000 -5.5383 0.0000
# 3 36.2509 16.8151 116.7893 0.0000 -15.1221 0.0000
# 4 0.0000 0.0000 0.0000 30.5635 0.0000 3.3941
# 5 -2.8183 -5.5383 -15.1221 0.0000 14.9142 0.0000
# 6 0.0000 0.0000 0.0000 3.3941 0.0000 20.0341
#
#
#
# Elastic Compliance Matrix: (Units=1/GPa)
#
#
# Indices 1 2 3 4 5 6 
#
# 1 0.016038 -0.008701 -0.004318 0.000000 -0.004579 0.000000
# 2 -0.008701 0.039221 -0.001466 0.000000 0.011434 0.000000
# 3 -0.004318 -0.001466 0.011440 0.000000 0.010239 0.000000
# 4 0.000000 0.000000 0.000000 0.033346 0.000000 -0.005649
# 5 -0.004579 0.011434 0.010239 0.000000 0.080812 0.000000
# 6 0.000000 0.000000 0.000000 -0.005649 0.000000 0.050872
#
#
# Mechanical properties :
#
#
# Convention : Reuss Voigt Hill
#
# Bulk Modulus (GPa) = 26.50488 42.05781 34.28134
# Shear Modulus (GPa) = 18.29656 23.63233 20.96444
#
# Velocity S-wave (km/s) = 3.15132 3.58147 3.37325
# Velocity P-wave (km/s) = 5.25615 6.31903 5.81194
#
# Compressibility (1/GPa) = 0.03772891
#
# Stress axis : x y z
#
# Youngs Moduli (GPa) = 62.35152 25.49642 87.41585
#
# Poissons Ratio (x) = 0.22184 0.37749
# Poissons Ratio (y) = 0.54252 0.12813
# Poissons Ratio (z) = 0.26925 0.03737
#
# Static dielectric constant tensor:
#      x y z
#    x 1.658760 0.000000 -0.045310 
#    y 0.000000 1.637070 0.000000 
#    z -0.045310 0.000000 1.682560 
# 
# From -- ./inp_files/54719.got.cif
#   From: 2010.05.17/outbox.cif.g08.bks.cpg/sg10_28_cif.got.tgz:54719.got - 2010.06.03 11:33:40.
