data_PCOD9142014
_publ_section_title
;
Structure prediction by ZEFSAII (Michael W. Deem and Ramdas Pophale) SiO2 
 PCOD9142014
Probable space group: P 2/M
;
_chemical_formula_sum "Si O2"
_cell_formula_units_Z 26
_cell_length_a 13.847159
_cell_length_b 8.011014
_cell_length_c 14.994998
_cell_angle_alpha 90.000000
_cell_angle_beta 131.774085
_cell_angle_gamma 90.000000
_cell_volume 1240.520081
_symmetry_space_group_name_H-M "P 2/M"
_symmetry_group_IT_number 10
_symmetry_cell_setting 'monoclinic'
loop_
_space_group_symop_operation_xyz
x,y,z
-x,y,-z
-x,-y,-z
x,-y,z
loop_
_atom_site_type_symbol
_atom_site_label
_atom_site_fract_x
_atom_site_fract_y
_atom_site_fract_z
Si Si1 0.829245 0.201519 0.168326
Si Si2 0.598187 0.696164 0.138680
Si Si3 0.730311 0.189168 0.918941
Si Si4 0.085633 0.802819 0.234848
Si Si5 0.000000 0.746687 0.000000
Si Si6 0.366093 0.693749 0.461192
Si Si7 0.536584 0.804581 0.298409
O O1 0.744364 0.277246 0.194380
O O2 0.982007 0.235511 0.249312
O O3 0.816543 0.000000 0.165254
O O4 0.762658 0.264319 0.034975
O O5 0.571418 0.500000 0.133982
O O6 0.578233 0.782218 0.221548
O O7 0.500000 0.758629 0.000000
O O8 0.611366 0.263971 0.791864
O O9 0.687489 0.000000 0.911535
O O10 0.862034 0.179765 0.945306
O O11 0.234508 0.782377 0.350480
O O12 0.061788 0.000000 0.195175
O O13 0.045953 0.688088 0.126292
O O14 0.500000 0.760127 0.500000
O O15 0.354797 0.500000 0.428619
O O16 0.381486 0.710542 0.577027
O O17 0.541933 0.000000 0.326695
#
# Coordination Sequence:
#
# PCOD9142014 Si02
#       7
#     4   4   4   4   2   4   4
#     4   9  18  34  56  85 119 152 191 246 299 347
#     4  11  22  36  57  88 125 163 197 239 297 362
#     4   9  16  27  49  82 115 146 182 234 294 343
#     4  10  20  36  61  89 118 152 198 251 300 349
#     4  10  17  30  55  88 119 144 183 242 299 350
#     4  11  25  43  60  83 123 166 201 242 294 357
#     4  11  22  37  62  89 115 154 205 253 296 347
#
# _framework density 20.958950000000002
#
# number of rings (size 3 to 8) (size 9 to 14) (size 15 to 20)
#    0.000    1.846    1.538    4.615    0.000    3.692 
#    0.000    1.154    0.000    4.615    0.000    0.000 
#    0.000    0.000    0.000    0.000    0.000    0.000 
#
# Total GULP energy -144837.584761 kJ/mol
# GULP energy per Si atom -5570.676337 kJ/mol
# Density = 2.091125 g / cm^3
# Si number density = 20.958950 Si / 1000 Ang^3
#
#
#
# Elastic Constant Matrix: (Units=GPa)
#
#
# Indices 1 2 3 4 5 6 
#
# 1 123.1776 9.1691 44.6311 0.0000 13.6660 0.0000
# 2 9.1691 43.5403 7.2147 0.0000 4.8168 0.0000
# 3 44.6311 7.2147 100.8386 0.0000 16.3231 0.0000
# 4 0.0000 0.0000 0.0000 -25.6731 0.0000 15.6099
# 5 13.6660 4.8168 16.3231 0.0000 34.9089 0.0000
# 6 0.0000 0.0000 0.0000 15.6099 0.0000 -0.2118
#
#
#
# Elastic Compliance Matrix: (Units=1/GPa)
#
#
# Indices 1 2 3 4 5 6 
#
# 1 0.009853 -0.001213 -0.003978 0.000000 -0.001830 0.000000
# 2 -0.001213 0.023617 -0.000760 0.000000 -0.002429 0.000000
# 3 -0.003978 -0.000760 0.012401 0.000000 -0.004137 0.000000
# 4 0.000000 0.000000 0.000000 0.000889 0.000000 0.065524
# 5 -0.001830 -0.002429 -0.004137 0.000000 0.031632 0.000000
# 6 0.000000 0.000000 0.000000 0.065524 0.000000 0.107766
#
#
# Mechanical properties :
#
#
# Convention : Reuss Voigt Hill
#
# Bulk Modulus (GPa) = 29.43779 43.28739 36.36259
# Shear Modulus (GPa) = 23.87966 15.57424 19.72695
#
# Velocity S-wave (km/s) = 3.37909 2.72891 3.07126
# Velocity P-wave (km/s) = 5.41298 5.53421 5.47393
#
# Compressibility (1/GPa) = 0.03396994
#
# Stress axis : x y z
#
# Youngs Moduli (GPa) = 101.49176 42.34190 80.63573
#
# Poissons Ratio (x) = 0.05138 0.32076
# Poissons Ratio (y) = 0.12315 0.06125
# Poissons Ratio (z) = 0.40373 0.03216
#
# Static dielectric constant tensor:
#      x y z
#    x 1.757950 0.000000 0.005330 
#    y 0.000000 1.781520 0.000000 
#    z 0.005330 0.000000 1.750200 
# 
# From -- ./inp_files/66882.got.cif
#   From: 2010.05.17/outbox.cif.g08.bks.cpg/sg10_34_cif.got.tgz:66882.got - 2010.06.03 11:33:40.
