data_PCOD9142692
_publ_section_title
;
Structure prediction by ZEFSAII (Michael W. Deem and Ramdas Pophale) SiO2 
 PCOD9142692
Probable space group: P 2/M
;
_chemical_formula_sum "Si O2"
_cell_formula_units_Z 24
_cell_length_a 11.517332
_cell_length_b 9.257606
_cell_length_c 20.255017
_cell_angle_alpha 90.000000
_cell_angle_beta 43.354523
_cell_angle_gamma 90.000000
_cell_volume 1482.621985
_symmetry_space_group_name_H-M "P 2/M"
_symmetry_group_IT_number 10
_symmetry_cell_setting 'monoclinic'
loop_
_space_group_symop_operation_xyz
x,y,z
-x,y,-z
-x,-y,-z
x,-y,z
loop_
_atom_site_type_symbol
_atom_site_label
_atom_site_fract_x
_atom_site_fract_y
_atom_site_fract_z
Si Si1 0.245021 0.673004 0.150529
Si Si2 0.613885 0.672704 0.051860
Si Si3 0.618557 0.333819 0.516515
Si Si4 0.100922 0.828027 0.676492
Si Si5 0.665383 0.827912 0.292487
Si Si6 0.804868 0.173881 0.090779
O O1 0.216923 0.500000 0.166206
O O2 0.417274 0.706519 0.118887
O O3 0.083202 0.758162 0.242779
O O4 0.284716 0.708159 0.057447
O O5 0.626300 0.500000 0.055971
O O6 0.691005 0.754547 0.081766
O O7 0.500000 0.332786 0.500000
O O8 0.656781 0.500000 0.516775
O O9 0.784512 0.245649 0.427174
O O10 0.504642 0.257287 0.618861
O O11 0.197993 0.800234 0.705989
O O12 0.093115 0.000000 0.670408
O O13 0.740575 0.787545 0.190494
O O14 0.631440 0.000000 0.307309
O O15 0.796699 0.000000 0.088133
O O16 0.000000 0.217491 0.000000
#
# Coordination Sequence:
#
# PCOD9142692 Si02
#       6
#     4   4   4   4   4   4
#     4   9  18  33  50  69  96 126 158 199 240 277
#     4   9  19  34  50  69  95 128 162 196 236 280
#     4   9  17  29  46  69  96 125 158 196 237 280
#     4  10  18  29  49  74  97 124 159 195 236 285
#     4   9  18  31  46  68 100 131 157 192 236 280
#     4  10  20  33  49  71 100 130 159 193 233 279
#
# _framework density 16.187536999999999
#
# number of rings (size 3 to 8) (size 9 to 14) (size 15 to 20)
#    0.000    2.667    0.000    3.000    0.000    6.333 
#    0.000    1.667    0.000    1.000    0.000    7.000 
#    0.000    0.000    0.000    0.000    0.000    0.000 
#
# Total GULP energy -133829.380986 kJ/mol
# GULP energy per Si atom -5576.224208 kJ/mol
# Density = 1.615069 g / cm^3
# Si number density = 16.187537 Si / 1000 Ang^3
#
#
#
# Elastic Constant Matrix: (Units=GPa)
#
#
# Indices 1 2 3 4 5 6 
#
# 1 66.1485 41.5578 67.3920 0.0000 1.7848 0.0000
# 2 41.5578 56.3850 77.5079 0.0000 -8.5133 0.0000
# 3 67.3920 77.5079 176.4945 0.0000 -13.5327 0.0000
# 4 0.0000 0.0000 0.0000 31.6884 0.0000 -4.0550
# 5 1.7848 -8.5133 -13.5327 0.0000 25.2290 0.0000
# 6 0.0000 0.0000 0.0000 -4.0550 0.0000 27.0791
#
#
#
# Elastic Compliance Matrix: (Units=1/GPa)
#
#
# Indices 1 2 3 4 5 6 
#
# 1 0.032144 -0.018495 -0.005011 0.000000 -0.011203 0.000000
# 2 -0.018495 0.055944 -0.016642 0.000000 0.011259 0.000000
# 3 -0.005011 -0.016642 0.015105 0.000000 0.002841 0.000000
# 4 0.000000 0.000000 0.000000 0.032174 0.000000 0.004818
# 5 -0.011203 0.011259 0.002841 0.000000 0.045753 0.000000
# 6 0.000000 0.000000 0.000000 0.004818 0.000000 0.037650
#
#
# Mechanical properties :
#
#
# Convention : Reuss Voigt Hill
#
# Bulk Modulus (GPa) = 43.67365 74.66039 59.16702
# Shear Modulus (GPa) = 16.30262 24.30398 20.30330
#
# Velocity S-wave (km/s) = 3.17694 3.87899 3.54539
# Velocity P-wave (km/s) = 6.36362 8.14152 7.30685
#
# Compressibility (1/GPa) = 0.02289710
#
# Stress axis : x y z
#
# Youngs Moduli (GPa) = 31.10985 17.87507 66.20110
#
# Poissons Ratio (x) = 0.33060 0.33170
# Poissons Ratio (y) = 0.57538 1.10174
# Poissons Ratio (z) = 0.15588 0.29748
#
# Static dielectric constant tensor:
#      x y z
#    x 1.515720 0.000000 0.000620 
#    y 0.000000 1.538560 0.000000 
#    z 0.000620 0.000000 1.530250 
# 
# From -- ./inp_files/45159.got.cif
#   From: 2010.05.17/outbox.cif.g08.bks.cpg/sg10_23_cif.got.tgz:45159.got - 2010.06.03 11:33:40.
