data_PCOD9142842
_publ_section_title
;
Structure prediction by ZEFSAII (Michael W. Deem and Ramdas Pophale) SiO2 
 PCOD9142842
Probable space group: P 2/M
;
_chemical_formula_sum "Si O2"
_cell_formula_units_Z 30
_cell_length_a 13.463988
_cell_length_b 9.629817
_cell_length_c 14.368869
_cell_angle_alpha 90.000000
_cell_angle_beta 131.665798
_cell_angle_gamma 90.000000
_cell_volume 1391.731229
_symmetry_space_group_name_H-M "P 2/M"
_symmetry_group_IT_number 10
_symmetry_cell_setting 'monoclinic'
loop_
_space_group_symop_operation_xyz
x,y,z
-x,y,-z
-x,-y,-z
x,-y,z
loop_
_atom_site_type_symbol
_atom_site_label
_atom_site_fract_x
_atom_site_fract_y
_atom_site_fract_z
Si Si1 0.396518 0.339697 0.787452
Si Si2 0.347781 0.167496 0.036808
Si Si3 0.152658 0.842254 0.599993
Si Si4 0.440023 0.653118 0.588580
Si Si5 0.000000 0.756244 0.000000
Si Si6 0.712815 0.656632 0.823823
Si Si7 0.941167 0.840857 0.168989
Si Si8 0.790956 0.155643 0.583622
O O1 0.395169 0.500000 0.817850
O O2 0.518401 0.249876 0.904983
O O3 0.257416 0.259269 0.713834
O O4 0.419248 0.342275 0.688719
O O5 0.319744 0.220151 0.124551
O O6 0.363433 0.000000 0.040792
O O7 0.207523 0.211812 0.902313
O O8 0.195507 0.852919 0.519152
O O9 0.000000 0.794275 0.500000
O O10 0.155722 0.000000 0.641119
O O11 0.399573 0.500000 0.532716
O O12 0.598019 0.668884 0.675660
O O13 0.344500 0.764419 0.484369
O O14 0.133734 0.671442 0.107169
O O15 0.964697 0.837017 0.072448
O O16 0.695804 0.500000 0.854536
O O17 0.072401 0.774952 0.295515
O O18 0.940075 0.000000 0.200636
O O19 0.782975 0.000000 0.618377
#
# Coordination Sequence:
#
# PCOD9142842 Si02
#       8
#     4   4   4   4   2   4   4   4
#     4   9  16  27  45  69  96 123 154 190 226 271
#     4   9  16  27  45  67  90 119 156 193 230 271
#     4   9  17  29  48  74  99 122 151 188 228 273
#     4   8  15  28  44  64  90 118 149 185 225 270
#     4  10  18  30  48  66  89 120 157 194 231 272
#     4   9  17  29  45  66  92 119 153 194 233 275
#     4   9  18  31  47  68  92 119 152 193 234 271
#     4   9  17  31  49  68  92 120 151 186 227 274
#
# _framework density 21.555886999999998
#
# number of rings (size 3 to 8) (size 9 to 14) (size 15 to 20)
#    0.000    3.067    0.000    2.000    0.000    4.000 
#    0.000    4.667    0.000    4.000    0.000    5.600 
#    0.000    0.000    0.000    0.000    0.000    0.000 
#
# Total GULP energy -167073.333592 kJ/mol
# GULP energy per Si atom -5569.111120 kJ/mol
# Density = 2.150682 g / cm^3
# Si number density = 21.555887 Si / 1000 Ang^3
#
#
#
# Elastic Constant Matrix: (Units=GPa)
#
#
# Indices 1 2 3 4 5 6 
#
# 1 63.2306 26.3633 33.8304 0.0000 8.8716 0.0000
# 2 26.3633 96.7321 84.6180 0.0000 31.4022 0.0000
# 3 33.8304 84.6180 162.5308 0.0000 65.4294 0.0000
# 4 0.0000 0.0000 0.0000 -18.1031 0.0000 16.0674
# 5 8.8716 31.4022 65.4294 0.0000 54.8937 0.0000
# 6 0.0000 0.0000 0.0000 16.0674 0.0000 6.6639
#
#
#
# Elastic Compliance Matrix: (Units=1/GPa)
#
#
# Indices 1 2 3 4 5 6 
#
# 1 0.018490 -0.002930 -0.003451 0.000000 0.002801 0.000000
# 2 -0.002930 0.019537 -0.010099 0.000000 0.001334 0.000000
# 3 -0.003451 -0.010099 0.018414 0.000000 -0.015614 0.000000
# 4 0.000000 0.000000 0.000000 -0.017592 0.000000 0.042417
# 5 0.002801 0.001334 -0.015614 0.000000 0.035611 0.000000
# 6 0.000000 0.000000 0.000000 0.042417 0.000000 0.047791
#
#
# Mechanical properties :
#
#
# Convention : Reuss Voigt Hill
#
# Bulk Modulus (GPa) = 42.58534 68.01300 55.29917
# Shear Modulus (GPa) = 30.66747 20.53635 25.60191
#
# Velocity S-wave (km/s) = 3.77596 3.08994 3.45004
# Velocity P-wave (km/s) = 6.22970 6.65963 6.44825
#
# Compressibility (1/GPa) = 0.02348226
#
# Stress axis : x y z
#
# Youngs Moduli (GPa) = 54.08318 51.18366 54.30522
#
# Poissons Ratio (x) = 0.14996 0.18740
# Poissons Ratio (y) = 0.15845 0.54843
# Poissons Ratio (z) = 0.18664 0.51691
#
# Static dielectric constant tensor:
#      x y z
#    x 1.846070 0.000000 0.002230 
#    y 0.000000 1.760820 0.000000 
#    z 0.002230 0.000000 1.824800 
# 
# From -- ./inp_files/57976.got.cif
#   From: 2010.05.17/outbox.cif.g08.bks.cpg/sg10_29_cif.got.tgz:57976.got - 2010.06.03 11:33:40.
