data_PCOD9142134
_publ_section_title
;
Structure prediction by ZEFSAII (Michael W. Deem and Ramdas Pophale) SiO2 
 PCOD9142134
Probable space group: P 2/M
;
_chemical_formula_sum "Si O2"
_cell_formula_units_Z 18
_cell_length_a 12.371959
_cell_length_b 12.993817
_cell_length_c 13.744139
_cell_angle_alpha 90.000000
_cell_angle_beta 156.813495
_cell_angle_gamma 90.000000
_cell_volume 869.933797
_symmetry_space_group_name_H-M "P 2/M"
_symmetry_group_IT_number 10
_symmetry_cell_setting 'monoclinic'
loop_
_space_group_symop_operation_xyz
x,y,z
-x,y,-z
-x,-y,-z
x,-y,z
loop_
_atom_site_type_symbol
_atom_site_label
_atom_site_fract_x
_atom_site_fract_y
_atom_site_fract_z
Si Si1 0.415514 0.882542 0.224210
Si Si2 0.987539 0.700292 0.105793
Si Si3 0.833415 0.254506 0.453600
Si Si4 0.500000 0.803331 0.500000
Si Si5 0.290468 0.383229 0.952712
O O1 0.166536 0.806316 0.993385
O O2 0.682454 0.830913 0.395120
O O3 0.407500 0.874435 0.335098
O O4 0.382345 0.000000 0.166235
O O5 0.701566 0.724450 0.611989
O O6 0.833583 0.616627 0.040506
O O7 0.000000 0.684823 0.000000
O O8 0.584503 0.326033 0.205201
O O9 0.000000 0.209340 0.500000
O O10 0.059155 0.321116 0.700155
O O11 0.318117 0.500000 0.940889
#
# Coordination Sequence:
#
# PCOD9142134 Si02
#       5
#     4   4   4   2   4
#     4  10  21  36  59  88 121 160 201 245 302 359
#     4   9  20  36  57  87 127 158 199 247 302 362
#     4  11  24  43  63  90 125 159 203 255 299 359
#     4  10  17  36  59  84 120 156 197 252 295 358
#     4  11  23  42  65  91 121 159 205 254 306 358
#
# _framework density 20.691229
#
# number of rings (size 3 to 8) (size 9 to 14) (size 15 to 20)
#    0.000    1.778    2.222    1.667    0.000    8.444 
#    0.000    0.556    0.000    4.000    0.000    0.000 
#    0.000    0.000    0.000    0.000    0.000    0.000 
#
# Total GULP energy -100251.188902 kJ/mol
# GULP energy per Si atom -5569.510495 kJ/mol
# Density = 2.064413 g / cm^3
# Si number density = 20.691229 Si / 1000 Ang^3
#
#
#
# Elastic Constant Matrix: (Units=GPa)
#
#
# Indices 1 2 3 4 5 6 
#
# 1 142.2048 26.4180 9.9239 0.0000 19.8346 0.0000
# 2 26.4180 96.4940 17.1575 0.0000 7.0432 0.0000
# 3 9.9239 17.1575 77.0913 0.0000 17.5995 0.0000
# 4 0.0000 0.0000 0.0000 10.0518 0.0000 -7.1020
# 5 19.8346 7.0432 17.5995 0.0000 19.6832 0.0000
# 6 0.0000 0.0000 0.0000 -7.1020 0.0000 0.5085
#
#
#
# Elastic Compliance Matrix: (Units=1/GPa)
#
#
# Indices 1 2 3 4 5 6 
#
# 1 0.008579 -0.001929 0.001434 0.000000 -0.009236 0.000000
# 2 -0.001929 0.011297 -0.002245 0.000000 -0.000091 0.000000
# 3 0.001434 -0.002245 0.016879 0.000000 -0.015733 0.000000
# 4 0.000000 0.000000 0.000000 -0.011218 0.000000 -0.156683
# 5 -0.009236 -0.000091 -0.015733 0.000000 0.074212 0.000000
# 6 0.000000 0.000000 0.000000 -0.156683 0.000000 -0.221763
#
#
# Mechanical properties :
#
#
# Convention : Reuss Voigt Hill
#
# Bulk Modulus (GPa) = 31.97689 46.97654 39.47671
# Shear Modulus (GPa) = -47.12203 23.53474 -11.79364
#
# Velocity S-wave (km/s) = -4.77738 3.37623 -2.39002
# Velocity P-wave (km/s) = 3.86565 6.16048 3.39177
#
# Compressibility (1/GPa) = 0.03127259
#
# Stress axis : x y z
#
# Youngs Moduli (GPa) = 116.56686 88.51568 59.24687
#
# Poissons Ratio (x) = 0.17079 -0.08494
# Poissons Ratio (y) = 0.22491 0.13303
# Poissons Ratio (z) = -0.16712 0.19874
#
# Static dielectric constant tensor:
#      x y z
#    x 1.777680 0.000000 -0.016740 
#    y 0.000000 1.716240 0.000000 
#    z -0.016740 0.000000 1.832260 
# 
# From -- ./inp_files/47515.got.cif
#   From: 2010.05.17/outbox.cif.g08.bks.cpg/sg10_24_cif.got.tgz:47515.got - 2010.06.03 11:33:40.
