data_PCOD9142611
_publ_section_title
;
Structure prediction by ZEFSAII (Michael W. Deem and Ramdas Pophale) SiO2 
 PCOD9142611
Probable space group: P 2/M
;
_chemical_formula_sum "Si O2"
_cell_formula_units_Z 32
_cell_length_a 17.772440
_cell_length_b 14.303867
_cell_length_c 16.167076
_cell_angle_alpha 90.000000
_cell_angle_beta 24.425299
_cell_angle_gamma 90.000000
_cell_volume 1699.473291
_symmetry_space_group_name_H-M "P 2/M"
_symmetry_group_IT_number 10
_symmetry_cell_setting 'monoclinic'
loop_
_space_group_symop_operation_xyz
x,y,z
-x,y,-z
-x,-y,-z
x,-y,z
loop_
_atom_site_type_symbol
_atom_site_label
_atom_site_fract_x
_atom_site_fract_y
_atom_site_fract_z
Si Si1 0.697575 0.893402 0.575344
Si Si2 0.220397 0.298667 0.928120
Si Si3 0.296377 0.893581 0.919294
Si Si4 0.087340 0.708636 0.638019
Si Si5 0.872445 0.823968 0.739737
Si Si6 0.394061 0.388015 0.409801
Si Si7 0.246026 0.104925 0.300617
Si Si8 0.717098 0.393345 0.301456
O O1 0.515167 0.888068 0.705011
O O2 0.838704 0.812512 0.411529
O O3 0.643313 0.876458 0.726325
O O4 0.768131 0.000000 0.499765
O O5 0.230584 0.186574 0.923433
O O6 0.409704 0.339700 0.776208
O O7 0.197319 0.334616 0.858126
O O8 0.058818 0.328598 0.150493
O O9 0.243140 0.000000 0.954237
O O10 0.224136 0.864609 0.082740
O O11 0.269234 0.646729 0.459090
O O12 0.974572 0.729166 0.666770
O O13 0.747358 0.825348 0.783413
O O14 0.040950 0.889048 0.542835
O O15 0.416710 0.500000 0.387809
O O16 0.279964 0.360808 0.606898
O O17 0.285128 0.000000 0.231993
O O18 0.500000 0.394855 0.500000
O O19 0.782685 0.500000 0.231059
#
# Coordination Sequence:
#
# PCOD9142611 Si02
#       8
#     4   4   4   4   4   4   4   4
#     4   9  18  31  48  72 104 138 172 210 247 291
#     4  10  19  32  52  74 104 133 167 199 244 305
#     4  10  18  29  47  71 103 140 176 206 241 290
#     4  10  20  32  49  76 104 135 167 198 247 302
#     4   9  17  27  43  69 100 133 168 201 241 292
#     4  10  20  36  56  77 104 127 155 206 260 305
#     4   9  15  26  44  68 101 136 167 206 253 291
#     4   8  16  32  54  78 101 125 152 199 260 308
#
# _framework density 18.829363000000001
#
# number of rings (size 3 to 8) (size 9 to 14) (size 15 to 20)
#    0.000    2.625    1.250    2.625    0.000    5.500 
#    0.000    3.125    0.000    4.125    0.000   11.375 
#    0.000   28.000    0.000    0.000    0.000    0.000 
#
# Total GULP energy -178187.617395 kJ/mol
# GULP energy per Si atom -5568.363044 kJ/mol
# Density = 1.878651 g / cm^3
# Si number density = 18.829363 Si / 1000 Ang^3
#
#
#
# Elastic Constant Matrix: (Units=GPa)
#
#
# Indices 1 2 3 4 5 6 
#
# 1 49.4061 16.6905 10.8653 0.0000 -1.9736 0.0000
# 2 16.6905 59.0204 20.6131 0.0000 4.6077 0.0000
# 3 10.8653 20.6131 70.0237 0.0000 2.8765 0.0000
# 4 0.0000 0.0000 0.0000 -214.9681 0.0000 152.1780
# 5 -1.9736 4.6077 2.8765 0.0000 22.1595 0.0000
# 6 0.0000 0.0000 0.0000 152.1780 0.0000 -72.4625
#
#
#
# Elastic Compliance Matrix: (Units=1/GPa)
#
#
# Indices 1 2 3 4 5 6 
#
# 1 0.022853 -0.006075 -0.001903 0.000000 0.003546 0.000000
# 2 -0.006075 0.020731 -0.004987 0.000000 -0.004204 0.000000
# 3 -0.001903 -0.004987 0.016095 0.000000 -0.001222 0.000000
# 4 0.000000 0.000000 0.000000 0.009558 0.000000 0.020074
# 5 0.003546 -0.004204 -0.001222 0.000000 0.046476 0.000000
# 6 0.000000 0.000000 0.000000 0.020074 0.000000 0.028356
#
#
# Mechanical properties :
#
#
# Convention : Reuss Voigt Hill
#
# Bulk Modulus (GPa) = 29.63167 30.53201 30.08184
# Shear Modulus (GPa) = 27.58633 -44.36880 -8.39124
#
# Velocity S-wave (km/s) = 3.83178 -4.85950 -2.11332
# Velocity P-wave (km/s) = 5.94540 3.90334 3.17110
#
# Compressibility (1/GPa) = 0.03374768
#
# Stress axis : x y z
#
# Youngs Moduli (GPa) = 43.75832 48.23639 62.13275
#
# Poissons Ratio (x) = 0.29302 0.11827
# Poissons Ratio (y) = 0.26581 0.30988
# Poissons Ratio (z) = 0.08329 0.24058
#
# Static dielectric constant tensor:
#      x y z
#    x 1.731330 0.000000 -0.035580 
#    y 0.000000 1.651280 0.000000 
#    z -0.035580 0.000000 1.689680 
# 
# From -- ./inp_files/79709.got.cif
#   From: 2010.05.17/outbox.cif.g08.bks.cpg/sg10_40_cif.got.tgz:79709.got - 2010.06.03 11:33:40.
