data_PCOD9142057
_publ_section_title
;
Structure prediction by ZEFSAII (Michael W. Deem and Ramdas Pophale) SiO2 
 PCOD9142057
Probable space group: P 2/M
;
_chemical_formula_sum "Si O2"
_cell_formula_units_Z 20
_cell_length_a 14.355184
_cell_length_b 11.209472
_cell_length_c 11.602977
_cell_angle_alpha 90.000000
_cell_angle_beta 30.416399
_cell_angle_gamma 90.000000
_cell_volume 945.267324
_symmetry_space_group_name_H-M "P 2/M"
_symmetry_group_IT_number 10
_symmetry_cell_setting 'monoclinic'
loop_
_space_group_symop_operation_xyz
x,y,z
-x,y,-z
-x,-y,-z
x,-y,z
loop_
_atom_site_type_symbol
_atom_site_label
_atom_site_fract_x
_atom_site_fract_y
_atom_site_fract_z
Si Si1 0.479873 0.247061 0.159498
Si Si2 0.968609 0.500000 0.396600
Si Si3 0.054962 0.000000 0.574128
Si Si4 0.531969 0.500000 0.829080
Si Si5 0.000000 0.199415 0.000000
Si Si6 0.049454 0.747240 0.688745
Si Si7 0.444168 0.000000 0.255290
Si Si8 0.702463 0.000000 0.334519
O O1 0.547767 0.375611 0.130976
O O2 0.265487 0.248351 0.424060
O O3 0.554867 0.122610 0.127441
O O4 0.500000 0.244765 0.000000
O O5 0.753475 0.500000 0.586721
O O6 0.034349 0.629281 0.280953
O O7 0.000000 0.500000 0.500000
O O8 0.000000 0.000000 0.500000
O O9 0.988551 0.121595 0.708357
O O10 0.280672 0.000000 0.334955
O O11 0.500000 0.500000 0.000000
O O12 0.973177 0.265133 0.149739
O O13 0.822759 0.114238 0.173784
O O14 0.327595 0.000000 0.496682
O O15 0.500000 0.000000 0.500000
#
# Coordination Sequence:
#
# PCOD9142057 Si02
#       8
#     4   2   2   2   2   4   2   2
#     4   9  16  30  51  79 114 149 196 244 302 365
#     4  10  20  35  55  88 129 154 210 263 306 399
#     4  10  17  31  55  82 119 153 203 253 318 381
#     4   8  16  30  49  72 104 156 192 221 303 363
#     4  11  20  43  66  84 134 164 220 266 304 394
#     4  10  20  35  60  87 120 175 202 260 322 367
#     4  10  18  34  51  82 117 145 198 258 309 364
#     4  11  22  40  65  90 125 172 217 260 322 373
#
# _framework density 21.158035000000002
#
# number of rings (size 3 to 8) (size 9 to 14) (size 15 to 20)
#    0.000    2.200    4.000    1.500    0.000    0.400 
#    0.000   14.000    0.000    0.000    0.000    3.500 
#    0.000    0.000    0.000    0.000    0.000    0.000 
#
# Total GULP energy -111475.158557 kJ/mol
# GULP energy per Si atom -5573.757928 kJ/mol
# Density = 2.110988 g / cm^3
# Si number density = 21.158035 Si / 1000 Ang^3
#
#
#
# Elastic Constant Matrix: (Units=GPa)
#
#
# Indices 1 2 3 4 5 6 
#
# 1 91.8696 35.5158 47.2465 0.0000 11.5552 0.0000
# 2 35.5158 235.2881 29.6028 0.0000 15.2060 0.0000
# 3 47.2465 29.6028 98.8947 0.0000 11.8300 0.0000
# 4 0.0000 0.0000 0.0000 -152.3098 0.0000 -109.2662
# 5 11.5552 15.2060 11.8300 0.0000 52.7408 0.0000
# 6 0.0000 0.0000 0.0000 -109.2662 0.0000 -95.6345
#
#
#
# Elastic Compliance Matrix: (Units=1/GPa)
#
#
# Indices 1 2 3 4 5 6 
#
# 1 0.014964 -0.001340 -0.006579 0.000000 -0.001417 0.000000
# 2 -0.001340 0.004589 -0.000627 0.000000 -0.000889 0.000000
# 3 -0.006579 -0.000627 0.013614 0.000000 -0.001431 0.000000
# 4 0.000000 0.000000 0.000000 -0.036405 0.000000 0.041594
# 5 -0.001417 -0.000889 -0.001431 0.000000 0.019848 0.000000
# 6 0.000000 0.000000 0.000000 0.041594 0.000000 -0.057980
#
#
# Mechanical properties :
#
#
# Convention : Reuss Voigt Hill
#
# Bulk Modulus (GPa) = 62.20580 72.30918 67.25749
# Shear Modulus (GPa) = -264.27158 -18.12820 -141.19989
#
# Velocity S-wave (km/s) = -11.18815 -2.93029 -8.17806
# Velocity P-wave (km/s) = 11.72328 4.77505 7.57081
#
# Compressibility (1/GPa) = 0.01607567
#
# Stress axis : x y z
#
# Youngs Moduli (GPa) = 66.82571 217.92810 73.45549
#
# Poissons Ratio (x) = 0.29192 0.48324
# Poissons Ratio (y) = 0.08952 0.04608
# Poissons Ratio (z) = 0.43962 0.13670
#
# Static dielectric constant tensor:
#      x y z
#    x 1.805220 0.000000 0.009620 
#    y 0.000000 1.884680 0.000000 
#    z 0.009620 0.000000 1.738090 
# 
# From -- ./inp_files/51045.got.cif
#   From: 2010.05.17/outbox.cif.g08.bks.cpg/sg10_26_cif.got.tgz:51045.got - 2010.06.03 11:33:40.
