data_PCOD9142239
_publ_section_title
;
Structure prediction by ZEFSAII (Michael W. Deem and Ramdas Pophale) SiO2 
 PCOD9142239
Probable space group: P 2/M
;
_chemical_formula_sum "Si O2"
_cell_formula_units_Z 24
_cell_length_a 11.990973
_cell_length_b 24.434620
_cell_length_c 5.393424
_cell_angle_alpha 90.000000
_cell_angle_beta 129.870485
_cell_angle_gamma 90.000000
_cell_volume 1212.831326
_symmetry_space_group_name_H-M "P 2/M"
_symmetry_group_IT_number 10
_symmetry_cell_setting 'monoclinic'
loop_
_space_group_symop_operation_xyz
x,y,z
-x,y,-z
-x,-y,-z
x,-y,z
loop_
_atom_site_type_symbol
_atom_site_label
_atom_site_fract_x
_atom_site_fract_y
_atom_site_fract_z
Si Si1 0.345802 0.167004 0.016072
Si Si2 0.500000 0.380770 0.000000
Si Si3 0.323665 0.878407 0.489764
Si Si4 0.305494 0.291564 0.876307
Si Si5 0.597421 0.000000 0.390890
Si Si6 0.338781 0.561643 0.394551
Si Si7 0.834656 0.330331 0.845848
O O1 0.503381 0.137342 0.252790
O O2 0.270420 0.151427 0.166552
O O3 0.262237 0.144501 0.658049
O O4 0.368046 0.231101 0.001927
O O5 0.570521 0.337818 0.908466
O O6 0.623951 0.421229 0.270562
O O7 0.313994 0.943643 0.472485
O O8 0.247681 0.304332 0.514155
O O9 0.190476 0.297517 0.935109
O O10 0.500000 0.000000 0.500000
O O11 0.500000 0.000000 0.000000
O O12 0.500000 0.564515 0.500000
O O13 0.285452 0.500000 0.288458
O O14 0.227675 0.609550 0.172134
O O15 0.000000 0.333898 0.000000
#
# Coordination Sequence:
#
# PCOD9142239 Si02
#       7
#     4   2   4   4   2   4   4
#     4  10  18  29  43  70  99 136 189 228 267 316
#     4  10  19  34  56  84 116 141 186 226 294 324
#     4  10  18  27  43  69 108 151 183 224 269 338
#     4  11  22  36  59  81 110 149 186 240 280 337
#     4  12  16  28  40  62 104 164 194 208 270 342
#     4  10  20  36  59  85 115 144 184 236 281 334
#     4  11  24  42  59  82 113 151 189 229 289 349
#
# _framework density 19.788405999999998
#
# number of rings (size 3 to 8) (size 9 to 14) (size 15 to 20)
#    0.000    1.500    5.000    2.750    0.000    4.333 
#    0.000    0.000    0.000    3.000    0.000    0.000 
#    0.000    0.000    0.000   87.000    0.000    0.000 
#
# Total GULP energy -133639.584972 kJ/mol
# GULP energy per Si atom -5568.316040 kJ/mol
# Density = 1.974337 g / cm^3
# Si number density = 19.788406 Si / 1000 Ang^3
#
#
#
# Elastic Constant Matrix: (Units=GPa)
#
#
# Indices 1 2 3 4 5 6 
#
# 1 85.5724 19.6923 25.2426 0.0000 -20.9196 0.0000
# 2 19.6923 134.5243 23.0531 0.0000 -13.3678 0.0000
# 3 25.2426 23.0531 67.5524 0.0000 -36.5616 0.0000
# 4 0.0000 0.0000 0.0000 16.9641 0.0000 -4.6674
# 5 -20.9196 -13.3678 -36.5616 0.0000 41.7445 0.0000
# 6 0.0000 0.0000 0.0000 -4.6674 0.0000 10.6221
#
#
#
# Elastic Compliance Matrix: (Units=1/GPa)
#
#
# Indices 1 2 3 4 5 6 
#
# 1 0.013732 -0.001169 -0.002301 0.000000 0.004492 0.000000
# 2 -0.001169 0.007997 -0.002326 0.000000 -0.000062 0.000000
# 3 -0.002301 -0.002326 0.029336 0.000000 0.023796 0.000000
# 4 0.000000 0.000000 0.000000 0.067055 0.000000 0.029464
# 5 0.004492 -0.000062 0.023796 0.000000 0.047028 0.000000
# 6 0.000000 0.000000 0.000000 0.029464 0.000000 0.107090
#
#
# Mechanical properties :
#
#
# Convention : Reuss Voigt Hill
#
# Bulk Modulus (GPa) = 25.33423 47.06946 36.20185
# Shear Modulus (GPa) = 16.83572 28.51021 22.67296
#
# Velocity S-wave (km/s) = 2.91999 3.79984 3.38859
# Velocity P-wave (km/s) = 4.91923 6.56428 5.80037
#
# Compressibility (1/GPa) = 0.03947228
#
# Stress axis : x y z
#
# Youngs Moduli (GPa) = 72.82263 125.04406 34.08784
#
# Poissons Ratio (x) = 0.14623 0.07844
# Poissons Ratio (y) = 0.08516 0.07928
# Poissons Ratio (z) = 0.16758 0.29082
#
# Static dielectric constant tensor:
#      x y z
#    x 1.742290 0.000000 -0.090690 
#    y 0.000000 1.699630 0.000000 
#    z -0.090690 0.000000 1.757690 
# 
# From -- ./inp_files/5181.got.cif
#   From: 2010.05.17/outbox.cif.g08.bks.cpg/sg10_3_cif.got.tgz:5181.got - 2010.06.03 11:33:40.
