data_PCOD9142449
_publ_section_title
;
Structure prediction by ZEFSAII (Michael W. Deem and Ramdas Pophale) SiO2 
 PCOD9142449
Probable space group: P 2/M
;
_chemical_formula_sum "Si O2"
_cell_formula_units_Z 28
_cell_length_a 12.023428
_cell_length_b 15.130623
_cell_length_c 9.697943
_cell_angle_alpha 90.000000
_cell_angle_beta 54.386143
_cell_angle_gamma 90.000000
_cell_volume 1434.279846
_symmetry_space_group_name_H-M "P 2/M"
_symmetry_group_IT_number 10
_symmetry_cell_setting 'monoclinic'
loop_
_space_group_symop_operation_xyz
x,y,z
-x,y,-z
-x,-y,-z
x,-y,z
loop_
_atom_site_type_symbol
_atom_site_label
_atom_site_fract_x
_atom_site_fract_y
_atom_site_fract_z
Si Si1 0.633830 0.399009 0.717456
Si Si2 0.976382 0.591846 0.851576
Si Si3 0.905256 0.897624 0.702867
Si Si4 0.323433 0.365612 0.897390
Si Si5 0.658122 0.766072 0.900965
Si Si6 0.655542 0.700921 0.411944
Si Si7 0.934376 0.217958 0.200183
O O1 0.684557 0.500000 0.697630
O O2 0.467593 0.403051 0.842663
O O3 0.676514 0.323843 0.796835
O O4 0.663407 0.355219 0.546813
O O5 0.036273 0.500000 0.752943
O O6 0.029310 0.685444 0.761480
O O7 0.813962 0.591657 0.949197
O O8 0.000000 0.592681 0.000000
O O9 0.769226 0.838774 0.783542
O O10 0.000000 0.891151 0.500000
O O11 0.994865 0.856942 0.761763
O O12 0.871110 0.000000 0.751852
O O13 0.316838 0.363786 0.737304
O O14 0.320698 0.265483 0.956914
O O15 0.500000 0.794048 0.000000
O O16 0.500000 0.732756 0.500000
O O17 0.769838 0.777162 0.321380
O O18 0.000000 0.215884 0.000000
#
# Coordination Sequence:
#
# PCOD9142449 Si02
#       7
#     4   4   4   4   4   4   4
#     4  10  22  34  51  81 121 159 195 233 278 326
#     4  10  18  28  50  80 112 148 188 227 264 315
#     4  11  24  42  64  87 112 147 186 234 303 362
#     4  10  18  34  54  79 112 155 193 234 267 322
#     4  10  21  39  61  85 114 149 195 240 284 332
#     4  10  20  34  55  82 114 156 191 229 279 327
#     4  11  20  39  61  85 117 146 192 239 278 337
#
# _framework density 19.521992000000001
#
# number of rings (size 3 to 8) (size 9 to 14) (size 15 to 20)
#    0.000    1.714    4.286    1.286    0.000    7.429 
#    0.000    0.000    0.000    2.143    0.000    0.000 
#    0.000    0.000    0.000    0.000    0.000    0.000 
#
# Total GULP energy -156159.731944 kJ/mol
# GULP energy per Si atom -5577.133284 kJ/mol
# Density = 1.947756 g / cm^3
# Si number density = 19.521992 Si / 1000 Ang^3
#
#
#
# Elastic Constant Matrix: (Units=GPa)
#
#
# Indices 1 2 3 4 5 6 
#
# 1 104.1593 61.0988 42.6448 0.0000 -19.6936 0.0000
# 2 61.0988 129.7786 50.7443 0.0000 -6.5558 0.0000
# 3 42.6448 50.7443 78.9647 0.0000 -5.5658 0.0000
# 4 0.0000 0.0000 0.0000 15.4263 0.0000 0.3680
# 5 -19.6936 -6.5558 -5.5658 0.0000 35.2097 0.0000
# 6 0.0000 0.0000 0.0000 0.3680 0.0000 9.5951
#
#
#
# Elastic Compliance Matrix: (Units=1/GPa)
#
#
# Indices 1 2 3 4 5 6 
#
# 1 0.016029 -0.005337 -0.004718 0.000000 0.007226 0.000000
# 2 -0.005337 0.012095 -0.004998 0.000000 -0.001523 0.000000
# 3 -0.004718 -0.004998 0.018377 0.000000 -0.000664 0.000000
# 4 0.000000 0.000000 0.000000 0.064884 0.000000 -0.002489
# 5 0.007226 -0.001523 -0.000664 0.000000 0.032054 0.000000
# 6 0.000000 0.000000 0.000000 -0.002489 0.000000 0.104315
#
#
# Mechanical properties :
#
#
# Convention : Reuss Voigt Hill
#
# Bulk Modulus (GPa) = 60.98950 69.09761 65.04356
# Shear Modulus (GPa) = 17.64767 22.60720 20.12744
#
# Velocity S-wave (km/s) = 3.00990 3.40669 3.21442
# Velocity P-wave (km/s) = 6.58700 7.13762 6.86783
#
# Compressibility (1/GPa) = 0.01639626
#
# Stress axis : x y z
#
# Youngs Moduli (GPa) = 62.38788 82.67776 54.41723
#
# Poissons Ratio (x) = 0.44122 0.25672
# Poissons Ratio (y) = 0.33294 0.27197
# Poissons Ratio (z) = 0.29432 0.41322
#
# Static dielectric constant tensor:
#      x y z
#    x 1.730160 0.000000 -0.010350 
#    y 0.000000 1.666810 0.000000 
#    z -0.010350 0.000000 1.729480 
# 
# From -- ./inp_files/25230.got.cif
#   From: 2010.05.17/outbox.cif.g08.bks.cpg/sg10_13_cif.got.tgz:25230.got - 2010.06.03 11:33:40.
