data_PCOD9142093
_publ_section_title
;
Structure prediction by ZEFSAII (Michael W. Deem and Ramdas Pophale) SiO2 
 PCOD9142093
Probable space group: P 2/M
;
_chemical_formula_sum "Si O2"
_cell_formula_units_Z 26
_cell_length_a 13.285830
_cell_length_b 10.867023
_cell_length_c 25.430702
_cell_angle_alpha 90.000000
_cell_angle_beta 158.317237
_cell_angle_gamma 90.000000
_cell_volume 1356.542913
_symmetry_space_group_name_H-M "P 2/M"
_symmetry_group_IT_number 10
_symmetry_cell_setting 'monoclinic'
loop_
_space_group_symop_operation_xyz
x,y,z
-x,y,-z
-x,-y,-z
x,-y,z
loop_
_atom_site_type_symbol
_atom_site_label
_atom_site_fract_x
_atom_site_fract_y
_atom_site_fract_z
Si Si1 0.814521 0.500000 0.604731
Si Si2 0.115034 0.857827 0.780479
Si Si3 0.653913 0.765168 0.484306
Si Si4 0.041526 0.769306 0.182266
Si Si5 0.982635 0.144351 0.430513
Si Si6 0.562363 0.500000 0.131508
Si Si7 0.998190 0.500000 0.185347
Si Si8 0.497722 0.774031 0.871748
O O1 0.674567 0.625106 0.516212
O O2 0.126865 0.500000 0.736330
O O3 0.851606 0.500000 0.685705
O O4 0.339201 0.803092 0.849681
O O5 0.830786 0.843224 0.611579
O O6 0.080322 0.788791 0.818473
O O7 0.176301 0.000000 0.820108
O O8 0.349101 0.815823 0.330670
O O9 0.814353 0.777334 0.507362
O O10 0.069953 0.623017 0.189269
O O11 0.809219 0.816137 0.030066
O O12 0.681685 0.164542 0.260442
O O13 0.000000 0.176760 0.500000
O O14 0.052454 0.000000 0.458319
O O15 0.513658 0.626399 0.139130
O O16 0.333237 0.500000 0.974216
#
# Coordination Sequence:
#
# PCOD9142093 Si02
#       8
#     2   4   4   4   4   2   2   4
#     4  12  18  32  57  82 116 154 193 220 262 328
#     4  11  22  34  50  75 112 155 192 222 262 321
#     4  11  22  35  55  84 114 143 187 231 276 325
#     4  11  22  34  53  82 119 153 178 223 271 330
#     4  10  22  43  65  80 101 140 190 241 287 332
#     4  10  17  32  56  83 112 145 189 227 263 316
#     4  10  20  32  51  83 119 158 188 217 257 322
#     4  10  20  37  57  82 112 143 186 227 275 328
#
# _framework density 19.166367000000001
#
# number of rings (size 3 to 8) (size 9 to 14) (size 15 to 20)
#    0.000    1.385    4.615    3.462    0.000    6.769 
#    0.000    2.308    0.000    1.846    0.000    4.308 
#    0.000    0.000    0.000    0.000    0.000    0.000 
#
# Total GULP energy -145144.286106 kJ/mol
# GULP energy per Si atom -5582.472543 kJ/mol
# Density = 1.912274 g / cm^3
# Si number density = 19.166367 Si / 1000 Ang^3
#
#
#
# Elastic Constant Matrix: (Units=GPa)
#
#
# Indices 1 2 3 4 5 6 
#
# 1 43.6904 1.1959 43.2150 0.0000 -20.3857 0.0000
# 2 1.1959 57.7945 -10.9504 0.0000 -1.9140 0.0000
# 3 43.2150 -10.9504 162.6282 0.0000 13.3665 0.0000
# 4 0.0000 0.0000 0.0000 -3.9774 0.0000 -12.1244
# 5 -20.3857 -1.9140 13.3665 0.0000 22.0399 0.0000
# 6 0.0000 0.0000 0.0000 -12.1244 0.0000 11.1430
#
#
#
# Elastic Compliance Matrix: (Units=1/GPa)
#
#
# Indices 1 2 3 4 5 6 
#
# 1 0.213120 -0.011016 -0.077352 0.000000 0.243079 0.000000
# 2 -0.011016 0.018111 0.005110 0.000000 -0.011715 0.000000
# 3 -0.077352 0.005110 0.034617 0.000000 -0.092097 0.000000
# 4 0.000000 0.000000 0.000000 -0.058242 0.000000 -0.063372
# 5 0.243079 -0.011715 -0.092097 0.000000 0.325044 0.000000
# 6 0.000000 0.000000 0.000000 -0.063372 0.000000 0.020789
#
#
# Mechanical properties :
#
#
# Convention : Reuss Voigt Hill
#
# Bulk Modulus (GPa) = 10.06743 36.78156 23.42450
# Shear Modulus (GPa) = 6.63953 21.21794 13.92873
#
# Velocity S-wave (km/s) = 1.86324 3.33083 2.69871
# Velocity P-wave (km/s) = 3.14531 5.83309 4.68604
#
# Compressibility (1/GPa) = 0.09933017
#
# Stress axis : x y z
#
# Youngs Moduli (GPa) = 4.69220 55.21581 28.88726
#
# Poissons Ratio (x) = 0.60825 2.23450
# Poissons Ratio (y) = 0.05169 -0.14760
# Poissons Ratio (z) = 0.36295 -0.28213
#
# Static dielectric constant tensor:
#      x y z
#    x 1.639790 0.000000 0.029430 
#    y 0.000000 1.685320 0.000000 
#    z 0.029430 0.000000 1.725190 
# 
# From -- ./inp_files/93232.got.cif
#   From: 2010.05.17/outbox.cif.g08.bks.cpg/sg10_47_cif.got.tgz:93232.got - 2010.06.03 11:33:40.
