data_PCOD9142161
_publ_section_title
;
Structure prediction by ZEFSAII (Michael W. Deem and Ramdas Pophale) SiO2 
 PCOD9142161
Probable space group: P 2/M
;
_chemical_formula_sum "Si O2"
_cell_formula_units_Z 28
_cell_length_a 26.499668
_cell_length_b 8.903817
_cell_length_c 18.401732
_cell_angle_alpha 90.000000
_cell_angle_beta 24.823179
_cell_angle_gamma 90.000000
_cell_volume 1822.794665
_symmetry_space_group_name_H-M "P 2/M"
_symmetry_group_IT_number 10
_symmetry_cell_setting 'monoclinic'
loop_
_space_group_symop_operation_xyz
x,y,z
-x,y,-z
-x,-y,-z
x,-y,z
loop_
_atom_site_type_symbol
_atom_site_label
_atom_site_fract_x
_atom_site_fract_y
_atom_site_fract_z
Si Si1 0.150709 0.320836 0.746306
Si Si2 0.180201 0.680366 0.312195
Si Si3 0.061163 0.820778 0.163186
Si Si4 0.798030 0.679229 0.479544
Si Si5 0.639494 0.179633 0.811394
Si Si6 0.086781 0.679991 0.279286
Si Si7 0.112594 0.820634 0.938078
O O1 0.135199 0.500000 0.773030
O O2 0.225767 0.290936 0.574979
O O3 0.021915 0.244209 0.897977
O O4 0.189814 0.253998 0.772781
O O5 0.195384 0.500000 0.296659
O O6 0.284933 0.761061 0.218738
O O7 0.165770 0.721613 0.246340
O O8 0.051717 0.714879 0.517962
O O9 0.929538 0.745567 0.326685
O O10 0.116353 0.760597 0.165613
O O11 0.136673 0.786006 0.991229
O O12 0.045275 0.000000 0.186883
O O13 0.802946 0.500000 0.483731
O O14 0.701389 0.750180 0.659384
O O15 0.648339 0.000000 0.796120
O O16 0.500000 0.222217 0.000000
O O17 0.093928 0.500000 0.260929
O O18 0.111900 0.000000 0.929533
#
# Coordination Sequence:
#
# PCOD9142161 Si02
#       7
#     4   4   4   4   4   4   4
#     4   9  16  25  38  56  78 108 146 181 212 252
#     4   9  18  32  48  66  87 114 149 185 223 265
#     4  10  18  26  40  64  91 118 148 179 215 262
#     4  10  19  30  44  61  83 114 151 186 221 262
#     4  11  23  35  47  66  90 115 149 190 226 263
#     4   9  17  29  46  67  90 115 147 185 220 262
#     4   9  16  24  35  55  84 115 143 172 210 256
#
# _framework density 15.361027999999999
#
# number of rings (size 3 to 8) (size 9 to 14) (size 15 to 20)
#    0.000    2.429    1.429    3.857    0.000    5.143 
#    0.000    1.429    0.000    0.000    0.000    0.000 
#    0.000    1.143    0.000   12.571    0.000    9.143 
#
# Total GULP energy -155956.398151 kJ/mol
# GULP energy per Si atom -5569.871363 kJ/mol
# Density = 1.532607 g / cm^3
# Si number density = 15.361028 Si / 1000 Ang^3
#
#
#
# Elastic Constant Matrix: (Units=GPa)
#
#
# Indices 1 2 3 4 5 6 
#
# 1 140.3949 53.3553 60.9507 0.0000 33.6254 0.0000
# 2 53.3553 51.6218 31.3050 0.0000 10.0909 0.0000
# 3 60.9507 31.3050 56.6158 0.0000 10.9499 0.0000
# 4 0.0000 0.0000 0.0000 20.4310 0.0000 5.9865
# 5 33.6254 10.0909 10.9499 0.0000 25.0231 0.0000
# 6 0.0000 0.0000 0.0000 5.9865 0.0000 25.5992
#
#
#
# Elastic Compliance Matrix: (Units=1/GPa)
#
#
# Indices 1 2 3 4 5 6 
#
# 1 0.021494 -0.010111 -0.013931 0.000000 -0.018710 0.000000
# 2 -0.010111 0.034517 -0.008889 0.000000 0.003557 0.000000
# 3 -0.013931 -0.008889 0.036337 0.000000 0.006404 0.000000
# 4 0.000000 0.000000 0.000000 0.052546 0.000000 -0.012288
# 5 -0.018710 0.003557 0.006404 0.000000 0.060869 0.000000
# 6 0.000000 0.000000 0.000000 -0.012288 0.000000 0.041937
#
#
# Mechanical properties :
#
#
# Convention : Reuss Voigt Hill
#
# Bulk Modulus (GPa) = 37.75361 59.98384 48.86873
# Shear Modulus (GPa) = 15.50917 21.07875 18.29396
#
# Velocity S-wave (km/s) = 3.18094 3.70837 3.45473
# Velocity P-wave (km/s) = 6.17430 7.58091 6.91347
#
# Compressibility (1/GPa) = 0.02648753
#
# Stress axis : x y z
#
# Youngs Moduli (GPa) = 46.52420 28.97123 27.52028
#
# Poissons Ratio (x) = 0.29291 0.38338
# Poissons Ratio (y) = 0.47038 0.24463
# Poissons Ratio (z) = 0.64812 0.25752
#
# Static dielectric constant tensor:
#      x y z
#    x 1.552690 0.000000 0.047080 
#    y 0.000000 1.510590 0.000000 
#    z 0.047080 0.000000 1.487140 
# 
# From -- ./inp_files/79849.got.cif
#   From: 2010.05.17/outbox.cif.g08.bks.cpg/sg10_40_cif.got.tgz:79849.got - 2010.06.03 11:33:40.
