data_PCOD9142744
_publ_section_title
;
Structure prediction by ZEFSAII (Michael W. Deem and Ramdas Pophale) SiO2 
 PCOD9142744
Probable space group: P 2/M
;
_chemical_formula_sum "Si O2"
_cell_formula_units_Z 28
_cell_length_a 14.654084
_cell_length_b 10.757261
_cell_length_c 20.365287
_cell_angle_alpha 90.000000
_cell_angle_beta 155.404394
_cell_angle_gamma 90.000000
_cell_volume 1336.178674
_symmetry_space_group_name_H-M "P 2/M"
_symmetry_group_IT_number 10
_symmetry_cell_setting 'monoclinic'
loop_
_space_group_symop_operation_xyz
x,y,z
-x,y,-z
-x,-y,-z
x,-y,z
loop_
_atom_site_type_symbol
_atom_site_label
_atom_site_fract_x
_atom_site_fract_y
_atom_site_fract_z
Si Si1 0.741119 0.639678 0.586977
Si Si2 0.665132 0.866292 0.023372
Si Si3 0.726347 0.648875 0.776779
Si Si4 0.457849 0.639135 0.204804
Si Si5 0.051340 0.748459 0.891744
Si Si6 0.219425 0.780337 0.676948
Si Si7 0.141035 0.643822 0.759062
O O1 0.770871 0.500000 0.632881
O O2 0.487613 0.658942 0.408719
O O3 0.858753 0.729334 0.713913
O O4 0.887885 0.647923 0.617257
O O5 0.803760 0.857057 0.045723
O O6 0.732840 0.747271 0.113006
O O7 0.714522 0.000000 0.087375
O O8 0.409746 0.860328 0.836538
O O9 0.785874 0.500000 0.818593
O O10 0.634847 0.689860 0.787413
O O11 0.921623 0.730777 0.874956
O O12 0.531977 0.500000 0.265508
O O13 0.648005 0.713708 0.294639
O O14 0.240727 0.642809 0.016928
O O15 0.000000 0.835010 0.500000
O O16 0.157247 0.683346 0.694005
O O17 0.216226 0.500000 0.818145
#
# Coordination Sequence:
#
# PCOD9142744 Si02
#       7
#     4   4   4   4   4   4   4
#     4   9  17  29  48  79 115 147 184 231 282 339
#     4  10  24  44  63  85 116 157 205 251 300 361
#     4  10  18  29  50  81 117 155 191 232 287 347
#     4  10  20  32  48  77 118 156 189 229 285 353
#     4  10  19  32  53  75 103 142 194 242 283 332
#     4  11  23  37  58  88 122 157 197 247 303 356
#     4  10  21  38  62  92 125 160 198 243 297 355
#
# _framework density 20.955282
#
# number of rings (size 3 to 8) (size 9 to 14) (size 15 to 20)
#    0.000    2.000    0.000    3.857    0.000   11.143 
#    0.000    0.000    0.000   13.714    0.000    0.000 
#    0.000    0.000    0.000    0.000    0.000    0.000 
#
# Total GULP energy -155969.193028 kJ/mol
# GULP energy per Si atom -5570.328322 kJ/mol
# Density = 2.090759 g / cm^3
# Si number density = 20.955282 Si / 1000 Ang^3
#
#
#
# Elastic Constant Matrix: (Units=GPa)
#
#
# Indices 1 2 3 4 5 6 
#
# 1 135.3570 29.1458 13.8430 0.0000 10.5958 0.0000
# 2 29.1458 86.1486 23.1977 0.0000 3.3971 0.0000
# 3 13.8430 23.1977 116.5992 0.0000 14.7081 0.0000
# 4 0.0000 0.0000 0.0000 3.9232 0.0000 -3.8355
# 5 10.5958 3.3971 14.7081 0.0000 31.1591 0.0000
# 6 0.0000 0.0000 0.0000 -3.8355 0.0000 4.1089
#
#
#
# Elastic Compliance Matrix: (Units=1/GPa)
#
#
# Indices 1 2 3 4 5 6 
#
# 1 0.008157 -0.002626 -0.000140 0.000000 -0.002421 0.000000
# 2 -0.002626 0.013112 -0.002370 0.000000 0.000582 0.000000
# 3 -0.000140 -0.002370 0.009597 0.000000 -0.004224 0.000000
# 4 0.000000 0.000000 0.000000 2.917326 0.000000 2.723255
# 5 -0.002421 0.000582 -0.004224 0.000000 0.034847 0.000000
# 6 0.000000 0.000000 0.000000 2.723255 0.000000 2.785470
#
#
# Mechanical properties :
#
#
# Convention : Reuss Voigt Hill
#
# Bulk Modulus (GPa) = 48.56238 52.27529 50.41883
# Shear Modulus (GPa) = 0.86421 25.96613 13.41517
#
# Velocity S-wave (km/s) = 0.64288 3.52393 2.53292
# Velocity P-wave (km/s) = 4.87603 6.44653 5.71548
#
# Compressibility (1/GPa) = 0.02059207
#
# Stress axis : x y z
#
# Youngs Moduli (GPa) = 122.58923 76.26768 104.19404
#
# Poissons Ratio (x) = 0.20031 0.01464
# Poissons Ratio (y) = 0.32198 0.24697
# Poissons Ratio (z) = 0.01722 0.18077
#
# Static dielectric constant tensor:
#      x y z
#    x 1.842000 0.000000 -0.039030 
#    y 0.000000 1.750670 0.000000 
#    z -0.039030 0.000000 1.790530 
# 
# From -- ./inp_files/90159.got.cif
#   From: 2010.05.17/outbox.cif.g08.bks.cpg/sg10_46_cif.got.tgz:90159.got - 2010.06.03 11:33:40.
