data_PCOD9142359
_publ_section_title
;
Structure prediction by ZEFSAII (Michael W. Deem and Ramdas Pophale) SiO2 
 PCOD9142359
Probable space group: P 2/M
;
_chemical_formula_sum "Si O2"
_cell_formula_units_Z 32
_cell_length_a 14.684430
_cell_length_b 7.471783
_cell_length_c 23.720915
_cell_angle_alpha 90.000000
_cell_angle_beta 37.250709
_cell_angle_gamma 90.000000
_cell_volume 1575.383196
_symmetry_space_group_name_H-M "P 2/M"
_symmetry_group_IT_number 10
_symmetry_cell_setting 'monoclinic'
loop_
_space_group_symop_operation_xyz
x,y,z
-x,y,-z
-x,-y,-z
x,-y,z
loop_
_atom_site_type_symbol
_atom_site_label
_atom_site_fract_x
_atom_site_fract_y
_atom_site_fract_z
Si Si1 0.361742 0.716449 0.704831
Si Si2 0.943468 0.713583 0.316178
Si Si3 0.581270 0.203121 0.199371
Si Si4 0.994761 0.213558 0.590530
Si Si5 0.956313 0.284614 0.186712
Si Si6 0.114547 0.788985 0.991447
Si Si7 0.753944 0.781137 0.615524
Si Si8 0.605358 0.718178 0.500281
O O1 0.362390 0.500000 0.709317
O O2 0.347870 0.796823 0.773109
O O3 0.218371 0.764673 0.737573
O O4 0.516818 0.774910 0.599657
O O5 0.931271 0.500000 0.316166
O O6 0.028846 0.744904 0.332490
O O7 0.002283 0.779379 0.226555
O O8 0.774224 0.783630 0.410028
O O9 0.715815 0.286583 0.096539
O O10 0.415443 0.284314 0.290335
O O11 0.555001 0.000000 0.191851
O O12 0.154201 0.279207 0.485616
O O13 0.861431 0.271938 0.614660
O O14 0.999007 0.000000 0.583515
O O15 0.963844 0.500000 0.182319
O O16 0.047599 0.226243 0.086844
O O17 0.130095 0.000000 0.971010
O O18 0.000000 0.715309 0.000000
O O19 0.746907 0.000000 0.616371
O O20 0.500000 0.769708 0.500000
O O21 0.609297 0.500000 0.498701
#
# Coordination Sequence:
#
# PCOD9142359 Si02
#       8
#     4   4   4   4   4   4   4   4
#     4  10  18  28  45  69  94 125 161 192 225 275
#     4  10  19  31  48  71  98 130 163 195 235 282
#     4  10  19  32  50  69  94 125 155 195 244 286
#     4   9  17  32  53  75  98 125 158 194 237 288
#     4  10  20  32  47  67  95 131 165 193 230 284
#     4  10  20  33  48  69  95 124 161 204 245 277
#     4   8  16  32  53  74  97 126 158 193 237 291
#     4   9  15  26  43  63  92 127 158 185 217 269
#
# _framework density 20.312518000000001
#
# number of rings (size 3 to 8) (size 9 to 14) (size 15 to 20)
#    0.000    2.500    2.500    1.500    0.000    1.250 
#    0.000    1.875    0.000    1.500    0.000    5.250 
#    0.000    0.000    0.000    0.000    0.000    0.000 
#
# Total GULP energy -178487.543695 kJ/mol
# GULP energy per Si atom -5577.735740 kJ/mol
# Density = 2.026629 g / cm^3
# Si number density = 20.312518 Si / 1000 Ang^3
#
#
#
# Elastic Constant Matrix: (Units=GPa)
#
#
# Indices 1 2 3 4 5 6 
#
# 1 76.3512 0.3298 50.3107 0.0000 12.6007 0.0000
# 2 0.3298 56.6675 5.6284 0.0000 -4.9034 0.0000
# 3 50.3107 5.6284 143.8610 0.0000 11.6521 0.0000
# 4 0.0000 0.0000 0.0000 7.7326 0.0000 7.3450
# 5 12.6007 -4.9034 11.6521 0.0000 34.8072 0.0000
# 6 0.0000 0.0000 0.0000 7.3450 0.0000 12.3573
#
#
#
# Elastic Compliance Matrix: (Units=1/GPa)
#
#
# Indices 1 2 3 4 5 6 
#
# 1 0.017665 0.000092 -0.005822 0.000000 -0.004433 0.000000
# 2 0.000092 0.017986 -0.000965 0.000000 0.002823 0.000000
# 3 -0.005822 -0.000965 0.009112 0.000000 -0.001079 0.000000
# 4 0.000000 0.000000 0.000000 0.297021 0.000000 -0.176545
# 5 -0.004433 0.002823 -0.001079 0.000000 0.031093 0.000000
# 6 0.000000 0.000000 0.000000 -0.176545 0.000000 0.185859
#
#
# Mechanical properties :
#
#
# Convention : Reuss Voigt Hill
#
# Bulk Modulus (GPa) = 31.87352 43.26860 37.57106
# Shear Modulus (GPa) = 8.58243 25.68681 17.13462
#
# Velocity S-wave (km/s) = 2.05776 3.55995 2.90754
# Velocity P-wave (km/s) = 4.62293 6.18428 5.45971
#
# Compressibility (1/GPa) = 0.03137401
#
# Stress axis : x y z
#
# Youngs Moduli (GPa) = 56.60868 55.59762 109.74032
#
# Poissons Ratio (x) = -0.00511 0.63895
# Poissons Ratio (y) = -0.00520 0.10585
# Poissons Ratio (z) = 0.32959 0.05362
#
# Static dielectric constant tensor:
#      x y z
#    x 1.722450 0.000000 0.000640 
#    y 0.000000 1.776440 0.000000 
#    z 0.000640 0.000000 1.748940 
# 
# From -- ./inp_files/70007.got.cif
#   From: 2010.05.17/outbox.cif.g08.bks.cpg/sg10_36_cif.got.tgz:70007.got - 2010.06.03 11:33:40.
