data_PCOD9142723
_publ_section_title
;
Structure prediction by ZEFSAII (Michael W. Deem and Ramdas Pophale) SiO2 
 PCOD9142723
Probable space group: P 2/M
;
_chemical_formula_sum "Si O2"
_cell_formula_units_Z 32
_cell_length_a 23.575569
_cell_length_b 7.607242
_cell_length_c 17.726655
_cell_angle_alpha 90.000000
_cell_angle_beta 151.306877
_cell_angle_gamma 90.000000
_cell_volume 1526.386053
_symmetry_space_group_name_H-M "P 2/M"
_symmetry_group_IT_number 10
_symmetry_cell_setting 'monoclinic'
loop_
_space_group_symop_operation_xyz
x,y,z
-x,y,-z
-x,-y,-z
x,-y,z
loop_
_atom_site_type_symbol
_atom_site_label
_atom_site_fract_x
_atom_site_fract_y
_atom_site_fract_z
Si Si1 0.743090 0.289863 0.921957
Si Si2 0.115735 0.215303 0.232238
Si Si3 0.555704 0.712743 0.823152
Si Si4 0.150211 0.209922 0.105217
Si Si5 0.197584 0.294285 0.603752
Si Si6 0.252679 0.286084 0.833158
Si Si7 0.061974 0.286038 0.734862
Si Si8 0.295569 0.794723 0.565935
O O1 0.743577 0.500000 0.930658
O O2 0.628141 0.227281 0.833626
O O3 0.754883 0.251433 0.847772
O O4 0.859683 0.223243 0.102864
O O5 0.168245 0.270571 0.212129
O O6 0.193466 0.279786 0.392465
O O7 0.117025 0.000000 0.235933
O O8 0.979298 0.273469 0.073109
O O9 0.554357 0.500000 0.821435
O O10 0.422096 0.772306 0.675027
O O11 0.633845 0.771772 0.986277
O O12 0.141470 0.000000 0.099385
O O13 0.175324 0.500000 0.592660
O O14 0.241408 0.220713 0.734676
O O15 0.288765 0.282329 0.641641
O O16 0.071559 0.220685 0.428323
O O17 0.258965 0.500000 0.839710
O O18 0.137247 0.241428 0.747995
O O19 0.058839 0.500000 0.736348
O O20 0.272299 0.000000 0.548223
#
# Coordination Sequence:
#
# PCOD9142723 Si02
#       8
#     4   4   4   4   4   4   4   4
#     4   9  17  30  49  74 101 124 151 194 242 280
#     4   8  17  33  51  72  98 127 155 188 230 279
#     4   9  19  36  52  66  92 130 166 197 231 274
#     4   9  16  31  55  76  95 122 156 188 227 286
#     4  10  18  29  50  76  97 121 157 197 238 284
#     4   8  15  29  50  73  95 123 160 198 231 272
#     4   8  14  26  47  75 102 124 150 189 236 285
#     4  11  22  35  49  67  95 127 161 199 237 276
#
# _framework density 20.964552999999999
#
# number of rings (size 3 to 8) (size 9 to 14) (size 15 to 20)
#    0.000    3.000    0.000    3.750    0.000    2.500 
#    0.000    6.875    0.000    6.750    0.000    0.000 
#    0.000    0.000    0.000    0.000    0.000    0.000 
#
# Total GULP energy -178497.367427 kJ/mol
# GULP energy per Si atom -5578.042732 kJ/mol
# Density = 2.091684 g / cm^3
# Si number density = 20.964553 Si / 1000 Ang^3
#
#
#
# Elastic Constant Matrix: (Units=GPa)
#
#
# Indices 1 2 3 4 5 6 
#
# 1 99.7813 -9.6251 13.0512 0.0000 -19.5173 0.0000
# 2 -9.6251 39.5822 -0.6011 0.0000 -2.7090 0.0000
# 3 13.0512 -0.6011 21.7517 0.0000 1.5693 0.0000
# 4 0.0000 0.0000 0.0000 7.2443 0.0000 1.0692
# 5 -19.5173 -2.7090 1.5693 0.0000 20.8835 0.0000
# 6 0.0000 0.0000 0.0000 1.0692 0.0000 25.2030
#
#
#
# Elastic Compliance Matrix: (Units=1/GPa)
#
#
# Indices 1 2 3 4 5 6 
#
# 1 0.014664 0.004445 -0.009759 0.000000 0.015015 0.000000
# 2 0.004445 0.026842 -0.002490 0.000000 0.007824 0.000000
# 3 -0.009759 -0.002490 0.052727 0.000000 -0.013406 0.000000
# 4 0.000000 0.000000 0.000000 0.138910 0.000000 -0.005893
# 5 0.015015 0.007824 -0.013406 0.000000 0.063939 0.000000
# 6 0.000000 0.000000 0.000000 -0.005893 0.000000 0.039928
#
#
# Mechanical properties :
#
#
# Convention : Reuss Voigt Hill
#
# Bulk Modulus (GPa) = 12.71832 18.52945 15.62388
# Shear Modulus (GPa) = 13.19863 21.21882 17.20873
#
# Velocity S-wave (km/s) = 2.51184 3.18485 2.86815
# Velocity P-wave (km/s) = 3.80687 4.73096 4.29385
#
# Compressibility (1/GPa) = 0.07862673
#
# Stress axis : x y z
#
# Youngs Moduli (GPa) = 68.19401 37.25437 18.96554
#
# Poissons Ratio (x) = -0.16561 0.18508
# Poissons Ratio (y) = -0.30314 0.04722
# Poissons Ratio (z) = 0.66550 0.09276
#
# Static dielectric constant tensor:
#      x y z
#    x 1.751850 0.000000 -0.017700 
#    y 0.000000 1.813200 0.000000 
#    z -0.017700 0.000000 1.739500 
# 
# From -- ./inp_files/79993.got.cif
#   From: 2010.05.17/outbox.cif.g08.bks.cpg/sg10_40_cif.got.tgz:79993.got - 2010.06.03 11:33:40.
