data_PCOD9142654
_publ_section_title
;
Structure prediction by ZEFSAII (Michael W. Deem and Ramdas Pophale) SiO2 
 PCOD9142654
Probable space group: P 2/M
;
_chemical_formula_sum "Si O2"
_cell_formula_units_Z 24
_cell_length_a 27.413311
_cell_length_b 12.257037
_cell_length_c 24.668206
_cell_angle_alpha 90.000000
_cell_angle_beta 170.210271
_cell_angle_gamma 90.000000
_cell_volume 1409.345229
_symmetry_space_group_name_H-M "P 2/M"
_symmetry_group_IT_number 10
_symmetry_cell_setting 'monoclinic'
loop_
_space_group_symop_operation_xyz
x,y,z
-x,y,-z
-x,-y,-z
x,-y,z
loop_
_atom_site_type_symbol
_atom_site_label
_atom_site_fract_x
_atom_site_fract_y
_atom_site_fract_z
Si Si1 0.839082 0.872177 0.238323
Si Si2 0.305992 0.132475 0.237402
Si Si3 0.115061 0.372032 0.422403
Si Si4 0.536757 0.241185 0.808857
Si Si5 0.584462 0.258758 0.150783
Si Si6 0.351629 0.868139 0.494289
O O1 0.157917 0.827163 0.577248
O O2 0.839242 0.000000 0.250292
O O3 0.657793 0.845669 0.985230
O O4 0.680747 0.803775 0.111835
O O5 0.500000 0.171169 0.500000
O O6 0.441332 0.165026 0.328175
O O7 0.313596 0.000000 0.247211
O O8 0.973937 0.163668 0.877062
O O9 0.111403 0.500000 0.407620
O O10 0.276406 0.305012 0.552101
O O11 0.293778 0.345432 0.672948
O O12 0.798162 0.323981 0.084026
O O13 0.443426 0.183763 0.651448
O O14 0.500000 0.305575 0.000000
O O15 0.361684 0.000000 0.510122
#
# Coordination Sequence:
#
# PCOD9142654 Si02
#       6
#     4   4   4   4   4   4
#     4  10  20  33  49  70 101 133 157 193 237 280
#     4   9  17  28  43  68 104 142 171 192 221 266
#     4  10  21  37  54  70  94 123 154 208 261 290
#     4  10  20  34  51  74  98 123 165 201 238 296
#     4  10  21  34  50  73  95 123 164 198 235 295
#     4  10  18  29  48  72 103 138 164 193 231 277
#
# _framework density 17.029184999999998
#
# number of rings (size 3 to 8) (size 9 to 14) (size 15 to 20)
#    0.000    2.167    0.000    3.500    0.000    4.333 
#    0.000    5.000    0.000    6.000    0.000    0.000 
#    0.000   46.667    0.000    0.000    0.000    0.000 
#
# Total GULP energy -133961.187831 kJ/mol
# GULP energy per Si atom -5581.716160 kJ/mol
# Density = 1.699043 g / cm^3
# Si number density = 17.029185 Si / 1000 Ang^3
#
#
#
# Elastic Constant Matrix: (Units=GPa)
#
#
# Indices 1 2 3 4 5 6 
#
# 1 60.7805 0.2684 -6.0633 0.0000 -2.2237 0.0000
# 2 0.2684 28.7613 -5.3161 0.0000 -1.3964 0.0000
# 3 -6.0633 -5.3161 23.8796 0.0000 8.0882 0.0000
# 4 0.0000 0.0000 0.0000 6.5716 0.0000 2.4831
# 5 -2.2237 -1.3964 8.0882 0.0000 39.6053 0.0000
# 6 0.0000 0.0000 0.0000 2.4831 0.0000 4.6990
#
#
#
# Elastic Compliance Matrix: (Units=1/GPa)
#
#
# Indices 1 2 3 4 5 6 
#
# 1 0.016892 0.000661 0.004412 0.000000 0.000071 0.000000
# 2 0.000661 0.036293 0.008381 0.000000 -0.000395 0.000000
# 3 0.004412 0.008381 0.047999 0.000000 -0.009259 0.000000
# 4 0.000000 0.000000 0.000000 0.190134 0.000000 -0.100473
# 5 0.000071 -0.000395 -0.009259 0.000000 0.027130 0.000000
# 6 0.000000 0.000000 0.000000 -0.100473 0.000000 0.265904
#
#
# Mechanical properties :
#
#
# Convention : Reuss Voigt Hill
#
# Bulk Modulus (GPa) = 7.80675 10.13327 8.97001
# Shear Modulus (GPa) = 8.33138 18.47734 13.40436
#
# Velocity S-wave (km/s) = 2.21428 3.29757 2.80865
# Velocity P-wave (km/s) = 3.33642 4.52350 3.97453
#
# Compressibility (1/GPa) = 0.12809435
#
# Stress axis : x y z
#
# Youngs Moduli (GPa) = 59.19789 27.55376 20.83373
#
# Poissons Ratio (x) = -0.01822 -0.09193
# Poissons Ratio (y) = -0.03915 -0.17461
# Poissons Ratio (z) = -0.26121 -0.23093
#
# Static dielectric constant tensor:
#      x y z
#    x 1.574020 0.000000 -0.003260 
#    y 0.000000 1.523890 0.000000 
#    z -0.003260 0.000000 1.575530 
# 
# From -- ./inp_files/7212.got.cif
#   From: 2010.05.17/outbox.cif.g08.bks.cpg/sg10_4_cif.got.tgz:7212.got - 2010.06.03 11:33:40.
