data_PCOD9142858
_publ_section_title
;
Structure prediction by ZEFSAII (Michael W. Deem and Ramdas Pophale) SiO2 
 PCOD9142858
Probable space group: P 2/M
;
_chemical_formula_sum "Si O2"
_cell_formula_units_Z 32
_cell_length_a 15.923865
_cell_length_b 8.855387
_cell_length_c 14.718682
_cell_angle_alpha 90.000000
_cell_angle_beta 88.436878
_cell_angle_gamma 90.000000
_cell_volume 2074.738257
_symmetry_space_group_name_H-M "P 2/M"
_symmetry_group_IT_number 10
_symmetry_cell_setting 'monoclinic'
loop_
_space_group_symop_operation_xyz
x,y,z
-x,y,-z
-x,-y,-z
x,-y,z
loop_
_atom_site_type_symbol
_atom_site_label
_atom_site_fract_x
_atom_site_fract_y
_atom_site_fract_z
Si Si1 0.991208 0.826132 0.110126
Si Si2 0.400687 0.317454 0.606641
Si Si3 0.340447 0.819204 0.790816
Si Si4 0.597160 0.316969 0.597111
Si Si5 0.332362 0.682837 0.215475
Si Si6 0.166512 0.318223 0.114182
Si Si7 0.490401 0.818043 0.105767
Si Si8 0.816143 0.319653 0.098659
O O1 0.905912 0.737014 0.133235
O O2 0.077263 0.753234 0.142808
O O3 0.983682 0.000000 0.138187
O O4 0.000000 0.821528 0.000000
O O5 0.395174 0.500000 0.612795
O O6 0.348737 0.243849 0.688846
O O7 0.499358 0.275496 0.614802
O O8 0.376488 0.269449 0.504925
O O9 0.425689 0.774480 0.841825
O O10 0.260483 0.753730 0.845453
O O11 0.336100 0.000000 0.790018
O O12 0.598607 0.500000 0.595806
O O13 0.651561 0.266409 0.681289
O O14 0.335064 0.500000 0.213504
O O15 0.243585 0.729716 0.175448
O O16 0.408981 0.743912 0.152997
O O17 0.158757 0.500000 0.117624
O O18 0.187073 0.277630 0.008543
O O19 0.482044 0.000000 0.110624
O O20 0.500000 0.775322 0.000000
O O21 0.811407 0.500000 0.104777
#
# Coordination Sequence:
#
# PCOD9142858 Si02
#       8
#     4   4   4   4   4   4   4   4
#     4   9  17  30  48  68  91 121 154 189 229 271
#     4   9  16  30  49  66  87 118 155 193 235 275
#     4  11  21  31  44  66  93 122 157 194 231 273
#     4   8  15  28  48  69  88 115 153 196 234 271
#     4  10  18  30  48  69  91 119 157 194 226 266
#     4   9  18  30  46  70  96 121 153 192 229 268
#     4  10  21  33  42  58  91 130 160 187 223 268
#     4  10  19  31  47  67  93 124 156 191 229 270
#
# _framework density 15.423633000000001
#
# number of rings (size 3 to 8) (size 9 to 14) (size 15 to 20)
#    0.000    2.500    1.250    2.625    0.000    3.250 
#    0.000    1.875    0.000    0.000    0.000    0.875 
#    0.000    7.000    0.000    0.000    0.000    0.000 
#
# Total GULP energy -178396.008983 kJ/mol
# GULP energy per Si atom -5574.875281 kJ/mol
# Density = 1.538853 g / cm^3
# Si number density = 15.423633 Si / 1000 Ang^3
#
#
#
# Elastic Constant Matrix: (Units=GPa)
#
#
# Indices 1 2 3 4 5 6 
#
# 1 119.6644 32.9004 60.1704 0.0000 21.2079 0.0000
# 2 32.9004 25.5352 25.6732 0.0000 4.0058 0.0000
# 3 60.1704 25.6732 104.0611 0.0000 16.9087 0.0000
# 4 0.0000 0.0000 0.0000 10.4766 0.0000 2.9577
# 5 21.2079 4.0058 16.9087 0.0000 11.8319 0.0000
# 6 0.0000 0.0000 0.0000 2.9577 0.0000 16.6944
#
#
#
# Elastic Compliance Matrix: (Units=1/GPa)
#
#
# Indices 1 2 3 4 5 6 
#
# 1 0.018828 -0.017911 -0.002565 0.000000 -0.024017 0.000000
# 2 -0.017911 0.069128 -0.010565 0.000000 0.023799 0.000000
# 3 -0.002565 -0.010565 0.016113 0.000000 -0.014852 0.000000
# 4 0.000000 0.000000 0.000000 0.100476 0.000000 -0.017801
# 5 -0.024017 0.023799 -0.014852 0.000000 0.140733 0.000000
# 6 0.000000 0.000000 0.000000 -0.017801 0.000000 0.063054
#
#
# Mechanical properties :
#
#
# Convention : Reuss Voigt Hill
#
# Bulk Modulus (GPa) = 23.81796 54.08319 38.95057
# Shear Modulus (GPa) = 10.32188 16.50172 13.41180
#
# Velocity S-wave (km/s) = 2.58974 3.27448 2.95203
# Velocity P-wave (km/s) = 4.94150 7.03118 6.07684
#
# Compressibility (1/GPa) = 0.04198513
#
# Stress axis : x y z
#
# Youngs Moduli (GPa) = 53.11373 14.46600 62.06334
#
# Poissons Ratio (x) = 0.25911 0.15919
# Poissons Ratio (y) = 0.95134 0.65569
# Poissons Ratio (z) = 0.13624 0.15283
#
# Static dielectric constant tensor:
#      x y z
#    x 1.492280 0.000000 0.018720 
#    y 0.000000 1.514520 0.000000 
#    z 0.018720 0.000000 1.512400 
# 
# From -- ./inp_files/65985.got.cif
#   From: 2010.05.17/outbox.cif.g08.bks.cpg/sg10_33_cif.got.tgz:65985.got - 2010.06.03 11:33:40.
