data_PCOD9142721
_publ_section_title
;
Structure prediction by ZEFSAII (Michael W. Deem and Ramdas Pophale) SiO2 
 PCOD9142721
Probable space group: P 2/M
;
_chemical_formula_sum "Si O2"
_cell_formula_units_Z 32
_cell_length_a 17.907314
_cell_length_b 9.136744
_cell_length_c 24.225265
_cell_angle_alpha 90.000000
_cell_angle_beta 31.211703
_cell_angle_gamma 90.000000
_cell_volume 2053.947248
_symmetry_space_group_name_H-M "P 2/M"
_symmetry_group_IT_number 10
_symmetry_cell_setting 'monoclinic'
loop_
_space_group_symop_operation_xyz
x,y,z
-x,y,-z
-x,-y,-z
x,-y,z
loop_
_atom_site_type_symbol
_atom_site_label
_atom_site_fract_x
_atom_site_fract_y
_atom_site_fract_z
Si Si1 0.393992 0.175651 0.302498
Si Si2 0.935485 0.178217 0.481946
Si Si3 0.666266 0.674233 0.180929
Si Si4 0.826148 0.176002 0.757026
Si Si5 0.238984 0.324607 0.087704
Si Si6 0.121858 0.168713 0.874731
Si Si7 0.094222 0.325570 0.064263
Si Si8 0.538296 0.174270 0.868950
O O1 0.230579 0.222420 0.418679
O O2 0.513500 0.254956 0.263445
O O3 0.425810 0.205401 0.217716
O O4 0.404805 0.000000 0.303101
O O5 0.000000 0.227101 0.500000
O O6 0.040683 0.221868 0.365917
O O7 0.936640 0.000000 0.482654
O O8 0.655870 0.500000 0.193112
O O9 0.743935 0.743753 0.184952
O O10 0.772404 0.705523 0.061668
O O11 0.822134 0.255469 0.817918
O O12 0.678062 0.206952 0.817612
O O13 0.832955 0.000000 0.760386
O O14 0.244425 0.500000 0.087892
O O15 0.143553 0.285109 0.094418
O O16 0.398986 0.262147 0.976358
O O17 0.044487 0.242347 0.871476
O O18 0.158418 0.000000 0.841432
O O19 0.000000 0.173043 0.000000
O O20 0.068727 0.500000 0.077822
O O21 0.509269 0.000000 0.892148
#
# Coordination Sequence:
#
# PCOD9142721 Si02
#       8
#     4   4   4   4   4   4   4   4
#     4  10  18  29  50  75  96 124 163 207 247 286
#     4   9  16  31  53  73  93 122 163 210 255 291
#     4  10  18  30  46  67  99 133 161 191 235 292
#     4  10  20  34  51  71  94 126 169 210 248 289
#     4  11  22  34  47  68 100 135 167 198 239 291
#     4   9  17  28  45  70  96 123 157 197 237 281
#     4   9  18  31  45  64  94 132 163 189 233 290
#     4  10  19  31  49  71  96 126 165 207 245 287
#
# _framework density 15.579758
#
# number of rings (size 3 to 8) (size 9 to 14) (size 15 to 20)
#    0.000    2.250    2.500    1.500    0.000    5.000 
#    0.000    0.625    0.000    0.750    0.000    0.875 
#    0.000    7.000    0.000    0.000    0.000    0.000 
#
# Total GULP energy -178486.411567 kJ/mol
# GULP energy per Si atom -5577.700361 kJ/mol
# Density = 1.554430 g / cm^3
# Si number density = 15.579758 Si / 1000 Ang^3
#
#
#
# Elastic Constant Matrix: (Units=GPa)
#
#
# Indices 1 2 3 4 5 6 
#
# 1 138.9672 62.5217 89.2161 0.0000 -20.0185 0.0000
# 2 62.5217 41.6457 49.3593 0.0000 -7.5305 0.0000
# 3 89.2161 49.3593 105.3267 0.0000 -2.1438 0.0000
# 4 0.0000 0.0000 0.0000 -3.1186 0.0000 3.2121
# 5 -20.0185 -7.5305 -2.1438 0.0000 21.4991 0.0000
# 6 0.0000 0.0000 0.0000 3.2121 0.0000 25.9354
#
#
#
# Elastic Compliance Matrix: (Units=1/GPa)
#
#
# Indices 1 2 3 4 5 6 
#
# 1 0.029393 -0.026986 -0.011910 0.000000 0.016729 0.000000
# 2 -0.026986 0.085274 -0.017042 0.000000 0.003042 0.000000
# 3 -0.011910 -0.017042 0.027277 0.000000 -0.014339 0.000000
# 4 0.000000 0.000000 0.000000 -0.284381 0.000000 0.035221
# 5 0.016729 0.003042 -0.014339 0.000000 0.061726 0.000000
# 6 0.000000 0.000000 0.000000 0.035221 0.000000 0.034195
#
#
# Mechanical properties :
#
#
# Convention : Reuss Voigt Hill
#
# Bulk Modulus (GPa) = 33.25772 76.45931 54.85851
# Shear Modulus (GPa) = 66.32744 14.51936 40.42340
#
# Velocity S-wave (km/s) = 6.53186 3.05608 5.09926
# Velocity P-wave (km/s) = 8.84760 7.85082 8.36407
#
# Compressibility (1/GPa) = 0.03006821
#
# Stress axis : x y z
#
# Youngs Moduli (GPa) = 34.02153 11.72689 36.66071
#
# Poissons Ratio (x) = 0.31646 0.43664
# Poissons Ratio (y) = 0.91811 0.62476
# Poissons Ratio (z) = 0.40520 0.19985
#
# Static dielectric constant tensor:
#      x y z
#    x 1.508250 0.000000 -0.001600 
#    y 0.000000 1.517290 0.000000 
#    z -0.001600 0.000000 1.497460 
# 
# From -- ./inp_files/54869.got.cif
#   From: 2010.05.17/outbox.cif.g08.bks.cpg/sg10_28_cif.got.tgz:54869.got - 2010.06.03 11:33:40.
