data_PCOD9142857
_publ_section_title
;
Structure prediction by ZEFSAII (Michael W. Deem and Ramdas Pophale) SiO2 
 PCOD9142857
Probable space group: P 2/M
;
_chemical_formula_sum "Si O2"
_cell_formula_units_Z 32
_cell_length_a 13.371442
_cell_length_b 18.420840
_cell_length_c 18.799981
_cell_angle_alpha 90.000000
_cell_angle_beta 157.997138
_cell_angle_gamma 90.000000
_cell_volume 1734.898983
_symmetry_space_group_name_H-M "P 2/M"
_symmetry_group_IT_number 10
_symmetry_cell_setting 'monoclinic'
loop_
_space_group_symop_operation_xyz
x,y,z
-x,y,-z
-x,-y,-z
x,-y,z
loop_
_atom_site_type_symbol
_atom_site_label
_atom_site_fract_x
_atom_site_fract_y
_atom_site_fract_z
Si Si1 0.448281 0.829554 0.195647
Si Si2 0.903496 0.413775 0.776499
Si Si3 0.755535 0.324039 0.897110
Si Si4 0.067819 0.082133 0.129315
Si Si5 0.580879 0.343505 0.453987
Si Si6 0.415974 0.827336 0.548281
Si Si7 0.335530 0.083542 0.780944
Si Si8 0.917893 0.082628 0.237639
O O1 0.323344 0.749003 0.113388
O O2 0.549238 0.835737 0.343191
O O3 0.662350 0.856421 0.279305
O O4 0.201063 0.883397 0.018744
O O5 0.904082 0.500000 0.771972
O O6 0.848169 0.377684 0.663114
O O7 0.655805 0.385682 0.661346
O O8 0.150156 0.382664 0.983648
O O9 0.503085 0.349067 0.683592
O O10 0.000000 0.309577 0.000000
O O11 0.327830 0.130841 0.313222
O O12 0.110723 0.000000 0.181860
O O13 0.000000 0.080807 0.000000
O O14 0.575553 0.257350 0.465545
O O15 0.133706 0.863959 0.346531
O O16 0.130324 0.096217 0.710088
O O17 0.301860 0.000000 0.732330
O O18 0.626832 0.086830 0.010543
O O19 0.017229 0.000000 0.296126
#
# Coordination Sequence:
#
# PCOD9142857 Si02
#       8
#     4   4   4   4   4   4   4   4
#     4  10  18  30  48  68  95 129 166 202 251 299
#     4  10  19  31  50  72  98 139 171 192 237 299
#     4   9  18  31  46  70 102 133 165 200 241 293
#     4   9  16  26  41  63  92 124 159 199 242 290
#     4   9  18  30  44  69 100 127 164 203 238 282
#     4  10  19  31  47  69  96 130 163 205 251 294
#     4   9  19  34  50  67  92 128 169 217 263 298
#     4   9  19  35  49  66  94 128 169 216 263 297
#
# _framework density 18.444877999999999
#
# number of rings (size 3 to 8) (size 9 to 14) (size 15 to 20)
#    0.000    2.625    0.000    4.875    1.750    4.750 
#    0.000    1.250    0.000    2.250    0.000    0.000 
#    0.000    3.000    0.000   20.500    0.000    0.000 
#
# Total GULP energy -178443.006044 kJ/mol
# GULP energy per Si atom -5576.343939 kJ/mol
# Density = 1.840290 g / cm^3
# Si number density = 18.444878 Si / 1000 Ang^3
#
#
#
# Elastic Constant Matrix: (Units=GPa)
#
#
# Indices 1 2 3 4 5 6 
#
# 1 79.1440 39.2011 14.9960 0.0000 -11.1251 0.0000
# 2 39.2011 129.3851 51.4656 0.0000 -11.4818 0.0000
# 3 14.9960 51.4656 75.7124 0.0000 -9.0717 0.0000
# 4 0.0000 0.0000 0.0000 118.1400 0.0000 45.0338
# 5 -11.1251 -11.4818 -9.0717 0.0000 22.8701 0.0000
# 6 0.0000 0.0000 0.0000 45.0338 0.0000 51.0684
#
#
#
# Elastic Compliance Matrix: (Units=1/GPa)
#
#
# Indices 1 2 3 4 5 6 
#
# 1 0.015503 -0.004451 0.000620 0.000000 0.005553 0.000000
# 2 -0.004451 0.012019 -0.007165 0.000000 0.001027 0.000000
# 3 0.000620 -0.007165 0.018437 0.000000 0.004018 0.000000
# 4 0.000000 0.000000 0.000000 0.012751 0.000000 -0.011244
# 5 0.005553 0.001027 0.004018 0.000000 0.048535 0.000000
# 6 0.000000 0.000000 0.000000 -0.011244 0.000000 0.029497
#
#
# Mechanical properties :
#
#
# Convention : Reuss Voigt Hill
#
# Bulk Modulus (GPa) = 41.72440 55.06299 48.39369
# Shear Modulus (GPa) = 29.99011 50.32094 40.15553
#
# Velocity S-wave (km/s) = 4.03666 5.22886 4.67096
# Velocity P-wave (km/s) = 6.66306 8.14692 7.44206
#
# Compressibility (1/GPa) = 0.02396679
#
# Stress axis : x y z
#
# Youngs Moduli (GPa) = 64.50420 83.20439 54.23917
#
# Poissons Ratio (x) = 0.37035 -0.03365
# Poissons Ratio (y) = 0.28711 0.38863
# Poissons Ratio (z) = -0.04001 0.59616
#
# Static dielectric constant tensor:
#      x y z
#    x 1.700470 0.000000 -0.046640 
#    y 0.000000 1.612110 0.000000 
#    z -0.046640 0.000000 1.695550 
# 
# From -- ./inp_files/85499.got.cif
#   From: 2010.05.17/outbox.cif.g08.bks.cpg/sg10_43_cif.got.tgz:85499.got - 2010.06.03 11:33:40.
