data_PCOD9142395
_publ_section_title
;
Structure prediction by ZEFSAII (Michael W. Deem and Ramdas Pophale) SiO2 
 PCOD9142395
Probable space group: P 2/M
;
_chemical_formula_sum "Si O2"
_cell_formula_units_Z 28
_cell_length_a 9.446654
_cell_length_b 14.763864
_cell_length_c 19.251883
_cell_angle_alpha 90.000000
_cell_angle_beta 136.721097
_cell_angle_gamma 90.000000
_cell_volume 1840.732176
_symmetry_space_group_name_H-M "P 2/M"
_symmetry_group_IT_number 10
_symmetry_cell_setting 'monoclinic'
loop_
_space_group_symop_operation_xyz
x,y,z
-x,y,-z
-x,-y,-z
x,-y,z
loop_
_atom_site_type_symbol
_atom_site_label
_atom_site_fract_x
_atom_site_fract_y
_atom_site_fract_z
Si Si1 0.656776 0.108412 0.116911
Si Si2 0.873580 0.106379 0.558933
Si Si3 0.133902 0.600845 0.654455
Si Si4 0.507915 0.212395 0.351092
Si Si5 0.685151 0.600620 0.438508
Si Si6 0.700279 0.209753 0.271961
Si Si7 0.863847 0.894882 0.720501
O O1 0.616218 0.157428 0.175261
O O2 0.895289 0.127536 0.182663
O O3 0.643186 0.000000 0.122870
O O4 0.500000 0.133931 0.000000
O O5 0.692382 0.153614 0.451377
O O6 0.824486 0.112199 0.623641
O O7 0.090650 0.158494 0.627848
O O8 0.894397 0.000000 0.548769
O O9 0.174700 0.500000 0.697561
O O10 0.224036 0.601711 0.607814
O O11 0.233433 0.688251 0.724923
O O12 0.887412 0.613087 0.558661
O O13 0.534850 0.314466 0.389366
O O14 0.547911 0.212653 0.282908
O O15 0.292855 0.168559 0.295245
O O16 0.598677 0.500000 0.420284
O O17 0.830170 0.000000 0.728047
#
# Coordination Sequence:
#
# PCOD9142395 Si02
#       7
#     4   4   4   4   4   4   4
#     4   9  19  37  54  64  83 118 154 188 231 282
#     4  10  19  29  40  60  96 134 154 169 211 273
#     4   8  13  24  41  63  92 122 153 184 214 257
#     4  11  18  26  44  70  97 119 148 190 220 252
#     4   8  14  24  39  61  93 129 154 175 212 260
#     4  10  18  28  46  72  89 114 157 193 222 254
#     4   9  19  32  45  63  89 124 155 176 220 281
#
# _framework density 15.211338
#
# number of rings (size 3 to 8) (size 9 to 14) (size 15 to 20)
#    0.000    2.714    1.429    3.429    0.000    4.000 
#    0.000    0.714    0.000    8.143    0.000    0.000 
#    0.000    4.571    0.000    0.000    0.000    0.000 
#
# Total GULP energy -156022.090560 kJ/mol
# GULP energy per Si atom -5572.217520 kJ/mol
# Density = 1.517672 g / cm^3
# Si number density = 15.211338 Si / 1000 Ang^3
#
#
#
# Elastic Constant Matrix: (Units=GPa)
#
#
# Indices 1 2 3 4 5 6 
#
# 1 60.1373 44.7402 25.1733 0.0000 -0.6853 0.0000
# 2 44.7402 96.9873 33.8697 0.0000 1.3985 0.0000
# 3 25.1733 33.8697 82.8615 0.0000 1.7003 0.0000
# 4 0.0000 0.0000 0.0000 67.7755 0.0000 -137.8087
# 5 -0.6853 1.3985 1.7003 0.0000 4.2169 0.0000
# 6 0.0000 0.0000 0.0000 -137.8087 0.0000 389.5443
#
#
#
# Elastic Compliance Matrix: (Units=1/GPa)
#
#
# Indices 1 2 3 4 5 6 
#
# 1 0.026539 -0.011077 -0.003730 0.000000 0.009490 0.000000
# 2 -0.011077 0.016668 -0.003325 0.000000 -0.005987 0.000000
# 3 -0.003730 -0.003325 0.014672 0.000000 -0.005419 0.000000
# 4 0.000000 0.000000 0.000000 0.052568 0.000000 0.018597
# 5 0.009490 -0.005987 -0.005419 0.000000 0.242855 0.000000
# 6 0.000000 0.000000 0.000000 0.018597 0.000000 0.009146
#
#
# Mechanical properties :
#
#
# Convention : Reuss Voigt Hill
#
# Bulk Modulus (GPa) = 46.26294 49.72804 47.99549
# Shear Modulus (GPa) = 12.31786 101.38752 56.85269
#
# Velocity S-wave (km/s) = 2.84875 8.17296 6.12016
# Velocity P-wave (km/s) = 6.42651 11.03746 9.03121
#
# Compressibility (1/GPa) = 0.02161558
#
# Stress axis : x y z
#
# Youngs Moduli (GPa) = 37.68096 59.99599 68.15859
#
# Poissons Ratio (x) = 0.66456 0.25420
# Poissons Ratio (y) = 0.41738 0.22663
# Poissons Ratio (z) = 0.14053 0.19949
#
# Static dielectric constant tensor:
#      x y z
#    x 1.504460 0.000000 -0.009170 
#    y 0.000000 1.532800 0.000000 
#    z -0.009170 0.000000 1.477970 
# 
# From -- ./inp_files/29222.got.cif
#   From: 2010.05.17/outbox.cif.g08.bks.cpg/sg10_15_cif.got.tgz:29222.got - 2010.06.03 11:33:40.
