data_PCOD9142511
_publ_section_title
;
Structure prediction by ZEFSAII (Michael W. Deem and Ramdas Pophale) SiO2 
 PCOD9142511
Probable space group: P 2/M
;
_chemical_formula_sum "Si O2"
_cell_formula_units_Z 28
_cell_length_a 27.061551
_cell_length_b 12.290524
_cell_length_c 27.061565
_cell_angle_alpha 90.000000
_cell_angle_beta 168.793815
_cell_angle_gamma 90.000000
_cell_volume 1749.197037
_symmetry_space_group_name_H-M "P 2/M"
_symmetry_group_IT_number 10
_symmetry_cell_setting 'monoclinic'
loop_
_space_group_symop_operation_xyz
x,y,z
-x,y,-z
-x,-y,-z
x,-y,z
loop_
_atom_site_type_symbol
_atom_site_label
_atom_site_fract_x
_atom_site_fract_y
_atom_site_fract_z
Si Si1 0.321927 0.867926 0.678010
Si Si2 0.147782 0.868319 0.852273
Si Si3 0.042205 0.128232 0.957799
Si Si4 0.472353 0.741679 0.527643
Si Si5 0.905771 0.242394 0.094237
Si Si6 0.420522 0.371798 0.579486
Si Si7 0.735173 0.132672 0.264825
O O1 0.293401 0.830792 0.706590
O O2 0.085759 0.835839 0.412112
O O3 0.321137 0.000000 0.678789
O O4 0.587811 0.835843 0.914157
O O5 0.120668 0.816042 0.879350
O O6 0.145451 0.000000 0.854590
O O7 0.780651 0.184458 0.718145
O O8 0.071650 0.155523 0.928349
O O9 0.037829 0.000000 0.962172
O O10 0.281862 0.184457 0.219355
O O11 0.500000 0.694277 0.500000
O O12 0.450001 0.655253 0.549995
O O13 0.159645 0.315171 0.340818
O O14 0.659203 0.315177 0.840374
O O15 0.416328 0.500000 0.583663
O O16 0.000000 0.166668 0.500000
O O17 0.734803 0.000000 0.265188
O O18 0.500000 0.166670 0.000000
#
# Coordination Sequence:
#
# PCOD9142511 Si02
#       7
#     4   4   4   4   4   4   4
#     4   9  17  26  38  60  87 120 161 197 228 260
#     4  10  18  29  45  65  93 122 152 192 229 267
#     4  10  20  33  49  70  98 126 152 183 218 267
#     4  10  21  34  50  73  95 119 152 185 223 271
#     4  10  20  34  51  71  91 118 155 186 228 278
#     4  10  21  37  54  70  90 115 149 191 229 276
#     4   9  15  23  35  51  77 116 162 203 226 247
#
# _framework density 16.007345000000001
#
# number of rings (size 3 to 8) (size 9 to 14) (size 15 to 20)
#    0.000    2.286    0.000    3.429    0.000    5.429 
#    0.000    4.286    0.000    5.143    0.000    0.000 
#    0.000    0.000    0.000    0.000    0.000  180.000 
#
# Total GULP energy -156211.083418 kJ/mol
# GULP energy per Si atom -5578.967265 kJ/mol
# Density = 1.597091 g / cm^3
# Si number density = 16.007345 Si / 1000 Ang^3
#
#
#
# Elastic Constant Matrix: (Units=GPa)
#
#
# Indices 1 2 3 4 5 6 
#
# 1 162.4671 16.5766 70.9225 0.0000 0.1752 0.0000
# 2 16.5766 33.8217 19.7697 0.0000 0.2865 0.0000
# 3 70.9225 19.7697 159.8473 0.0000 -0.3805 0.0000
# 4 0.0000 0.0000 0.0000 4.9528 0.0000 -0.3434
# 5 0.1752 0.2865 -0.3805 0.0000 46.6230 0.0000
# 6 0.0000 0.0000 0.0000 -0.3434 0.0000 8.8450
#
#
#
# Elastic Compliance Matrix: (Units=1/GPa)
#
#
# Indices 1 2 3 4 5 6 
#
# 1 0.007749 -0.001927 -0.003200 0.000000 -0.000043 0.000000
# 2 -0.001927 0.032353 -0.003147 0.000000 -0.000217 0.000000
# 3 -0.003200 -0.003147 0.008065 0.000000 0.000097 0.000000
# 4 0.000000 0.000000 0.000000 0.202451 0.000000 0.007860
# 5 -0.000043 -0.000217 0.000097 0.000000 0.021451 0.000000
# 6 0.000000 0.000000 0.000000 0.007860 0.000000 0.113363
#
#
# Mechanical properties :
#
#
# Convention : Reuss Voigt Hill
#
# Bulk Modulus (GPa) = 31.62652 63.40817 47.51734
# Shear Modulus (GPa) = 12.12067 28.67530 20.39799
#
# Velocity S-wave (km/s) = 2.75470 4.23707 3.57359
# Velocity P-wave (km/s) = 5.46976 7.97715 6.83934
#
# Compressibility (1/GPa) = 0.03161903
#
# Stress axis : x y z
#
# Youngs Moduli (GPa) = 129.05657 30.90947 123.99139
#
# Poissons Ratio (x) = 0.05956 0.39674
# Poissons Ratio (y) = 0.24869 0.39018
# Poissons Ratio (z) = 0.41294 0.09727
#
# Static dielectric constant tensor:
#      x y z
#    x 1.532420 0.000000 0.000310 
#    y 0.000000 1.482860 0.000000 
#    z 0.000310 0.000000 1.535980 
# 
# From -- ./inp_files/12251.got.cif
#   From: 2010.05.17/outbox.cif.g08.bks.cpg/sg10_7_cif.got.tgz:12251.got - 2010.06.03 11:33:40.
