data_PCOD9142250
_publ_section_title
;
Structure prediction by ZEFSAII (Michael W. Deem and Ramdas Pophale) SiO2 
 PCOD9142250
Probable space group: P 2/M
;
_chemical_formula_sum "Si O2"
_cell_formula_units_Z 32
_cell_length_a 20.115475
_cell_length_b 13.556733
_cell_length_c 8.594269
_cell_angle_alpha 90.000000
_cell_angle_beta 50.879940
_cell_angle_gamma 90.000000
_cell_volume 1818.269931
_symmetry_space_group_name_H-M "P 2/M"
_symmetry_group_IT_number 10
_symmetry_cell_setting 'monoclinic'
loop_
_space_group_symop_operation_xyz
x,y,z
-x,y,-z
-x,-y,-z
x,-y,z
loop_
_atom_site_type_symbol
_atom_site_label
_atom_site_fract_x
_atom_site_fract_y
_atom_site_fract_z
Si Si1 0.285673 0.795798 0.820415
Si Si2 0.666612 0.105978 0.736660
Si Si3 0.402751 0.386599 0.579202
Si Si4 0.577387 0.109827 0.195598
Si Si5 0.866770 0.880853 0.776828
Si Si6 0.960991 0.881266 0.313421
Si Si7 0.547092 0.731850 0.772827
Si Si8 0.822293 0.886277 0.298679
O O1 0.331538 0.689264 0.749668
O O2 0.366582 0.867296 0.735158
O O3 0.233179 0.825486 0.743392
O O4 0.216093 0.817773 0.057165
O O5 0.619850 0.194457 0.722634
O O6 0.764371 0.108196 0.540905
O O7 0.631418 0.000000 0.731912
O O8 0.643010 0.109508 0.952071
O O9 0.500000 0.373725 0.500000
O O10 0.378508 0.500000 0.639030
O O11 0.414496 0.356403 0.382299
O O12 0.513353 0.198387 0.245963
O O13 0.539227 0.000000 0.259898
O O14 0.909637 0.856176 0.547877
O O15 0.939993 0.858550 0.798544
O O16 0.849180 0.000000 0.805071
O O17 0.912089 0.845600 0.231218
O O18 0.957293 0.000000 0.307392
O O19 0.500000 0.699647 0.000000
O O20 0.831361 0.000000 0.227266
#
# Coordination Sequence:
#
# PCOD9142250 Si02
#       8
#     4   4   4   4   4   4   4   4
#     4  12  21  32  50  76 101 136 174 216 257 307
#     4   9  17  29  46  71 106 138 164 197 240 296
#     4  11  24  43  57  70  96 131 175 230 282 316
#     4  10  19  30  46  72 106 139 166 196 242 305
#     4   9  17  31  51  76 110 145 180 204 237 300
#     4   8  16  31  49  73 110 154 177 198 236 290
#     4  10  19  35  55  74  95 128 172 211 256 313
#     4  10  18  27  44  73 108 139 170 202 240 293
#
# _framework density 17.599146999999999
#
# number of rings (size 3 to 8) (size 9 to 14) (size 15 to 20)
#    0.000    2.125    2.500    3.000    0.000    4.250 
#    0.000    2.500    0.000    0.000    0.000    3.500 
#    0.000    0.000    0.000    0.000    0.000    0.000 
#
# Total GULP energy -178326.064222 kJ/mol
# GULP energy per Si atom -5572.689507 kJ/mol
# Density = 1.755909 g / cm^3
# Si number density = 17.599147 Si / 1000 Ang^3
#
#
#
# Elastic Constant Matrix: (Units=GPa)
#
#
# Indices 1 2 3 4 5 6 
#
# 1 109.7115 33.4546 6.4103 0.0000 -0.2658 0.0000
# 2 33.4546 82.3724 24.9885 0.0000 -7.5379 0.0000
# 3 6.4103 24.9885 63.2696 0.0000 -15.2538 0.0000
# 4 0.0000 0.0000 0.0000 19.2532 0.0000 -6.9243
# 5 -0.2658 -7.5379 -15.2538 0.0000 19.4949 0.0000
# 6 0.0000 0.0000 0.0000 -6.9243 0.0000 28.0210
#
#
#
# Elastic Compliance Matrix: (Units=1/GPa)
#
#
# Indices 1 2 3 4 5 6 
#
# 1 0.010456 -0.004486 0.000405 0.000000 -0.001275 0.000000
# 2 -0.004486 0.015745 -0.005313 0.000000 0.001869 0.000000
# 3 0.000405 -0.005313 0.021407 0.000000 0.014701 0.000000
# 4 0.000000 0.000000 0.000000 0.057006 0.000000 0.014087
# 5 -0.001275 0.001869 0.014701 0.000000 0.063504 0.000000
# 6 0.000000 0.000000 0.000000 0.014087 0.000000 0.039169
#
#
# Mechanical properties :
#
#
# Convention : Reuss Voigt Hill
#
# Bulk Modulus (GPa) = 34.69903 42.78447 38.74175
# Shear Modulus (GPa) = 21.21507 26.05381 23.63444
#
# Velocity S-wave (km/s) = 3.47574 3.85177 3.66858
# Velocity P-wave (km/s) = 5.98889 6.64416 6.32502
#
# Compressibility (1/GPa) = 0.02881925
#
# Stress axis : x y z
#
# Youngs Moduli (GPa) = 95.63849 63.51267 46.71331
#
# Poissons Ratio (x) = 0.28493 -0.01892
# Poissons Ratio (y) = 0.42905 0.24820
# Poissons Ratio (z) = -0.03874 0.33746
#
# Static dielectric constant tensor:
#      x y z
#    x 1.671010 0.000000 0.017730 
#    y 0.000000 1.552920 0.000000 
#    z 0.017730 0.000000 1.674740 
# 
# From -- ./inp_files/34820.got.cif
#   From: 2010.05.17/outbox.cif.g08.bks.cpg/sg10_18_cif.got.tgz:34820.got - 2010.06.03 11:33:40.
