data_PCOD9142285
_publ_section_title
;
Structure prediction by ZEFSAII (Michael W. Deem and Ramdas Pophale) SiO2 
 PCOD9142285
Probable space group: P 2/M
;
_chemical_formula_sum "Si O2"
_cell_formula_units_Z 28
_cell_length_a 16.592940
_cell_length_b 8.776129
_cell_length_c 16.589424
_cell_angle_alpha 90.000000
_cell_angle_beta 50.353471
_cell_angle_gamma 90.000000
_cell_volume 1860.140502
_symmetry_space_group_name_H-M "P 2/M"
_symmetry_group_IT_number 10
_symmetry_cell_setting 'monoclinic'
loop_
_space_group_symop_operation_xyz
x,y,z
-x,y,-z
-x,-y,-z
x,-y,z
loop_
_atom_site_type_symbol
_atom_site_label
_atom_site_fract_x
_atom_site_fract_y
_atom_site_fract_z
Si Si1 0.985948 0.816843 0.200299
Si Si2 0.373993 0.315071 0.165090
Si Si3 0.025369 0.183531 0.605926
Si Si4 0.793108 0.181935 0.019953
Si Si5 0.114985 0.676198 0.885174
Si Si6 0.160410 0.316080 0.382582
Si Si7 0.610588 0.684183 0.030050
O O1 0.968664 0.774315 0.304055
O O2 0.902517 0.748091 0.191273
O O3 0.981516 0.000000 0.196875
O O4 0.102415 0.769544 0.096515
O O5 0.374649 0.500000 0.164318
O O6 0.276314 0.267543 0.281564
O O7 0.489694 0.267788 0.119536
O O8 0.360369 0.269089 0.080229
O O9 0.121311 0.246263 0.491652
O O10 0.922258 0.255719 0.630901
O O11 0.019955 0.000000 0.602609
O O12 0.809339 0.238766 0.100909
O O13 0.691770 0.248805 0.041312
O O14 0.789221 0.000000 0.021314
O O15 0.144377 0.500000 0.860334
O O16 0.000000 0.685852 0.000000
O O17 0.154883 0.500000 0.389352
O O18 0.614814 0.500000 0.030819
#
# Coordination Sequence:
#
# PCOD9142285 Si02
#       7
#     4   4   4   4   4   4   4
#     4   9  18  30  43  60  87 118 143 172 211 253
#     4   8  16  29  45  63  85 113 144 180 216 248
#     4  10  19  30  43  62  87 116 146 174 212 255
#     4  10  18  28  42  63  90 116 141 172 211 252
#     4   9  17  28  43  63  85 111 143 175 208 250
#     4  10  18  29  44  63  86 113 146 181 213 246
#     4   9  16  29  46  63  84 113 147 177 210 252
#
# _framework density 15.052626999999999
#
# number of rings (size 3 to 8) (size 9 to 14) (size 15 to 20)
#    0.000    2.714    0.000    4.286    0.000    3.429 
#    0.000    3.571    0.000    0.000    0.000    1.000 
#    0.000    8.000    0.000    0.000    0.000    0.000 
#
# Total GULP energy -156026.100377 kJ/mol
# GULP energy per Si atom -5572.360728 kJ/mol
# Density = 1.501837 g / cm^3
# Si number density = 15.052627 Si / 1000 Ang^3
#
#
#
# Elastic Constant Matrix: (Units=GPa)
#
#
# Indices 1 2 3 4 5 6 
#
# 1 128.1147 37.2966 69.1189 0.0000 12.5950 0.0000
# 2 37.2966 37.5939 31.5173 0.0000 7.5963 0.0000
# 3 69.1189 31.5173 110.6260 0.0000 9.0169 0.0000
# 4 0.0000 0.0000 0.0000 4.0114 0.0000 19.0757
# 5 12.5950 7.5963 9.0169 0.0000 27.2967 0.0000
# 6 0.0000 0.0000 0.0000 19.0757 0.0000 12.8584
#
#
#
# Elastic Compliance Matrix: (Units=1/GPa)
#
#
# Indices 1 2 3 4 5 6 
#
# 1 0.013603 -0.008009 -0.006050 0.000000 -0.002049 0.000000
# 2 -0.008009 0.040865 -0.006179 0.000000 -0.005636 0.000000
# 3 -0.006050 -0.006179 0.014606 0.000000 -0.000313 0.000000
# 4 0.000000 0.000000 0.000000 -0.041173 0.000000 0.061081
# 5 -0.002049 -0.005636 -0.000313 0.000000 0.039252 0.000000
# 6 0.000000 0.000000 0.000000 0.061081 0.000000 -0.012845
#
#
# Mechanical properties :
#
#
# Convention : Reuss Voigt Hill
#
# Bulk Modulus (GPa) = 34.96909 61.35559 48.16234
# Shear Modulus (GPa) = 47.93153 18.06007 32.99580
#
# Velocity S-wave (km/s) = 5.64905 3.46756 4.68699
# Velocity P-wave (km/s) = 8.11361 7.54196 7.83300
#
# Compressibility (1/GPa) = 0.02859669
#
# Stress axis : x y z
#
# Youngs Moduli (GPa) = 73.51571 24.47111 68.46703
#
# Poissons Ratio (x) = 0.19598 0.41424
# Poissons Ratio (y) = 0.58877 0.42307
# Poissons Ratio (z) = 0.44478 0.15121
#
# Static dielectric constant tensor:
#      x y z
#    x 1.481740 0.000000 -0.002430 
#    y 0.000000 1.508560 0.000000 
#    z -0.002430 0.000000 1.497960 
# 
# From -- ./inp_files/65927.got.cif
#   From: 2010.05.17/outbox.cif.g08.bks.cpg/sg10_33_cif.got.tgz:65927.got - 2010.06.03 11:33:40.
