data_PCOD9142109
_publ_section_title
;
Structure prediction by ZEFSAII (Michael W. Deem and Ramdas Pophale) SiO2 
 PCOD9142109
Probable space group: P 2/M
;
_chemical_formula_sum "Si O2"
_cell_formula_units_Z 26
_cell_length_a 5.012718
_cell_length_b 12.212776
_cell_length_c 22.286672
_cell_angle_alpha 90.000000
_cell_angle_beta 62.409508
_cell_angle_gamma 90.000000
_cell_volume 1209.216474
_symmetry_space_group_name_H-M "P 2/M"
_symmetry_group_IT_number 10
_symmetry_cell_setting 'monoclinic'
loop_
_space_group_symop_operation_xyz
x,y,z
-x,y,-z
-x,-y,-z
x,-y,z
loop_
_atom_site_type_symbol
_atom_site_label
_atom_site_fract_x
_atom_site_fract_y
_atom_site_fract_z
Si Si1 0.757026 0.375642 0.423413
Si Si2 0.274852 0.382181 0.220956
Si Si3 0.793923 0.884132 0.259622
Si Si4 0.145933 0.872839 0.550221
Si Si5 0.484947 0.841212 0.169947
Si Si6 0.584795 0.661564 0.309991
Si Si7 0.351234 0.000000 0.951061
O O1 0.500000 0.373205 0.500000
O O2 0.905928 0.500000 0.414646
O O3 0.909452 0.250782 0.412829
O O4 0.591243 0.379693 0.376287
O O5 0.370363 0.500000 0.190144
O O6 0.462808 0.288541 0.169590
O O7 0.344340 0.372764 0.285232
O O8 0.917930 0.368493 0.249373
O O9 0.721912 0.874848 0.196174
O O10 0.601684 0.791916 0.310802
O O11 0.151841 0.872408 0.228829
O O12 0.696152 0.000000 0.293130
O O13 0.500000 0.875197 0.500000
O O14 0.000000 0.865208 0.500000
O O15 0.071200 0.000000 0.582519
O O16 0.552202 0.898407 0.100697
O O17 0.500000 0.000000 0.000000
O O18 0.000000 0.000000 0.000000
#
# Coordination Sequence:
#
# PCOD9142109 Si02
#       7
#     4   4   4   4   4   4   2
#     4  10  21  37  56  79 111 147 183 230 290 355
#     4  10  20  37  59  80 107 143 187 238 277 317
#     4  10  17  33  56  78 110 144 182 237 277 318
#     4   9  19  36  55  73  96 132 175 216 263 329
#     4  10  20  34  55  83 114 148 185 220 271 321
#     4  10  22  34  54  83 107 140 186 234 288 339
#     4  12  22  34  56  86 124 154 179 218 263 320
#
# _framework density 21.501529000000001
#
# number of rings (size 3 to 8) (size 9 to 14) (size 15 to 20)
#    0.000    2.000    1.538    2.308    0.000    3.385 
#    0.000    3.077    0.000    8.308    0.000    0.000 
#    0.000    0.000    0.000    0.000    0.000    0.000 
#
# Total GULP energy -144966.940261 kJ/mol
# GULP energy per Si atom -5575.651549 kJ/mol
# Density = 2.145259 g / cm^3
# Si number density = 21.501529 Si / 1000 Ang^3
#
#
#
# Elastic Constant Matrix: (Units=GPa)
#
#
# Indices 1 2 3 4 5 6 
#
# 1 94.8295 7.0102 2.1142 0.0000 11.2805 0.0000
# 2 7.0102 240.3641 29.6299 0.0000 -0.0496 0.0000
# 3 2.1142 29.6299 74.6571 0.0000 9.6078 0.0000
# 4 0.0000 0.0000 0.0000 -144.1319 0.0000 -34.9563
# 5 11.2805 -0.0496 9.6078 0.0000 30.3169 0.0000
# 6 0.0000 0.0000 0.0000 -34.9563 0.0000 -4.6190
#
#
#
# Elastic Compliance Matrix: (Units=1/GPa)
#
#
# Indices 1 2 3 4 5 6 
#
# 1 0.011068 -0.000370 0.000379 0.000000 -0.004239 0.000000
# 2 -0.000370 0.004397 -0.001828 0.000000 0.000724 0.000000
# 3 0.000379 -0.001828 0.014728 0.000000 -0.004812 0.000000
# 4 0.000000 0.000000 0.000000 0.008305 0.000000 -0.062849
# 5 -0.004239 0.000724 -0.004812 0.000000 0.036088 0.000000
# 6 0.000000 0.000000 0.000000 -0.062849 0.000000 0.259139
#
#
# Mechanical properties :
#
#
# Convention : Reuss Voigt Hill
#
# Bulk Modulus (GPa) = 37.65684 54.15101 45.90393
# Shear Modulus (GPa) = 14.44190 1.05297 7.74744
#
# Velocity S-wave (km/s) = 2.59447 0.70056 1.90027
# Velocity P-wave (km/s) = 5.15040 5.08859 5.11959
#
# Compressibility (1/GPa) = 0.02655560
#
# Stress axis : x y z
#
# Youngs Moduli (GPa) = 90.34697 227.44838 67.89593
#
# Poissons Ratio (x) = 0.08425 -0.02574
# Poissons Ratio (y) = 0.03347 0.12409
# Poissons Ratio (z) = -0.03425 0.41569
#
# Static dielectric constant tensor:
#      x y z
#    x 1.763270 0.000000 0.006630 
#    y 0.000000 1.931940 0.000000 
#    z 0.006630 0.000000 1.719930 
# 
# From -- ./inp_files/81073.got.cif
#   From: 2010.05.17/outbox.cif.g08.bks.cpg/sg10_41_cif.got.tgz:81073.got - 2010.06.03 11:33:40.
