data_PCOD9142870
_publ_section_title
;
Structure prediction by ZEFSAII (Michael W. Deem and Ramdas Pophale) SiO2 
 PCOD9142870
Probable space group: P 2/M
;
_chemical_formula_sum "Si O2"
_cell_formula_units_Z 32
_cell_length_a 13.014606
_cell_length_b 7.702089
_cell_length_c 30.672899
_cell_angle_alpha 90.000000
_cell_angle_beta 24.087462
_cell_angle_gamma 90.000000
_cell_volume 1254.855278
_symmetry_space_group_name_H-M "P 2/M"
_symmetry_group_IT_number 10
_symmetry_cell_setting 'monoclinic'
loop_
_space_group_symop_operation_xyz
x,y,z
-x,y,-z
-x,-y,-z
x,-y,z
loop_
_atom_site_type_symbol
_atom_site_label
_atom_site_fract_x
_atom_site_fract_y
_atom_site_fract_z
Si Si1 0.589115 0.301470 0.329788
Si Si2 0.094253 0.209334 0.290069
Si Si3 0.247018 0.208465 0.042323
Si Si4 0.542651 0.792955 0.780534
Si Si5 0.440624 0.708527 0.475212
Si Si6 0.185811 0.700516 0.845913
Si Si7 0.833323 0.789825 0.831351
Si Si8 0.031967 0.199260 0.539026
O O1 0.678953 0.500000 0.296163
O O2 0.611859 0.218570 0.369412
O O3 0.679474 0.216216 0.249385
O O4 0.285824 0.305522 0.446195
O O5 0.353466 0.270163 0.212815
O O6 0.045097 0.278725 0.260371
O O7 0.858620 0.256025 0.411658
O O8 0.106378 0.000000 0.281812
O O9 0.114800 0.268663 0.139086
O O10 0.104575 0.276738 0.054986
O O11 0.232619 0.000000 0.045775
O O12 0.538358 0.251334 0.935818
O O13 0.284871 0.757428 0.854627
O O14 0.769235 0.735776 0.660592
O O15 0.549433 0.000000 0.781100
O O16 0.500000 0.781059 0.500000
O O17 0.475485 0.500000 0.461848
O O18 0.252650 0.500000 0.818962
O O19 0.852389 0.000000 0.825580
O O20 0.000000 0.189499 0.500000
O O21 0.073335 0.000000 0.538838
#
# Coordination Sequence:
#
# PCOD9142870 Si02
#       8
#     4   4   4   4   4   4   4   4
#     4  10  21  34  48  70 103 143 180 214 257 307
#     4  10  20  36  58  83 108 138 182 228 266 315
#     4   9  18  37  62  84 108 136 170 218 276 330
#     4  10  20  34  52  76 108 144 180 221 269 318
#     4  10  22  37  51  72 109 151 183 215 262 321
#     4  11  23  35  52  80 112 143 182 226 264 311
#     4   8  17  36  62  87 107 133 172 220 274 328
#     4  10  18  30  48  70  97 131 175 218 253 298
#
# _framework density 25.500948999999999
#
# number of rings (size 3 to 8) (size 9 to 14) (size 15 to 20)
#    0.000    2.250    2.500    1.125    1.750    2.000 
#    0.000    2.500    0.000    3.750    0.000    0.000 
#    0.000    0.000    0.000    0.000    0.000    0.000 
#
# Total GULP energy -178573.449446 kJ/mol
# GULP energy per Si atom -5580.420295 kJ/mol
# Density = 2.544291 g / cm^3
# Si number density = 25.500949 Si / 1000 Ang^3
#
#
#
# Elastic Constant Matrix: (Units=GPa)
#
#
# Indices 1 2 3 4 5 6 
#
# 1 135.6431 7.8295 -7.0129 0.0000 -29.3688 0.0000
# 2 7.8295 53.7126 1.8230 0.0000 -2.1255 0.0000
# 3 -7.0129 1.8230 48.0606 0.0000 -1.8439 0.0000
# 4 0.0000 0.0000 0.0000 16.2043 0.0000 -11.8470
# 5 -29.3688 -2.1255 -1.8439 0.0000 36.9966 0.0000
# 6 0.0000 0.0000 0.0000 -11.8470 0.0000 18.4499
#
#
#
# Elastic Compliance Matrix: (Units=1/GPa)
#
#
# Indices 1 2 3 4 5 6 
#
# 1 0.009086 -0.001094 0.001645 0.000000 0.007232 0.000000
# 2 -0.001094 0.018813 -0.000867 0.000000 0.000169 0.000000
# 3 0.001645 -0.000867 0.021169 0.000000 0.002311 0.000000
# 4 0.000000 0.000000 0.000000 0.116317 0.000000 0.074689
# 5 0.007232 0.000169 0.002311 0.000000 0.032895 0.000000
# 6 0.000000 0.000000 0.000000 0.074689 0.000000 0.102160
#
#
# Mechanical properties :
#
#
# Convention : Reuss Voigt Hill
#
# Bulk Modulus (GPa) = 20.64581 26.96617 23.80599
# Shear Modulus (GPa) = 15.76206 29.98194 22.87200
#
# Velocity S-wave (km/s) = 2.48885 3.43260 2.99809
# Velocity P-wave (km/s) = 4.04634 5.12911 4.61956
#
# Compressibility (1/GPa) = 0.04843598
#
# Stress axis : x y z
#
# Youngs Moduli (GPa) = 110.05541 53.15411 47.23975
#
# Poissons Ratio (x) = 0.05816 -0.07770
# Poissons Ratio (y) = 0.12041 0.04095
# Poissons Ratio (z) = -0.18102 0.04607
#
# Static dielectric constant tensor:
#      x y z
#    x 2.157350 0.000000 -0.025740 
#    y 0.000000 1.937220 0.000000 
#    z -0.025740 0.000000 2.090260 
# 
# From -- ./inp_files/94991.got.cif
#   From: 2010.05.17/outbox.cif.g08.bks.cpg/sg10_48_cif.got.tgz:94991.got - 2010.06.03 11:33:40.
