data_PCOD9142008
_publ_section_title
;
Structure prediction by ZEFSAII (Michael W. Deem and Ramdas Pophale) SiO2 
 PCOD9142008
Probable space group: P 2/M
;
_chemical_formula_sum "Si O2"
_cell_formula_units_Z 28
_cell_length_a 10.333633
_cell_length_b 18.828390
_cell_length_c 16.172905
_cell_angle_alpha 90.000000
_cell_angle_beta 153.738975
_cell_angle_gamma 90.000000
_cell_volume 1392.289368
_symmetry_space_group_name_H-M "P 2/M"
_symmetry_group_IT_number 10
_symmetry_cell_setting 'monoclinic'
loop_
_space_group_symop_operation_xyz
x,y,z
-x,y,-z
-x,-y,-z
x,-y,z
loop_
_atom_site_type_symbol
_atom_site_label
_atom_site_fract_x
_atom_site_fract_y
_atom_site_fract_z
Si Si1 0.673524 0.709354 0.772705
Si Si2 0.389716 0.226853 0.759349
Si Si3 0.982433 0.774543 0.806004
Si Si4 0.156305 0.923730 0.319012
Si Si5 0.173725 0.680974 0.773759
Si Si6 0.363619 0.416701 0.514339
Si Si7 0.721542 0.082430 0.206570
O O1 0.451979 0.757539 0.699337
O O2 0.724019 0.743264 0.711818
O O3 0.545643 0.631522 0.682862
O O4 0.000000 0.706601 0.000000
O O5 0.199423 0.286798 0.696643
O O6 0.310284 0.147243 0.746373
O O7 0.708256 0.243928 0.978269
O O8 0.968432 0.858503 0.801503
O O9 0.007344 0.742809 0.729636
O O10 0.500000 0.922860 0.500000
O O11 0.042070 0.915055 0.347288
O O12 0.040016 0.000000 0.224477
O O13 0.967379 0.613216 0.668819
O O14 0.500000 0.670821 0.000000
O O15 0.500000 0.406950 0.500000
O O16 0.376129 0.500000 0.540120
O O17 0.677447 0.000000 0.209943
O O18 0.500000 0.094293 0.000000
#
# Coordination Sequence:
#
# PCOD9142008 Si02
#       7
#     4   4   4   4   4   4   4
#     4  10  23  39  61  93 129 162 200 251 313 366
#     4  10  19  35  55  88 122 158 201 247 305 362
#     4  10  18  34  57  84 117 160 205 250 293 358
#     4  10  20  30  48  83 119 156 205 256 300 344
#     4  10  20  37  64  93 123 153 203 258 302 360
#     4  11  24  43  68  95 119 158 209 246 301 382
#     4  10  17  30  54  83 117 159 209 256 298 350
#
# _framework density 20.110762000000001
#
# number of rings (size 3 to 8) (size 9 to 14) (size 15 to 20)
#    0.000    1.857    4.286    0.429    2.000    1.143 
#    0.000    2.143    0.000    2.571    0.000    4.000 
#    0.000    0.000    0.000    0.000    0.000    0.000 
#
# Total GULP energy -155979.247281 kJ/mol
# GULP energy per Si atom -5570.687403 kJ/mol
# Density = 2.006499 g / cm^3
# Si number density = 20.110762 Si / 1000 Ang^3
#
#
#
# Elastic Constant Matrix: (Units=GPa)
#
#
# Indices 1 2 3 4 5 6 
#
# 1 126.2638 64.4379 41.6720 0.0000 31.1019 0.0000
# 2 64.4379 141.3667 17.3781 0.0000 13.4663 0.0000
# 3 41.6720 17.3781 63.2493 0.0000 19.5098 0.0000
# 4 0.0000 0.0000 0.0000 19.4763 0.0000 4.9468
# 5 31.1019 13.4663 19.5098 0.0000 26.1013 0.0000
# 6 0.0000 0.0000 0.0000 4.9468 0.0000 39.8448
#
#
#
# Elastic Compliance Matrix: (Units=1/GPa)
#
#
# Indices 1 2 3 4 5 6 
#
# 1 0.015012 -0.005137 -0.004911 0.000000 -0.011566 0.000000
# 2 -0.005137 0.009259 0.000554 0.000000 0.000931 0.000000
# 3 -0.004911 0.000554 0.022324 0.000000 -0.011120 0.000000
# 4 0.000000 0.000000 0.000000 0.053016 0.000000 -0.006582
# 5 -0.011566 0.000931 -0.011120 0.000000 0.059926 0.000000
# 6 0.000000 0.000000 0.000000 -0.006582 0.000000 0.025915
#
#
# Mechanical properties :
#
#
# Convention : Reuss Voigt Hill
#
# Bulk Modulus (GPa) = 36.22529 64.20619 50.21574
# Shear Modulus (GPa) = 23.40361 30.91062 27.15711
#
# Velocity S-wave (km/s) = 3.41506 3.92474 3.67873
# Velocity P-wave (km/s) = 5.79674 7.24801 6.56261
#
# Compressibility (1/GPa) = 0.02760502
#
# Stress axis : x y z
#
# Youngs Moduli (GPa) = 66.61539 108.00687 44.79442
#
# Poissons Ratio (x) = 0.55484 0.22000
# Poissons Ratio (y) = 0.34221 -0.02480
# Poissons Ratio (z) = 0.32717 -0.05980
#
# Static dielectric constant tensor:
#      x y z
#    x 1.783730 0.000000 0.069750 
#    y 0.000000 1.692730 0.000000 
#    z 0.069750 0.000000 1.933210 
# 
# From -- ./inp_files/62615.got.cif
#   From: 2010.05.17/outbox.cif.g08.bks.cpg/sg10_32_cif.got.tgz:62615.got - 2010.06.03 11:33:40.
