data_PCOD9142130
_publ_section_title
;
Structure prediction by ZEFSAII (Michael W. Deem and Ramdas Pophale) SiO2 
 PCOD9142130
Probable space group: P 2/M
;
_chemical_formula_sum "Si O2"
_cell_formula_units_Z 24
_cell_length_a 11.689477
_cell_length_b 11.547541
_cell_length_c 11.413975
_cell_angle_alpha 90.000000
_cell_angle_beta 43.781285
_cell_angle_gamma 90.000000
_cell_volume 1066.030119
_symmetry_space_group_name_H-M "P 2/M"
_symmetry_group_IT_number 10
_symmetry_cell_setting 'monoclinic'
loop_
_space_group_symop_operation_xyz
x,y,z
-x,y,-z
-x,-y,-z
x,-y,z
loop_
_atom_site_type_symbol
_atom_site_label
_atom_site_fract_x
_atom_site_fract_y
_atom_site_fract_z
Si Si1 0.242400 0.633198 0.702629
Si Si2 0.514126 0.500000 0.849258
Si Si3 0.679321 0.133751 0.900096
Si Si4 0.851582 0.500000 0.695797
Si Si5 0.051027 0.281277 0.224791
Si Si6 0.226995 0.865991 0.434110
Si Si7 0.502190 0.298766 0.311827
O O1 0.241147 0.500000 0.743832
O O2 0.334631 0.711971 0.730069
O O3 0.364431 0.640854 0.498988
O O4 0.059664 0.672270 0.800161
O O5 0.709857 0.500000 0.703841
O O6 0.457703 0.386232 0.823373
O O7 0.500000 0.500000 0.000000
O O8 0.795165 0.195783 0.908075
O O9 0.775743 0.138882 0.704651
O O10 0.653348 0.000000 0.952151
O O11 0.500000 0.185132 0.000000
O O12 0.867155 0.387937 0.765813
O O13 0.000000 0.500000 0.500000
O O14 0.914293 0.213067 0.404253
O O15 0.405832 0.814934 0.340006
O O16 0.207864 0.000000 0.483447
#
# Coordination Sequence:
#
# PCOD9142130 Si02
#       7
#     4   2   4   2   4   4   4
#     4  10  17  35  61  86 117 165 199 238 294 364
#     4  12  24  36  58  90 120 150 195 257 298 351
#     4  10  21  38  58  79 114 162 202 241 297 358
#     4  12  22  33  52  82 116 155 187 237 296 357
#     4  11  21  34  57  87 115 145 197 244 299 349
#     4  10  21  36  57  86 119 154 197 253 300 343
#     4  10  19  35  59  87 120 160 202 240 302 360
#
# _framework density 22.513435000000001
#
# number of rings (size 3 to 8) (size 9 to 14) (size 15 to 20)
#    0.000    1.500    2.500    5.500    0.000    4.000 
#    0.000    7.500    0.000    5.000    0.000    3.500 
#    0.000    0.000    0.000    0.000    0.000    0.000 
#
# Total GULP energy -134142.586397 kJ/mol
# GULP energy per Si atom -5589.274433 kJ/mol
# Density = 2.246219 g / cm^3
# Si number density = 22.513435 Si / 1000 Ang^3
#
#
#
# Elastic Constant Matrix: (Units=GPa)
#
#
# Indices 1 2 3 4 5 6 
#
# 1 143.6789 29.3955 0.6841 0.0000 -9.3998 0.0000
# 2 29.3955 97.9925 0.7059 0.0000 2.9275 0.0000
# 3 0.6841 0.7059 44.8268 0.0000 3.7455 0.0000
# 4 0.0000 0.0000 0.0000 19.3620 0.0000 -6.9450
# 5 -9.3998 2.9275 3.7455 0.0000 34.9160 0.0000
# 6 0.0000 0.0000 0.0000 -6.9450 0.0000 29.4625
#
#
#
# Elastic Compliance Matrix: (Units=1/GPa)
#
#
# Indices 1 2 3 4 5 6 
#
# 1 0.007589 -0.002342 -0.000268 0.000000 0.002268 0.000000
# 2 -0.002342 0.010954 -0.000007 0.000000 -0.001548 0.000000
# 3 -0.000268 -0.000007 0.022520 0.000000 -0.002487 0.000000
# 4 0.000000 0.000000 0.000000 0.056418 0.000000 0.013299
# 5 0.002268 -0.001548 -0.002487 0.000000 0.029647 0.000000
# 6 0.000000 0.000000 0.000000 0.013299 0.000000 0.037076
#
#
# Mechanical properties :
#
#
# Convention : Reuss Voigt Hill
#
# Bulk Modulus (GPa) = 27.91230 38.67436 33.29333
# Shear Modulus (GPa) = 27.56599 33.79562 30.68081
#
# Velocity S-wave (km/s) = 3.50297 3.87865 3.69559
# Velocity P-wave (km/s) = 5.36527 6.10526 5.74718
#
# Compressibility (1/GPa) = 0.03582649
#
# Stress axis : x y z
#
# Youngs Moduli (GPa) = 131.77235 91.29246 44.40472
#
# Poissons Ratio (x) = 0.21383 0.01192
# Poissons Ratio (y) = 0.30865 0.00033
# Poissons Ratio (z) = 0.03537 0.00067
#
# Static dielectric constant tensor:
#      x y z
#    x 1.784010 0.000000 0.009850 
#    y 0.000000 1.823230 0.000000 
#    z 0.009850 0.000000 1.896030 
# 
# From -- ./inp_files/46562.got.cif
#   From: 2010.05.17/outbox.cif.g08.bks.cpg/sg10_24_cif.got.tgz:46562.got - 2010.06.03 11:33:40.
