data_PCOD9142796
_publ_section_title
;
Structure prediction by ZEFSAII (Michael W. Deem and Ramdas Pophale) SiO2 
 PCOD9142796
Probable space group: P 2/M
;
_chemical_formula_sum "Si O2"
_cell_formula_units_Z 32
_cell_length_a 14.673772
_cell_length_b 9.006948
_cell_length_c 15.893836
_cell_angle_alpha 90.000000
_cell_angle_beta 89.434099
_cell_angle_gamma 90.000000
_cell_volume 2100.520702
_symmetry_space_group_name_H-M "P 2/M"
_symmetry_group_IT_number 10
_symmetry_cell_setting 'monoclinic'
loop_
_space_group_symop_operation_xyz
x,y,z
-x,y,-z
-x,-y,-z
x,-y,z
loop_
_atom_site_type_symbol
_atom_site_label
_atom_site_fract_x
_atom_site_fract_y
_atom_site_fract_z
Si Si1 0.605686 0.320545 0.400758
Si Si2 0.102888 0.178137 0.824881
Si Si3 0.212836 0.679122 0.327780
Si Si4 0.107237 0.677736 0.501231
Si Si5 0.212326 0.822057 0.656304
Si Si6 0.599221 0.320152 0.597673
Si Si7 0.110670 0.329103 0.998258
Si Si8 0.111200 0.177437 0.172399
O O1 0.612737 0.500000 0.394855
O O2 0.686604 0.245022 0.349533
O O3 0.615841 0.280304 0.499731
O O4 0.502995 0.274579 0.376751
O O5 0.160184 0.220861 0.742372
O O6 0.995967 0.216662 0.813561
O O7 0.107390 0.000000 0.835087
O O8 0.137207 0.254191 0.910037
O O9 0.211478 0.500000 0.317934
O O10 0.153943 0.714529 0.411753
O O11 0.316363 0.728525 0.346413
O O12 0.169444 0.753708 0.246942
O O13 0.117736 0.500000 0.513568
O O14 0.156969 0.759608 0.576984
O O15 0.000000 0.712459 0.500000
O O16 0.215609 0.000000 0.652018
O O17 0.599173 0.500000 0.598738
O O18 0.139706 0.500000 0.001859
O O19 0.139733 0.241844 0.081469
O O20 0.000000 0.325533 0.000000
O O21 0.118245 0.000000 0.172024
#
# Coordination Sequence:
#
# PCOD9142796 Si02
#       8
#     4   4   4   4   4   4   4   4
#     4   9  16  31  51  67  86 118 160 199 239 282
#     4   9  19  33  46  64  95 130 158 185 226 280
#     4  10  18  30  46  67  93 121 157 197 233 271
#     4  10  20  32  46  64  90 127 166 198 227 265
#     4  11  21  31  45  68  97 127 156 191 235 279
#     4   8  15  29  50  68  86 118 157 200 243 277
#     4   9  17  30  49  71  91 115 153 199 236 265
#     4  10  19  31  47  67  94 128 158 186 227 279
#
# _framework density 15.234317000000001
#
# number of rings (size 3 to 8) (size 9 to 14) (size 15 to 20)
#    0.000    2.500    1.250    2.625    0.000    3.750 
#    0.000    1.875    0.000    0.000    0.000    0.875 
#    0.000    7.000    0.000    0.000    0.000    0.000 
#
# Total GULP energy -178405.308548 kJ/mol
# GULP energy per Si atom -5575.165892 kJ/mol
# Density = 1.519964 g / cm^3
# Si number density = 15.234317 Si / 1000 Ang^3
#
#
#
# Elastic Constant Matrix: (Units=GPa)
#
#
# Indices 1 2 3 4 5 6 
#
# 1 109.9527 40.3289 75.8155 0.0000 9.5789 0.0000
# 2 40.3289 35.1091 51.4250 0.0000 5.1341 0.0000
# 3 75.8155 51.4250 139.9162 0.0000 11.1212 0.0000
# 4 0.0000 0.0000 0.0000 27.0829 0.0000 -1.1517
# 5 9.5789 5.1341 11.1212 0.0000 9.0980 0.0000
# 6 0.0000 0.0000 0.0000 -1.1517 0.0000 13.3092
#
#
#
# Elastic Compliance Matrix: (Units=1/GPa)
#
#
# Indices 1 2 3 4 5 6 
#
# 1 0.017135 -0.012803 -0.004120 0.000000 -0.005780 0.000000
# 2 -0.012803 0.071775 -0.019156 0.000000 -0.003607 0.000000
# 3 -0.004120 -0.019156 0.016854 0.000000 -0.005454 0.000000
# 4 0.000000 0.000000 0.000000 0.037060 0.000000 0.003207
# 5 -0.005780 -0.003607 -0.005454 0.000000 0.124703 0.000000
# 6 0.000000 0.000000 0.000000 0.003207 0.000000 0.075414
#
#
# Mechanical properties :
#
#
# Convention : Reuss Voigt Hill
#
# Bulk Modulus (GPa) = 29.75663 68.90187 49.32925
# Shear Modulus (GPa) = 11.72884 17.72526 14.72705
#
# Velocity S-wave (km/s) = 2.77771 3.41473 3.11256
# Velocity P-wave (km/s) = 5.46467 7.80214 6.73558
#
# Compressibility (1/GPa) = 0.03360596
#
# Stress axis : x y z
#
# Youngs Moduli (GPa) = 58.36003 13.93241 59.33435
#
# Poissons Ratio (x) = 0.17838 0.24444
# Poissons Ratio (y) = 0.74719 1.13661
# Poissons Ratio (z) = 0.24043 0.26689
#
# Static dielectric constant tensor:
#      x y z
#    x 1.507220 0.000000 -0.002190 
#    y 0.000000 1.509160 0.000000 
#    z -0.002190 0.000000 1.481300 
# 
# From -- ./inp_files/66035.got.cif
#   From: 2010.05.17/outbox.cif.g08.bks.cpg/sg10_34_cif.got.tgz:66035.got - 2010.06.03 11:33:40.
