data_PCOD9142538
_publ_section_title
;
Structure prediction by ZEFSAII (Michael W. Deem and Ramdas Pophale) SiO2 
 PCOD9142538
Probable space group: P 2/M
;
_chemical_formula_sum "Si O2"
_cell_formula_units_Z 32
_cell_length_a 24.634458
_cell_length_b 9.003082
_cell_length_c 17.306055
_cell_angle_alpha 90.000000
_cell_angle_beta 145.905698
_cell_angle_gamma 90.000000
_cell_volume 2151.551767
_symmetry_space_group_name_H-M "P 2/M"
_symmetry_group_IT_number 10
_symmetry_cell_setting 'monoclinic'
loop_
_space_group_symop_operation_xyz
x,y,z
-x,y,-z
-x,-y,-z
x,-y,z
loop_
_atom_site_type_symbol
_atom_site_label
_atom_site_fract_x
_atom_site_fract_y
_atom_site_fract_z
Si Si1 0.887881 0.322803 0.220810
Si Si2 0.758827 0.322610 0.437757
Si Si3 0.883995 0.329204 0.879119
Si Si4 0.760993 0.826443 0.190570
Si Si5 0.152489 0.823641 0.318449
Si Si6 0.913286 0.174524 0.507978
Si Si7 0.945611 0.321445 0.114825
Si Si8 0.612271 0.678470 0.130444
O O1 0.890872 0.500000 0.234195
O O2 0.794099 0.256894 0.152366
O O3 0.898737 0.289060 0.142371
O O4 0.982276 0.248881 0.370884
O O5 0.765998 0.500000 0.453676
O O6 0.767087 0.246801 0.530644
O O7 0.849999 0.260347 0.496977
O O8 0.666576 0.285861 0.275270
O O9 0.851882 0.500000 0.832239
O O10 0.837338 0.229020 0.758133
O O11 0.878052 0.283374 0.961719
O O12 0.000000 0.326897 0.000000
O O13 0.851651 0.813997 0.356956
O O14 0.671592 0.754943 0.131317
O O15 0.743885 0.000000 0.156062
O O16 0.048266 0.760035 0.224428
O O17 0.152312 0.000000 0.324124
O O18 0.922079 0.000000 0.537756
O O19 0.963885 0.500000 0.132149
O O20 0.618750 0.500000 0.128275
O O21 0.500000 0.721310 0.000000
#
# Coordination Sequence:
#
# PCOD9142538 Si02
#       8
#     4   4   4   4   4   4   4   4
#     4  11  20  29  44  63  87 120 156 187 217 257
#     4  10  18  29  46  66  88 116 148 182 224 269
#     4   8  15  28  42  55  79 115 152 187 222 259
#     4  10  21  33  45  64  90 117 147 182 223 267
#     4  11  19  26  40  62  88 116 150 188 220 257
#     4  10  19  30  42  60  87 118 150 186 222 256
#     4   9  18  30  42  58  83 119 156 188 223 259
#     4   9  19  36  55  71  87 110 145 188 229 270
#
# _framework density 14.872985999999999
#
# number of rings (size 3 to 8) (size 9 to 14) (size 15 to 20)
#    0.000    2.250    1.250    3.750    0.000    6.500 
#    0.000    0.000    0.000    0.000    0.000    0.000 
#    0.000    1.000    0.000   11.500    0.000    4.500 
#
# Total GULP energy -178401.998617 kJ/mol
# GULP energy per Si atom -5575.062457 kJ/mol
# Density = 1.483913 g / cm^3
# Si number density = 14.872986 Si / 1000 Ang^3
#
#
#
# Elastic Constant Matrix: (Units=GPa)
#
#
# Indices 1 2 3 4 5 6 
#
# 1 88.4201 49.1740 53.9492 0.0000 -3.4456 0.0000
# 2 49.1740 71.0107 42.2970 0.0000 -6.2024 0.0000
# 3 53.9492 42.2970 70.5083 0.0000 0.7135 0.0000
# 4 0.0000 0.0000 0.0000 12.6479 0.0000 -2.6655
# 5 -3.4456 -6.2024 0.7135 0.0000 15.1807 0.0000
# 6 0.0000 0.0000 0.0000 -2.6655 0.0000 1.8782
#
#
#
# Elastic Compliance Matrix: (Units=1/GPa)
#
#
# Indices 1 2 3 4 5 6 
#
# 1 0.024522 -0.008644 -0.013604 0.000000 0.002673 0.000000
# 2 -0.008644 0.026445 -0.009343 0.000000 0.009282 0.000000
# 3 -0.013604 -0.009343 0.030281 0.000000 -0.008329 0.000000
# 4 0.000000 0.000000 0.000000 0.112801 0.000000 0.160086
# 5 0.002673 0.009282 -0.008329 0.000000 0.070664 0.000000
# 6 0.000000 0.000000 0.000000 0.160086 0.000000 0.759631
#
#
# Mechanical properties :
#
#
# Convention : Reuss Voigt Hill
#
# Bulk Modulus (GPa) = 55.36001 57.86438 56.61219
# Shear Modulus (GPa) = 4.57227 11.57595 8.07411
#
# Velocity S-wave (km/s) = 1.75525 2.79287 2.33249
# Velocity P-wave (km/s) = 6.43510 7.02782 6.73798
#
# Compressibility (1/GPa) = 0.01806358
#
# Stress axis : x y z
#
# Youngs Moduli (GPa) = 40.77996 37.81502 33.02369
#
# Poissons Ratio (x) = 0.32688 0.44926
# Poissons Ratio (y) = 0.35251 0.30856
# Poissons Ratio (z) = 0.55478 0.35332
#
# Static dielectric constant tensor:
#      x y z
#    x 1.505220 0.000000 -0.039020 
#    y 0.000000 1.493750 0.000000 
#    z -0.039020 0.000000 1.488800 
# 
# From -- ./inp_files/79959.got.cif
#   From: 2010.05.17/outbox.cif.g08.bks.cpg/sg10_40_cif.got.tgz:79959.got - 2010.06.03 11:33:40.
