data_PCOD9142091
_publ_section_title
;
Structure prediction by ZEFSAII (Michael W. Deem and Ramdas Pophale) SiO2 
 PCOD9142091
Probable space group: P 2/M
;
_chemical_formula_sum "Si O2"
_cell_formula_units_Z 22
_cell_length_a 7.628719
_cell_length_b 11.103548
_cell_length_c 12.302449
_cell_angle_alpha 90.000000
_cell_angle_beta 108.269937
_cell_angle_gamma 90.000000
_cell_volume 989.557747
_symmetry_space_group_name_H-M "P 2/M"
_symmetry_group_IT_number 10
_symmetry_cell_setting 'monoclinic'
loop_
_space_group_symop_operation_xyz
x,y,z
-x,y,-z
-x,-y,-z
x,-y,z
loop_
_atom_site_type_symbol
_atom_site_label
_atom_site_fract_x
_atom_site_fract_y
_atom_site_fract_z
Si Si1 0.632967 0.000000 0.194981
Si Si2 0.938996 0.255961 0.756133
Si Si3 0.696455 0.258373 0.503619
Si Si4 0.009110 0.000000 0.133658
Si Si5 0.400597 0.500000 0.867073
Si Si6 0.220260 0.000000 0.531429
Si Si7 0.645377 0.256371 0.237854
Si Si8 0.979372 0.500000 0.868057
O O1 0.796526 0.000000 0.137754
O O2 0.540681 0.867208 0.182178
O O3 0.722085 0.000000 0.332313
O O4 0.853068 0.289512 0.621056
O O5 0.159262 0.249085 0.785284
O O6 0.889319 0.372451 0.817771
O O7 0.897089 0.123085 0.798961
O O8 0.500000 0.309932 0.500000
O O9 0.704342 0.114515 0.514936
O O10 0.703889 0.272314 0.375474
O O11 0.000000 0.000000 0.000000
O O12 0.452143 0.378297 0.815376
O O13 0.179777 0.500000 0.846816
O O14 0.500000 0.500000 0.000000
O O15 0.000000 0.000000 0.500000
O O16 0.000000 0.500000 0.000000
#
# Coordination Sequence:
#
# PCOD9142091 Si02
#       8
#     2   4   4   2   2   2   4   2
#     4   8  16  31  53  77 103 139 180 218 267 325
#     4  10  20  36  57  81 110 151 190 232 289 347
#     4  11  21  33  54  87 118 145 186 241 290 337
#     4  10  18  31  55  84 109 138 187 238 274 321
#     4  10  22  39  60  81 109 150 194 236 289 348
#     4  10  17  32  56  79 113 155 185 218 273 346
#     4   9  19  37  58  80 110 150 190 229 281 351
#     4  10  22  39  58  79 107 146 196 242 285 344
#
# _framework density 22.232153
#
# number of rings (size 3 to 8) (size 9 to 14) (size 15 to 20)
#    0.000    2.182    0.000    5.182    0.000    2.182 
#    0.000    4.091    0.000    0.000    0.000    0.000 
#    0.000    0.000    0.000    0.000    0.000    0.000 
#
# Total GULP energy -122497.297383 kJ/mol
# GULP energy per Si atom -5568.058972 kJ/mol
# Density = 2.218155 g / cm^3
# Si number density = 22.232153 Si / 1000 Ang^3
#
#
#
# Elastic Constant Matrix: (Units=GPa)
#
#
# Indices 1 2 3 4 5 6 
#
# 1 48.0850 7.4773 -24.8041 0.0000 -3.6554 0.0000
# 2 7.4773 198.4925 79.9537 0.0000 -4.4866 0.0000
# 3 -24.8041 79.9537 99.6224 0.0000 -13.1832 0.0000
# 4 0.0000 0.0000 0.0000 26.8244 0.0000 -11.8290
# 5 -3.6554 -4.4866 -13.1832 0.0000 23.3441 0.0000
# 6 0.0000 0.0000 0.0000 -11.8290 0.0000 -10.6598
#
#
#
# Elastic Compliance Matrix: (Units=1/GPa)
#
#
# Indices 1 2 3 4 5 6 
#
# 1 0.030131 -0.006667 0.014382 0.000000 0.011559 0.000000
# 2 -0.006667 0.009016 -0.009516 0.000000 -0.004685 0.000000
# 3 0.014382 -0.009516 0.023034 0.000000 0.013431 0.000000
# 4 0.000000 0.000000 0.000000 0.025031 0.000000 -0.027776
# 5 0.011559 -0.004685 0.013431 0.000000 0.051332 0.000000
# 6 0.000000 0.000000 0.000000 -0.027776 0.000000 -0.062988
#
#
# Mechanical properties :
#
#
# Convention : Reuss Voigt Hill
#
# Bulk Modulus (GPa) = 17.07087 52.38375 34.72731
# Shear Modulus (GPa) = 50.66660 26.80661 38.73661
#
# Velocity S-wave (km/s) = 4.77904 3.47617 4.17870
# Velocity P-wave (km/s) = 6.17636 6.30278 6.23989
#
# Compressibility (1/GPa) = 0.05857932
#
# Stress axis : x y z
#
# Youngs Moduli (GPa) = 33.18839 110.90870 43.41469
#
# Poissons Ratio (x) = 0.73944 -0.62441
# Poissons Ratio (y) = 0.22127 0.41315
# Poissons Ratio (z) = -0.47733 1.05544
#
# Static dielectric constant tensor:
#      x y z
#    x 1.815830 0.000000 -0.106940 
#    y 0.000000 1.908130 0.000000 
#    z -0.106940 0.000000 1.595290 
# 
# From -- ./inp_files/42124.got.cif
#   From: 2010.05.17/outbox.cif.g08.bks.cpg/sg10_22_cif.got.tgz:42124.got - 2010.06.03 11:33:40.
