data_PCOD9142583
_publ_section_title
;
Structure prediction by ZEFSAII (Michael W. Deem and Ramdas Pophale) SiO2 
 PCOD9142583
Probable space group: P 2/M
;
_chemical_formula_sum "Si O2"
_cell_formula_units_Z 28
_cell_length_a 15.534942
_cell_length_b 13.688582
_cell_length_c 6.887623
_cell_angle_alpha 90.000000
_cell_angle_beta 130.061751
_cell_angle_gamma 90.000000
_cell_volume 1120.980994
_symmetry_space_group_name_H-M "P 2/M"
_symmetry_group_IT_number 10
_symmetry_cell_setting 'monoclinic'
loop_
_space_group_symop_operation_xyz
x,y,z
-x,y,-z
-x,-y,-z
x,-y,z
loop_
_atom_site_type_symbol
_atom_site_label
_atom_site_fract_x
_atom_site_fract_y
_atom_site_fract_z
Si Si1 0.155321 0.613604 0.916724
Si Si2 0.903590 0.614602 0.630220
Si Si3 0.523127 0.886417 0.267287
Si Si4 0.896549 0.115179 0.131924
Si Si5 0.315607 0.765678 0.050275
Si Si6 0.306239 0.254964 0.619691
Si Si7 0.130042 0.112580 0.370495
O O1 0.174023 0.500000 0.985302
O O2 0.125096 0.622188 0.642143
O O3 0.270557 0.673914 0.112885
O O4 0.036123 0.641262 0.846632
O O5 0.893441 0.500000 0.666016
O O6 0.803001 0.677570 0.582585
O O7 0.607022 0.791546 0.405577
O O8 0.555205 0.000000 0.365350
O O9 0.500000 0.890127 0.000000
O O10 0.411226 0.848376 0.214302
O O11 0.877476 0.123801 0.872103
O O12 0.890576 0.000000 0.171058
O O13 0.801386 0.174481 0.098797
O O14 0.023842 0.154183 0.330469
O O15 0.352401 0.714306 0.897713
O O16 0.247719 0.153660 0.597957
O O17 0.123736 0.000000 0.399394
#
# Coordination Sequence:
#
# PCOD9142583 Si02
#       7
#     4   4   4   4   4   4   4
#     4   8  14  25  42  66  93 115 140 184 236 274
#     4   8  14  25  42  66  93 115 140 184 236 274
#     4   9  18  30  42  62  94 123 149 193 238 255
#     4   9  18  31  45  64  92 120 144 181 235 281
#     4  10  18  29  47  67  87 119 159 188 218 267
#     4  10  18  29  47  67  87 119 159 188 218 267
#     4   9  18  31  45  64  92 120 144 181 235 281
#
# _framework density 24.978121999999999
#
# number of rings (size 3 to 8) (size 9 to 14) (size 15 to 20)
#    0.000    3.000    0.000    3.429    0.000    3.429 
#    0.000    2.857    0.000    7.714    0.000    4.000 
#    0.000    2.286    0.000    0.000    0.000    0.000 
#
# Total GULP energy -156030.514205 kJ/mol
# GULP energy per Si atom -5572.518364 kJ/mol
# Density = 2.492127 g / cm^3
# Si number density = 24.978122 Si / 1000 Ang^3
#
#
#
# Elastic Constant Matrix: (Units=GPa)
#
#
# Indices 1 2 3 4 5 6 
#
# 1 150.9124 30.9865 35.4836 0.0000 9.3050 0.0000
# 2 30.9865 124.4075 34.0118 0.0000 29.9599 0.0000
# 3 35.4836 34.0118 44.2288 0.0000 9.2336 0.0000
# 4 0.0000 0.0000 0.0000 35.2738 0.0000 20.7959
# 5 9.3050 29.9599 9.2336 0.0000 51.6909 0.0000
# 6 0.0000 0.0000 0.0000 20.7959 0.0000 30.5926
#
#
#
# Elastic Compliance Matrix: (Units=1/GPa)
#
#
# Indices 1 2 3 4 5 6 
#
# 1 0.008178 -0.000264 -0.006318 0.000000 -0.000191 0.000000
# 2 -0.000264 0.011404 -0.007467 0.000000 -0.005229 0.000000
# 3 -0.006318 -0.007467 0.033530 0.000000 -0.000524 0.000000
# 4 0.000000 0.000000 0.000000 0.047310 0.000000 -0.032160
# 5 -0.000191 -0.005229 -0.000524 0.000000 0.022504 0.000000
# 6 0.000000 0.000000 0.000000 -0.032160 0.000000 0.054549
#
#
# Mechanical properties :
#
#
# Convention : Reuss Voigt Hill
#
# Bulk Modulus (GPa) = 39.97638 57.83474 48.90556
# Shear Modulus (GPa) = 23.37424 38.11589 30.74507
#
# Velocity S-wave (km/s) = 3.06239 3.91061 3.51220
# Velocity P-wave (km/s) = 5.34262 6.60264 6.00577
#
# Compressibility (1/GPa) = 0.02501477
#
# Stress axis : x y z
#
# Youngs Moduli (GPa) = 122.28132 87.68651 29.82388
#
# Poissons Ratio (x) = 0.02311 0.18844
# Poissons Ratio (y) = 0.03223 0.22269
# Poissons Ratio (z) = 0.77262 0.65474
#
# Static dielectric constant tensor:
#      x y z
#    x 2.075630 0.000000 -0.143320 
#    y 0.000000 2.027920 0.000000 
#    z -0.143320 0.000000 2.222050 
# 
# From -- ./inp_files/29597.got.cif
#   From: 2010.05.17/outbox.cif.g08.bks.cpg/sg10_15_cif.got.tgz:29597.got - 2010.06.03 11:33:40.
