data_PCOD9142922
_publ_section_title
;
Structure prediction by ZEFSAII (Michael W. Deem and Ramdas Pophale) SiO2 
 PCOD9142922
Probable space group: P 2/M
;
_chemical_formula_sum "Si O2"
_cell_formula_units_Z 32
_cell_length_a 13.074929
_cell_length_b 8.305532
_cell_length_c 17.755597
_cell_angle_alpha 90.000000
_cell_angle_beta 90.475847
_cell_angle_gamma 90.000000
_cell_volume 1928.089087
_symmetry_space_group_name_H-M "P 2/M"
_symmetry_group_IT_number 10
_symmetry_cell_setting 'monoclinic'
loop_
_space_group_symop_operation_xyz
x,y,z
-x,y,-z
-x,-y,-z
x,-y,z
loop_
_atom_site_type_symbol
_atom_site_label
_atom_site_fract_x
_atom_site_fract_y
_atom_site_fract_z
Si Si1 0.119071 0.693936 0.840649
Si Si2 0.603486 0.690206 0.410072
Si Si3 0.622007 0.187795 0.574243
Si Si4 0.003912 0.696406 0.586444
Si Si5 0.802667 0.304945 0.678668
Si Si6 0.797607 0.303060 0.317860
Si Si7 0.118488 0.693887 0.160860
Si Si8 0.118374 0.191920 0.000759
O O1 0.116889 0.500000 0.839777
O O2 0.180988 0.748385 0.767623
O O3 0.161851 0.748426 0.921632
O O4 0.000308 0.749692 0.833110
O O5 0.587622 0.500000 0.398553
O O6 0.494294 0.775487 0.402243
O O7 0.640107 0.717206 0.496310
O O8 0.691186 0.748980 0.354061
O O9 0.702589 0.238768 0.637682
O O10 0.632104 0.000000 0.557435
O O11 0.005077 0.500000 0.586051
O O12 0.902992 0.744333 0.631712
O O13 0.000000 0.750587 0.500000
O O14 0.106461 0.748082 0.630099
O O15 0.798241 0.500000 0.677413
O O16 0.819983 0.252864 0.765052
O O17 0.797165 0.500000 0.318693
O O18 0.116010 0.500000 0.161461
O O19 0.161570 0.748940 0.080590
O O20 0.117892 0.000000 0.000613
O O21 0.000000 0.251784 0.000000
#
# Coordination Sequence:
#
# PCOD9142922 Si02
#       8
#     4   4   4   4   4   4   4   4
#     4   9  15  27  45  68  96 122 153 191 233 278
#     4  10  19  34  55  73  90 118 162 207 243 279
#     4  11  22  35  49  67  95 127 161 201 244 281
#     4   9  15  24  42  69  97 121 149 188 233 279
#     4  10  18  30  49  72  95 123 160 196 233 281
#     4   9  16  27  47  75  97 118 152 198 243 280
#     4   9  16  27  45  68  94 123 156 194 231 272
#     4   9  17  27  40  61  92 129 163 188 222 272
#
# _framework density 16.596744000000001
#
# number of rings (size 3 to 8) (size 9 to 14) (size 15 to 20)
#    0.000    2.500    1.250    3.375    0.000    4.000 
#    0.000    1.250    0.000    4.125    0.000    0.875 
#    0.000    7.000    0.000    0.000    0.000    0.000 
#
# Total GULP energy -178398.821206 kJ/mol
# GULP energy per Si atom -5574.963163 kJ/mol
# Density = 1.655897 g / cm^3
# Si number density = 16.596744 Si / 1000 Ang^3
#
#
#
# Elastic Constant Matrix: (Units=GPa)
#
#
# Indices 1 2 3 4 5 6 
#
# 1 61.3589 0.6386 55.0796 0.0000 -6.2141 0.0000
# 2 0.6386 7.4583 1.4713 0.0000 -1.9203 0.0000
# 3 55.0796 1.4713 149.2897 0.0000 -11.5632 0.0000
# 4 0.0000 0.0000 0.0000 -8.6178 0.0000 1.3396
# 5 -6.2141 -1.9203 -11.5632 0.0000 18.5425 0.0000
# 6 0.0000 0.0000 0.0000 1.3396 0.0000 2.6557
#
#
#
# Elastic Compliance Matrix: (Units=1/GPa)
#
#
# Indices 1 2 3 4 5 6 
#
# 1 0.024497 0.000350 -0.008829 0.000000 0.002740 0.000000
# 2 0.000350 0.137767 -0.000391 0.000000 0.014141 0.000000
# 3 -0.008829 -0.000391 0.010221 0.000000 0.003374 0.000000
# 4 0.000000 0.000000 0.000000 -0.107601 0.000000 0.054278
# 5 0.002740 0.014141 0.003374 0.000000 0.058417 0.000000
# 6 0.000000 0.000000 0.000000 0.054278 0.000000 0.349168
#
#
# Mechanical properties :
#
#
# Convention : Reuss Voigt Hill
#
# Bulk Modulus (GPa) = 6.46231 36.94287 21.70259
# Shear Modulus (GPa) = 9.22861 13.24391 11.23626
#
# Velocity S-wave (km/s) = 2.36063 2.82792 2.60478
# Velocity P-wave (km/s) = 3.36634 5.74198 4.70651
#
# Compressibility (1/GPa) = 0.15474338
#
# Stress axis : x y z
#
# Youngs Moduli (GPa) = 40.82102 7.25861 97.83634
#
# Poissons Ratio (x) = -0.00254 0.86383
# Poissons Ratio (y) = -0.01427 0.03829
# Poissons Ratio (z) = 0.36042 0.00284
#
# Static dielectric constant tensor:
#      x y z
#    x 1.536620 0.000000 -0.005660 
#    y 0.000000 1.565910 0.000000 
#    z -0.005660 0.000000 1.576100 
# 
# From -- ./inp_files/54888.got.cif
#   From: 2010.05.17/outbox.cif.g08.bks.cpg/sg10_28_cif.got.tgz:54888.got - 2010.06.03 11:33:40.
