data_PCOD9142778
_publ_section_title
;
Structure prediction by ZEFSAII (Michael W. Deem and Ramdas Pophale) SiO2 
 PCOD9142778
Probable space group: P 2/M
;
_chemical_formula_sum "Si O2"
_cell_formula_units_Z 32
_cell_length_a 14.268226
_cell_length_b 8.793326
_cell_length_c 16.934852
_cell_angle_alpha 90.000000
_cell_angle_beta 86.318785
_cell_angle_gamma 90.000000
_cell_volume 2120.350044
_symmetry_space_group_name_H-M "P 2/M"
_symmetry_group_IT_number 10
_symmetry_cell_setting 'monoclinic'
loop_
_space_group_symop_operation_xyz
x,y,z
-x,y,-z
-x,-y,-z
x,-y,z
loop_
_atom_site_type_symbol
_atom_site_label
_atom_site_fract_x
_atom_site_fract_y
_atom_site_fract_z
Si Si1 0.721212 0.183866 0.521391
Si Si2 0.072873 0.817302 0.426330
Si Si3 0.338038 0.319824 0.643668
Si Si4 0.526987 0.825165 0.591704
Si Si5 0.804132 0.183600 0.225136
Si Si6 0.074707 0.179638 0.109316
Si Si7 0.996267 0.319648 0.733352
Si Si8 0.860499 0.179191 0.056397
O O1 0.822330 0.222162 0.550947
O O2 0.703970 0.258039 0.437004
O O3 0.634987 0.227210 0.583905
O O4 0.715760 0.000000 0.511577
O O5 0.000000 0.779957 0.500000
O O6 0.043493 0.735689 0.347786
O O7 0.069080 0.000000 0.414088
O O8 0.327922 0.500000 0.647091
O O9 0.447638 0.272836 0.638187
O O10 0.280362 0.243560 0.717372
O O11 0.500000 0.825121 0.500000
O O12 0.521331 0.000000 0.619568
O O13 0.902303 0.242473 0.256459
O O14 0.800631 0.238089 0.133655
O O15 0.806331 0.000000 0.225350
O O16 0.072022 0.266879 0.191741
O O17 0.967633 0.189161 0.082467
O O18 0.093701 0.000000 0.121439
O O19 0.138159 0.240343 0.033192
O O20 0.007893 0.500000 0.734447
O O21 0.839379 0.000000 0.049274
#
# Coordination Sequence:
#
# PCOD9142778 Si02
#       8
#     4   4   4   4   4   4   4   4
#     4   9  18  32  48  63  81 111 151 185 211 246
#     4  10  20  33  48  63  81 112 151 184 214 246
#     4  11  20  28  42  66  91 112 137 172 217 263
#     4   8  15  29  46  62  81 108 142 177 211 250
#     4  10  18  30  45  60  84 117 148 176 209 250
#     4   8  13  26  44  59  78 107 143 176 206 244
#     4  11  21  30  41  62  89 115 144 177 214 253
#     4   7  12  23  42  62  77 103 143 178 205 240
#
# _framework density 15.091848000000001
#
# number of rings (size 3 to 8) (size 9 to 14) (size 15 to 20)
#    0.000    2.750    0.000    5.625    0.000    4.000 
#    0.000    5.625    0.000    0.000    0.000    0.000 
#    0.000    1.000    0.000   11.500    0.000    4.750 
#
# Total GULP energy -178175.867154 kJ/mol
# GULP energy per Si atom -5567.995849 kJ/mol
# Density = 1.505750 g / cm^3
# Si number density = 15.091848 Si / 1000 Ang^3
#
#
#
# Elastic Constant Matrix: (Units=GPa)
#
#
# Indices 1 2 3 4 5 6 
#
# 1 90.8078 32.5463 52.3738 0.0000 -19.0250 0.0000
# 2 32.5463 55.0653 46.1917 0.0000 -11.7117 0.0000
# 3 52.3738 46.1917 116.2926 0.0000 -27.0850 0.0000
# 4 0.0000 0.0000 0.0000 -8.4523 0.0000 0.8826
# 5 -19.0250 -11.7117 -27.0850 0.0000 20.7657 0.0000
# 6 0.0000 0.0000 0.0000 0.8826 0.0000 8.8904
#
#
#
# Elastic Compliance Matrix: (Units=1/GPa)
#
#
# Indices 1 2 3 4 5 6 
#
# 1 0.016524 -0.005091 -0.003681 0.000000 0.007467 0.000000
# 2 -0.005091 0.028850 -0.009283 0.000000 -0.000501 0.000000
# 3 -0.003681 -0.009283 0.017149 0.000000 0.013759 0.000000
# 4 0.000000 0.000000 0.000000 -0.117097 0.000000 0.011625
# 5 0.007467 -0.000501 0.013759 0.000000 0.072661 0.000000
# 6 0.000000 0.000000 0.000000 0.011625 0.000000 0.111327
#
#
# Mechanical properties :
#
#
# Convention : Reuss Voigt Hill
#
# Bulk Modulus (GPa) = 37.86020 58.26548 48.06284
# Shear Modulus (GPa) = 28.68167 12.97769 20.82968
#
# Velocity S-wave (km/s) = 4.36417 2.93561 3.71913
# Velocity P-wave (km/s) = 7.10884 7.08389 7.09638
#
# Compressibility (1/GPa) = 0.02641296
#
# Stress axis : x y z
#
# Youngs Moduli (GPa) = 60.51762 34.66219 58.31396
#
# Poissons Ratio (x) = 0.17646 0.21463
# Poissons Ratio (y) = 0.30809 0.54134
# Poissons Ratio (z) = 0.22274 0.32178
#
# Static dielectric constant tensor:
#      x y z
#    x 1.503450 0.000000 -0.028390 
#    y 0.000000 1.499740 0.000000 
#    z -0.028390 0.000000 1.515270 
# 
# From -- ./inp_files/66137.got.cif
#   From: 2010.05.17/outbox.cif.g08.bks.cpg/sg10_34_cif.got.tgz:66137.got - 2010.06.03 11:33:40.
