data_PCOD9142972
_publ_section_title
;
Structure prediction by ZEFSAII (Michael W. Deem and Ramdas Pophale) SiO2 
 PCOD9142972
Probable space group: P 2/M
;
_chemical_formula_sum "Si O2"
_cell_formula_units_Z 32
_cell_length_a 20.910368
_cell_length_b 12.452251
_cell_length_c 11.472752
_cell_angle_alpha 90.000000
_cell_angle_beta 25.277871
_cell_angle_gamma 90.000000
_cell_volume 1275.597983
_symmetry_space_group_name_H-M "P 2/M"
_symmetry_group_IT_number 10
_symmetry_cell_setting 'monoclinic'
loop_
_space_group_symop_operation_xyz
x,y,z
-x,y,-z
-x,-y,-z
x,-y,z
loop_
_atom_site_type_symbol
_atom_site_label
_atom_site_fract_x
_atom_site_fract_y
_atom_site_fract_z
Si Si1 0.664300 0.153500 0.485518
Si Si2 0.882600 0.111661 0.343644
Si Si3 0.680768 0.121379 0.199741
Si Si4 0.395967 0.154351 0.063975
Si Si5 0.296483 0.383675 0.173707
Si Si6 0.751856 0.611395 0.362697
Si Si7 0.039683 0.654614 0.757331
Si Si8 0.664556 0.626678 0.167963
O O1 0.775004 0.121734 0.407850
O O2 0.720946 0.116975 0.269426
O O3 0.492770 0.120666 0.793959
O O4 0.658819 0.282660 0.498854
O O5 0.975403 0.218539 0.199635
O O6 0.964661 0.000000 0.202397
O O7 0.769070 0.112509 0.640510
O O8 0.500000 0.123344 0.500000
O O9 0.726103 0.247085 0.089146
O O10 0.725321 0.000000 0.076501
O O11 0.500000 0.121748 0.000000
O O12 0.375025 0.282477 0.103109
O O13 0.345681 0.500000 0.136105
O O14 0.121627 0.372483 0.502201
O O15 0.323704 0.376091 0.991661
O O16 0.665943 0.500000 0.500712
O O17 0.844955 0.619487 0.330014
O O18 0.878310 0.610745 0.054236
O O19 0.500000 0.630184 0.500000
O O20 0.717502 0.500000 0.110859
#
# Coordination Sequence:
#
# PCOD9142972 Si02
#       8
#     4   4   4   4   4   4   4   4
#     4  10  20  32  48  75 104 136 176 216 261 319
#     4   9  18  32  49  71 104 142 175 213 261 314
#     4  10  20  34  52  73  99 133 174 219 266 318
#     4   9  18  28  42  70 105 136 169 204 250 315
#     4  10  18  30  50  72  99 133 169 214 263 316
#     4  10  19  33  54  78 110 144 172 211 262 316
#     4   9  18  33  52  79 106 136 179 216 254 310
#     4   9  18  32  49  71  99 129 164 213 269 316
#
# _framework density 25.086275000000001
#
# number of rings (size 3 to 8) (size 9 to 14) (size 15 to 20)
#    0.000    2.500    0.000    4.125    0.000    4.000 
#    0.000    9.375    0.000    0.750    0.000    3.500 
#    0.000    0.000    0.000    0.000    0.000    0.000 
#
# Total GULP energy -178451.964947 kJ/mol
# GULP energy per Si atom -5576.623905 kJ/mol
# Density = 2.502918 g / cm^3
# Si number density = 25.086275 Si / 1000 Ang^3
#
#
#
# Elastic Constant Matrix: (Units=GPa)
#
#
# Indices 1 2 3 4 5 6 
#
# 1 46.2495 24.4020 26.7228 0.0000 11.4407 0.0000
# 2 24.4020 286.7078 17.7280 0.0000 0.2363 0.0000
# 3 26.7228 17.7280 109.8212 0.0000 16.0610 0.0000
# 4 0.0000 0.0000 0.0000 956.5817 0.0000 887.5569
# 5 11.4407 0.2363 16.0610 0.0000 23.6981 0.0000
# 6 0.0000 0.0000 0.0000 887.5569 0.0000 938.9947
#
#
#
# Elastic Compliance Matrix: (Units=1/GPa)
#
#
# Indices 1 2 3 4 5 6 
#
# 1 0.028132 -0.002075 -0.005025 0.000000 -0.010155 0.000000
# 2 -0.002075 0.003679 -0.000255 0.000000 0.001138 0.000000
# 3 -0.005025 -0.000255 0.011116 0.000000 -0.005105 0.000000
# 4 0.000000 0.000000 0.000000 0.008500 0.000000 -0.008035
# 5 -0.010155 0.001138 -0.005105 0.000000 0.050549 0.000000
# 6 0.000000 0.000000 0.000000 -0.008035 0.000000 0.008659
#
#
# Mechanical properties :
#
#
# Convention : Reuss Voigt Hill
#
# Bulk Modulus (GPa) = 35.44077 64.49822 49.96950
# Shear Modulus (GPa) = 37.10465 408.78327 222.94396
#
# Velocity S-wave (km/s) = 3.85006 12.77907 9.43736
# Velocity P-wave (km/s) = 5.82427 15.60468 11.77769
#
# Compressibility (1/GPa) = 0.02821609
#
# Stress axis : x y z
#
# Youngs Moduli (GPa) = 35.54611 271.78651 89.95718
#
# Poissons Ratio (x) = 0.56403 0.45207
# Poissons Ratio (y) = 0.07377 0.02298
# Poissons Ratio (z) = 0.17863 0.06942
#
# Static dielectric constant tensor:
#      x y z
#    x 2.041060 0.000000 -0.006770 
#    y 0.000000 2.146780 0.000000 
#    z -0.006770 0.000000 1.984860 
# 
# From -- ./inp_files/56969.got.cif
#   From: 2010.05.17/outbox.cif.g08.bks.cpg/sg10_29_cif.got.tgz:56969.got - 2010.06.03 11:33:40.
