data_PCOD9142713
_publ_section_title
;
Structure prediction by ZEFSAII (Michael W. Deem and Ramdas Pophale) SiO2 
 PCOD9142713
Probable space group: P 2/M
;
_chemical_formula_sum "Si O2"
_cell_formula_units_Z 32
_cell_length_a 12.572314
_cell_length_b 19.603536
_cell_length_c 6.972974
_cell_angle_alpha 90.000000
_cell_angle_beta 127.960564
_cell_angle_gamma 90.000000
_cell_volume 1354.980983
_symmetry_space_group_name_H-M "P 2/M"
_symmetry_group_IT_number 10
_symmetry_cell_setting 'monoclinic'
loop_
_space_group_symop_operation_xyz
x,y,z
-x,y,-z
-x,-y,-z
x,-y,z
loop_
_atom_site_type_symbol
_atom_site_label
_atom_site_fract_x
_atom_site_fract_y
_atom_site_fract_z
Si Si1 0.351283 0.578576 0.753768
Si Si2 0.258310 0.716815 0.484872
Si Si3 0.039856 0.716195 0.775312
Si Si4 0.112601 0.079942 0.855333
Si Si5 0.811708 0.920110 0.611102
Si Si6 0.274742 0.801070 0.896586
Si Si7 0.438512 0.168950 0.617243
Si Si8 0.114468 0.427351 0.792293
O O1 0.348227 0.500000 0.675411
O O2 0.298851 0.637699 0.552971
O O3 0.251797 0.580279 0.825937
O O4 0.500000 0.593408 0.000000
O O5 0.100196 0.729660 0.271669
O O6 0.276346 0.751840 0.714691
O O7 0.360620 0.761386 0.473443
O O8 0.000000 0.716759 0.500000
O O9 0.168982 0.764539 0.925108
O O10 0.086666 0.640099 0.878550
O O11 0.206211 0.124374 0.822686
O O12 0.956215 0.103322 0.686001
O O13 0.114077 0.000000 0.807317
O O14 0.165785 0.085699 0.132889
O O15 0.676785 0.877994 0.419790
O O16 0.795656 0.000000 0.549423
O O17 0.429701 0.811102 0.120426
O O18 0.500000 0.132399 0.500000
O O19 0.112594 0.500000 0.894076
O O20 0.000000 0.429704 0.500000
#
# Coordination Sequence:
#
# PCOD9142713 Si02
#       8
#     4   4   4   4   4   4   4   4
#     4  10  18  29  49  79 113 148 185 225 274 329
#     4  11  22  37  55  80 116 151 181 231 285 331
#     4   9  17  31  50  77 107 146 173 219 281 324
#     4   9  18  35  61  85 109 142 184 229 271 324
#     4   9  19  38  60  83 109 144 188 229 267 324
#     4  11  20  35  56  82 115 142 181 225 282 330
#     4  12  24  37  54  83 111 149 187 228 277 335
#     4   9  14  25  46  75 108 136 178 225 268 320
#
# _framework density 23.616567
#
# number of rings (size 3 to 8) (size 9 to 14) (size 15 to 20)
#    0.000    2.000    5.000    2.625    0.000    0.750 
#    0.000    0.625    0.000    6.750    0.000    0.000 
#    0.000    2.000    0.000    0.000    0.000    0.000 
#
# Total GULP energy -178821.920616 kJ/mol
# GULP energy per Si atom -5588.185019 kJ/mol
# Density = 2.356281 g / cm^3
# Si number density = 23.616567 Si / 1000 Ang^3
#
#
#
# Elastic Constant Matrix: (Units=GPa)
#
#
# Indices 1 2 3 4 5 6 
#
# 1 134.2664 39.3665 48.5655 0.0000 40.2800 0.0000
# 2 39.3665 115.7599 36.7324 0.0000 29.8702 0.0000
# 3 48.5655 36.7324 125.3409 0.0000 45.9918 0.0000
# 4 0.0000 0.0000 0.0000 17.4812 0.0000 8.6013
# 5 40.2800 29.8702 45.9918 0.0000 51.8843 0.0000
# 6 0.0000 0.0000 0.0000 8.6013 0.0000 26.4959
#
#
#
# Elastic Compliance Matrix: (Units=1/GPa)
#
#
# Indices 1 2 3 4 5 6 
#
# 1 0.010117 -0.001520 -0.001354 0.000000 -0.005779 0.000000
# 2 -0.001520 0.010504 -0.001043 0.000000 -0.003943 0.000000
# 3 -0.001354 -0.001043 0.012156 0.000000 -0.009124 0.000000
# 4 0.000000 0.000000 0.000000 0.068078 0.000000 -0.022100
# 5 -0.005779 -0.003943 -0.009124 0.000000 0.034118 0.000000
# 6 0.000000 0.000000 0.000000 -0.022100 0.000000 0.044916
#
#
# Mechanical properties :
#
#
# Convention : Reuss Voigt Hill
#
# Bulk Modulus (GPa) = 40.08889 69.41068 54.74978
# Shear Modulus (GPa) = 25.50537 35.88581 30.69559
#
# Velocity S-wave (km/s) = 3.28987 3.90233 3.60911
# Velocity P-wave (km/s) = 5.60738 7.05399 6.37187
#
# Compressibility (1/GPa) = 0.02494457
#
# Stress axis : x y z
#
# Youngs Moduli (GPa) = 98.84426 95.20528 82.26054
#
# Poissons Ratio (x) = 0.14467 0.11139
# Poissons Ratio (y) = 0.15020 0.08576
# Poissons Ratio (z) = 0.13385 0.09925
#
# Static dielectric constant tensor:
#      x y z
#    x 1.898970 0.000000 -0.082740 
#    y 0.000000 1.928310 0.000000 
#    z -0.082740 0.000000 1.933770 
# 
# From -- ./inp_files/26097.got.cif
#   From: 2010.05.17/outbox.cif.g08.bks.cpg/sg10_14_cif.got.tgz:26097.got - 2010.06.03 11:33:40.
