data_PCOD9142140
_publ_section_title
;
Structure prediction by ZEFSAII (Michael W. Deem and Ramdas Pophale) SiO2 
 PCOD9142140
Probable space group: P 2/M
;
_chemical_formula_sum "Si O2"
_cell_formula_units_Z 30
_cell_length_a 11.858791
_cell_length_b 25.335065
_cell_length_c 7.930736
_cell_angle_alpha 90.000000
_cell_angle_beta 142.209305
_cell_angle_gamma 90.000000
_cell_volume 1460.089937
_symmetry_space_group_name_H-M "P 2/M"
_symmetry_group_IT_number 10
_symmetry_cell_setting 'monoclinic'
loop_
_space_group_symop_operation_xyz
x,y,z
-x,y,-z
-x,-y,-z
x,-y,z
loop_
_atom_site_type_symbol
_atom_site_label
_atom_site_fract_x
_atom_site_fract_y
_atom_site_fract_z
Si Si1 0.593677 0.264203 0.855514
Si Si2 0.741616 0.940953 0.532312
Si Si3 0.111021 0.666063 0.955798
Si Si4 0.554034 0.858732 0.762502
Si Si5 0.155971 0.058236 0.945417
Si Si6 0.830677 0.441424 0.166936
Si Si7 0.731688 0.311396 0.370933
Si Si8 0.500000 0.591315 0.000000
O O1 0.594691 0.201388 0.853722
O O2 0.379721 0.280661 0.616542
O O3 0.715439 0.294825 0.860864
O O4 0.678336 0.285791 0.130189
O O5 0.609524 0.891709 0.342576
O O6 0.937921 0.935610 0.675235
O O7 0.665920 0.000000 0.406895
O O8 0.788888 0.941141 0.789714
O O9 0.165484 0.607689 0.956253
O O10 0.947966 0.687030 0.643531
O O11 0.000000 0.663553 0.000000
O O12 0.500000 0.858523 0.500000
O O13 0.732255 0.894578 0.002013
O O14 0.207254 0.000000 0.941872
O O15 0.852011 0.500000 0.116223
O O16 0.000000 0.434650 0.500000
O O17 0.636484 0.438987 0.037123
O O18 0.640956 0.369691 0.264524
#
# Coordination Sequence:
#
# PCOD9142140 Si02
#       8
#     4   4   4   4   4   4   4   2
#     4  10  22  39  58  81 113 158 196 246 283 348
#     4   8  14  26  43  66 104 149 187 226 283 350
#     4  12  24  39  62  87 120 157 188 242 300 346
#     4  10  19  28  46  78 114 140 188 245 290 334
#     4   8  14  26  43  66 104 152 187 224 284 348
#     4  11  21  38  65  95 123 156 200 238 279 342
#     4  10  21  41  65  77 110 157 207 231 283 354
#     4  10  17  38  68  86 116 152 201 240 266 332
#
# _framework density 20.546679000000001
#
# number of rings (size 3 to 8) (size 9 to 14) (size 15 to 20)
#    0.000    2.267    4.000    1.800    1.867    2.933 
#    2.400    0.000    0.000    0.800    0.000    7.467 
#    0.000   17.067    0.000    0.000    0.000    0.533 
#
# Total GULP energy -167294.855781 kJ/mol
# GULP energy per Si atom -5576.495193 kJ/mol
# Density = 2.049991 g / cm^3
# Si number density = 20.546679 Si / 1000 Ang^3
#
#
#
# Elastic Constant Matrix: (Units=GPa)
#
#
# Indices 1 2 3 4 5 6 
#
# 1 107.9916 61.5380 29.0051 0.0000 21.1978 0.0000
# 2 61.5380 182.7475 23.4229 0.0000 21.2618 0.0000
# 3 29.0051 23.4229 33.2627 0.0000 8.4570 0.0000
# 4 0.0000 0.0000 0.0000 -17.1021 0.0000 27.7755
# 5 21.1978 21.2618 8.4570 0.0000 30.2229 0.0000
# 6 0.0000 0.0000 0.0000 27.7755 0.0000 35.3066
#
#
#
# Elastic Compliance Matrix: (Units=1/GPa)
#
#
# Indices 1 2 3 4 5 6 
#
# 1 0.014545 -0.003093 -0.009113 0.000000 -0.005476 0.000000
# 2 -0.003093 0.006990 -0.001644 0.000000 -0.002289 0.000000
# 3 -0.009113 -0.001644 0.040102 0.000000 -0.003673 0.000000
# 4 0.000000 0.000000 0.000000 -0.025672 0.000000 0.020196
# 5 -0.005476 -0.002289 -0.003673 0.000000 0.039566 0.000000
# 6 0.000000 0.000000 0.000000 0.020196 0.000000 0.012435
#
#
# Mechanical properties :
#
#
# Convention : Reuss Voigt Hill
#
# Bulk Modulus (GPa) = 29.46562 61.32597 45.39579
# Shear Modulus (GPa) = 39.37698 23.68789 31.53243
#
# Velocity S-wave (km/s) = 4.38249 3.39909 3.92174
# Velocity P-wave (km/s) = 6.32300 6.73180 6.53060
#
# Compressibility (1/GPa) = 0.03393786
#
# Stress axis : x y z
#
# Youngs Moduli (GPa) = 68.75313 143.05316 24.93656
#
# Poissons Ratio (x) = 0.44242 0.22725
# Poissons Ratio (y) = 0.21263 0.04099
# Poissons Ratio (z) = 0.62655 0.23515
#
# Static dielectric constant tensor:
#      x y z
#    x 1.781060 0.000000 -0.043650 
#    y 0.000000 1.726010 0.000000 
#    z -0.043650 0.000000 1.798440 
# 
# From -- ./inp_files/26167.got.cif
#   From: 2010.05.17/outbox.cif.g08.bks.cpg/sg10_14_cif.got.tgz:26167.got - 2010.06.03 11:33:40.
