data_PCOD9142391
_publ_section_title
;
Structure prediction by ZEFSAII (Michael W. Deem and Ramdas Pophale) SiO2 
 PCOD9142391
Probable space group: P 2/M
;
_chemical_formula_sum "Si O2"
_cell_formula_units_Z 32
_cell_length_a 21.752465
_cell_length_b 7.336497
_cell_length_c 11.780670
_cell_angle_alpha 90.000000
_cell_angle_beta 53.383940
_cell_angle_gamma 90.000000
_cell_volume 1509.015142
_symmetry_space_group_name_H-M "P 2/M"
_symmetry_group_IT_number 10
_symmetry_cell_setting 'monoclinic'
loop_
_space_group_symop_operation_xyz
x,y,z
-x,y,-z
-x,-y,-z
x,-y,z
loop_
_atom_site_type_symbol
_atom_site_label
_atom_site_fract_x
_atom_site_fract_y
_atom_site_fract_z
Si Si1 0.231727 0.276673 0.102260
Si Si2 0.574583 0.722717 0.489683
Si Si3 0.998679 0.220420 0.822416
Si Si4 0.543448 0.721910 0.779689
Si Si5 0.383866 0.721416 0.065992
Si Si6 0.935336 0.293187 0.649944
Si Si7 0.123726 0.219407 0.849332
Si Si8 0.276365 0.709091 0.802647
O O1 0.227836 0.500000 0.104548
O O2 0.303442 0.221677 0.101015
O O3 0.149501 0.213561 0.239678
O O4 0.247462 0.214929 0.955191
O O5 0.500000 0.773115 0.500000
O O6 0.577319 0.500000 0.490359
O O7 0.567982 0.782699 0.627749
O O8 0.649347 0.788518 0.340058
O O9 0.973274 0.297601 0.731719
O O10 0.081076 0.276914 0.781240
O O11 0.998471 0.000000 0.814928
O O12 0.934496 0.270981 0.985651
O O13 0.543827 0.500000 0.778488
O O14 0.597285 0.778454 0.825776
O O15 0.456714 0.776232 0.908668
O O16 0.383374 0.500000 0.066446
O O17 0.923631 0.500000 0.619293
O O18 0.000000 0.204911 0.500000
O O19 0.206725 0.288155 0.790596
O O20 0.127665 0.000000 0.843647
O O21 0.296914 0.500000 0.806662
#
# Coordination Sequence:
#
# PCOD9142391 Si02
#       8
#     4   4   4   4   4   4   4   4
#     4   9  16  27  41  59  87 120 154 186 226 281
#     4   9  16  25  38  62  96 125 152 190 232 276
#     4   9  18  34  54  71  90 122 162 200 241 287
#     4   8  13  22  35  55  83 116 156 189 219 267
#     4   8  13  22  38  55  78 119 157 186 222 266
#     4  10  20  33  47  69 100 129 155 193 245 287
#     4   9  18  33  52  72  93 121 158 201 244 284
#     4  10  18  28  46  71  95 125 158 191 239 286
#
# _framework density 21.205884000000001
#
# number of rings (size 3 to 8) (size 9 to 14) (size 15 to 20)
#    0.000    3.000    1.250    2.250    0.000    3.750 
#    2.250    1.250    0.000    0.375    0.000    0.000 
#    0.000    0.000    0.000    5.875    0.000    6.000 
#
# Total GULP energy -178540.604596 kJ/mol
# GULP energy per Si atom -5579.393894 kJ/mol
# Density = 2.115762 g / cm^3
# Si number density = 21.205884 Si / 1000 Ang^3
#
#
#
# Elastic Constant Matrix: (Units=GPa)
#
#
# Indices 1 2 3 4 5 6 
#
# 1 172.6658 -1.0182 96.6267 0.0000 -27.0219 0.0000
# 2 -1.0182 79.0728 9.9529 0.0000 -1.4091 0.0000
# 3 96.6267 9.9529 155.3354 0.0000 -26.6592 0.0000
# 4 0.0000 0.0000 0.0000 -11.7863 0.0000 2.4301
# 5 -27.0219 -1.4091 -26.6592 0.0000 25.4622 0.0000
# 6 0.0000 0.0000 0.0000 2.4301 0.0000 26.2485
#
#
#
# Elastic Compliance Matrix: (Units=1/GPa)
#
#
# Indices 1 2 3 4 5 6 
#
# 1 0.009371 0.000844 -0.005082 0.000000 0.004671 0.000000
# 2 0.000844 0.012826 -0.001306 0.000000 0.000238 0.000000
# 3 -0.005082 -0.001306 0.010660 0.000000 0.005696 0.000000
# 4 0.000000 0.000000 0.000000 -0.083255 0.000000 0.007708
# 5 0.004671 0.000238 0.005696 0.000000 0.050208 0.000000
# 6 0.000000 0.000000 0.000000 0.007708 0.000000 0.037384
#
#
# Mechanical properties :
#
#
# Convention : Reuss Voigt Hill
#
# Bulk Modulus (GPa) = 45.93572 68.68855 57.31214
# Shear Modulus (GPa) = 90.02670 28.08570 59.05620
#
# Velocity S-wave (km/s) = 6.52271 3.64322 5.28294
# Velocity P-wave (km/s) = 8.85644 7.08230 8.01859
#
# Compressibility (1/GPa) = 0.02176955
#
# Stress axis : x y z
#
# Youngs Moduli (GPa) = 106.70653 77.96641 93.80812
#
# Poissons Ratio (x) = -0.06577 0.47672
# Poissons Ratio (y) = -0.09002 0.12249
# Poissons Ratio (z) = 0.54227 0.10180
#
# Static dielectric constant tensor:
#      x y z
#    x 1.731420 0.000000 -0.003720 
#    y 0.000000 1.820030 0.000000 
#    z -0.003720 0.000000 1.739640 
# 
# From -- ./inp_files/55246.got.cif
#   From: 2010.05.17/outbox.cif.g08.bks.cpg/sg10_28_cif.got.tgz:55246.got - 2010.06.03 11:33:40.
