data_PCOD9142606
_publ_section_title
;
Structure prediction by ZEFSAII (Michael W. Deem and Ramdas Pophale) SiO2 
 PCOD9142606
Probable space group: P 2/M
;
_chemical_formula_sum "Si O2"
_cell_formula_units_Z 32
_cell_length_a 14.826632
_cell_length_b 7.595761
_cell_length_c 17.017522
_cell_angle_alpha 90.000000
_cell_angle_beta 125.021905
_cell_angle_gamma 90.000000
_cell_volume 1569.489202
_symmetry_space_group_name_H-M "P 2/M"
_symmetry_group_IT_number 10
_symmetry_cell_setting 'monoclinic'
loop_
_space_group_symop_operation_xyz
x,y,z
-x,y,-z
-x,-y,-z
x,-y,z
loop_
_atom_site_type_symbol
_atom_site_label
_atom_site_fract_x
_atom_site_fract_y
_atom_site_fract_z
Si Si1 0.988806 0.707438 0.804286
Si Si2 0.108553 0.204365 0.010648
Si Si3 0.416945 0.216039 0.690776
Si Si4 0.398803 0.211874 0.502075
Si Si5 0.823992 0.785219 0.402456
Si Si6 0.252315 0.292343 0.291056
Si Si7 0.343666 0.797825 0.177776
Si Si8 0.983012 0.212298 0.617911
O O1 0.991307 0.500000 0.820235
O O2 0.871536 0.777088 0.777315
O O3 0.990366 0.733323 0.711778
O O4 0.083661 0.787518 0.905516
O O5 0.228189 0.283296 0.090746
O O6 0.114262 0.000000 0.038546
O O7 0.000000 0.281442 0.000000
O O8 0.405354 0.272923 0.594220
O O9 0.301914 0.270877 0.672312
O O10 0.535923 0.278100 0.781160
O O11 0.420633 0.000000 0.693712
O O12 0.500000 0.278120 0.500000
O O13 0.291736 0.262096 0.399292
O O14 0.403324 0.000000 0.506401
O O15 0.877526 0.730256 0.512995
O O16 0.909429 0.730623 0.377754
O O17 0.823693 0.000000 0.403101
O O18 0.254194 0.500000 0.276218
O O19 0.331127 0.204181 0.266444
O O20 0.345130 0.000000 0.150641
O O21 0.980712 0.000000 0.616324
#
# Coordination Sequence:
#
# PCOD9142606 Si02
#       8
#     4   4   4   4   4   4   4   4
#     4  11  23  35  50  73 103 136 168 208 261 307
#     4  10  20  34  54  75  96 128 173 220 257 294
#     4   9  16  28  48  73 101 129 161 202 249 300
#     4  10  18  29  47  70  97 133 170 200 237 288
#     4   8  15  29  52  81 105 129 162 207 255 296
#     4  11  22  32  44  67 101 136 166 201 244 293
#     4  10  19  33  51  71  96 129 168 206 247 297
#     4   9  17  32  55  79 102 129 168 210 250 298
#
# _framework density 20.388798000000001
#
# number of rings (size 3 to 8) (size 9 to 14) (size 15 to 20)
#    0.000    2.250    2.500    2.250    0.000    3.500 
#    0.000    1.250    0.000    2.250    0.000    5.250 
#    0.000    0.000    0.000    0.000    0.000    0.000 
#
# Total GULP energy -178545.917499 kJ/mol
# GULP energy per Si atom -5579.559922 kJ/mol
# Density = 2.034239 g / cm^3
# Si number density = 20.388798 Si / 1000 Ang^3
#
#
#
# Elastic Constant Matrix: (Units=GPa)
#
#
# Indices 1 2 3 4 5 6 
#
# 1 118.6852 4.4193 46.9853 0.0000 34.1484 0.0000
# 2 4.4193 49.2386 -0.7879 0.0000 2.7812 0.0000
# 3 46.9853 -0.7879 94.4544 0.0000 27.1145 0.0000
# 4 0.0000 0.0000 0.0000 70.4756 0.0000 -3.8956
# 5 34.1484 2.7812 27.1145 0.0000 41.6071 0.0000
# 6 0.0000 0.0000 0.0000 -3.8956 0.0000 -4.1931
#
#
#
# Elastic Compliance Matrix: (Units=1/GPa)
#
#
# Indices 1 2 3 4 5 6 
#
# 1 0.012119 -0.000736 -0.003928 0.000000 -0.007338 0.000000
# 2 -0.000736 0.020468 0.000930 0.000000 -0.001370 0.000000
# 3 -0.003928 0.000930 0.014320 0.000000 -0.006170 0.000000
# 4 0.000000 0.000000 0.000000 0.013496 0.000000 -0.012539
# 5 -0.007338 -0.001370 -0.006170 0.000000 0.034169 0.000000
# 6 0.000000 0.000000 0.000000 -0.012539 0.000000 -0.226840
#
#
# Mechanical properties :
#
#
# Convention : Reuss Voigt Hill
#
# Bulk Modulus (GPa) = 25.35586 40.40129 32.87858
# Shear Modulus (GPa) = -44.78194 35.69537 -4.54329
#
# Velocity S-wave (km/s) = -4.69166 4.18872 -1.49438
# Velocity P-wave (km/s) = 4.10923 6.57664 3.63088
#
# Compressibility (1/GPa) = 0.03943862
#
# Stress axis : x y z
#
# Youngs Moduli (GPa) = 82.51196 48.85769 69.83092
#
# Poissons Ratio (x) = 0.03597 0.27433
# Poissons Ratio (y) = 0.06074 -0.06496
# Poissons Ratio (z) = 0.32415 -0.04545
#
# Static dielectric constant tensor:
#      x y z
#    x 1.752890 0.000000 0.048230 
#    y 0.000000 1.754920 0.000000 
#    z 0.048230 0.000000 1.739500 
# 
# From -- ./inp_files/66050.got.cif
#   From: 2010.05.17/outbox.cif.g08.bks.cpg/sg10_34_cif.got.tgz:66050.got - 2010.06.03 11:33:40.
