data_PCOD9142832
_publ_section_title
;
Structure prediction by ZEFSAII (Michael W. Deem and Ramdas Pophale) SiO2 
 PCOD9142832
Probable space group: P 2/M
;
_chemical_formula_sum "Si O2"
_cell_formula_units_Z 32
_cell_length_a 28.869801
_cell_length_b 8.799227
_cell_length_c 14.721649
_cell_angle_alpha 90.000000
_cell_angle_beta 29.411101
_cell_angle_gamma 90.000000
_cell_volume 1836.497839
_symmetry_space_group_name_H-M "P 2/M"
_symmetry_group_IT_number 10
_symmetry_cell_setting 'monoclinic'
loop_
_space_group_symop_operation_xyz
x,y,z
-x,y,-z
-x,-y,-z
x,-y,z
loop_
_atom_site_type_symbol
_atom_site_label
_atom_site_fract_x
_atom_site_fract_y
_atom_site_fract_z
Si Si1 0.491522 0.175401 0.905838
Si Si2 0.191316 0.314709 0.475878
Si Si3 0.409215 0.182897 0.772610
Si Si4 0.683065 0.676249 0.570706
Si Si5 0.619920 0.182703 0.386871
Si Si6 0.681448 0.319871 0.899856
Si Si7 0.793008 0.676231 0.198654
Si Si8 0.003522 0.686026 0.100251
O O1 0.593443 0.225571 0.696144
O O2 0.471488 0.000000 0.917274
O O3 0.500000 0.191131 0.000000
O O4 0.409794 0.278585 0.004968
O O5 0.190935 0.500000 0.477629
O O6 0.268228 0.268210 0.420143
O O7 0.228788 0.266362 0.313183
O O8 0.089119 0.265529 0.686018
O O9 0.518382 0.233757 0.601006
O O10 0.381954 0.226504 0.716418
O O11 0.408935 0.000000 0.777463
O O12 0.339419 0.245938 0.967592
O O13 0.653222 0.500000 0.634160
O O14 0.759756 0.679627 0.360290
O O15 0.712018 0.243204 0.279518
O O16 0.620218 0.000000 0.390491
O O17 0.688382 0.500000 0.899023
O O18 0.795340 0.500000 0.165957
O O19 0.899533 0.737439 0.017830
O O20 0.005203 0.500000 0.096563
O O21 0.000000 0.732341 0.000000
#
# Coordination Sequence:
#
# PCOD9142832 Si02
#       8
#     4   4   4   4   4   4   4   4
#     4  11  22  32  43  64  97 137 172 200 234 288
#     4   9  17  29  46  69 100 134 166 200 245 295
#     4   9  19  37  57  75  98 133 170 202 247 310
#     4  10  18  30  47  70  99 131 166 205 246 289
#     4   9  19  36  56  75 100 133 165 203 256 307
#     4  11  21  32  50  74 100 133 167 207 253 293
#     4  10  19  29  51  81 102 126 167 213 253 294
#     4   9  15  28  49  73 101 134 170 207 248 295
#
# _framework density 17.424468999999998
#
# number of rings (size 3 to 8) (size 9 to 14) (size 15 to 20)
#    0.000    2.250    2.500    2.250    0.000    4.000 
#    0.000    1.250    0.000    3.375    0.000    5.250 
#    0.000    0.000    0.000    0.000    0.000    0.000 
#
# Total GULP energy -178444.913803 kJ/mol
# GULP energy per Si atom -5576.403556 kJ/mol
# Density = 1.738481 g / cm^3
# Si number density = 17.424469 Si / 1000 Ang^3
#
#
#
# Elastic Constant Matrix: (Units=GPa)
#
#
# Indices 1 2 3 4 5 6 
#
# 1 75.8002 17.3929 47.5921 0.0000 3.2702 0.0000
# 2 17.3929 10.3043 14.8723 0.0000 5.0081 0.0000
# 3 47.5921 14.8723 131.5491 0.0000 7.3502 0.0000
# 4 0.0000 0.0000 0.0000 11.6529 0.0000 3.0814
# 5 3.2702 5.0081 7.3502 0.0000 26.5026 0.0000
# 6 0.0000 0.0000 0.0000 3.0814 0.0000 34.9413
#
#
#
# Elastic Compliance Matrix: (Units=1/GPa)
#
#
# Indices 1 2 3 4 5 6 
#
# 1 0.024557 -0.036784 -0.005023 0.000000 0.005314 0.000000
# 2 -0.036784 0.180820 -0.005565 0.000000 -0.028086 0.000000
# 3 -0.005023 -0.005565 0.010111 0.000000 -0.001133 0.000000
# 4 0.000000 0.000000 0.000000 0.087864 0.000000 -0.007749
# 5 0.005314 -0.028086 -0.001133 0.000000 0.042698 0.000000
# 6 0.000000 0.000000 0.000000 -0.007749 0.000000 0.029303
#
#
# Mechanical properties :
#
#
# Convention : Reuss Voigt Hill
#
# Bulk Modulus (GPa) = 8.28202 41.92981 25.10591
# Shear Modulus (GPa) = 9.79727 23.80579 16.80153
#
# Velocity S-wave (km/s) = 2.37380 3.70026 3.10861
# Velocity P-wave (km/s) = 3.50380 6.50937 5.22726
#
# Compressibility (1/GPa) = 0.12074355
#
# Stress axis : x y z
#
# Youngs Moduli (GPa) = 40.72110 5.53037 98.89918
#
# Poissons Ratio (x) = 0.20343 0.49673
# Poissons Ratio (y) = 1.49790 0.55041
# Poissons Ratio (z) = 0.20453 0.03078
#
# Static dielectric constant tensor:
#      x y z
#    x 1.588620 0.000000 0.017950 
#    y 0.000000 1.592350 0.000000 
#    z 0.017950 0.000000 1.615580 
# 
# From -- ./inp_files/66021.got.cif
#   From: 2010.05.17/outbox.cif.g08.bks.cpg/sg10_34_cif.got.tgz:66021.got - 2010.06.03 11:33:40.
