data_PCOD9142884
_publ_section_title
;
Structure prediction by ZEFSAII (Michael W. Deem and Ramdas Pophale) SiO2 
 PCOD9142884
Probable space group: P 2/M
;
_chemical_formula_sum "Si O2"
_cell_formula_units_Z 32
_cell_length_a 12.667906
_cell_length_b 18.058870
_cell_length_c 8.280910
_cell_angle_alpha 90.000000
_cell_angle_beta 92.942462
_cell_angle_gamma 90.000000
_cell_volume 1891.910170
_symmetry_space_group_name_H-M "P 2/M"
_symmetry_group_IT_number 10
_symmetry_cell_setting 'monoclinic'
loop_
_space_group_symop_operation_xyz
x,y,z
-x,y,-z
-x,-y,-z
x,-y,z
loop_
_atom_site_type_symbol
_atom_site_label
_atom_site_fract_x
_atom_site_fract_y
_atom_site_fract_z
Si Si1 0.880829 0.416500 0.062389
Si Si2 0.966781 0.087651 0.684129
Si Si3 0.449009 0.913497 0.164861
Si Si4 0.841866 0.173440 0.170668
Si Si5 0.840608 0.721113 0.860152
Si Si6 0.259996 0.162295 0.322470
Si Si7 0.670667 0.912485 0.341859
Si Si8 0.052940 0.305539 0.677424
O O1 0.839016 0.500000 0.065307
O O2 0.893356 0.377221 0.237628
O O3 0.820822 0.358449 0.941157
O O4 0.000000 0.420477 0.000000
O O5 0.854152 0.124091 0.708624
O O6 0.000000 0.103897 0.500000
O O7 0.057469 0.119911 0.805735
O O8 0.959144 0.000000 0.700021
O O9 0.348511 0.867169 0.207857
O O10 0.546222 0.908506 0.297452
O O11 0.418034 0.000000 0.149718
O O12 0.500000 0.890468 0.000000
O O13 0.739669 0.124768 0.205165
O O14 0.865663 0.237217 0.307313
O O15 0.836772 0.218889 0.004455
O O16 0.762132 0.751620 0.716984
O O17 0.957075 0.716858 0.790810
O O18 0.299404 0.133981 0.498313
O O19 0.698807 0.000000 0.362451
O O20 0.000000 0.316785 0.500000
#
# Coordination Sequence:
#
# PCOD9142884 Si02
#       8
#     4   4   4   4   4   4   4   4
#     4   8  16  31  50  71 102 137 168 201 247 312
#     4  11  21  32  48  72 102 134 174 221 266 319
#     4  10  22  39  53  69  95 132 181 230 273 310
#     4  11  19  33  50  69 102 136 174 213 261 312
#     4  10  21  33  50  74 103 135 172 207 260 313
#     4  12  21  34  53  73 100 134 175 219 266 317
#     4  11  22  36  54  72  99 136 178 228 272 308
#     4  10  18  30  48  72 103 136 170 211 256 306
#
# _framework density 16.914121999999999
#
# number of rings (size 3 to 8) (size 9 to 14) (size 15 to 20)
#    0.000    1.625    2.500    4.875    0.000    1.250 
#    0.000    3.750    0.000    0.000    0.000    0.000 
#    0.000   14.500    0.000    0.000    0.000    3.250 
#
# Total GULP energy -178565.958990 kJ/mol
# GULP energy per Si atom -5580.186218 kJ/mol
# Density = 1.687562 g / cm^3
# Si number density = 16.914122 Si / 1000 Ang^3
#
#
#
# Elastic Constant Matrix: (Units=GPa)
#
#
# Indices 1 2 3 4 5 6 
#
# 1 66.4394 27.6204 11.4878 0.0000 -9.4614 0.0000
# 2 27.6204 109.0695 48.2760 0.0000 0.2394 0.0000
# 3 11.4878 48.2760 61.8355 0.0000 4.3270 0.0000
# 4 0.0000 0.0000 0.0000 18.7936 0.0000 5.3104
# 5 -9.4614 0.2394 4.3270 0.0000 15.6581 0.0000
# 6 0.0000 0.0000 0.0000 5.3104 0.0000 14.0633
#
#
#
# Elastic Compliance Matrix: (Units=1/GPa)
#
#
# Indices 1 2 3 4 5 6 
#
# 1 0.018668 -0.004368 -0.000868 0.000000 0.011587 0.000000
# 2 -0.004368 0.015159 -0.011036 0.000000 0.000178 0.000000
# 3 -0.000868 -0.011036 0.025466 0.000000 -0.007393 0.000000
# 4 0.000000 0.000000 0.000000 0.059565 0.000000 -0.022492
# 5 0.011587 0.000178 -0.007393 0.000000 0.072906 0.000000
# 6 0.000000 0.000000 0.000000 -0.022492 0.000000 0.079600
#
#
# Mechanical properties :
#
#
# Convention : Reuss Voigt Hill
#
# Bulk Modulus (GPa) = 37.38614 45.79030 41.58822
# Shear Modulus (GPa) = 15.98336 19.70034 17.84185
#
# Velocity S-wave (km/s) = 3.07737 3.41651 3.25137
# Velocity P-wave (km/s) = 5.89733 6.53410 6.22386
#
# Compressibility (1/GPa) = 0.02674788
#
# Stress axis : x y z
#
# Youngs Moduli (GPa) = 53.56895 65.96782 39.26746
#
# Poissons Ratio (x) = 0.28817 0.03410
# Poissons Ratio (y) = 0.23401 0.43334
# Poissons Ratio (z) = 0.04652 0.72800
#
# Static dielectric constant tensor:
#      x y z
#    x 1.552320 0.000000 0.005210 
#    y 0.000000 1.577190 0.000000 
#    z 0.005210 0.000000 1.654220 
# 
# From -- ./inp_files/25694.got.cif
#   From: 2010.05.17/outbox.cif.g08.bks.cpg/sg10_13_cif.got.tgz:25694.got - 2010.06.03 11:33:40.
