data_PCOD9142777
_publ_section_title
;
Structure prediction by ZEFSAII (Michael W. Deem and Ramdas Pophale) SiO2 
 PCOD9142777
Probable space group: P 2/M
;
_chemical_formula_sum "Si O2"
_cell_formula_units_Z 32
_cell_length_a 13.397611
_cell_length_b 22.817821
_cell_length_c 19.020570
_cell_angle_alpha 90.000000
_cell_angle_beta 18.505610
_cell_angle_gamma 90.000000
_cell_volume 1845.561718
_symmetry_space_group_name_H-M "P 2/M"
_symmetry_group_IT_number 10
_symmetry_cell_setting 'monoclinic'
loop_
_space_group_symop_operation_xyz
x,y,z
-x,y,-z
-x,-y,-z
x,-y,z
loop_
_atom_site_type_symbol
_atom_site_label
_atom_site_fract_x
_atom_site_fract_y
_atom_site_fract_z
Si Si1 0.197664 0.628923 0.164031
Si Si2 0.436126 0.434188 0.459020
Si Si3 0.324879 0.932698 0.328884
Si Si4 0.712812 0.288911 0.027964
Si Si5 0.997653 0.847412 0.358335
Si Si6 0.363681 0.156942 0.977075
Si Si7 0.759558 0.684477 0.221605
Si Si8 0.753258 0.718237 0.531601
O O1 0.917420 0.586430 0.324848
O O2 0.038420 0.674136 0.326027
O O3 0.500000 0.600948 0.000000
O O4 0.312414 0.667598 0.021022
O O5 0.500000 0.434254 0.500000
O O6 0.492011 0.500000 0.395225
O O7 0.669987 0.383906 0.275716
O O8 0.224353 0.899174 0.466599
O O9 0.582385 0.892994 0.117112
O O10 0.000000 0.932763 0.500000
O O11 0.419723 0.000000 0.274663
O O12 0.664598 0.221906 0.036261
O O13 0.461754 0.300936 0.258527
O O14 0.062198 0.299592 0.826448
O O15 0.855179 0.784611 0.473351
O O16 0.321777 0.847958 0.185784
O O17 0.081456 0.851720 0.220478
O O18 0.441985 0.716431 0.411205
O O19 0.000000 0.700867 0.000000
#
# Coordination Sequence:
#
# PCOD9142777 Si02
#       8
#     4   4   4   4   4   4   4   4
#     4  11  22  34  54  82 110 141 176 220 274 322
#     4  10  20  37  58  77 104 146 185 217 262 318
#     4   9  18  31  46  66  98 141 181 213 252 310
#     4  11  19  33  52  76 111 138 170 224 270 319
#     4  10  18  30  44  72 101 134 171 209 261 325
#     4  10  19  28  47  70 102 135 167 210 269 316
#     4   9  20  35  53  81 104 135 178 225 263 314
#     4  10  20  32  51  78 107 137 177 212 273 326
#
# _framework density 17.338894
#
# number of rings (size 3 to 8) (size 9 to 14) (size 15 to 20)
#    0.000    2.000    3.750    0.750    0.000    2.500 
#    0.000    2.500    0.000    0.000    0.000    5.250 
#    0.000    2.000    0.000    0.000    0.000    0.000 
#
# Total GULP energy -178260.746246 kJ/mol
# GULP energy per Si atom -5570.648320 kJ/mol
# Density = 1.729943 g / cm^3
# Si number density = 17.338894 Si / 1000 Ang^3
#
#
#
# Elastic Constant Matrix: (Units=GPa)
#
#
# Indices 1 2 3 4 5 6 
#
# 1 63.6600 11.7851 24.3654 0.0000 4.6597 0.0000
# 2 11.7851 69.6773 4.0014 0.0000 3.0740 0.0000
# 3 24.3654 4.0014 48.5969 0.0000 4.7253 0.0000
# 4 0.0000 0.0000 0.0000 13.2545 0.0000 0.1548
# 5 4.6597 3.0740 4.7253 0.0000 30.0834 0.0000
# 6 0.0000 0.0000 0.0000 0.1548 0.0000 17.3870
#
#
#
# Elastic Compliance Matrix: (Units=1/GPa)
#
#
# Indices 1 2 3 4 5 6 
#
# 1 0.020024 -0.002773 -0.009685 0.000000 -0.001297 0.000000
# 2 -0.002773 0.014855 0.000277 0.000000 -0.001132 0.000000
# 3 -0.009685 0.000277 0.025659 0.000000 -0.002559 0.000000
# 4 0.000000 0.000000 0.000000 0.075454 0.000000 -0.000672
# 5 -0.001297 -0.001132 -0.002559 0.000000 0.033959 0.000000
# 6 0.000000 0.000000 0.000000 -0.000672 0.000000 0.057520
#
#
# Mechanical properties :
#
#
# Convention : Reuss Voigt Hill
#
# Bulk Modulus (GPa) = 27.64261 29.13756 28.39009
# Shear Modulus (GPa) = 18.94716 21.59714 20.27215
#
# Velocity S-wave (km/s) = 3.30927 3.53312 3.42303
# Velocity P-wave (km/s) = 5.52982 5.78663 5.65968
#
# Compressibility (1/GPa) = 0.03617603
#
# Stress axis : x y z
#
# Youngs Moduli (GPa) = 49.94091 67.31758 38.97238
#
# Poissons Ratio (x) = 0.18670 0.37745
# Poissons Ratio (y) = 0.13851 -0.01081
# Poissons Ratio (z) = 0.48368 -0.01868
#
# Static dielectric constant tensor:
#      x y z
#    x 1.620280 0.000000 -0.009630 
#    y 0.000000 1.562400 0.000000 
#    z -0.009630 0.000000 1.619420 
# 
# From -- ./inp_files/77236.got.cif
#   From: 2010.05.17/outbox.cif.g08.bks.cpg/sg10_39_cif.got.tgz:77236.got - 2010.06.03 11:33:40.
