data_PCOD9142284
_publ_section_title
;
Structure prediction by ZEFSAII (Michael W. Deem and Ramdas Pophale) SiO2 
 PCOD9142284
Probable space group: P 2/M
;
_chemical_formula_sum "Si O2"
_cell_formula_units_Z 32
_cell_length_a 14.372160
_cell_length_b 14.344479
_cell_length_c 8.637063
_cell_angle_alpha 90.000000
_cell_angle_beta 92.317462
_cell_angle_gamma 90.000000
_cell_volume 1779.170474
_symmetry_space_group_name_H-M "P 2/M"
_symmetry_group_IT_number 10
_symmetry_cell_setting 'monoclinic'
loop_
_space_group_symop_operation_xyz
x,y,z
-x,y,-z
-x,-y,-z
x,-y,z
loop_
_atom_site_type_symbol
_atom_site_label
_atom_site_fract_x
_atom_site_fract_y
_atom_site_fract_z
Si Si1 0.959973 0.352360 0.668124
Si Si2 0.692181 0.393010 0.306355
Si Si3 0.708099 0.205201 0.841384
Si Si4 0.419605 0.756555 0.883578
Si Si5 0.254921 0.603981 0.332752
Si Si6 0.126149 0.602591 0.897374
Si Si7 0.535921 0.888961 0.674902
Si Si8 0.913085 0.786756 0.898832
O O1 0.857150 0.394149 0.665966
O O2 0.949791 0.247839 0.735234
O O3 0.000000 0.356199 0.500000
O O4 0.033648 0.399226 0.787391
O O5 0.661451 0.500000 0.283867
O O6 0.619538 0.320001 0.234980
O O7 0.711143 0.378573 0.489319
O O8 0.786968 0.382422 0.212091
O O9 0.714530 0.311051 0.774742
O O10 0.638678 0.149522 0.723617
O O11 0.813104 0.166196 0.866127
O O12 0.660909 0.208963 0.006609
O O13 0.466895 0.839886 0.791894
O O14 0.500000 0.716099 0.000000
O O15 0.285917 0.500000 0.286448
O O16 0.137741 0.500000 0.972877
O O17 0.113362 0.690362 0.009833
O O18 0.500000 0.865613 0.500000
O O19 0.534837 0.000000 0.691971
O O20 0.000000 0.829230 0.000000
#
# Coordination Sequence:
#
# PCOD9142284 Si02
#       8
#     4   4   4   4   4   4   4   4
#     4  10  18  28  42  67 100 143 197 240 266 292
#     4  10  19  31  47  69 103 147 187 221 262 310
#     4  10  20  35  55  82 112 143 177 223 269 316
#     4  10  21  36  57  80 106 135 174 222 271 321
#     4  10  20  31  47  72 110 153 191 228 264 306
#     4  10  18  28  42  62  96 142 187 229 261 294
#     4  10  22  42  67  90 106 125 161 217 281 337
#     4   9  19  31  46  71 108 147 183 218 260 315
#
# _framework density 17.985910000000001
#
# number of rings (size 3 to 8) (size 9 to 14) (size 15 to 20)
#    0.000    2.125    2.500    1.125    0.000    7.750 
#    0.000    1.875    0.000    7.125    0.000    0.000 
#    0.000   10.000    0.000    0.000    0.000    0.000 
#
# Total GULP energy -178470.319676 kJ/mol
# GULP energy per Si atom -5577.197490 kJ/mol
# Density = 1.794497 g / cm^3
# Si number density = 17.985910 Si / 1000 Ang^3
#
#
#
# Elastic Constant Matrix: (Units=GPa)
#
#
# Indices 1 2 3 4 5 6 
#
# 1 106.4335 42.9165 38.5439 0.0000 17.8310 0.0000
# 2 42.9165 49.6507 35.0904 0.0000 9.6155 0.0000
# 3 38.5439 35.0904 89.8239 0.0000 14.4536 0.0000
# 4 0.0000 0.0000 0.0000 61.1893 0.0000 -9.6023
# 5 17.8310 9.6155 14.4536 0.0000 38.1997 0.0000
# 6 0.0000 0.0000 0.0000 -9.6023 0.0000 12.5778
#
#
#
# Elastic Compliance Matrix: (Units=1/GPa)
#
#
# Indices 1 2 3 4 5 6 
#
# 1 0.015097 -0.011300 -0.001478 0.000000 -0.003644 0.000000
# 2 -0.011300 0.036624 -0.009396 0.000000 -0.000389 0.000000
# 3 -0.001478 -0.009396 0.015915 0.000000 -0.002967 0.000000
# 4 0.000000 0.000000 0.000000 0.018567 0.000000 0.014175
# 5 -0.003644 -0.000389 -0.002967 0.000000 0.029100 0.000000
# 6 0.000000 0.000000 0.000000 0.014175 0.000000 0.090327
#
#
# Mechanical properties :
#
#
# Convention : Reuss Voigt Hill
#
# Bulk Modulus (GPa) = 42.93809 53.22329 48.08069
# Shear Modulus (GPa) = 19.39940 31.01718 25.20829
#
# Velocity S-wave (km/s) = 3.28775 4.15725 3.74780
# Velocity P-wave (km/s) = 6.19172 7.25944 6.74674
#
# Compressibility (1/GPa) = 0.02328935
#
# Stress axis : x y z
#
# Youngs Moduli (GPa) = 66.23628 27.30462 62.83369
#
# Poissons Ratio (x) = 0.30854 0.09285
# Poissons Ratio (y) = 0.74845 0.59039
# Poissons Ratio (z) = 0.09788 0.25655
#
# Static dielectric constant tensor:
#      x y z
#    x 1.644250 0.000000 0.009570 
#    y 0.000000 1.598280 0.000000 
#    z 0.009570 0.000000 1.627480 
# 
# From -- ./inp_files/28580.got.cif
#   From: 2010.05.17/outbox.cif.g08.bks.cpg/sg10_15_cif.got.tgz:28580.got - 2010.06.03 11:33:40.
