data_PCOD9142998
_publ_section_title
;
Structure prediction by ZEFSAII (Michael W. Deem and Ramdas Pophale) SiO2 
 PCOD9142998
Probable space group: P 2/M
;
_chemical_formula_sum "Si O2"
_cell_formula_units_Z 32
_cell_length_a 24.372712
_cell_length_b 7.339152
_cell_length_c 15.392953
_cell_angle_alpha 90.000000
_cell_angle_beta 150.696603
_cell_angle_gamma 90.000000
_cell_volume 1347.615370
_symmetry_space_group_name_H-M "P 2/M"
_symmetry_group_IT_number 10
_symmetry_cell_setting 'monoclinic'
loop_
_space_group_symop_operation_xyz
x,y,z
-x,y,-z
-x,-y,-z
x,-y,z
loop_
_atom_site_type_symbol
_atom_site_label
_atom_site_fract_x
_atom_site_fract_y
_atom_site_fract_z
Si Si1 0.867321 0.708982 0.308475
Si Si2 0.062651 0.276887 0.232678
Si Si3 0.285050 0.721837 0.435959
Si Si4 0.535288 0.281586 0.814587
Si Si5 0.271340 0.722190 0.045370
Si Si6 0.847864 0.294645 0.466348
Si Si7 0.386615 0.786438 0.884419
Si Si8 0.808143 0.721826 0.874422
O O1 0.822817 0.500000 0.250558
O O2 0.838546 0.799431 0.360258
O O3 0.000000 0.704330 0.500000
O O4 0.821320 0.780103 0.154362
O O5 0.064610 0.500000 0.233944
O O6 0.171799 0.218439 0.329312
O O7 0.082488 0.215922 0.359276
O O8 0.937153 0.222326 0.033698
O O9 0.285018 0.500000 0.440860
O O10 0.406704 0.784738 0.637384
O O11 0.268705 0.773697 0.312736
O O12 0.530552 0.500000 0.802975
O O13 0.610836 0.222091 0.836359
O O14 0.599894 0.237234 0.993133
O O15 0.271102 0.500000 0.049689
O O16 0.238073 0.783756 0.095820
O O17 0.893787 0.500000 0.516625
O O18 0.717324 0.304249 0.308014
O O19 0.378265 0.000000 0.853975
O O20 0.500000 0.713615 0.000000
O O21 0.810269 0.500000 0.879810
#
# Coordination Sequence:
#
# PCOD9142998 Si02
#       8
#     4   4   4   4   4   4   4   4
#     4   9  15  24  41  68  98 125 158 200 241 284
#     4   9  16  26  42  68  99 132 168 200 241 297
#     4   9  17  27  42  66  99 135 165 202 250 295
#     4  10  19  33  51  73 101 129 165 207 248 298
#     4   9  16  26  41  65  96 128 161 199 243 290
#     4  10  18  30  50  75 100 131 166 201 243 290
#     4  11  23  36  50  71 100 133 167 205 251 301
#     4   9  16  26  41  67 103 134 160 201 253 295
#
# _framework density 23.745647999999999
#
# number of rings (size 3 to 8) (size 9 to 14) (size 15 to 20)
#    0.000    2.500    1.250    2.250    0.000    7.000 
#    0.000    2.500    0.000    0.375    0.000    2.625 
#    0.000    4.000    0.000    0.000    0.000    0.000 
#
# Total GULP energy -178603.504964 kJ/mol
# GULP energy per Si atom -5581.359530 kJ/mol
# Density = 2.369160 g / cm^3
# Si number density = 23.745648 Si / 1000 Ang^3
#
#
#
# Elastic Constant Matrix: (Units=GPa)
#
#
# Indices 1 2 3 4 5 6 
#
# 1 81.5645 -1.2033 5.6968 0.0000 -3.2577 0.0000
# 2 -1.2033 94.3268 -2.6200 0.0000 1.4501 0.0000
# 3 5.6968 -2.6200 102.2243 0.0000 -0.7181 0.0000
# 4 0.0000 0.0000 0.0000 -144.7178 0.0000 -9.0603
# 5 -3.2577 1.4501 -0.7181 0.0000 40.4380 0.0000
# 6 0.0000 0.0000 0.0000 -9.0603 0.0000 -9.6707
#
#
#
# Elastic Compliance Matrix: (Units=1/GPa)
#
#
# Indices 1 2 3 4 5 6 
#
# 1 0.012349 0.000124 -0.000678 0.000000 0.000978 0.000000
# 2 0.000124 0.010616 0.000263 0.000000 -0.000366 0.000000
# 3 -0.000678 0.000263 0.009828 0.000000 0.000110 0.000000
# 4 0.000000 0.000000 0.000000 -0.007341 0.000000 0.006877
# 5 0.000978 -0.000366 0.000110 0.000000 0.024823 0.000000
# 6 0.000000 0.000000 0.000000 0.006877 0.000000 -0.109848
#
#
# Mechanical properties :
#
#
# Convention : Reuss Voigt Hill
#
# Bulk Modulus (GPa) = 31.04775 31.31807 31.18291
# Shear Modulus (GPa) = -103.61935 -4.37395 -53.99665
#
# Velocity S-wave (km/s) = -6.61301 -1.35868 -4.77378
# Velocity P-wave (km/s) = 6.72352 3.27968 4.15027
#
# Compressibility (1/GPa) = 0.03220845
#
# Stress axis : x y z
#
# Youngs Moduli (GPa) = 80.98149 94.19800 101.75315
#
# Poissons Ratio (x) = -0.01165 0.06900
# Poissons Ratio (y) = -0.01001 -0.02672
# Poissons Ratio (z) = 0.05492 -0.02474
#
# Static dielectric constant tensor:
#      x y z
#    x 2.014560 0.000000 0.065930 
#    y 0.000000 1.935340 0.000000 
#    z 0.065930 0.000000 1.886580 
# 
# From -- ./inp_files/64395.got.cif
#   From: 2010.05.17/outbox.cif.g08.bks.cpg/sg10_33_cif.got.tgz:64395.got - 2010.06.03 11:33:40.
