data_PCOD9142141
_publ_section_title
;
Structure prediction by ZEFSAII (Michael W. Deem and Ramdas Pophale) SiO2 
 PCOD9142141
Probable space group: P 2/M
;
_chemical_formula_sum "Si O2"
_cell_formula_units_Z 30
_cell_length_a 15.363674
_cell_length_b 16.650553
_cell_length_c 15.051561
_cell_angle_alpha 90.000000
_cell_angle_beta 152.700808
_cell_angle_gamma 90.000000
_cell_volume 1765.933714
_symmetry_space_group_name_H-M "P 2/M"
_symmetry_group_IT_number 10
_symmetry_cell_setting 'monoclinic'
loop_
_space_group_symop_operation_xyz
x,y,z
-x,y,-z
-x,-y,-z
x,-y,z
loop_
_atom_site_type_symbol
_atom_site_label
_atom_site_fract_x
_atom_site_fract_y
_atom_site_fract_z
Si Si1 0.460057 0.403197 0.062830
Si Si2 0.107110 0.596074 0.860316
Si Si3 0.443033 0.500000 0.341921
Si Si4 0.235041 0.091464 0.310174
Si Si5 0.329396 0.365924 0.569261
Si Si6 0.801486 0.908878 0.937480
Si Si7 0.208081 0.651369 0.147245
Si Si8 0.479624 0.215697 0.344475
O O1 0.471165 0.500000 0.070461
O O2 0.607192 0.376029 0.271504
O O3 0.500000 0.372966 0.000000
O O4 0.251954 0.383527 0.912874
O O5 0.126152 0.500000 0.896313
O O6 0.891991 0.617033 0.643932
O O7 0.173124 0.638702 0.010272
O O8 0.554965 0.430017 0.385942
O O9 0.315278 0.570908 0.276718
O O10 0.221300 0.092859 0.190796
O O11 0.382685 0.154852 0.480424
O O12 0.290537 0.000000 0.384851
O O13 0.023370 0.107430 0.154703
O O14 0.392936 0.278963 0.592967
O O15 0.660175 0.839953 0.841384
O O16 0.758334 0.000000 0.927447
O O17 0.339559 0.729002 0.277243
O O18 0.000000 0.660312 0.000000
#
# Coordination Sequence:
#
# PCOD9142141 Si02
#       8
#     4   4   2   4   4   4   4   4
#     4  10  19  36  59  79 102 134 176 225 275 331
#     4  11  20  36  56  70 104 143 178 231 267 306
#     4  10  17  40  52  65 102 140 186 226 263 310
#     4   9  19  35  54  74  98 135 177 224 271 316
#     4  11  21  35  54  78 105 137 176 223 277 320
#     4   9  19  35  54  73 100 134 177 223 267 319
#     4  11  23  35  52  71 101 147 191 229 259 302
#     4  11  22  31  52  73 107 137 175 221 267 315
#
# _framework density 16.98818
#
# number of rings (size 3 to 8) (size 9 to 14) (size 15 to 20)
#    0.000    1.733    4.667    1.800    3.733    2.667 
#    0.000    4.667    0.000    0.000    0.000    0.000 
#    0.000    2.133    0.000    8.533    0.000    0.533 
#
# Total GULP energy -167065.648317 kJ/mol
# GULP energy per Si atom -5568.854944 kJ/mol
# Density = 1.694951 g / cm^3
# Si number density = 16.988180 Si / 1000 Ang^3
#
#
#
# Elastic Constant Matrix: (Units=GPa)
#
#
# Indices 1 2 3 4 5 6 
#
# 1 82.1532 32.5935 41.7766 0.0000 2.7703 0.0000
# 2 32.5935 117.5225 58.7323 0.0000 15.2904 0.0000
# 3 41.7766 58.7323 110.1507 0.0000 18.7712 0.0000
# 4 0.0000 0.0000 0.0000 32.6584 0.0000 11.9512
# 5 2.7703 15.2904 18.7712 0.0000 13.8272 0.0000
# 6 0.0000 0.0000 0.0000 11.9512 0.0000 14.0068
#
#
#
# Elastic Compliance Matrix: (Units=1/GPa)
#
#
# Indices 1 2 3 4 5 6 
#
# 1 0.015958 -0.002383 -0.006096 0.000000 0.007714 0.000000
# 2 -0.002383 0.012320 -0.004456 0.000000 -0.007097 0.000000
# 3 -0.006096 -0.004456 0.016547 0.000000 -0.016314 0.000000
# 4 0.000000 0.000000 0.000000 0.044521 0.000000 -0.037988
# 5 0.007714 -0.007097 -0.016314 0.000000 0.100772 0.000000
# 6 0.000000 0.000000 0.000000 -0.037988 0.000000 0.103807
#
#
# Mechanical properties :
#
#
# Convention : Reuss Voigt Hill
#
# Bulk Modulus (GPa) = 52.75761 64.00349 58.38055
# Shear Modulus (GPa) = 15.33214 23.88008 19.60611
#
# Velocity S-wave (km/s) = 3.00745 3.75332 3.40089
# Velocity P-wave (km/s) = 6.57135 7.51933 7.06126
#
# Compressibility (1/GPa) = 0.01895461
#
# Stress axis : x y z
#
# Youngs Moduli (GPa) = 62.66577 81.16844 60.43494
#
# Poissons Ratio (x) = 0.19339 0.36843
# Poissons Ratio (y) = 0.14931 0.26929
# Poissons Ratio (z) = 0.38203 0.36168
#
# Static dielectric constant tensor:
#      x y z
#    x 1.596140 0.000000 -0.015800 
#    y 0.000000 1.601190 0.000000 
#    z -0.015800 0.000000 1.667520 
# 
# From -- ./inp_files/67618.got.cif
#   From: 2010.05.17/outbox.cif.g08.bks.cpg/sg10_34_cif.got.tgz:67618.got - 2010.06.03 11:33:40.
