data_PCOD9142506
_publ_section_title
;
Structure prediction by ZEFSAII (Michael W. Deem and Ramdas Pophale) SiO2 
 PCOD9142506
Probable space group: P 2/M
;
_chemical_formula_sum "Si O2"
_cell_formula_units_Z 28
_cell_length_a 28.537420
_cell_length_b 8.442179
_cell_length_c 14.047892
_cell_angle_alpha 90.000000
_cell_angle_beta 149.263510
_cell_angle_gamma 90.000000
_cell_volume 1729.729416
_symmetry_space_group_name_H-M "P 2/M"
_symmetry_group_IT_number 10
_symmetry_cell_setting 'monoclinic'
loop_
_space_group_symop_operation_xyz
x,y,z
-x,y,-z
-x,-y,-z
x,-y,z
loop_
_atom_site_type_symbol
_atom_site_label
_atom_site_fract_x
_atom_site_fract_y
_atom_site_fract_z
Si Si1 0.720279 0.306327 0.805719
Si Si2 0.906508 0.688884 0.222827
Si Si3 0.462839 0.810415 0.037353
Si Si4 0.390659 0.308238 0.203999
Si Si5 0.431607 0.691747 0.594326
Si Si6 0.106131 0.186106 0.587618
Si Si7 0.285942 0.689122 0.827503
O O1 0.720793 0.500000 0.808200
O O2 0.656994 0.251322 0.783501
O O3 0.668054 0.259073 0.618111
O O4 0.823768 0.257027 0.010146
O O5 0.917167 0.500000 0.232763
O O6 0.880662 0.725741 0.287763
O O7 0.004179 0.769441 0.375657
O O8 0.530925 0.756734 0.240882
O O9 0.458429 0.000000 0.029991
O O10 0.500000 0.756042 0.000000
O O11 0.361463 0.745458 0.883944
O O12 0.392322 0.500000 0.213460
O O13 0.493396 0.260501 0.355209
O O14 0.329435 0.265489 0.005908
O O15 0.434109 0.500000 0.604806
O O16 0.185111 0.237416 0.652545
O O17 0.111332 0.000000 0.614950
O O18 0.279072 0.500000 0.811687
#
# Coordination Sequence:
#
# PCOD9142506 Si02
#       7
#     4   4   4   4   4   4   4
#     4   9  15  25  43  68  94 124 161 198 232 265
#     4  10  18  29  45  64  93 132 173 203 228 270
#     4  10  21  36  51  70  98 126 151 189 241 289
#     4   8  13  23  41  65  91 119 153 189 225 266
#     4   9  17  28  47  70  92 121 159 197 231 276
#     4  11  20  30  43  65  97 129 163 201 242 278
#     4  10  18  31  52  72  91 122 162 200 236 279
#
# _framework density 16.187501999999999
#
# number of rings (size 3 to 8) (size 9 to 14) (size 15 to 20)
#    0.000    2.429    1.429    4.714    0.000    2.857 
#    0.000    1.429    0.000    1.714    0.000    1.000 
#    0.000    8.000    0.000    0.000    0.000    0.000 
#
# Total GULP energy -156039.507020 kJ/mol
# GULP energy per Si atom -5572.839536 kJ/mol
# Density = 1.615066 g / cm^3
# Si number density = 16.187502 Si / 1000 Ang^3
#
#
#
# Elastic Constant Matrix: (Units=GPa)
#
#
# Indices 1 2 3 4 5 6 
#
# 1 81.2772 9.9160 44.4596 0.0000 11.3181 0.0000
# 2 9.9160 21.0638 5.6453 0.0000 3.1164 0.0000
# 3 44.4596 5.6453 108.3016 0.0000 18.4206 0.0000
# 4 0.0000 0.0000 0.0000 57.8863 0.0000 -24.1607
# 5 11.3181 3.1164 18.4206 0.0000 15.9035 0.0000
# 6 0.0000 0.0000 0.0000 -24.1607 0.0000 32.7848
#
#
#
# Elastic Compliance Matrix: (Units=1/GPa)
#
#
# Indices 1 2 3 4 5 6 
#
# 1 0.016794 -0.005732 -0.005920 0.000000 -0.003972 0.000000
# 2 -0.005732 0.050963 0.000873 0.000000 -0.006919 0.000000
# 3 -0.005920 0.000873 0.013612 0.000000 -0.011725 0.000000
# 4 0.000000 0.000000 0.000000 0.024949 0.000000 0.018386
# 5 -0.003972 -0.006919 -0.011725 0.000000 0.080642 0.000000
# 6 0.000000 0.000000 0.000000 0.018386 0.000000 0.044052
#
#
# Mechanical properties :
#
#
# Convention : Reuss Voigt Hill
#
# Bulk Modulus (GPa) = 16.71894 36.74272 26.73083
# Shear Modulus (GPa) = 18.34811 31.35635 24.85223
#
# Velocity S-wave (km/s) = 3.37036 4.40599 3.92251
# Velocity P-wave (km/s) = 5.04941 6.97361 6.08801
#
# Compressibility (1/GPa) = 0.05981242
#
# Stress axis : x y z
#
# Youngs Moduli (GPa) = 59.54414 19.62216 73.46208
#
# Poissons Ratio (x) = 0.11247 0.43489
# Poissons Ratio (y) = 0.34130 -0.06416
# Poissons Ratio (z) = 0.35250 -0.01714
#
# Static dielectric constant tensor:
#      x y z
#    x 1.529530 0.000000 0.017760 
#    y 0.000000 1.550710 0.000000 
#    z 0.017760 0.000000 1.574200 
# 
# From -- ./inp_files/72470.got.cif
#   From: 2010.05.17/outbox.cif.g08.bks.cpg/sg10_37_cif.got.tgz:72470.got - 2010.06.03 11:33:40.
