data_PCOD9142831
_publ_section_title
;
Structure prediction by ZEFSAII (Michael W. Deem and Ramdas Pophale) SiO2 
 PCOD9142831
Probable space group: P 2/M
;
_chemical_formula_sum "Si O2"
_cell_formula_units_Z 32
_cell_length_a 10.801425
_cell_length_b 7.393502
_cell_length_c 23.188556
_cell_angle_alpha 90.000000
_cell_angle_beta 55.057131
_cell_angle_gamma 90.000000
_cell_volume 1518.002105
_symmetry_space_group_name_H-M "P 2/M"
_symmetry_group_IT_number 10
_symmetry_cell_setting 'monoclinic'
loop_
_space_group_symop_operation_xyz
x,y,z
-x,y,-z
-x,-y,-z
x,-y,z
loop_
_atom_site_type_symbol
_atom_site_label
_atom_site_fract_x
_atom_site_fract_y
_atom_site_fract_z
Si Si1 0.964494 0.281828 0.917651
Si Si2 0.238873 0.282665 0.924859
Si Si3 0.049154 0.789046 0.768672
Si Si4 0.529768 0.212683 0.779502
Si Si5 0.868098 0.778269 0.706420
Si Si6 0.611634 0.778457 0.302373
Si Si7 0.933085 0.779470 0.456389
Si Si8 0.413326 0.220465 0.465371
O O1 0.965630 0.500000 0.917492
O O2 0.962308 0.223450 0.852406
O O3 0.119992 0.220783 0.907356
O O4 0.828894 0.221943 0.995793
O O5 0.232317 0.500000 0.926713
O O6 0.406878 0.231298 0.862675
O O7 0.955267 0.714462 0.740214
O O8 0.217276 0.713934 0.733472
O O9 0.072315 0.000000 0.748961
O O10 0.695205 0.284869 0.749518
O O11 0.455953 0.285812 0.740347
O O12 0.551047 0.000000 0.763290
O O13 0.959805 0.725323 0.624899
O O14 0.866228 0.000000 0.708384
O O15 0.505876 0.726304 0.383878
O O16 0.615019 0.000000 0.299696
O O17 0.760618 0.721133 0.492116
O O18 0.000000 0.721081 0.500000
O O19 0.931530 0.000000 0.457567
O O20 0.500000 0.279286 0.500000
O O21 0.411867 0.000000 0.466848
#
# Coordination Sequence:
#
# PCOD9142831 Si02
#       8
#     4   4   4   4   4   4   4   4
#     4   9  18  33  52  73  96 121 152 195 240 280
#     4   9  18  33  52  73  96 120 152 197 240 278
#     4  10  18  30  47  70  99 130 158 190 237 286
#     4  10  18  30  47  70  97 126 157 194 234 276
#     4   9  18  29  42  64 100 134 158 192 238 280
#     4   9  16  25  40  64  92 120 157 199 232 268
#     4   9  15  24  38  57  86 129 166 187 223 280
#     4   9  15  22  34  55  86 121 153 188 230 272
#
# _framework density 21.080341000000001
#
# number of rings (size 3 to 8) (size 9 to 14) (size 15 to 20)
#    0.000    2.750    1.250    2.250    0.000    6.500 
#    0.000    2.500    0.000    3.750    0.000    0.000 
#    0.000   20.000    0.000    0.000    0.000    0.000 
#
# Total GULP energy -178705.896940 kJ/mol
# GULP energy per Si atom -5584.559279 kJ/mol
# Density = 2.103236 g / cm^3
# Si number density = 21.080341 Si / 1000 Ang^3
#
#
#
# Elastic Constant Matrix: (Units=GPa)
#
#
# Indices 1 2 3 4 5 6 
#
# 1 205.6788 8.9704 124.0498 0.0000 -12.0262 0.0000
# 2 8.9704 69.6580 -8.6991 0.0000 -0.9726 0.0000
# 3 124.0498 -8.6991 178.1085 0.0000 -13.5671 0.0000
# 4 0.0000 0.0000 0.0000 56.2510 0.0000 -3.5564
# 5 -12.0262 -0.9726 -13.5671 0.0000 26.3909 0.0000
# 6 0.0000 0.0000 0.0000 -3.5564 0.0000 -5.9339
#
#
#
# Elastic Compliance Matrix: (Units=1/GPa)
#
#
# Indices 1 2 3 4 5 6 
#
# 1 0.008634 -0.001856 -0.006046 0.000000 0.000758 0.000000
# 2 -0.001856 0.014865 0.002078 0.000000 0.000770 0.000000
# 3 -0.006046 0.002078 0.010119 0.000000 0.002524 0.000000
# 4 0.000000 0.000000 0.000000 0.017128 0.000000 -0.010266
# 5 0.000758 0.000770 0.002524 0.000000 0.039563 0.000000
# 6 0.000000 0.000000 0.000000 -0.010266 0.000000 -0.162371
#
#
# Mechanical properties :
#
#
# Convention : Reuss Voigt Hill
#
# Bulk Modulus (GPa) = 45.52012 78.00971 61.76492
# Shear Modulus (GPa) = -94.18319 37.28323 -28.44998
#
# Velocity S-wave (km/s) = -6.69143 4.21007 -3.67767
# Velocity P-wave (km/s) = 6.16926 7.79225 3.36596
#
# Compressibility (1/GPa) = 0.02196831
#
# Stress axis : x y z
#
# Youngs Moduli (GPa) = 115.82249 67.27157 98.81978
#
# Poissons Ratio (x) = 0.12488 0.59750
# Poissons Ratio (y) = 0.21501 -0.20531
# Poissons Ratio (z) = 0.70030 -0.13976
#
# Static dielectric constant tensor:
#      x y z
#    x 1.725850 0.000000 -0.003520 
#    y 0.000000 1.821100 0.000000 
#    z -0.003520 0.000000 1.720690 
# 
# From -- ./inp_files/32203.got.cif
#   From: 2010.05.17/outbox.cif.g08.bks.cpg/sg10_17_cif.got.tgz:32203.got - 2010.06.03 11:33:40.
