data_PCOD9142365
_publ_section_title
;
Structure prediction by ZEFSAII (Michael W. Deem and Ramdas Pophale) SiO2 
 PCOD9142365
Probable space group: P 2/M
;
_chemical_formula_sum "Si O2"
_cell_formula_units_Z 32
_cell_length_a 11.555229
_cell_length_b 7.633652
_cell_length_c 18.506600
_cell_angle_alpha 90.000000
_cell_angle_beta 82.837824
_cell_angle_gamma 90.000000
_cell_volume 1619.703648
_symmetry_space_group_name_H-M "P 2/M"
_symmetry_group_IT_number 10
_symmetry_cell_setting 'monoclinic'
loop_
_space_group_symop_operation_xyz
x,y,z
-x,y,-z
-x,-y,-z
x,-y,z
loop_
_atom_site_type_symbol
_atom_site_label
_atom_site_fract_x
_atom_site_fract_y
_atom_site_fract_z
Si Si1 0.614204 0.786239 0.400041
Si Si2 0.804630 0.285186 0.836810
Si Si3 0.717743 0.794682 0.102313
Si Si4 0.379876 0.700295 0.036734
Si Si5 0.690355 0.293633 0.703782
Si Si6 0.343613 0.210129 0.450182
Si Si7 0.422267 0.794267 0.752089
Si Si8 0.977818 0.711965 0.084490
O O1 0.684050 0.727649 0.466142
O O2 0.478688 0.739594 0.425189
O O3 0.636780 0.722522 0.317000
O O4 0.619425 0.000000 0.397971
O O5 0.806234 0.500000 0.839798
O O6 0.692259 0.223250 0.891514
O O7 0.783105 0.231106 0.755977
O O8 0.920511 0.227388 0.869422
O O9 0.628224 0.722261 0.169256
O O10 0.849929 0.772486 0.117764
O O11 0.694366 0.000000 0.091017
O O12 0.702962 0.701267 0.026695
O O13 0.408098 0.500000 0.055653
O O14 0.500000 0.784131 0.000000
O O15 0.677195 0.500000 0.714767
O O16 0.721915 0.263530 0.617548
O O17 0.561545 0.219252 0.731389
O O18 0.340188 0.000000 0.452248
O O19 0.393239 0.000000 0.756893
O O20 0.978574 0.500000 0.083871
O O21 0.000000 0.770783 0.000000
#
# Coordination Sequence:
#
# PCOD9142365 Si02
#       8
#     4   4   4   4   4   4   4   4
#     4   7  11  23  43  61  83 124 163 180 203 266
#     4   9  18  32  48  68  89 118 156 191 228 269
#     4  11  22  33  48  72  98 118 147 197 247 278
#     4  10  19  33  52  69  90 124 162 188 215 274
#     4  10  18  28  45  70  98 121 150 191 231 270
#     4   8  13  24  42  63  89 122 157 183 216 268
#     4   9  18  32  46  64  96 130 154 180 225 279
#     4  10  19  36  57  67  82 118 163 200 228 274
#
# _framework density 19.756699999999999
#
# number of rings (size 3 to 8) (size 9 to 14) (size 15 to 20)
#    0.000    2.750    1.250    3.000    0.000    2.500 
#    0.000    7.500    0.000    0.000    0.000    0.875 
#    0.000    7.000    0.000    0.000    0.000    0.000 
#
# Total GULP energy -178277.959830 kJ/mol
# GULP energy per Si atom -5571.186245 kJ/mol
# Density = 1.971173 g / cm^3
# Si number density = 19.756700 Si / 1000 Ang^3
#
#
#
# Elastic Constant Matrix: (Units=GPa)
#
#
# Indices 1 2 3 4 5 6 
#
# 1 52.4143 -4.6725 6.1584 0.0000 24.1179 0.0000
# 2 -4.6725 39.0130 4.6067 0.0000 -0.7483 0.0000
# 3 6.1584 4.6067 110.4610 0.0000 39.5648 0.0000
# 4 0.0000 0.0000 0.0000 10.7968 0.0000 6.1207
# 5 24.1179 -0.7483 39.5648 0.0000 27.9757 0.0000
# 6 0.0000 0.0000 0.0000 6.1207 0.0000 16.0424
#
#
#
# Elastic Compliance Matrix: (Units=1/GPa)
#
#
# Indices 1 2 3 4 5 6 
#
# 1 0.057949 0.001694 0.029540 0.000000 -0.091689 0.000000
# 2 0.001694 0.026088 -0.001843 0.000000 0.001844 0.000000
# 3 0.029540 -0.001843 0.033686 0.000000 -0.073156 0.000000
# 4 0.000000 0.000000 0.000000 0.118182 0.000000 -0.045090
# 5 -0.091689 0.001844 -0.073156 0.000000 0.218301 0.000000
# 6 0.000000 0.000000 0.000000 -0.045090 0.000000 0.079538
#
#
# Mechanical properties :
#
#
# Convention : Reuss Voigt Hill
#
# Bulk Modulus (GPa) = 5.66560 23.78596 14.72578
# Shear Modulus (GPa) = 9.36683 24.01602 16.69142
#
# Velocity S-wave (km/s) = 2.17977 3.49031 2.90978
# Velocity P-wave (km/s) = 3.03465 5.32058 4.33115
#
# Compressibility (1/GPa) = 0.17650382
#
# Stress axis : x y z
#
# Youngs Moduli (GPa) = 17.25656 38.33134 29.68605
#
# Poissons Ratio (x) = -0.06492 -0.87692
# Poissons Ratio (y) = -0.02922 0.05471
# Poissons Ratio (z) = -0.50976 0.07065
#
# Static dielectric constant tensor:
#      x y z
#    x 1.680620 0.000000 0.035180 
#    y 0.000000 1.747380 0.000000 
#    z 0.035180 0.000000 1.764070 
# 
# From -- ./inp_files/75976.got.cif
#   From: 2010.05.17/outbox.cif.g08.bks.cpg/sg10_38_cif.got.tgz:75976.got - 2010.06.03 11:33:40.
