data_PCOD9142355
_publ_section_title
;
Structure prediction by ZEFSAII (Michael W. Deem and Ramdas Pophale) SiO2 
 PCOD9142355
Probable space group: P 2/M
;
_chemical_formula_sum "Si O2"
_cell_formula_units_Z 32
_cell_length_a 14.038819
_cell_length_b 14.671526
_cell_length_c 7.979029
_cell_angle_alpha 90.000000
_cell_angle_beta 100.043557
_cell_angle_gamma 90.000000
_cell_volume 1618.262685
_symmetry_space_group_name_H-M "P 2/M"
_symmetry_group_IT_number 10
_symmetry_cell_setting 'monoclinic'
loop_
_space_group_symop_operation_xyz
x,y,z
-x,y,-z
-x,-y,-z
x,-y,z
loop_
_atom_site_type_symbol
_atom_site_label
_atom_site_fract_x
_atom_site_fract_y
_atom_site_fract_z
Si Si1 0.115109 0.770572 0.723393
Si Si2 0.396533 0.718792 0.398837
Si Si3 0.004521 0.602784 0.297363
Si Si4 0.384920 0.095336 0.600264
Si Si5 0.820695 0.267460 0.639626
Si Si6 0.258911 0.097430 0.901728
Si Si7 0.437725 0.848978 0.147618
Si Si8 0.947477 0.108688 0.801104
O O1 0.158309 0.756879 0.550329
O O2 0.191707 0.816161 0.869314
O O3 0.079417 0.673016 0.777390
O O4 0.024916 0.841401 0.701097
O O5 0.500000 0.679402 0.500000
O O6 0.378624 0.813991 0.492677
O O7 0.285600 0.686333 0.373767
O O8 0.418999 0.749844 0.217769
O O9 0.997393 0.500000 0.232486
O O10 0.102418 0.655660 0.283460
O O11 0.000000 0.599841 0.500000
O O12 0.316582 0.098564 0.742577
O O13 0.493734 0.097386 0.704598
O O14 0.362864 0.000000 0.506300
O O15 0.851859 0.173307 0.746874
O O16 0.205992 0.000000 0.898544
O O17 0.337847 0.104853 0.069962
O O18 0.500000 0.842013 0.000000
O O19 0.931616 0.000000 0.763503
O O20 0.000000 0.116343 0.000000
#
# Coordination Sequence:
#
# PCOD9142355 Si02
#       8
#     4   4   4   4   4   4   4   4
#     4  10  19  33  54  77 104 134 174 213 263 315
#     4  10  20  33  49  71 101 133 176 220 258 304
#     4   8  16  33  58  83 103 124 159 213 267 318
#     4   9  17  30  44  63  95 133 179 225 255 289
#     4  10  20  35  55  78 102 138 173 213 263 314
#     4  10  18  28  45  69 100 138 179 214 250 298
#     4   9  19  31  44  64  95 141 185 220 256 290
#     4  10  22  36  49  72 105 141 180 219 257 304
#
# _framework density 19.774294000000001
#
# number of rings (size 3 to 8) (size 9 to 14) (size 15 to 20)
#    0.000    2.500    1.250    1.875    1.750    6.250 
#    0.000    0.000    0.000    6.375    0.000    0.000 
#    0.000    6.000    0.000    0.000    0.000    0.000 
#
# Total GULP energy -178163.000503 kJ/mol
# GULP energy per Si atom -5567.593766 kJ/mol
# Density = 1.972929 g / cm^3
# Si number density = 19.774294 Si / 1000 Ang^3
#
#
#
# Elastic Constant Matrix: (Units=GPa)
#
#
# Indices 1 2 3 4 5 6 
#
# 1 96.6230 38.5016 -1.6638 0.0000 13.1110 0.0000
# 2 38.5016 119.1797 12.8445 0.0000 18.6524 0.0000
# 3 -1.6638 12.8445 26.6650 0.0000 8.2825 0.0000
# 4 0.0000 0.0000 0.0000 2.8058 0.0000 2.8641
# 5 13.1110 18.6524 8.2825 0.0000 25.1017 0.0000
# 6 0.0000 0.0000 0.0000 2.8641 0.0000 10.1785
#
#
#
# Elastic Compliance Matrix: (Units=1/GPa)
#
#
# Indices 1 2 3 4 5 6 
#
# 1 0.012607 -0.003709 0.004192 0.000000 -0.005212 0.000000
# 2 -0.003709 0.010758 -0.003935 0.000000 -0.004758 0.000000
# 3 0.004192 -0.003935 0.043934 0.000000 -0.013762 0.000000
# 4 0.000000 0.000000 0.000000 0.500022 0.000000 -0.140698
# 5 -0.005212 -0.004758 -0.013762 0.000000 0.050637 0.000000
# 6 0.000000 0.000000 0.000000 -0.140698 0.000000 0.137836
#
#
# Mechanical properties :
#
#
# Convention : Reuss Voigt Hill
#
# Bulk Modulus (GPa) = 16.55786 37.98136 27.26961
# Shear Modulus (GPa) = 6.38709 20.46955 13.42832
#
# Velocity S-wave (km/s) = 1.79917 3.22088 2.60874
# Velocity P-wave (km/s) = 3.56477 5.75163 4.78481
#
# Compressibility (1/GPa) = 0.06039427
#
# Stress axis : x y z
#
# Youngs Moduli (GPa) = 79.32256 92.95728 22.76130
#
# Poissons Ratio (x) = 0.34476 -0.09542
# Poissons Ratio (y) = 0.29419 0.08958
# Poissons Ratio (z) = -0.33252 0.36583
#
# Static dielectric constant tensor:
#      x y z
#    x 1.800080 0.000000 -0.024170 
#    y 0.000000 1.694210 0.000000 
#    z -0.024170 0.000000 1.752460 
# 
# From -- ./inp_files/29133.got.cif
#   From: 2010.05.17/outbox.cif.g08.bks.cpg/sg10_15_cif.got.tgz:29133.got - 2010.06.03 11:33:40.
