data_PCOD9142392
_publ_section_title
;
Structure prediction by ZEFSAII (Michael W. Deem and Ramdas Pophale) SiO2 
 PCOD9142392
Probable space group: P 2/M
;
_chemical_formula_sum "Si O2"
_cell_formula_units_Z 28
_cell_length_a 18.243066
_cell_length_b 10.727031
_cell_length_c 21.211128
_cell_angle_alpha 90.000000
_cell_angle_beta 20.072965
_cell_angle_gamma 90.000000
_cell_volume 1424.653813
_symmetry_space_group_name_H-M "P 2/M"
_symmetry_group_IT_number 10
_symmetry_cell_setting 'monoclinic'
loop_
_space_group_symop_operation_xyz
x,y,z
-x,y,-z
-x,-y,-z
x,-y,z
loop_
_atom_site_type_symbol
_atom_site_label
_atom_site_fract_x
_atom_site_fract_y
_atom_site_fract_z
Si Si1 0.412913 0.856179 0.802836
Si Si2 0.049405 0.760143 0.790110
Si Si3 0.802885 0.848233 0.572486
Si Si4 0.434072 0.145662 0.120021
Si Si5 0.195032 0.361900 0.792378
Si Si6 0.087418 0.146132 0.228259
Si Si7 0.500373 0.862637 0.414551
O O1 0.601664 0.803272 0.693210
O O2 0.485334 0.851111 0.672314
O O3 0.392157 0.000000 0.838366
O O4 0.179036 0.801343 0.998983
O O5 0.115422 0.649434 0.784235
O O6 0.007204 0.763006 0.748752
O O7 0.252564 0.851172 0.632938
O O8 0.005514 0.820603 0.364724
O O9 0.799795 0.000000 0.578987
O O10 0.752599 0.804045 0.684068
O O11 0.656327 0.147335 0.979222
O O12 0.377316 0.000000 0.152718
O O13 0.500000 0.203871 0.000000
O O14 0.286453 0.500000 0.729119
O O15 0.361547 0.251454 0.670779
O O16 0.000000 0.346222 0.000000
O O17 0.021404 0.000000 0.269471
O O18 0.584812 0.000000 0.363423
#
# Coordination Sequence:
#
# PCOD9142392 Si02
#       7
#     4   4   4   4   4   4   4
#     4  10  18  30  49  77 108 136 172 230 282 317
#     4  12  21  34  58  78 101 141 183 228 276 332
#     4   9  16  27  43  65 101 139 174 220 269 316
#     4   9  17  27  40  63 100 146 184 212 259 326
#     4  11  26  46  60  77 111 152 185 224 285 345
#     4  10  18  28  46  72 100 134 178 226 272 318
#     4  11  23  37  58  87 109 136 186 238 281 328
#
# _framework density 19.653897000000001
#
# number of rings (size 3 to 8) (size 9 to 14) (size 15 to 20)
#    0.000    1.714    4.286    1.714    0.000    4.286 
#    0.000    2.857    0.000    0.000    0.000    0.000 
#    0.000    0.571    0.000    1.429    0.000    0.286 
#
# Total GULP energy -155957.757748 kJ/mol
# GULP energy per Si atom -5569.919920 kJ/mol
# Density = 1.960916 g / cm^3
# Si number density = 19.653897 Si / 1000 Ang^3
#
#
#
# Elastic Constant Matrix: (Units=GPa)
#
#
# Indices 1 2 3 4 5 6 
#
# 1 91.9689 11.4153 15.6789 0.0000 29.9018 0.0000
# 2 11.4153 49.4253 16.2115 0.0000 -5.8939 0.0000
# 3 15.6789 16.2115 112.5584 0.0000 15.2260 0.0000
# 4 0.0000 0.0000 0.0000 -1.1122 0.0000 6.3959
# 5 29.9018 -5.8939 15.2260 0.0000 43.5672 0.0000
# 6 0.0000 0.0000 0.0000 6.3959 0.0000 1.8686
#
#
#
# Elastic Compliance Matrix: (Units=1/GPa)
#
#
# Indices 1 2 3 4 5 6 
#
# 1 0.015031 -0.004812 0.000087 0.000000 -0.010998 0.000000
# 2 -0.004812 0.023511 -0.003771 0.000000 0.007801 0.000000
# 3 0.000087 -0.003771 0.009963 0.000000 -0.004052 0.000000
# 4 0.000000 0.000000 0.000000 -0.043470 0.000000 0.148791
# 5 -0.010998 0.007801 -0.004052 0.000000 0.032973 0.000000
# 6 0.000000 0.000000 0.000000 0.148791 0.000000 0.025873
#
#
# Mechanical properties :
#
#
# Convention : Reuss Voigt Hill
#
# Bulk Modulus (GPa) = 31.73198 37.84043 34.78620
# Shear Modulus (GPa) = 54.71775 22.90787 38.81281
#
# Velocity S-wave (km/s) = 5.28215 3.41774 4.44871
# Velocity P-wave (km/s) = 7.30629 5.90506 6.64273
#
# Compressibility (1/GPa) = 0.03151395
#
# Stress axis : x y z
#
# Youngs Moduli (GPa) = 66.52739 42.53310 100.36698
#
# Poissons Ratio (x) = 0.20465 -0.00872
# Poissons Ratio (y) = 0.32011 0.37851
# Poissons Ratio (z) = -0.00578 0.16040
#
# Static dielectric constant tensor:
#      x y z
#    x 1.783920 0.000000 0.016470 
#    y 0.000000 1.641410 0.000000 
#    z 0.016470 0.000000 1.732970 
# 
# From -- ./inp_files/79491.got.cif
#   From: 2010.05.17/outbox.cif.g08.bks.cpg/sg10_40_cif.got.tgz:79491.got - 2010.06.03 11:33:40.
