data_PCOD9142595
_publ_section_title
;
Structure prediction by ZEFSAII (Michael W. Deem and Ramdas Pophale) SiO2 
 PCOD9142595
Probable space group: P 2/M
;
_chemical_formula_sum "Si O2"
_cell_formula_units_Z 32
_cell_length_a 20.068986
_cell_length_b 13.903726
_cell_length_c 22.667425
_cell_angle_alpha 90.000000
_cell_angle_beta 18.427832
_cell_angle_gamma 90.000000
_cell_volume 1999.387399
_symmetry_space_group_name_H-M "P 2/M"
_symmetry_group_IT_number 10
_symmetry_cell_setting 'monoclinic'
loop_
_space_group_symop_operation_xyz
x,y,z
-x,y,-z
-x,-y,-z
x,-y,z
loop_
_atom_site_type_symbol
_atom_site_label
_atom_site_fract_x
_atom_site_fract_y
_atom_site_fract_z
Si Si1 0.655058 0.767182 0.225720
Si Si2 0.529556 0.615725 0.160239
Si Si3 0.275263 0.891540 0.721038
Si Si4 0.081920 0.111421 0.079528
Si Si5 0.879521 0.386230 0.966555
Si Si6 0.099651 0.384125 0.583951
Si Si7 0.842167 0.729810 0.344703
Si Si8 0.361220 0.383429 0.061973
O O1 0.738384 0.816038 0.215189
O O2 0.776135 0.668684 0.108375
O O3 0.405313 0.752471 0.442718
O O4 0.716393 0.837265 0.119464
O O5 0.520820 0.500000 0.162885
O O6 0.716647 0.634283 0.049250
O O7 0.308546 0.645987 0.373754
O O8 0.567070 0.652579 0.062739
O O9 0.500000 0.881248 0.500000
O O10 0.095233 0.883564 0.823249
O O11 0.265445 0.000000 0.754797
O O12 0.981404 0.174573 0.216484
O O13 0.117338 0.000000 0.064467
O O14 0.897169 0.500000 0.959750
O O15 0.095850 0.337207 0.763361
O O16 0.106872 0.500000 0.589157
O O17 0.096016 0.328769 0.648765
O O18 0.887789 0.364161 0.725378
O O19 0.382708 0.500000 0.043347
O O20 0.500000 0.347619 0.000000
#
# Coordination Sequence:
#
# PCOD9142595 Si02
#       8
#     4   4   4   4   4   4   4   4
#     4  11  21  32  53  79  98 128 169 211 247 298
#     4   9  16  27  44  64  92 130 168 202 238 280
#     4  10  19  35  57  78 101 128 158 197 256 320
#     4  10  22  37  54  77 103 130 159 199 254 314
#     4  10  20  33  49  71  98 133 174 210 244 287
#     4  10  18  29  47  70 100 136 172 206 241 284
#     4  11  20  31  51  76  99 130 170 209 246 297
#     4   9  17  28  43  65  96 134 172 208 243 282
#
# _framework density 16.004902000000001
#
# number of rings (size 3 to 8) (size 9 to 14) (size 15 to 20)
#    0.000    2.000    3.750    1.125    0.000    2.500 
#    0.000    2.500    0.000    7.125    0.000    0.000 
#    0.000    0.500    0.000    2.375    0.000    0.125 
#
# Total GULP energy -178407.693375 kJ/mol
# GULP energy per Si atom -5575.240418 kJ/mol
# Density = 1.596847 g / cm^3
# Si number density = 16.004902 Si / 1000 Ang^3
#
#
#
# Elastic Constant Matrix: (Units=GPa)
#
#
# Indices 1 2 3 4 5 6 
#
# 1 41.4969 15.1620 19.8078 0.0000 2.9107 0.0000
# 2 15.1620 85.3364 37.1325 0.0000 7.7357 0.0000
# 3 19.8078 37.1325 122.0957 0.0000 11.9136 0.0000
# 4 0.0000 0.0000 0.0000 17.7355 0.0000 3.3847
# 5 2.9107 7.7357 11.9136 0.0000 19.1923 0.0000
# 6 0.0000 0.0000 0.0000 3.3847 0.0000 9.9439
#
#
#
# Elastic Compliance Matrix: (Units=1/GPa)
#
#
# Indices 1 2 3 4 5 6 
#
# 1 0.026923 -0.003283 -0.003300 0.000000 -0.000711 0.000000
# 2 -0.003283 0.014079 -0.003453 0.000000 -0.003033 0.000000
# 3 -0.003300 -0.003453 0.010210 0.000000 -0.004445 0.000000
# 4 0.000000 0.000000 0.000000 0.060301 0.000000 -0.020525
# 5 -0.000711 -0.003033 -0.004445 0.000000 0.056194 0.000000
# 6 0.000000 0.000000 0.000000 -0.020525 0.000000 0.107551
#
#
# Mechanical properties :
#
#
# Convention : Reuss Voigt Hill
#
# Bulk Modulus (GPa) = 32.11387 43.68152 37.89769
# Shear Modulus (GPa) = 16.35537 21.16279 18.75908
#
# Velocity S-wave (km/s) = 3.20018 3.64025 3.42728
# Velocity P-wave (km/s) = 5.81063 6.70972 6.27630
#
# Compressibility (1/GPa) = 0.03113920
#
# Stress axis : x y z
#
# Youngs Moduli (GPa) = 37.14329 71.02661 97.94700
#
# Poissons Ratio (x) = 0.23319 0.32321
# Poissons Ratio (y) = 0.12195 0.33824
# Poissons Ratio (z) = 0.12257 0.24527
#
# Static dielectric constant tensor:
#      x y z
#    x 1.530390 0.000000 0.010860 
#    y 0.000000 1.541840 0.000000 
#    z 0.010860 0.000000 1.578410 
# 
# From -- ./inp_files/79711.got.cif
#   From: 2010.05.17/outbox.cif.g08.bks.cpg/sg10_40_cif.got.tgz:79711.got - 2010.06.03 11:33:40.
