data_PCOD9142208
_publ_section_title
;
Structure prediction by ZEFSAII (Michael W. Deem and Ramdas Pophale) SiO2 
 PCOD9142208
Probable space group: P 2/M
;
_chemical_formula_sum "Si O2"
_cell_formula_units_Z 24
_cell_length_a 22.233395
_cell_length_b 8.952012
_cell_length_c 12.623105
_cell_angle_alpha 90.000000
_cell_angle_beta 37.772971
_cell_angle_gamma 90.000000
_cell_volume 1538.944650
_symmetry_space_group_name_H-M "P 2/M"
_symmetry_group_IT_number 10
_symmetry_cell_setting 'monoclinic'
loop_
_space_group_symop_operation_xyz
x,y,z
-x,y,-z
-x,-y,-z
x,-y,z
loop_
_atom_site_type_symbol
_atom_site_label
_atom_site_fract_x
_atom_site_fract_y
_atom_site_fract_z
Si Si1 0.838837 0.321971 0.908543
Si Si2 0.661723 0.819511 0.269451
Si Si3 0.965234 0.827544 0.425262
Si Si4 0.559579 0.180840 0.021921
Si Si5 0.229273 0.321769 0.237325
Si Si6 0.512432 0.180871 0.650568
O O1 0.845242 0.500000 0.908425
O O2 0.793853 0.286596 0.854316
O O3 0.947022 0.250888 0.760373
O O4 0.764267 0.254709 0.097694
O O5 0.582214 0.778616 0.288918
O O6 0.609784 0.771999 0.451520
O O7 0.671645 0.000000 0.254650
O O8 0.861638 0.743226 0.569135
O O9 0.000000 0.823711 0.500000
O O10 0.954120 0.000000 0.409862
O O11 0.668148 0.248592 0.873773
O O12 0.567392 0.000000 0.013595
O O13 0.500000 0.223060 0.000000
O O14 0.503650 0.230306 0.207057
O O15 0.233143 0.500000 0.242174
O O16 0.514964 0.000000 0.647119
#
# Coordination Sequence:
#
# PCOD9142208 Si02
#       6
#     4   4   4   4   4   4
#     4  10  18  27  41  66  95 120 146 180 225 272
#     4   9  15  26  45  63  86 120 151 182 220 267
#     4   9  17  28  44  64  87 118 152 183 218 268
#     4  10  19  31  48  67  88 118 157 194 222 257
#     4  10  19  30  43  62  92 123 148 184 227 267
#     4   8  15  27  43  64  87 115 152 188 223 260
#
# _framework density 15.595103
#
# number of rings (size 3 to 8) (size 9 to 14) (size 15 to 20)
#    0.000    2.667    1.667    2.500    0.000    3.667 
#    0.000    2.500    0.000    0.000    0.000    1.167 
#    0.000    9.333    0.000    0.000    0.000    0.000 
#
# Total GULP energy -133715.097385 kJ/mol
# GULP energy per Si atom -5571.462391 kJ/mol
# Density = 1.555961 g / cm^3
# Si number density = 15.595103 Si / 1000 Ang^3
#
#
#
# Elastic Constant Matrix: (Units=GPa)
#
#
# Indices 1 2 3 4 5 6 
#
# 1 65.3276 27.0799 58.8397 0.0000 -0.4228 0.0000
# 2 27.0799 33.8190 46.2616 0.0000 -7.5246 0.0000
# 3 58.8397 46.2616 178.6547 0.0000 -14.0272 0.0000
# 4 0.0000 0.0000 0.0000 -15.3996 0.0000 -1.8644
# 5 -0.4228 -7.5246 -14.0272 0.0000 17.4118 0.0000
# 6 0.0000 0.0000 0.0000 -1.8644 0.0000 12.6280
#
#
#
# Elastic Compliance Matrix: (Units=1/GPa)
#
#
# Indices 1 2 3 4 5 6 
#
# 1 0.027043 -0.016612 -0.005463 0.000000 -0.010923 0.000000
# 2 -0.016612 0.058026 -0.008132 0.000000 0.018122 0.000000
# 3 -0.005463 -0.008132 0.009838 0.000000 0.004279 0.000000
# 4 0.000000 0.000000 0.000000 -0.063796 0.000000 -0.009419
# 5 -0.010923 0.018122 0.004279 0.000000 0.068446 0.000000
# 6 0.000000 0.000000 0.000000 -0.009419 0.000000 0.077798
#
#
# Mechanical properties :
#
#
# Convention : Reuss Voigt Hill
#
# Bulk Modulus (GPa) = 28.98976 60.24042 44.61509
# Shear Modulus (GPa) = 20.05886 12.63604 16.34745
#
# Velocity S-wave (km/s) = 3.59029 2.84959 3.24117
# Velocity P-wave (km/s) = 5.98467 7.03836 6.53280
#
# Compressibility (1/GPa) = 0.03449494
#
# Stress axis : x y z
#
# Youngs Moduli (GPa) = 36.97813 17.23354 101.64585
#
# Poissons Ratio (x) = 0.28629 0.55525
# Poissons Ratio (y) = 0.61428 0.82654
# Poissons Ratio (z) = 0.20200 0.14014
#
# Static dielectric constant tensor:
#      x y z
#    x 1.490550 0.000000 0.009960 
#    y 0.000000 1.515470 0.000000 
#    z 0.009960 0.000000 1.530260 
# 
# From -- ./inp_files/48510.got.cif
#   From: 2010.05.17/outbox.cif.g08.bks.cpg/sg10_25_cif.got.tgz:48510.got - 2010.06.03 11:33:40.
