data_PCOD9142880
_publ_section_title
;
Structure prediction by ZEFSAII (Michael W. Deem and Ramdas Pophale) SiO2 
 PCOD9142880
Probable space group: P 2/M
;
_chemical_formula_sum "Si O2"
_cell_formula_units_Z 28
_cell_length_a 29.246194
_cell_length_b 8.684373
_cell_length_c 9.962000
_cell_angle_alpha 90.000000
_cell_angle_beta 39.065689
_cell_angle_gamma 90.000000
_cell_volume 1594.557993
_symmetry_space_group_name_H-M "P 2/M"
_symmetry_group_IT_number 10
_symmetry_cell_setting 'monoclinic'
loop_
_space_group_symop_operation_xyz
x,y,z
-x,y,-z
-x,-y,-z
x,-y,z
loop_
_atom_site_type_symbol
_atom_site_label
_atom_site_fract_x
_atom_site_fract_y
_atom_site_fract_z
Si Si1 0.690778 0.315333 0.323735
Si Si2 0.261088 0.185293 0.063341
Si Si3 0.952357 0.315141 0.796487
Si Si4 0.811848 0.314635 0.267215
Si Si5 0.417081 0.686193 0.202062
Si Si6 0.702609 0.184448 0.723544
Si Si7 0.903511 0.184903 0.619677
O O1 0.690371 0.500000 0.312502
O O2 0.760612 0.273693 0.256372
O O3 0.621169 0.267797 0.570614
O O4 0.697808 0.244598 0.161477
O O5 0.293308 0.237553 0.131827
O O6 0.176561 0.231864 0.244037
O O7 0.262600 0.000000 0.058434
O O8 0.957670 0.500000 0.780411
O O9 0.920264 0.257377 0.727191
O O10 0.032083 0.242898 0.623421
O O11 0.893959 0.271646 0.043087
O O12 0.807877 0.500000 0.291213
O O13 0.774678 0.237613 0.479770
O O14 0.415447 0.500000 0.200424
O O15 0.365459 0.747746 0.202072
O O16 0.500000 0.737523 0.000000
O O17 0.698848 0.000000 0.728891
O O18 0.906872 0.000000 0.622976
#
# Coordination Sequence:
#
# PCOD9142880 Si02
#       7
#     4   4   4   4   4   4   4
#     4   9  17  31  54  79  99 130 172 209 248 299
#     4  10  21  35  49  73 108 140 171 210 254 303
#     4  10  18  30  48  72 100 129 171 223 264 299
#     4   9  18  33  51  74 101 132 175 220 260 305
#     4   9  19  38  60  82 107 132 164 207 251 301
#     4  10  21  35  53  77 105 137 172 208 252 304
#     4  10  19  30  46  70 101 136 173 212 259 306
#
# _framework density 17.559726000000001
#
# number of rings (size 3 to 8) (size 9 to 14) (size 15 to 20)
#    0.000    2.429    1.429    3.000    0.000    5.429 
#    0.000    1.429    0.000    8.571    0.000    0.000 
#    0.000    0.000    0.000    0.000    0.000    0.000 
#
# Total GULP energy -156159.661234 kJ/mol
# GULP energy per Si atom -5577.130758 kJ/mol
# Density = 1.751976 g / cm^3
# Si number density = 17.559726 Si / 1000 Ang^3
#
#
#
# Elastic Constant Matrix: (Units=GPa)
#
#
# Indices 1 2 3 4 5 6 
#
# 1 86.7882 20.3912 82.6617 0.0000 6.6079 0.0000
# 2 20.3912 16.3888 27.7225 0.0000 -0.2849 0.0000
# 3 82.6617 27.7225 156.9370 0.0000 -4.3286 0.0000
# 4 0.0000 0.0000 0.0000 31.3928 0.0000 -9.8296
# 5 6.6079 -0.2849 -4.3286 0.0000 31.9898 0.0000
# 6 0.0000 0.0000 0.0000 -9.8296 0.0000 32.2956
#
#
#
# Elastic Compliance Matrix: (Units=1/GPa)
#
#
# Indices 1 2 3 4 5 6 
#
# 1 0.026326 -0.012964 -0.011774 0.000000 -0.007147 0.000000
# 2 -0.012964 0.093458 -0.009620 0.000000 0.002208 0.000000
# 3 -0.011774 -0.009620 0.014391 0.000000 0.004294 0.000000
# 4 0.000000 0.000000 0.000000 0.035210 0.000000 0.010717
# 5 -0.007147 0.002208 0.004294 0.000000 0.033337 0.000000
# 6 0.000000 0.000000 0.000000 0.010717 0.000000 0.034226
#
#
# Mechanical properties :
#
#
# Convention : Reuss Voigt Hill
#
# Bulk Modulus (GPa) = 15.27644 57.96277 36.61960
# Shear Modulus (GPa) = 15.26803 27.75820 21.51311
#
# Velocity S-wave (km/s) = 2.95191 3.98023 3.50400
# Velocity P-wave (km/s) = 4.50965 7.36230 6.10494
#
# Compressibility (1/GPa) = 0.06546028
#
# Stress axis : x y z
#
# Youngs Moduli (GPa) = 37.98518 10.70004 69.48771
#
# Poissons Ratio (x) = 0.13871 0.81811
# Poissons Ratio (y) = 0.49244 0.66845
# Poissons Ratio (z) = 0.44722 0.10293
#
# Static dielectric constant tensor:
#      x y z
#    x 1.578490 0.000000 -0.009460 
#    y 0.000000 1.592560 0.000000 
#    z -0.009460 0.000000 1.610400 
# 
# From -- ./inp_files/37919.got.cif
#   From: 2010.05.17/outbox.cif.g08.bks.cpg/sg10_19_cif.got.tgz:37919.got - 2010.06.03 11:33:40.
