data_PCOD9142934
_publ_section_title
;
Structure prediction by ZEFSAII (Michael W. Deem and Ramdas Pophale) SiO2 
 PCOD9142934
Probable space group: P 2/M
;
_chemical_formula_sum "Si O2"
_cell_formula_units_Z 24
_cell_length_a 10.858577
_cell_length_b 9.010209
_cell_length_c 16.982580
_cell_angle_alpha 90.000000
_cell_angle_beta 45.152979
_cell_angle_gamma 90.000000
_cell_volume 1178.020700
_symmetry_space_group_name_H-M "P 2/M"
_symmetry_group_IT_number 10
_symmetry_cell_setting 'monoclinic'
loop_
_space_group_symop_operation_xyz
x,y,z
-x,y,-z
-x,-y,-z
x,-y,z
loop_
_atom_site_type_symbol
_atom_site_label
_atom_site_fract_x
_atom_site_fract_y
_atom_site_fract_z
Si Si1 0.764822 0.680219 0.539170
Si Si2 0.312029 0.675454 0.943806
Si Si3 0.972205 0.171376 0.133476
Si Si4 0.390193 0.678012 0.731875
Si Si5 0.733301 0.170061 0.880203
Si Si6 0.134659 0.678413 0.327902
O O1 0.762957 0.500000 0.537679
O O2 0.568591 0.727962 0.609974
O O3 0.932084 0.726736 0.413499
O O4 0.805581 0.720819 0.611407
O O5 0.314925 0.500000 0.957751
O O6 0.366156 0.760614 0.999272
O O7 0.113882 0.733073 0.020817
O O8 0.407168 0.704465 0.818685
O O9 0.782999 0.241260 0.218151
O O10 0.068040 0.173989 0.174922
O O11 0.968012 0.000000 0.109170
O O12 0.369304 0.500000 0.731628
O O13 0.745393 0.258001 0.794160
O O14 0.685779 0.000000 0.889360
O O15 0.140980 0.500000 0.320384
#
# Coordination Sequence:
#
# PCOD9142934 Si02
#       6
#     4   4   4   4   4   4
#     4   8  17  32  52  77  96 119 157 204 244 276
#     4   9  17  29  48  73  96 128 162 192 235 282
#     4   9  19  31  46  70 101 133 158 190 236 283
#     4  10  18  30  49  74 102 124 157 200 235 282
#     4   9  19  32  48  70  98 129 161 198 235 280
#     4   9  16  33  57  72  91 124 163 199 238 286
#
# _framework density 20.373156000000002
#
# number of rings (size 3 to 8) (size 9 to 14) (size 15 to 20)
#    1.000    2.000    0.000    2.500    0.000    3.333 
#    0.000    5.000    0.000   10.000    0.000    0.000 
#    0.000    0.000    0.000    0.000    0.000    0.000 
#
# Total GULP energy -133666.300067 kJ/mol
# GULP energy per Si atom -5569.429169 kJ/mol
# Density = 2.032679 g / cm^3
# Si number density = 20.373156 Si / 1000 Ang^3
#
#
#
# Elastic Constant Matrix: (Units=GPa)
#
#
# Indices 1 2 3 4 5 6 
#
# 1 40.1496 0.7636 23.6983 0.0000 -17.4448 0.0000
# 2 0.7636 41.8970 22.0822 0.0000 1.6882 0.0000
# 3 23.6983 22.0822 93.4308 0.0000 -23.4068 0.0000
# 4 0.0000 0.0000 0.0000 -30.1136 0.0000 -28.3111
# 5 -17.4448 1.6882 -23.4068 0.0000 37.4681 0.0000
# 6 0.0000 0.0000 0.0000 -28.3111 0.0000 -17.7905
#
#
#
# Elastic Compliance Matrix: (Units=1/GPa)
#
#
# Indices 1 2 3 4 5 6 
#
# 1 0.033547 0.002115 -0.006070 0.000000 0.011732 0.000000
# 2 0.002115 0.028682 -0.008764 0.000000 -0.005783 0.000000
# 3 -0.006070 -0.008764 0.016248 0.000000 0.007719 0.000000
# 4 0.000000 0.000000 0.000000 0.066936 0.000000 -0.106520
# 5 0.011732 -0.005783 0.007719 0.000000 0.037234 0.000000
# 6 0.000000 0.000000 0.000000 -0.106520 0.000000 0.113302
#
#
# Mechanical properties :
#
#
# Convention : Reuss Voigt Hill
#
# Bulk Modulus (GPa) = 18.85414 29.84063 24.34739
# Shear Modulus (GPa) = 14.74639 6.50835 10.62737
#
# Velocity S-wave (km/s) = 2.69330 1.78928 2.28641
# Velocity P-wave (km/s) = 4.35274 4.35287 4.35280
#
# Compressibility (1/GPa) = 0.05303874
#
# Stress axis : x y z
#
# Youngs Moduli (GPa) = 29.80918 34.86548 61.54660
#
# Poissons Ratio (x) = -0.07374 0.37357
# Poissons Ratio (y) = -0.06304 0.53939
# Poissons Ratio (z) = 0.18093 0.30556
#
# Static dielectric constant tensor:
#      x y z
#    x 1.802150 0.000000 -0.025650 
#    y 0.000000 1.680500 0.000000 
#    z -0.025650 0.000000 1.726140 
# 
# From -- ./inp_files/75892.got.cif
#   From: 2010.05.17/outbox.cif.g08.bks.cpg/sg10_38_cif.got.tgz:75892.got - 2010.06.03 11:33:40.
