data_PCOD9142631
_publ_section_title
;
Structure prediction by ZEFSAII (Michael W. Deem and Ramdas Pophale) SiO2 
 PCOD9142631
Probable space group: P 2/M
;
_chemical_formula_sum "Si O2"
_cell_formula_units_Z 28
_cell_length_a 18.872970
_cell_length_b 13.719555
_cell_length_c 15.549069
_cell_angle_alpha 90.000000
_cell_angle_beta 21.892302
_cell_angle_gamma 90.000000
_cell_volume 1501.184577
_symmetry_space_group_name_H-M "P 2/M"
_symmetry_group_IT_number 10
_symmetry_cell_setting 'monoclinic'
loop_
_space_group_symop_operation_xyz
x,y,z
-x,y,-z
-x,-y,-z
x,-y,z
loop_
_atom_site_type_symbol
_atom_site_label
_atom_site_fract_x
_atom_site_fract_y
_atom_site_fract_z
Si Si1 0.278375 0.813984 0.722432
Si Si2 0.808902 0.389107 0.104242
Si Si3 0.486878 0.386477 0.711556
Si Si4 0.241833 0.616295 0.148603
Si Si5 0.209792 0.384505 0.370472
Si Si6 0.923280 0.111506 0.221224
Si Si7 0.162852 0.695198 0.606644
O O1 0.500000 0.821877 0.500000
O O2 0.208626 0.701064 0.811098
O O3 0.216648 0.859506 0.700545
O O4 0.138307 0.871008 0.945705
O O5 0.823809 0.500000 0.121866
O O6 0.621905 0.382493 0.255464
O O7 0.982516 0.367423 0.842680
O O8 0.533390 0.500000 0.675170
O O9 0.675859 0.325737 0.505185
O O10 0.351743 0.349259 0.940859
O O11 0.272620 0.500000 0.117875
O O12 0.295977 0.652817 0.183017
O O13 0.017499 0.628124 0.386139
O O14 0.250945 0.500000 0.331390
O O15 0.246557 0.337382 0.420950
O O16 0.889639 0.191756 0.332163
O O17 0.894105 0.000000 0.278141
#
# Coordination Sequence:
#
# PCOD9142631 Si02
#       7
#     4   4   4   4   4   4   4
#     4  10  20  37  59  78  98 127 162 198 246 302
#     4  10  20  33  48  73 110 139 160 191 232 288
#     4  10  18  29  47  74 107 139 169 197 228 280
#     4   8  15  26  44  70 103 140 170 196 226 271
#     4   9  15  27  46  71 104 138 167 195 233 280
#     4  10  23  40  55  75  97 118 162 221 263 295
#     4  11  20  32  51  72  98 135 171 203 246 294
#
# _framework density 18.651935999999999
#
# number of rings (size 3 to 8) (size 9 to 14) (size 15 to 20)
#    0.000    2.286    1.429    3.857    0.000    2.000 
#    0.000    9.286    0.000    0.000    0.000    4.000 
#    0.000    0.000    0.000    0.000    0.000    0.000 
#
# Total GULP energy -156209.542289 kJ/mol
# GULP energy per Si atom -5578.912225 kJ/mol
# Density = 1.860948 g / cm^3
# Si number density = 18.651936 Si / 1000 Ang^3
#
#
#
# Elastic Constant Matrix: (Units=GPa)
#
#
# Indices 1 2 3 4 5 6 
#
# 1 48.7075 11.6613 14.4646 0.0000 5.7607 0.0000
# 2 11.6613 90.0255 5.0183 0.0000 -1.4112 0.0000
# 3 14.4646 5.0183 38.5889 0.0000 -18.8784 0.0000
# 4 0.0000 0.0000 0.0000 12.2737 0.0000 -1.4851
# 5 5.7607 -1.4112 -18.8784 0.0000 29.9921 0.0000
# 6 0.0000 0.0000 0.0000 -1.4851 0.0000 7.0876
#
#
#
# Elastic Compliance Matrix: (Units=1/GPa)
#
#
# Indices 1 2 3 4 5 6 
#
# 1 0.029060 -0.002972 -0.019225 0.000000 -0.017823 0.000000
# 2 -0.002972 0.011500 0.000235 0.000000 0.001260 0.000000
# 3 -0.019225 0.000235 0.050432 0.000000 0.035448 0.000000
# 4 0.000000 0.000000 0.000000 0.083594 0.000000 0.017515
# 5 -0.017823 0.001260 0.035448 0.000000 0.059137 0.000000
# 6 0.000000 0.000000 0.000000 0.017515 0.000000 0.144761
#
#
# Mechanical properties :
#
#
# Convention : Reuss Voigt Hill
#
# Bulk Modulus (GPa) = 21.24673 26.62334 23.93504
# Shear Modulus (GPa) = 11.41300 19.61587 15.51444
#
# Velocity S-wave (km/s) = 2.47633 3.24648 2.88720
# Velocity P-wave (km/s) = 4.42631 5.32519 4.89642
#
# Compressibility (1/GPa) = 0.04706606
#
# Stress axis : x y z
#
# Youngs Moduli (GPa) = 34.41215 86.95976 19.82871
#
# Poissons Ratio (x) = 0.25843 0.38121
# Poissons Ratio (y) = 0.10227 -0.00466
# Poissons Ratio (z) = 0.66159 -0.02042
#
# Static dielectric constant tensor:
#      x y z
#    x 1.717880 0.000000 0.003120 
#    y 0.000000 1.628260 0.000000 
#    z 0.003120 0.000000 1.692030 
# 
# From -- ./inp_files/79515.got.cif
#   From: 2010.05.17/outbox.cif.g08.bks.cpg/sg10_40_cif.got.tgz:79515.got - 2010.06.03 11:33:40.
