data_PCOD9142023
_publ_section_title
;
Structure prediction by ZEFSAII (Michael W. Deem and Ramdas Pophale) SiO2 
 PCOD9142023
Probable space group: P 2/M
;
_chemical_formula_sum "Si O2"
_cell_formula_units_Z 32
_cell_length_a 8.805078
_cell_length_b 14.733411
_cell_length_c 14.598774
_cell_angle_alpha 90.000000
_cell_angle_beta 61.931144
_cell_angle_gamma 90.000000
_cell_volume 1671.128754
_symmetry_space_group_name_H-M "P 2/M"
_symmetry_group_IT_number 10
_symmetry_cell_setting 'monoclinic'
loop_
_space_group_symop_operation_xyz
x,y,z
-x,y,-z
-x,-y,-z
x,-y,z
loop_
_atom_site_type_symbol
_atom_site_label
_atom_site_fract_x
_atom_site_fract_y
_atom_site_fract_z
Si Si1 0.001673 0.898801 0.342439
Si Si2 0.864016 0.709119 0.462074
Si Si3 0.489302 0.212153 0.399553
Si Si4 0.001434 0.830877 0.850968
Si Si5 0.719387 0.801187 0.069595
Si Si6 0.198712 0.402107 0.911661
Si Si7 0.410989 0.104875 0.243860
Si Si8 0.170158 0.667960 0.724481
O O1 0.963594 0.895016 0.244696
O O2 0.206656 0.883370 0.291756
O O3 0.911833 0.813053 0.416560
O O4 0.959122 0.000000 0.390568
O O5 0.671968 0.718813 0.555489
O O6 0.865447 0.645934 0.371272
O O7 0.000000 0.681821 0.500000
O O8 0.500000 0.175508 0.500000
O O9 0.459819 0.137296 0.331699
O O10 0.662459 0.267040 0.329398
O O11 0.152276 0.832983 0.884071
O O12 0.013705 0.730522 0.803840
O O13 0.818165 0.838555 0.952479
O O14 0.719806 0.691438 0.074888
O O15 0.530184 0.838065 0.141539
O O16 0.269455 0.500000 0.922196
O O17 0.202949 0.398386 0.799421
O O18 0.000000 0.397665 0.000000
O O19 0.451673 0.000000 0.218826
#
# Coordination Sequence:
#
# PCOD9142023 Si02
#       8
#     4   4   4   4   4   4   4   4
#     4  10  22  35  48  72 105 139 187 229 267 315
#     4  10  19  32  54  74  96 143 186 224 271 301
#     4  10  19  33  50  70 101 138 176 225 266 304
#     4   9  17  33  53  69 101 140 168 213 263 312
#     4  10  18  35  54  79 109 134 177 218 258 320
#     4  10  17  30  59  91 112 131 161 213 274 323
#     4  11  22  34  49  73 106 145 182 220 263 309
#     4   9  17  33  52  78 109 131 171 214 262 325
#
# _framework density 19.148734999999999
#
# number of rings (size 3 to 8) (size 9 to 14) (size 15 to 20)
#    0.000    2.125    6.250    0.000    0.000    2.500 
#    0.000    2.500    0.000    3.750    0.000   14.875 
#    0.000    0.125    0.000    0.000    0.000    0.000 
#
# Total GULP energy -178320.815960 kJ/mol
# GULP energy per Si atom -5572.525499 kJ/mol
# Density = 1.910515 g / cm^3
# Si number density = 19.148735 Si / 1000 Ang^3
#
#
#
# Elastic Constant Matrix: (Units=GPa)
#
#
# Indices 1 2 3 4 5 6 
#
# 1 49.7449 2.1266 10.6247 0.0000 -1.2470 0.0000
# 2 2.1266 46.1914 7.8113 0.0000 -5.2043 0.0000
# 3 10.6247 7.8113 77.3415 0.0000 -8.5014 0.0000
# 4 0.0000 0.0000 0.0000 -6.1579 0.0000 17.7754
# 5 -1.2470 -5.2043 -8.5014 0.0000 20.3779 0.0000
# 6 0.0000 0.0000 0.0000 17.7754 0.0000 -23.2015
#
#
#
# Elastic Compliance Matrix: (Units=1/GPa)
#
#
# Indices 1 2 3 4 5 6 
#
# 1 0.020721 -0.000483 -0.002800 0.000000 -0.000024 0.000000
# 2 -0.000483 0.022518 -0.001655 0.000000 0.005031 0.000000
# 3 -0.002800 -0.001655 0.014061 0.000000 0.005272 0.000000
# 4 0.000000 0.000000 0.000000 0.134043 0.000000 0.102694
# 5 -0.000024 0.005031 0.005272 0.000000 0.052556 0.000000
# 6 0.000000 0.000000 0.000000 0.102694 0.000000 0.035576
#
#
# Mechanical properties :
#
#
# Convention : Reuss Voigt Hill
#
# Bulk Modulus (GPa) = 21.08675 23.82257 22.45466
# Shear Modulus (GPa) = 16.38490 8.38468 12.38479
#
# Velocity S-wave (km/s) = 2.92835 2.09481 2.54592
# Velocity P-wave (km/s) = 4.74021 4.28004 4.51599
#
# Compressibility (1/GPa) = 0.04742314
#
# Stress axis : x y z
#
# Youngs Moduli (GPa) = 48.26085 44.40895 71.11861
#
# Poissons Ratio (x) = 0.02145 0.19915
# Poissons Ratio (y) = 0.02331 0.11770
# Poissons Ratio (z) = 0.13514 0.07349
#
# Static dielectric constant tensor:
#      x y z
#    x 1.686480 0.000000 0.028980 
#    y 0.000000 1.671150 0.000000 
#    z 0.028980 0.000000 1.707250 
# 
# From -- ./inp_files/61814.got.cif
#   From: 2010.05.17/outbox.cif.g08.bks.cpg/sg10_31_cif.got.tgz:61814.got - 2010.06.03 11:33:40.
