data_PCOD9142923
_publ_section_title
;
Structure prediction by ZEFSAII (Michael W. Deem and Ramdas Pophale) SiO2 
 PCOD9142923
Probable space group: P 2/M
;
_chemical_formula_sum "Si O2"
_cell_formula_units_Z 28
_cell_length_a 10.595257
_cell_length_b 7.339799
_cell_length_c 18.028188
_cell_angle_alpha 90.000000
_cell_angle_beta 61.758235
_cell_angle_gamma 90.000000
_cell_volume 1235.103403
_symmetry_space_group_name_H-M "P 2/M"
_symmetry_group_IT_number 10
_symmetry_cell_setting 'monoclinic'
loop_
_space_group_symop_operation_xyz
x,y,z
-x,y,-z
-x,-y,-z
x,-y,z
loop_
_atom_site_type_symbol
_atom_site_label
_atom_site_fract_x
_atom_site_fract_y
_atom_site_fract_z
Si Si1 0.849460 0.711342 0.014066
Si Si2 0.870370 0.222433 0.295590
Si Si3 0.179266 0.211867 0.256758
Si Si4 0.343812 0.221640 0.515071
Si Si5 0.658310 0.720398 0.934277
Si Si6 0.682384 0.220196 0.208388
Si Si7 0.360674 0.776971 0.342066
O O1 0.879399 0.500000 0.988304
O O2 0.737317 0.720160 0.112839
O O3 0.775343 0.788355 0.961190
O O4 0.000000 0.792471 0.000000
O O5 0.774501 0.277647 0.392626
O O6 0.793874 0.281396 0.240940
O O7 0.031762 0.287189 0.264456
O O8 0.870233 0.000000 0.292422
O O9 0.297871 0.224347 0.160026
O O10 0.245871 0.287466 0.313645
O O11 0.148908 0.000000 0.280727
O O12 0.500000 0.278136 0.500000
O O13 0.324819 0.279790 0.435611
O O14 0.342927 0.000000 0.515186
O O15 0.657804 0.500000 0.937286
O O16 0.500000 0.782432 0.000000
O O17 0.521651 0.278601 0.274154
O O18 0.682024 0.000000 0.208272
O O19 0.361519 0.000000 0.340937
#
# Coordination Sequence:
#
# PCOD9142923 Si02
#       7
#     4   4   4   4   4   4   4
#     4  10  21  35  50  70  95 123 159 201 242 286
#     4   9  17  28  45  71 102 132 160 195 238 287
#     4  10  20  32  47  74 105 125 154 204 251 281
#     4   9  14  25  45  69 100 134 162 190 233 284
#     4  10  21  37  54  70  93 129 169 199 233 294
#     4  10  18  30  49  72  95 123 162 199 236 285
#     4   9  17  28  45  71 100 128 159 196 236 282
#
# _framework density 22.670168
#
# number of rings (size 3 to 8) (size 9 to 14) (size 15 to 20)
#    0.000    2.429    1.429    1.714    0.000    1.714 
#    0.000    2.857    0.000    0.000    0.000    6.000 
#    0.000    0.000    0.000    0.000    0.000    0.000 
#
# Total GULP energy -156523.806983 kJ/mol
# GULP energy per Si atom -5590.135964 kJ/mol
# Density = 2.261857 g / cm^3
# Si number density = 22.670168 Si / 1000 Ang^3
#
#
#
# Elastic Constant Matrix: (Units=GPa)
#
#
# Indices 1 2 3 4 5 6 
#
# 1 81.9157 5.1320 -9.9390 0.0000 23.9356 0.0000
# 2 5.1320 86.6087 -18.4165 0.0000 4.1715 0.0000
# 3 -9.9390 -18.4165 73.1127 0.0000 24.5992 0.0000
# 4 0.0000 0.0000 0.0000 -67.8212 0.0000 25.4376
# 5 23.9356 4.1715 24.5992 0.0000 47.5504 0.0000
# 6 0.0000 0.0000 0.0000 25.4376 0.0000 -30.6093
#
#
#
# Elastic Compliance Matrix: (Units=1/GPa)
#
#
# Indices 1 2 3 4 5 6 
#
# 1 0.016299 0.000941 0.006345 0.000000 -0.011570 0.000000
# 2 0.000941 0.012675 0.004666 0.000000 -0.004000 0.000000
# 3 0.006345 0.004666 0.020495 0.000000 -0.014206 0.000000
# 4 0.000000 0.000000 0.000000 -0.021422 0.000000 -0.017802
# 5 -0.011570 -0.004000 -0.014206 0.000000 0.034555 0.000000
# 6 0.000000 0.000000 0.000000 -0.017802 0.000000 -0.047464
#
#
# Mechanical properties :
#
#
# Convention : Reuss Voigt Hill
#
# Bulk Modulus (GPa) = 13.62857 21.68780 17.65819
# Shear Modulus (GPa) = 318.64125 7.48136 163.06130
#
# Velocity S-wave (km/s) = 11.86846 1.81859 8.49022
# Velocity P-wave (km/s) = 13.92260 3.74127 10.19401
#
# Compressibility (1/GPa) = 0.07337524
#
# Stress axis : x y z
#
# Youngs Moduli (GPa) = 61.35225 78.89335 48.79148
#
# Poissons Ratio (x) = -0.07422 -0.30960
# Poissons Ratio (y) = -0.05772 -0.22768
# Poissons Ratio (z) = -0.38931 -0.36815
#
# Static dielectric constant tensor:
#      x y z
#    x 1.825270 0.000000 0.006670 
#    y 0.000000 1.871930 0.000000 
#    z 0.006670 0.000000 1.762470 
# 
# From -- ./inp_files/60913.got.cif
#   From: 2010.05.17/outbox.cif.g08.bks.cpg/sg10_31_cif.got.tgz:60913.got - 2010.06.03 11:33:40.
