data_PCOD9142423
_publ_section_title
;
Structure prediction by ZEFSAII (Michael W. Deem and Ramdas Pophale) SiO2 
 PCOD9142423
Probable space group: P 2/M
;
_chemical_formula_sum "Si O2"
_cell_formula_units_Z 32
_cell_length_a 30.448294
_cell_length_b 13.847101
_cell_length_c 9.792281
_cell_angle_alpha 90.000000
_cell_angle_beta 148.976678
_cell_angle_gamma 90.000000
_cell_volume 2127.840643
_symmetry_space_group_name_H-M "P 2/M"
_symmetry_group_IT_number 10
_symmetry_cell_setting 'monoclinic'
loop_
_space_group_symop_operation_xyz
x,y,z
-x,y,-z
-x,-y,-z
x,-y,z
loop_
_atom_site_type_symbol
_atom_site_label
_atom_site_fract_x
_atom_site_fract_y
_atom_site_fract_z
Si Si1 0.273973 0.883510 0.646183
Si Si2 0.595632 0.116749 0.234659
Si Si3 0.214151 0.798635 0.762848
Si Si4 0.132799 0.192365 0.057979
Si Si5 0.119625 0.611610 0.446359
Si Si6 0.972361 0.115051 0.775411
Si Si7 0.255077 0.883431 0.157637
Si Si8 0.922893 0.611895 0.987594
O O1 0.357924 0.857007 0.783149
O O2 0.267760 0.833241 0.775345
O O3 0.194253 0.848481 0.341716
O O4 0.268932 0.000000 0.646159
O O5 0.661225 0.141727 0.530415
O O6 0.591681 0.000000 0.223790
O O7 0.500000 0.153870 0.000000
O O8 0.188530 0.686535 0.684779
O O9 0.122731 0.851720 0.507085
O O10 0.255838 0.832920 0.013790
O O11 0.174411 0.154536 0.029995
O O12 0.123914 0.307828 0.047262
O O13 0.039608 0.151873 0.843917
O O14 0.141066 0.500000 0.529307
O O15 0.025081 0.629438 0.256378
O O16 0.108201 0.623796 0.252224
O O17 0.975641 0.000000 0.787253
O O18 0.000000 0.151713 0.000000
O O19 0.250109 0.000000 0.131978
O O20 0.908876 0.500000 0.989171
#
# Coordination Sequence:
#
# PCOD9142423 Si02
#       8
#     4   4   4   4   4   4   4   4
#     4  10  18  28  48  72  95 125 161 199 233 281
#     4   8  16  34  55  71  92 126 158 186 234 297
#     4  12  20  31  45  68 101 128 162 203 243 272
#     4  11  18  31  45  64  93 130 172 202 235 278
#     4   9  17  30  47  66  89 124 167 211 250 274
#     4  11  19  26  42  63  89 129 173 202 220 272
#     4  10  22  34  46  69 103 131 154 197 246 285
#     4   9  16  29  48  67  85 118 175 224 245 265
#
# _framework density 15.03872
#
# number of rings (size 3 to 8) (size 9 to 14) (size 15 to 20)
#    0.000    2.000    3.750    3.750    0.000    0.500 
#    0.000    2.500    0.000    4.500    0.000    0.000 
#    0.000   19.000    0.000    0.000    0.000    0.000 
#
# Total GULP energy -178450.671520 kJ/mol
# GULP energy per Si atom -5576.583485 kJ/mol
# Density = 1.500449 g / cm^3
# Si number density = 15.038720 Si / 1000 Ang^3
#
#
#
# Elastic Constant Matrix: (Units=GPa)
#
#
# Indices 1 2 3 4 5 6 
#
# 1 101.9501 36.1378 55.2292 0.0000 -1.6998 0.0000
# 2 36.1378 97.4374 25.9857 0.0000 -1.8229 0.0000
# 3 55.2292 25.9857 55.7390 0.0000 2.8480 0.0000
# 4 0.0000 0.0000 0.0000 12.0087 0.0000 -8.5836
# 5 -1.6998 -1.8229 2.8480 0.0000 23.8091 0.0000
# 6 0.0000 0.0000 0.0000 -8.5836 0.0000 8.2054
#
#
#
# Elastic Compliance Matrix: (Units=1/GPa)
#
#
# Indices 1 2 3 4 5 6 
#
# 1 0.022107 -0.002549 -0.020916 0.000000 0.003885 0.000000
# 2 -0.002549 0.012072 -0.003160 0.000000 0.001120 0.000000
# 3 -0.020916 -0.003160 0.040474 0.000000 -0.006577 0.000000
# 4 0.000000 0.000000 0.000000 0.330084 0.000000 0.345297
# 5 0.003885 0.001120 -0.006577 0.000000 0.043151 0.000000
# 6 0.000000 0.000000 0.000000 0.345297 0.000000 0.483083
#
#
# Mechanical properties :
#
#
# Convention : Reuss Voigt Hill
#
# Bulk Modulus (GPa) = 46.71721 54.42576 50.57148
# Shear Modulus (GPa) = 5.04361 17.98957 11.51659
#
# Velocity S-wave (km/s) = 1.83331 3.46239 2.77030
# Velocity P-wave (km/s) = 5.96770 7.22864 6.62822
#
# Compressibility (1/GPa) = 0.02140539
#
# Stress axis : x y z
#
# Youngs Moduli (GPa) = 45.23377 82.83700 24.70715
#
# Poissons Ratio (x) = 0.21112 0.51676
# Poissons Ratio (y) = 0.11528 0.07807
# Poissons Ratio (z) = 0.94609 0.26176
#
# Static dielectric constant tensor:
#      x y z
#    x 1.511230 0.000000 -0.010800 
#    y 0.000000 1.510510 0.000000 
#    z -0.010800 0.000000 1.486620 
# 
# From -- ./inp_files/29065.got.cif
#   From: 2010.05.17/outbox.cif.g08.bks.cpg/sg10_15_cif.got.tgz:29065.got - 2010.06.03 11:33:40.
