data_PCOD9142672
_publ_section_title
;
Structure prediction by ZEFSAII (Michael W. Deem and Ramdas Pophale) SiO2 
 PCOD9142672
Probable space group: P 2/M
;
_chemical_formula_sum "Si O2"
_cell_formula_units_Z 28
_cell_length_a 32.896923
_cell_length_b 8.505355
_cell_length_c 9.983624
_cell_angle_alpha 90.000000
_cell_angle_beta 34.110442
_cell_angle_gamma 90.000000
_cell_volume 1566.520638
_symmetry_space_group_name_H-M "P 2/M"
_symmetry_group_IT_number 10
_symmetry_cell_setting 'monoclinic'
loop_
_space_group_symop_operation_xyz
x,y,z
-x,y,-z
-x,-y,-z
x,-y,z
loop_
_atom_site_type_symbol
_atom_site_label
_atom_site_fract_x
_atom_site_fract_y
_atom_site_fract_z
Si Si1 0.313195 0.809854 0.176542
Si Si2 0.761539 0.689161 0.129052
Si Si3 0.454496 0.187442 0.931762
Si Si4 0.598277 0.312386 0.638302
Si Si5 0.917572 0.190099 0.205363
Si Si6 0.190928 0.311430 0.711096
Si Si7 0.795987 0.189174 0.748089
O O1 0.260224 0.749367 0.438267
O O2 0.275487 0.759731 0.140779
O O3 0.311765 0.000000 0.184848
O O4 0.395234 0.760410 0.984026
O O5 0.763140 0.500000 0.122577
O O6 0.677081 0.736855 0.371854
O O7 0.801340 0.741690 0.156493
O O8 0.794897 0.750010 0.900989
O O9 0.532755 0.268342 0.717993
O O10 0.464217 0.000000 0.896721
O O11 0.419916 0.229690 0.170894
O O12 0.598434 0.500000 0.660754
O O13 0.879544 0.250613 0.174365
O O14 0.865079 0.239850 0.470851
O O15 0.916808 0.000000 0.203703
O O16 0.000000 0.242874 0.000000
O O17 0.191986 0.500000 0.705219
O O18 0.796115 0.000000 0.750452
#
# Coordination Sequence:
#
# PCOD9142672 Si02
#       7
#     4   4   4   4   4   4   4
#     4   9  18  33  51  74 102 132 174 220 260 305
#     4  10  21  35  49  73 107 140 172 210 254 303
#     4  10  18  29  48  74  99 128 173 222 264 301
#     4  10  19  31  46  68 102 137 171 213 259 304
#     4   9  19  38  60  82 107 132 164 207 252 302
#     4  10  19  32  53  79 104 134 174 210 247 299
#     4   9  19  34  54  77 100 133 170 207 254 305
#
# _framework density 17.874006000000001
#
# number of rings (size 3 to 8) (size 9 to 14) (size 15 to 20)
#    0.000    2.429    1.429    3.000    0.000    5.429 
#    0.000    1.429    0.000    8.571    0.000    0.000 
#    0.000    0.000    0.000    0.000    0.000    0.000 
#
# Total GULP energy -156148.050856 kJ/mol
# GULP energy per Si atom -5576.716102 kJ/mol
# Density = 1.783332 g / cm^3
# Si number density = 17.874006 Si / 1000 Ang^3
#
#
#
# Elastic Constant Matrix: (Units=GPa)
#
#
# Indices 1 2 3 4 5 6 
#
# 1 157.5085 15.5379 78.8949 0.0000 -5.0614 0.0000
# 2 15.5379 6.8123 11.2216 0.0000 -1.9297 0.0000
# 3 78.8949 11.2216 77.3203 0.0000 -3.1326 0.0000
# 4 0.0000 0.0000 0.0000 24.5110 0.0000 1.3502
# 5 -5.0614 -1.9297 -3.1326 0.0000 34.8961 0.0000
# 6 0.0000 0.0000 0.0000 1.3502 0.0000 24.2157
#
#
#
# Elastic Compliance Matrix: (Units=1/GPa)
#
#
# Indices 1 2 3 4 5 6 
#
# 1 0.013556 -0.010611 -0.012281 0.000000 0.000277 0.000000
# 2 -0.010611 0.203577 -0.018392 0.000000 0.008067 0.000000
# 3 -0.012281 -0.018392 0.028122 0.000000 -0.000274 0.000000
# 4 0.000000 0.000000 0.000000 0.040924 0.000000 -0.002282
# 5 0.000277 0.008067 -0.000274 0.000000 0.029118 0.000000
# 6 0.000000 0.000000 0.000000 -0.002282 0.000000 0.041423
#
#
# Mechanical properties :
#
#
# Convention : Reuss Voigt Hill
#
# Bulk Modulus (GPa) = 6.14672 50.32778 28.23725
# Shear Modulus (GPa) = 10.13139 25.79032 17.96086
#
# Velocity S-wave (km/s) = 2.38339 3.80267 3.17339
# Velocity P-wave (km/s) = 3.31970 6.89191 5.40920
#
# Compressibility (1/GPa) = 0.16268835
#
# Stress axis : x y z
#
# Youngs Moduli (GPa) = 73.76914 4.91215 35.55930
#
# Poissons Ratio (x) = 0.05212 0.43669
# Poissons Ratio (y) = 0.78277 0.65399
# Poissons Ratio (z) = 0.90593 0.09034
#
# Static dielectric constant tensor:
#      x y z
#    x 1.634820 0.000000 -0.017350 
#    y 0.000000 1.617120 0.000000 
#    z -0.017350 0.000000 1.587260 
# 
# From -- ./inp_files/37916.got.cif
#   From: 2010.05.17/outbox.cif.g08.bks.cpg/sg10_19_cif.got.tgz:37916.got - 2010.06.03 11:33:40.
