data_PCOD9142474
_publ_section_title
;
Structure prediction by ZEFSAII (Michael W. Deem and Ramdas Pophale) SiO2 
 PCOD9142474
Probable space group: P 2/M
;
_chemical_formula_sum "Si O2"
_cell_formula_units_Z 32
_cell_length_a 17.655504
_cell_length_b 14.747150
_cell_length_c 15.795139
_cell_angle_alpha 90.000000
_cell_angle_beta 24.009015
_cell_angle_gamma 90.000000
_cell_volume 1673.317736
_symmetry_space_group_name_H-M "P 2/M"
_symmetry_group_IT_number 10
_symmetry_cell_setting 'monoclinic'
loop_
_space_group_symop_operation_xyz
x,y,z
-x,y,-z
-x,-y,-z
x,-y,z
loop_
_atom_site_type_symbol
_atom_site_label
_atom_site_fract_x
_atom_site_fract_y
_atom_site_fract_z
Si Si1 0.320543 0.604513 0.017148
Si Si2 0.789272 0.389750 0.691568
Si Si3 0.604426 0.726412 0.219640
Si Si4 0.884519 0.602063 0.417705
Si Si5 0.928397 0.902587 0.170218
Si Si6 0.487320 0.897388 0.607872
Si Si7 0.833363 0.293166 0.298600
Si Si8 0.720548 0.396569 0.250489
O O1 0.390115 0.500000 0.933385
O O2 0.339936 0.632153 0.096172
O O3 0.097525 0.598377 0.231037
O O4 0.383947 0.678085 0.883392
O O5 0.789413 0.500000 0.688264
O O6 0.763767 0.360440 0.620101
O O7 0.000000 0.360291 0.500000
O O8 0.634515 0.833754 0.206577
O O9 0.387645 0.724407 0.466752
O O10 0.721991 0.665446 0.165335
O O11 0.821507 0.500000 0.464217
O O12 0.881599 0.655371 0.334538
O O13 0.703989 0.907084 0.408821
O O14 0.953361 0.798902 0.173587
O O15 0.994789 0.000000 0.139496
O O16 0.000000 0.902818 0.000000
O O17 0.500000 0.856135 0.500000
O O18 0.411308 0.000000 0.678225
O O19 0.832006 0.353035 0.214933
O O20 0.500000 0.399863 0.500000
O O21 0.779252 0.500000 0.173080
#
# Coordination Sequence:
#
# PCOD9142474 Si02
#       8
#     4   4   4   4   4   4   4   4
#     4   9  17  29  46  66  88 117 149 177 211 260
#     4   7  12  26  45  62  83 113 146 178 214 255
#     4  10  18  29  43  62  88 118 147 175 214 262
#     4   9  17  29  45  65  89 116 147 182 215 250
#     4   9  18  32  47  62  83 112 144 180 222 262
#     4   9  17  30  47  64  82 108 145 186 221 252
#     4  10  19  29  44  66  89 114 145 182 219 253
#     4   9  17  28  40  56  85 123 151 168 199 251
#
# _framework density 19.123684000000001
#
# number of rings (size 3 to 8) (size 9 to 14) (size 15 to 20)
#    0.000    3.000    0.000    4.125    0.000    3.500 
#    0.000    0.625    0.000    5.250    0.000    0.875 
#    0.000    7.000    0.000    0.000    0.000    0.000 
#
# Total GULP energy -178208.387845 kJ/mol
# GULP energy per Si atom -5569.012120 kJ/mol
# Density = 1.908016 g / cm^3
# Si number density = 19.123684 Si / 1000 Ang^3
#
#
#
# Elastic Constant Matrix: (Units=GPa)
#
#
# Indices 1 2 3 4 5 6 
#
# 1 93.0381 55.1092 27.1025 0.0000 26.7808 0.0000
# 2 55.1092 133.3754 52.1423 0.0000 31.2256 0.0000
# 3 27.1025 52.1423 89.0210 0.0000 16.3424 0.0000
# 4 0.0000 0.0000 0.0000 23.3950 0.0000 -0.6291
# 5 26.7808 31.2256 16.3424 0.0000 37.3529 0.0000
# 6 0.0000 0.0000 0.0000 -0.6291 0.0000 7.2487
#
#
#
# Elastic Compliance Matrix: (Units=1/GPa)
#
#
# Indices 1 2 3 4 5 6 
#
# 1 0.015708 -0.004490 -0.000842 0.000000 -0.007141 0.000000
# 2 -0.004490 0.012496 -0.005030 0.000000 -0.005027 0.000000
# 3 -0.000842 -0.005030 0.014736 0.000000 -0.001639 0.000000
# 4 0.000000 0.000000 0.000000 0.042844 0.000000 0.003718
# 5 -0.007141 -0.005027 -0.001639 0.000000 0.036811 0.000000
# 6 0.000000 0.000000 0.000000 0.003718 0.000000 0.138278
#
#
# Mechanical properties :
#
#
# Convention : Reuss Voigt Hill
#
# Bulk Modulus (GPa) = 45.00696 64.90472 54.95584
# Shear Modulus (GPa) = 17.30092 25.67134 21.48613
#
# Velocity S-wave (km/s) = 3.01106 3.66783 3.35555
# Velocity P-wave (km/s) = 5.97281 7.20767 6.61910
#
# Compressibility (1/GPa) = 0.02221878
#
# Stress axis : x y z
#
# Youngs Moduli (GPa) = 63.66052 80.02723 67.85876
#
# Poissons Ratio (x) = 0.35929 0.05712
# Poissons Ratio (y) = 0.28581 0.34130
# Poissons Ratio (z) = 0.05359 0.40250
#
# Static dielectric constant tensor:
#      x y z
#    x 1.736160 0.000000 -0.053410 
#    y 0.000000 1.758230 0.000000 
#    z -0.053410 0.000000 1.754500 
# 
# From -- ./inp_files/69310.got.cif
#   From: 2010.05.17/outbox.cif.g08.bks.cpg/sg10_35_cif.got.tgz:69310.got - 2010.06.03 11:33:40.
