data_PCOD9142986
_publ_section_title
;
Structure prediction by ZEFSAII (Michael W. Deem and Ramdas Pophale) SiO2 
 PCOD9142986
Probable space group: P 2/M
;
_chemical_formula_sum "Si O2"
_cell_formula_units_Z 24
_cell_length_a 18.946081
_cell_length_b 8.495371
_cell_length_c 9.424433
_cell_angle_alpha 90.000000
_cell_angle_beta 60.460918
_cell_angle_gamma 90.000000
_cell_volume 1319.732800
_symmetry_space_group_name_H-M "P 2/M"
_symmetry_group_IT_number 10
_symmetry_cell_setting 'monoclinic'
loop_
_space_group_symop_operation_xyz
x,y,z
-x,y,-z
-x,-y,-z
x,-y,z
loop_
_atom_site_type_symbol
_atom_site_label
_atom_site_fract_x
_atom_site_fract_y
_atom_site_fract_z
Si Si1 0.084042 0.311269 0.991032
Si Si2 0.251724 0.688351 0.334616
Si Si3 0.824673 0.186101 0.852780
Si Si4 0.760823 0.186591 0.336142
Si Si5 0.582988 0.308117 0.988730
Si Si6 0.669421 0.686391 0.174297
O O1 0.087361 0.500000 0.999689
O O2 0.158791 0.253726 0.820044
O O3 0.097505 0.237030 0.133340
O O4 0.000000 0.266307 0.000000
O O5 0.245600 0.500000 0.329632
O O6 0.182774 0.765261 0.303416
O O7 0.247029 0.739964 0.501198
O O8 0.338780 0.737998 0.182053
O O9 0.811708 0.000000 0.881634
O O10 0.750792 0.279081 0.002224
O O11 0.685655 0.230928 0.307497
O O12 0.767374 0.000000 0.338973
O O13 0.581675 0.500000 0.991321
O O14 0.500000 0.252557 0.000000
O O15 0.598817 0.259685 0.136484
O O16 0.662143 0.500000 0.205336
#
# Coordination Sequence:
#
# PCOD9142986 Si02
#       6
#     4   4   4   4   4   4
#     4  10  20  35  55  77 101 130 165 203 244 293
#     4  10  19  33  53  74 100 132 168 208 248 295
#     4  10  18  30  50  74 101 131 165 202 242 294
#     4  11  21  33  51  74 102 132 166 207 248 294
#     4   8  15  29  51  77  99 124 165 212 250 288
#     4   9  16  29  50  72  97 131 169 204 242 294
#
# _framework density 18.185500000000001
#
# number of rings (size 3 to 8) (size 9 to 14) (size 15 to 20)
#    0.000    2.333    0.000    7.500    0.000    1.333 
#    0.000    1.667    0.000   28.000    0.000    0.000 
#    0.000    0.000    0.000    0.000    0.000    0.000 
#
# Total GULP energy -133788.020461 kJ/mol
# GULP energy per Si atom -5574.500853 kJ/mol
# Density = 1.814411 g / cm^3
# Si number density = 18.185500 Si / 1000 Ang^3
#
#
#
# Elastic Constant Matrix: (Units=GPa)
#
#
# Indices 1 2 3 4 5 6 
#
# 1 158.0311 26.6408 51.2136 0.0000 35.7556 0.0000
# 2 26.6408 40.1619 16.3326 0.0000 5.4395 0.0000
# 3 51.2136 16.3326 75.9901 0.0000 32.8362 0.0000
# 4 0.0000 0.0000 0.0000 -21.3469 0.0000 11.5599
# 5 35.7556 5.4395 32.8362 0.0000 28.8654 0.0000
# 6 0.0000 0.0000 0.0000 11.5599 0.0000 -0.0581
#
#
#
# Elastic Compliance Matrix: (Units=1/GPa)
#
#
# Indices 1 2 3 4 5 6 
#
# 1 0.009726 -0.004569 -0.001453 0.000000 -0.009534 0.000000
# 2 -0.004569 0.029564 -0.006516 0.000000 0.007502 0.000000
# 3 -0.001453 -0.006516 0.027989 0.000000 -0.028812 0.000000
# 4 0.000000 0.000000 0.000000 0.000439 0.000000 0.087316
# 5 -0.009534 0.007502 -0.028812 0.000000 0.077814 0.000000
# 6 0.000000 0.000000 0.000000 0.087316 0.000000 0.161239
#
#
# Mechanical properties :
#
#
# Convention : Reuss Voigt Hill
#
# Bulk Modulus (GPa) = 23.69560 51.39521 37.54541
# Shear Modulus (GPa) = 14.45432 13.49183 13.97308
#
# Velocity S-wave (km/s) = 2.82233 2.72674 2.77494
# Velocity P-wave (km/s) = 4.86610 6.18357 5.56396
#
# Compressibility (1/GPa) = 0.04220193
#
# Stress axis : x y z
#
# Youngs Moduli (GPa) = 102.81520 33.82466 35.72780
#
# Poissons Ratio (x) = 0.15456 0.05192
# Poissons Ratio (y) = 0.46981 0.23281
# Poissons Ratio (z) = 0.14942 0.22041
#
# Static dielectric constant tensor:
#      x y z
#    x 1.671960 0.000000 0.028410 
#    y 0.000000 1.606020 0.000000 
#    z 0.028410 0.000000 1.614300 
# 
# From -- ./inp_files/31222.got.cif
#   From: 2010.05.17/outbox.cif.g08.bks.cpg/sg10_16_cif.got.tgz:31222.got - 2010.06.03 11:33:40.
