data_PCOD9142781
_publ_section_title
;
Structure prediction by ZEFSAII (Michael W. Deem and Ramdas Pophale) SiO2 
 PCOD9142781
Probable space group: P 2/M
;
_chemical_formula_sum "Si O2"
_cell_formula_units_Z 29
_cell_length_a 8.566359
_cell_length_b 15.151336
_cell_length_c 16.267872
_cell_angle_alpha 90.000000
_cell_angle_beta 36.350144
_cell_angle_gamma 90.000000
_cell_volume 1251.486791
_symmetry_space_group_name_H-M "P 2/M"
_symmetry_group_IT_number 10
_symmetry_cell_setting 'monoclinic'
loop_
_space_group_symop_operation_xyz
x,y,z
-x,y,-z
-x,-y,-z
x,-y,z
loop_
_atom_site_type_symbol
_atom_site_label
_atom_site_fract_x
_atom_site_fract_y
_atom_site_fract_z
Si Si1 0.536705 0.787046 0.300478
Si Si2 0.216339 0.631789 0.591679
Si Si3 0.454192 0.596176 0.326712
Si Si4 0.363635 0.404440 0.170456
Si Si5 0.460755 0.206084 0.137231
Si Si6 0.030194 0.898957 0.087428
Si Si7 0.500000 0.000000 0.500000
Si Si8 0.143735 0.168074 0.605326
O O1 0.618654 0.684417 0.275664
O O2 0.495334 0.796321 0.221250
O O3 0.270366 0.814434 0.460488
O O4 0.772566 0.849387 0.228579
O O5 0.500000 0.596851 0.500000
O O6 0.223146 0.609835 0.490996
O O7 0.217248 0.735944 0.611589
O O8 0.933807 0.596763 0.738315
O O9 0.578477 0.500000 0.287581
O O10 0.365346 0.598545 0.269911
O O11 0.487602 0.500000 0.097051
O O12 0.480968 0.308258 0.100328
O O13 0.169714 0.166673 0.250360
O O14 0.702941 0.149753 0.000674
O O15 0.029895 0.000000 0.113385
O O16 0.000000 0.897193 0.000000
O O17 0.280034 0.078958 0.576206
#
# Coordination Sequence:
#
# PCOD9142781 Si02
#       8
#     4   4   4   4   4   4   1   4
#     4   9  18  34  55  79 106 135 169 212 258 312
#     4  10  18  30  45  71 103 135 172 213 255 308
#     4   9  17  29  47  72 103 137 170 208 258 310
#     4   9  17  29  47  72 103 137 170 208 258 310
#     4   9  18  34  55  79 106 135 169 212 258 312
#     4   9  18  32  51  77 105 132 168 214 263 308
#     4  12  24  36  50  74 102 140 176 228 268 296
#     4  10  21  35  52  74 105 136 171 214 264 308
#
# _framework density 23.172439000000001
#
# number of rings (size 3 to 8) (size 9 to 14) (size 15 to 20)
#    0.000    2.621    0.690    1.241    1.931    5.517 
#    0.000    1.379    0.000    5.793    0.000    0.000 
#    0.000    4.966    0.000    0.000    0.000    0.000 
#
# Total GULP energy -161444.756624 kJ/mol
# GULP energy per Si atom -5567.060573 kJ/mol
# Density = 2.311970 g / cm^3
# Si number density = 23.172439 Si / 1000 Ang^3
#
#
#
# Elastic Constant Matrix: (Units=GPa)
#
#
# Indices 1 2 3 4 5 6 
#
# 1 70.6888 45.1961 39.3493 0.0000 2.7501 0.0000
# 2 45.1961 237.2528 53.3077 0.0000 -28.5035 0.0000
# 3 39.3493 53.3077 80.4651 0.0000 -19.3938 0.0000
# 4 0.0000 0.0000 0.0000 3.8804 0.0000 4.3717
# 5 2.7501 -28.5035 -19.3938 0.0000 44.5064 0.0000
# 6 0.0000 0.0000 0.0000 4.3717 0.0000 4.0188
#
#
#
# Elastic Compliance Matrix: (Units=1/GPa)
#
#
# Indices 1 2 3 4 5 6 
#
# 1 0.022340 -0.002731 -0.011028 0.000000 -0.007935 0.000000
# 2 -0.002731 0.005442 -0.001552 0.000000 0.002978 0.000000
# 3 -0.011028 -0.001552 0.020976 0.000000 0.008828 0.000000
# 4 0.000000 0.000000 0.000000 -1.142739 0.000000 1.243061
# 5 -0.007935 0.002978 0.008828 0.000000 0.028713 0.000000
# 6 0.000000 0.000000 0.000000 1.243061 0.000000 -1.103362
#
#
# Mechanical properties :
#
#
# Convention : Reuss Voigt Hill
#
# Bulk Modulus (GPa) = 55.13766 73.79032 64.46399
# Shear Modulus (GPa) = -2.34526 27.18470 12.41972
#
# Velocity S-wave (km/s) = -1.00712 3.42884 2.31761
# Velocity P-wave (km/s) = 4.74276 6.89848 5.91958
#
# Compressibility (1/GPa) = 0.01813642
#
# Stress axis : x y z
#
# Youngs Moduli (GPa) = 44.76218 183.76992 47.67240
#
# Poissons Ratio (x) = 0.50192 0.52573
# Poissons Ratio (y) = 0.12226 0.07397
# Poissons Ratio (z) = 0.49364 0.28516
#
# Static dielectric constant tensor:
#      x y z
#    x 1.930750 0.000000 0.038960 
#    y 0.000000 1.858080 0.000000 
#    z 0.038960 0.000000 1.851150 
# 
# From -- ./inp_files/82921.got.cif
#   From: 2010.05.17/outbox.cif.g08.bks.cpg/sg10_42_cif.got.tgz:82921.got - 2010.06.03 11:33:40.
