data_PCOD9142232
_publ_section_title
;
Structure prediction by ZEFSAII (Michael W. Deem and Ramdas Pophale) SiO2 
 PCOD9142232
Probable space group: P 2/M
;
_chemical_formula_sum "Si O2"
_cell_formula_units_Z 32
_cell_length_a 17.755835
_cell_length_b 8.673275
_cell_length_c 14.020682
_cell_angle_alpha 90.000000
_cell_angle_beta 101.990660
_cell_angle_gamma 90.000000
_cell_volume 2112.091810
_symmetry_space_group_name_H-M "P 2/M"
_symmetry_group_IT_number 10
_symmetry_cell_setting 'monoclinic'
loop_
_space_group_symop_operation_xyz
x,y,z
-x,y,-z
-x,-y,-z
x,-y,z
loop_
_atom_site_type_symbol
_atom_site_label
_atom_site_fract_x
_atom_site_fract_y
_atom_site_fract_z
Si Si1 0.167718 0.186751 0.930998
Si Si2 0.000608 0.179442 0.115941
Si Si3 0.169516 0.812800 0.155972
Si Si4 0.673640 0.315848 0.760681
Si Si5 0.436929 0.183956 0.772594
Si Si6 0.681020 0.682035 0.122862
Si Si7 0.408808 0.816796 0.077280
Si Si8 0.520934 0.685345 0.611463
O O1 0.236963 0.247410 0.885281
O O2 0.082637 0.244430 0.877584
O O3 0.167380 0.000000 0.928445
O O4 0.179091 0.228969 0.045899
O O5 0.084395 0.242594 0.165333
O O6 0.000706 0.000000 0.145420
O O7 0.000000 0.180404 0.000000
O O8 0.239812 0.741032 0.232578
O O9 0.171572 0.000000 0.161408
O O10 0.672475 0.500000 0.776915
O O11 0.644431 0.227414 0.847187
O O12 0.609341 0.279971 0.664062
O O13 0.358084 0.252563 0.791953
O O14 0.505449 0.224269 0.865613
O O15 0.466166 0.245378 0.678703
O O16 0.432185 0.000000 0.768490
O O17 0.687496 0.500000 0.130521
O O18 0.623560 0.729111 0.021960
O O19 0.405377 0.000000 0.057791
O O20 0.500000 0.739016 0.500000
O O21 0.512495 0.500000 0.612459
#
# Coordination Sequence:
#
# PCOD9142232 Si02
#       8
#     4   4   4   4   4   4   4   4
#     4   9  16  27  42  58  83 119 155 185 214 250
#     4   7  12  23  39  58  78 111 154 185 212 250
#     4   9  15  25  42  61  85 116 150 185 218 254
#     4  10  18  27  43  67  90 114 146 181 219 262
#     4  10  21  34  48  65  84 110 148 186 220 258
#     4  12  22  29  41  62  90 119 149 182 217 259
#     4  10  19  31  44  59  83 116 150 184 218 252
#     4   9  19  36  53  67  88 116 143 177 224 270
#
# _framework density 15.150857
#
# number of rings (size 3 to 8) (size 9 to 14) (size 15 to 20)
#    0.000    2.500    1.250    4.125    0.000    3.750 
#    0.000    0.625    0.000    2.250    0.000    0.000 
#    0.000    1.000    0.000   11.500    0.000    3.500 
#
# Total GULP energy -178274.861894 kJ/mol
# GULP energy per Si atom -5571.089434 kJ/mol
# Density = 1.511637 g / cm^3
# Si number density = 15.150857 Si / 1000 Ang^3
#
#
#
# Elastic Constant Matrix: (Units=GPa)
#
#
# Indices 1 2 3 4 5 6 
#
# 1 147.3075 33.6359 53.2423 0.0000 4.2383 0.0000
# 2 33.6359 19.1261 14.5619 0.0000 0.6598 0.0000
# 3 53.2423 14.5619 57.5833 0.0000 4.0261 0.0000
# 4 0.0000 0.0000 0.0000 34.4828 0.0000 15.3556
# 5 4.2383 0.6598 4.0261 0.0000 9.5111 0.0000
# 6 0.0000 0.0000 0.0000 15.3556 0.0000 19.4467
#
#
#
# Elastic Compliance Matrix: (Units=1/GPa)
#
#
# Indices 1 2 3 4 5 6 
#
# 1 0.013961 -0.018270 -0.008184 0.000000 -0.001490 0.000000
# 2 -0.018270 0.088719 -0.005855 0.000000 0.004466 0.000000
# 3 -0.008184 -0.005855 0.026928 0.000000 -0.007345 0.000000
# 4 0.000000 0.000000 0.000000 0.044728 0.000000 -0.035318
# 5 -0.001490 0.004466 -0.007345 0.000000 0.108603 0.000000
# 6 0.000000 0.000000 0.000000 -0.035318 0.000000 0.079311
#
#
# Mechanical properties :
#
#
# Convention : Reuss Voigt Hill
#
# Bulk Modulus (GPa) = 15.38722 47.43299 31.41011
# Shear Modulus (GPa) = 11.14747 20.85991 16.00369
#
# Velocity S-wave (km/s) = 2.71544 3.71457 3.25359
# Velocity P-wave (km/s) = 4.47320 7.05496 5.90686
#
# Compressibility (1/GPa) = 0.06498898
#
# Stress axis : x y z
#
# Youngs Moduli (GPa) = 71.62649 11.27151 37.13637
#
# Poissons Ratio (x) = 0.20593 0.30394
# Poissons Ratio (y) = 1.30863 0.21743
# Poissons Ratio (z) = 0.58622 0.06599
#
# Static dielectric constant tensor:
#      x y z
#    x 1.552050 0.000000 0.019520 
#    y 0.000000 1.508080 0.000000 
#    z 0.019520 0.000000 1.479530 
# 
# From -- ./inp_files/68232.got.cif
#   From: 2010.05.17/outbox.cif.g08.bks.cpg/sg10_35_cif.got.tgz:68232.got - 2010.06.03 11:33:40.
