data_PCOD9142996
_publ_section_title
;
Structure prediction by ZEFSAII (Michael W. Deem and Ramdas Pophale) SiO2 
 PCOD9142996
Probable space group: P 2/M
;
_chemical_formula_sum "Si O2"
_cell_formula_units_Z 28
_cell_length_a 15.347844
_cell_length_b 7.343040
_cell_length_c 11.713275
_cell_angle_alpha 90.000000
_cell_angle_beta 112.503433
_cell_angle_gamma 90.000000
_cell_volume 1219.568438
_symmetry_space_group_name_H-M "P 2/M"
_symmetry_group_IT_number 10
_symmetry_cell_setting 'monoclinic'
loop_
_space_group_symop_operation_xyz
x,y,z
-x,y,-z
-x,-y,-z
x,-y,z
loop_
_atom_site_type_symbol
_atom_site_label
_atom_site_fract_x
_atom_site_fract_y
_atom_site_fract_z
Si Si1 0.791384 0.293681 0.145813
Si Si2 0.463453 0.278446 0.658618
Si Si3 0.893699 0.787412 0.427660
Si Si4 0.154502 0.719249 0.343333
Si Si5 0.645437 0.721480 0.626381
Si Si6 0.026907 0.722826 0.885756
Si Si7 0.408801 0.277166 0.881892
O O1 0.775838 0.500000 0.096150
O O2 0.839480 0.299885 0.295150
O O3 0.870976 0.212029 0.104041
O O4 0.688533 0.211352 0.111629
O O5 0.463261 0.500000 0.660174
O O6 0.400770 0.225731 0.518236
O O7 0.571147 0.221178 0.685845
O O8 0.422511 0.217223 0.758269
O O9 0.840460 0.767784 0.520989
O O10 0.000000 0.715016 0.500000
O O11 0.901980 0.000000 0.403092
O O12 0.153667 0.500000 0.337070
O O13 0.246544 0.782563 0.320504
O O14 0.055934 0.783207 0.241066
O O15 0.646710 0.500000 0.630173
O O16 0.028985 0.500000 0.882202
O O17 0.000000 0.774622 0.000000
O O18 0.404481 0.500000 0.877774
O O19 0.500000 0.226050 0.000000
#
# Coordination Sequence:
#
# PCOD9142996 Si02
#       7
#     4   4   4   4   4   4   4
#     4  10  19  33  53  75 102 136 170 206 250 300
#     4   8  13  23  36  59  95 123 151 195 242 281
#     4  11  22  34  51  75 103 130 164 212 260 302
#     4  10  18  30  50  74  99 131 168 201 244 302
#     4   8  14  23  40  64  89 120 155 195 238 281
#     4   9  18  30  45  70 102 131 162 202 245 292
#     4   9  17  27  43  70 101 131 163 201 244 289
#
# _framework density 22.958940999999999
#
# number of rings (size 3 to 8) (size 9 to 14) (size 15 to 20)
#    0.000    2.714    1.429    2.143    0.000    4.000 
#    0.000    5.714    0.000    2.143    0.000    8.000 
#    0.000    0.000    0.000    0.000    0.000    0.000 
#
# Total GULP energy -156436.392071 kJ/mol
# GULP energy per Si atom -5587.014003 kJ/mol
# Density = 2.290669 g / cm^3
# Si number density = 22.958941 Si / 1000 Ang^3
#
#
#
# Elastic Constant Matrix: (Units=GPa)
#
#
# Indices 1 2 3 4 5 6 
#
# 1 240.4381 6.1177 62.2183 0.0000 3.7828 0.0000
# 2 6.1177 90.7966 -3.7148 0.0000 2.7429 0.0000
# 3 62.2183 -3.7148 59.0032 0.0000 -8.6318 0.0000
# 4 0.0000 0.0000 0.0000 -45.7736 0.0000 10.7159
# 5 3.7828 2.7429 -8.6318 0.0000 37.8176 0.0000
# 6 0.0000 0.0000 0.0000 10.7159 0.0000 -15.0805
#
#
#
# Elastic Compliance Matrix: (Units=1/GPa)
#
#
# Indices 1 2 3 4 5 6 
#
# 1 0.005905 -0.000605 -0.006564 0.000000 -0.002045 0.000000
# 2 -0.000605 0.011120 0.001271 0.000000 -0.000456 0.000000
# 3 -0.006564 0.001271 0.024863 0.000000 0.006239 0.000000
# 4 0.000000 0.000000 0.000000 -0.026206 0.000000 -0.018621
# 5 -0.002045 -0.000456 0.006239 0.000000 0.028104 0.000000
# 6 0.000000 0.000000 0.000000 -0.018621 0.000000 -0.079543
#
#
# Mechanical properties :
#
#
# Convention : Reuss Voigt Hill
#
# Bulk Modulus (GPa) = 33.23080 57.72004 45.47542
# Shear Modulus (GPa) = -358.96878 17.10047 -170.93416
#
# Velocity S-wave (km/s) = -12.51766 2.73212 -8.63792
# Velocity P-wave (km/s) = 13.94335 5.92855 8.92383
#
# Compressibility (1/GPa) = 0.03009256
#
# Stress axis : x y z
#
# Youngs Moduli (GPa) = 169.33967 89.92687 40.22030
#
# Poissons Ratio (x) = 0.05438 0.26402
# Poissons Ratio (y) = 0.10240 -0.05112
# Poissons Ratio (z) = 1.11160 -0.11430
#
# Static dielectric constant tensor:
#      x y z
#    x 1.856200 0.000000 0.011380 
#    y 0.000000 1.873290 0.000000 
#    z 0.011380 0.000000 1.788230 
# 
# From -- ./inp_files/50102.got.cif
#   From: 2010.05.17/outbox.cif.g08.bks.cpg/sg10_26_cif.got.tgz:50102.got - 2010.06.03 11:33:40.
