data_PCOD9142549
_publ_section_title
;
Structure prediction by ZEFSAII (Michael W. Deem and Ramdas Pophale) SiO2 
 PCOD9142549
Probable space group: P 2/M
;
_chemical_formula_sum "Si O2"
_cell_formula_units_Z 32
_cell_length_a 9.118743
_cell_length_b 14.229151
_cell_length_c 28.796493
_cell_angle_alpha 90.000000
_cell_angle_beta 29.011868
_cell_angle_gamma 90.000000
_cell_volume 1812.120368
_symmetry_space_group_name_H-M "P 2/M"
_symmetry_group_IT_number 10
_symmetry_cell_setting 'monoclinic'
loop_
_space_group_symop_operation_xyz
x,y,z
-x,y,-z
-x,-y,-z
x,-y,z
loop_
_atom_site_type_symbol
_atom_site_label
_atom_site_fract_x
_atom_site_fract_y
_atom_site_fract_z
Si Si1 0.103022 0.256893 0.293172
Si Si2 0.600570 0.216804 0.222145
Si Si3 0.713079 0.110319 0.607446
Si Si4 0.507801 0.390889 0.692022
Si Si5 0.756228 0.610727 0.332917
Si Si6 0.901261 0.108490 0.279059
Si Si7 0.157170 0.112522 0.109752
Si Si8 0.860032 0.390403 0.441201
O O1 0.428834 0.221714 0.220647
O O2 0.053481 0.335470 0.267230
O O3 0.937636 0.169343 0.315047
O O4 0.950930 0.310993 0.378959
O O5 0.376506 0.166480 0.321629
O O6 0.625141 0.324276 0.231824
O O7 0.915774 0.163971 0.143316
O O8 0.433556 0.114243 0.649408
O O9 0.000000 0.147401 0.500000
O O10 0.763681 0.000000 0.605324
O O11 0.431039 0.500000 0.719732
O O12 0.370557 0.357326 0.681568
O O13 0.872818 0.385559 0.594410
O O14 0.810686 0.500000 0.315818
O O15 0.471485 0.625309 0.446426
O O16 0.101836 0.140314 0.178984
O O17 0.973663 0.000000 0.268771
O O18 0.095746 0.000000 0.124627
O O19 0.500000 0.129655 0.000000
O O20 0.870826 0.500000 0.420299
#
# Coordination Sequence:
#
# PCOD9142549 Si02
#       8
#     4   4   4   4   4   4   4   4
#     4  11  21  29  43  68 102 135 156 188 248 304
#     4  10  20  32  50  74 102 131 162 203 246 297
#     4   9  18  33  50  66  90 130 176 213 242 279
#     4   9  18  31  48  69  94 132 178 219 255 286
#     4  10  18  29  46  67  95 134 181 225 255 282
#     4   9  19  34  50  71  99 127 159 200 241 290
#     4   9  18  37  64  84  95 115 154 205 256 301
#     4   9  18  31  45  66  97 134 180 225 255 281
#
# _framework density 17.658871999999999
#
# number of rings (size 3 to 8) (size 9 to 14) (size 15 to 20)
#    0.000    2.500    0.000    3.750    0.000    9.000 
#    0.000    0.625    0.000    6.375    0.000    0.000 
#    0.000    9.000    0.000    0.000    0.000    0.000 
#
# Total GULP energy -178277.345304 kJ/mol
# GULP energy per Si atom -5571.167041 kJ/mol
# Density = 1.761868 g / cm^3
# Si number density = 17.658872 Si / 1000 Ang^3
#
#
#
# Elastic Constant Matrix: (Units=GPa)
#
#
# Indices 1 2 3 4 5 6 
#
# 1 111.5068 32.8106 13.9039 0.0000 -8.3054 0.0000
# 2 32.8106 62.1862 14.2887 0.0000 -3.6248 0.0000
# 3 13.9039 14.2887 56.8526 0.0000 -12.9102 0.0000
# 4 0.0000 0.0000 0.0000 10.5958 0.0000 -0.0249
# 5 -8.3054 -3.6248 -12.9102 0.0000 16.3359 0.0000
# 6 0.0000 0.0000 0.0000 -0.0249 0.0000 34.6703
#
#
#
# Elastic Compliance Matrix: (Units=1/GPa)
#
#
# Indices 1 2 3 4 5 6 
#
# 1 0.010916 -0.005436 -0.000387 0.000000 0.004039 0.000000
# 2 -0.005436 0.019776 -0.003988 0.000000 -0.001527 0.000000
# 3 -0.000387 -0.003988 0.022474 0.000000 0.016680 0.000000
# 4 0.000000 0.000000 0.000000 0.094377 0.000000 0.000068
# 5 0.004039 -0.001527 0.016680 0.000000 0.076111 0.000000
# 6 0.000000 0.000000 0.000000 0.000068 0.000000 0.028843
#
#
# Mechanical properties :
#
#
# Convention : Reuss Voigt Hill
#
# Bulk Modulus (GPa) = 29.80923 39.17243 34.49083
# Shear Modulus (GPa) = 17.64918 23.62323 20.63620
#
# Velocity S-wave (km/s) = 3.16484 3.66150 3.42219
# Velocity P-wave (km/s) = 5.50202 6.33297 5.93206
#
# Compressibility (1/GPa) = 0.03354666
#
# Stress axis : x y z
#
# Youngs Moduli (GPa) = 91.60485 50.56666 44.49636
#
# Poissons Ratio (x) = 0.27486 0.01720
# Poissons Ratio (y) = 0.49792 0.17744
# Poissons Ratio (z) = 0.03541 0.20164
#
# Static dielectric constant tensor:
#      x y z
#    x 1.640610 0.000000 0.002070 
#    y 0.000000 1.646420 0.000000 
#    z 0.002070 0.000000 1.586370 
# 
# From -- ./inp_files/92374.got.cif
#   From: 2010.05.17/outbox.cif.g08.bks.cpg/sg10_47_cif.got.tgz:92374.got - 2010.06.03 11:33:40.
