data_PCOD9142592
_publ_section_title
;
Structure prediction by ZEFSAII (Michael W. Deem and Ramdas Pophale) SiO2 
 PCOD9142592
Probable space group: P 2/M
;
_chemical_formula_sum "Si O2"
_cell_formula_units_Z 28
_cell_length_a 9.161080
_cell_length_b 7.559655
_cell_length_c 30.223418
_cell_angle_alpha 90.000000
_cell_angle_beta 39.681623
_cell_angle_gamma 90.000000
_cell_volume 1336.495251
_symmetry_space_group_name_H-M "P 2/M"
_symmetry_group_IT_number 10
_symmetry_cell_setting 'monoclinic'
loop_
_space_group_symop_operation_xyz
x,y,z
-x,y,-z
-x,-y,-z
x,-y,z
loop_
_atom_site_type_symbol
_atom_site_label
_atom_site_fract_x
_atom_site_fract_y
_atom_site_fract_z
Si Si1 0.258416 0.716284 0.927902
Si Si2 0.443977 0.296353 0.060795
Si Si3 0.057644 0.796991 0.798624
Si Si4 0.208841 0.786962 0.350572
Si Si5 0.448562 0.784322 0.648808
Si Si6 0.390722 0.706906 0.799908
Si Si7 0.173662 0.214189 0.500388
O O1 0.269627 0.500000 0.923801
O O2 0.422159 0.781103 0.928788
O O3 0.335329 0.776617 0.861445
O O4 0.000000 0.764873 0.000000
O O5 0.525209 0.500000 0.039080
O O6 0.175564 0.294767 0.133411
O O7 0.500000 0.214551 0.000000
O O8 0.200932 0.723297 0.723277
O O9 0.232787 0.793728 0.799145
O O10 0.998387 0.000000 0.802845
O O11 0.378574 0.737731 0.351480
O O12 0.343641 0.725374 0.275932
O O13 0.958145 0.724187 0.424771
O O14 0.201886 0.000000 0.350245
O O15 0.577169 0.724258 0.574197
O O16 0.438473 0.000000 0.650003
O O17 0.331611 0.500000 0.812175
O O18 0.000000 0.250994 0.500000
O O19 0.186988 0.000000 0.500276
#
# Coordination Sequence:
#
# PCOD9142592 Si02
#       7
#     4   4   4   4   4   4   4
#     4   9  18  33  52  72  91 116 154 192 225 270
#     4  10  20  35  55  74  92 118 153 192 232 276
#     4  10  19  31  48  71  99 126 154 191 232 275
#     4   8  13  22  38  61  89 119 152 191 231 270
#     4   7  11  20  36  59  86 118 153 186 223 266
#     4  10  18  29  47  69  95 126 157 190 229 276
#     4   7   9  16  33  56  82 115 153 187 222 265
#
# _framework density 20.950316999999998
#
# number of rings (size 3 to 8) (size 9 to 14) (size 15 to 20)
#    0.000    3.286    0.000    4.286    0.000    2.571 
#    0.000    1.429    0.000   14.571    0.000    1.000 
#    0.000    8.000    0.000    0.000    0.000    0.000 
#
# Total GULP energy -155904.917752 kJ/mol
# GULP energy per Si atom -5568.032777 kJ/mol
# Density = 2.090263 g / cm^3
# Si number density = 20.950317 Si / 1000 Ang^3
#
#
#
# Elastic Constant Matrix: (Units=GPa)
#
#
# Indices 1 2 3 4 5 6 
#
# 1 49.8590 -4.4706 58.4132 0.0000 3.0493 0.0000
# 2 -4.4706 47.2588 -6.4250 0.0000 0.9691 0.0000
# 3 58.4132 -6.4250 223.9447 0.0000 9.3567 0.0000
# 4 0.0000 0.0000 0.0000 28.7718 0.0000 -17.8125
# 5 3.0493 0.9691 9.3567 0.0000 16.5334 0.0000
# 6 0.0000 0.0000 0.0000 -17.8125 0.0000 25.6679
#
#
#
# Elastic Compliance Matrix: (Units=1/GPa)
#
#
# Indices 1 2 3 4 5 6 
#
# 1 0.029046 0.001757 -0.007475 0.000000 -0.001230 0.000000
# 2 0.001757 0.021392 0.000227 0.000000 -0.001706 0.000000
# 3 -0.007475 0.000227 0.006519 0.000000 -0.002324 0.000000
# 4 0.000000 0.000000 0.000000 0.060936 0.000000 0.042287
# 5 -0.001230 -0.001706 -0.002324 0.000000 0.062126 0.000000
# 6 0.000000 0.000000 0.000000 0.042287 0.000000 0.068305
#
#
# Mechanical properties :
#
#
# Convention : Reuss Voigt Hill
#
# Bulk Modulus (GPa) = 21.75099 46.23311 33.99205
# Shear Modulus (GPa) = 18.20630 32.43094 25.31862
#
# Velocity S-wave (km/s) = 2.95112 3.93872 3.48013
# Velocity P-wave (km/s) = 4.69221 6.54222 5.69287
#
# Compressibility (1/GPa) = 0.04597492
#
# Stress axis : x y z
#
# Youngs Moduli (GPa) = 34.42785 46.74629 153.40633
#
# Poissons Ratio (x) = -0.08212 1.14665
# Poissons Ratio (y) = -0.06048 -0.03479
# Poissons Ratio (z) = 0.25733 -0.01060
#
# Static dielectric constant tensor:
#      x y z
#    x 1.722090 0.000000 0.014160 
#    y 0.000000 1.795020 0.000000 
#    z 0.014160 0.000000 1.822010 
# 
# From -- ./inp_files/38011.got.cif
#   From: 2010.05.17/outbox.cif.g08.bks.cpg/sg10_20_cif.got.tgz:38011.got - 2010.06.03 11:33:40.
