data_PCOD9142991
_publ_section_title
;
Structure prediction by ZEFSAII (Michael W. Deem and Ramdas Pophale) SiO2 
 PCOD9142991
Probable space group: P 2/M
;
_chemical_formula_sum "Si O2"
_cell_formula_units_Z 32
_cell_length_a 24.088840
_cell_length_b 7.680238
_cell_length_c 18.304937
_cell_angle_alpha 90.000000
_cell_angle_beta 31.307609
_cell_angle_gamma 90.000000
_cell_volume 1759.767034
_symmetry_space_group_name_H-M "P 2/M"
_symmetry_group_IT_number 10
_symmetry_cell_setting 'monoclinic'
loop_
_space_group_symop_operation_xyz
x,y,z
-x,y,-z
-x,-y,-z
x,-y,z
loop_
_atom_site_type_symbol
_atom_site_label
_atom_site_fract_x
_atom_site_fract_y
_atom_site_fract_z
Si Si1 0.944300 0.212744 0.887058
Si Si2 0.124932 0.204124 0.883686
Si Si3 0.184534 0.786103 0.662694
Si Si4 0.931244 0.203073 0.738721
Si Si5 0.677996 0.201709 0.622411
Si Si6 0.761449 0.706790 0.810424
Si Si7 0.837123 0.701508 0.567928
Si Si8 0.517593 0.789782 0.063380
O O1 0.911111 0.269162 0.843602
O O2 0.068081 0.261871 0.761430
O O3 0.940424 0.000000 0.894431
O O4 0.875418 0.277137 0.033859
O O5 0.188349 0.275452 0.742474
O O6 0.153906 0.000000 0.856355
O O7 0.000000 0.210771 0.000000
O O8 0.275354 0.723086 0.505204
O O9 0.186007 0.000000 0.661802
O O10 0.830921 0.221180 0.798579
O O11 0.036415 0.288851 0.586178
O O12 0.959117 0.000000 0.714107
O O13 0.773756 0.207577 0.573784
O O14 0.574374 0.277967 0.779054
O O15 0.652840 0.000000 0.635098
O O16 0.778260 0.500000 0.791849
O O17 0.803836 0.774147 0.684340
O O18 0.636244 0.745448 0.955524
O O19 0.803360 0.500000 0.603242
O O20 0.507588 0.000000 0.072055
O O21 0.500000 0.726075 0.000000
#
# Coordination Sequence:
#
# PCOD9142991 Si02
#       8
#     4   4   4   4   4   4   4   4
#     4   8  13  22  39  66  96 124 151 182 227 279
#     4   7  10  17  33  61  96 125 146 176 223 277
#     4   8  12  21  39  66  98 124 149 184 228 275
#     4  11  21  33  51  72  96 125 160 199 236 278
#     4  10  18  30  50  74  97 123 159 197 234 278
#     4  11  24  38  50  66  93 127 164 200 237 283
#     4  11  22  34  48  68  96 128 160 193 234 283
#     4  10  20  34  53  73  93 120 158 202 244 281
#
# _framework density 18.184224
#
# number of rings (size 3 to 8) (size 9 to 14) (size 15 to 20)
#    0.000    2.500    2.500    3.000    0.000    3.750 
#    0.000    0.000    0.000    0.000    0.000    3.500 
#    0.000    7.000    0.000    0.000    0.000    0.000 
#
# Total GULP energy -178395.452253 kJ/mol
# GULP energy per Si atom -5574.857883 kJ/mol
# Density = 1.814284 g / cm^3
# Si number density = 18.184224 Si / 1000 Ang^3
#
#
#
# Elastic Constant Matrix: (Units=GPa)
#
#
# Indices 1 2 3 4 5 6 
#
# 1 78.5324 -5.0789 89.0144 0.0000 16.2584 0.0000
# 2 -5.0789 33.6424 0.6805 0.0000 7.3602 0.0000
# 3 89.0144 0.6805 142.6140 0.0000 37.7780 0.0000
# 4 0.0000 0.0000 0.0000 8.1739 0.0000 -7.0504
# 5 16.2584 7.3602 37.7780 0.0000 35.0609 0.0000
# 6 0.0000 0.0000 0.0000 -7.0504 0.0000 -71.6477
#
#
#
# Elastic Compliance Matrix: (Units=1/GPa)
#
#
# Indices 1 2 3 4 5 6 
#
# 1 0.048861 0.005269 -0.033905 0.000000 0.012768 0.000000
# 2 0.005269 0.032232 -0.001403 0.000000 -0.007698 0.000000
# 3 -0.033905 -0.001403 0.033499 0.000000 -0.020079 0.000000
# 4 0.000000 0.000000 0.000000 0.112770 0.000000 -0.011097
# 5 0.012768 -0.007698 -0.020079 0.000000 0.045852 0.000000
# 6 0.000000 0.000000 0.000000 -0.011097 0.000000 -0.012865
#
#
# Mechanical properties :
#
#
# Convention : Reuss Voigt Hill
#
# Bulk Modulus (GPa) = 18.34384 47.11343 32.72864
# Shear Modulus (GPa) = 14.76675 5.66225 10.21450
#
# Velocity S-wave (km/s) = 2.85276 1.76652 2.37264
# Velocity P-wave (km/s) = 4.57829 5.48871 5.05404
#
# Compressibility (1/GPa) = 0.05451422
#
# Stress axis : x y z
#
# Youngs Moduli (GPa) = 20.46625 31.02485 29.85120
#
# Poissons Ratio (x) = -0.16346 1.01209
# Poissons Ratio (y) = -0.10783 0.04189
# Poissons Ratio (z) = 0.69390 0.04354
#
# Static dielectric constant tensor:
#      x y z
#    x 1.611410 0.000000 0.057440 
#    y 0.000000 1.671610 0.000000 
#    z 0.057440 0.000000 1.644110 
# 
# From -- ./inp_files/79913.got.cif
#   From: 2010.05.17/outbox.cif.g08.bks.cpg/sg10_40_cif.got.tgz:79913.got - 2010.06.03 11:33:40.
