data_PCOD9142941
_publ_section_title
;
Structure prediction by ZEFSAII (Michael W. Deem and Ramdas Pophale) SiO2 
 PCOD9142941
Probable space group: P 2/M
;
_chemical_formula_sum "Si O2"
_cell_formula_units_Z 22
_cell_length_a 28.103051
_cell_length_b 8.575103
_cell_length_c 14.403346
_cell_angle_alpha 90.000000
_cell_angle_beta 165.917127
_cell_angle_gamma 90.000000
_cell_volume 844.584473
_symmetry_space_group_name_H-M "P 2/M"
_symmetry_group_IT_number 10
_symmetry_cell_setting 'monoclinic'
loop_
_space_group_symop_operation_xyz
x,y,z
-x,y,-z
-x,-y,-z
x,-y,z
loop_
_atom_site_type_symbol
_atom_site_label
_atom_site_fract_x
_atom_site_fract_y
_atom_site_fract_z
Si Si1 0.989758 0.000000 0.844946
Si Si2 0.387054 0.000000 0.153128
Si Si3 0.012237 0.330690 0.634680
Si Si4 0.458727 0.000000 0.765165
Si Si5 0.976561 0.000000 0.303499
Si Si6 0.440962 0.329320 0.227695
Si Si7 0.000000 0.262254 0.000000
Si Si8 0.588654 0.665714 0.303637
O O1 0.946671 0.000000 0.656144
O O2 0.919569 0.849110 0.766300
O O3 0.224957 0.000000 0.304110
O O4 0.456473 0.829609 0.315642
O O5 0.447016 0.000000 0.158172
O O6 0.152616 0.000000 0.711070
O O7 0.091796 0.500000 0.815612
O O8 0.000000 0.332843 0.500000
O O9 0.117148 0.171004 0.862945
O O10 0.785372 0.322011 0.237868
O O11 0.500089 0.166044 0.891034
O O12 0.456919 0.500000 0.303898
O O13 0.578377 0.327458 0.397033
O O14 0.190286 0.340030 0.315833
O O15 0.490289 0.500000 0.091651
#
# Coordination Sequence:
#
# PCOD9142941 Si02
#       8
#     2   2   4   2   2   4   2   4
#     4   9  18  31  48  67  97 129 159 201 245 278
#     4   8  14  25  44  64  85 115 154 187 223 278
#     4   9  17  30  49  73  99 125 154 191 238 291
#     4   8  15  28  43  63  89 119 152 190 232 281
#     4  10  18  30  49  75  98 123 158 201 240 281
#     4   8  14  24  41  66  91 115 147 188 230 274
#     4   9  17  30  46  65  91 128 165 197 236 283
#     4   9  15  25  44  66  86 114 158 199 228 271
#
# _framework density 26.048311999999999
#
# number of rings (size 3 to 8) (size 9 to 14) (size 15 to 20)
#    0.000    3.273    0.000    1.091    0.000    0.000 
#    0.000    4.545    0.000   34.909    0.000   58.545 
#    0.000   65.455    0.000    0.000    0.000    0.000 
#
# Total GULP energy -122685.239489 kJ/mol
# GULP energy per Si atom -5576.601795 kJ/mol
# Density = 2.598903 g / cm^3
# Si number density = 26.048312 Si / 1000 Ang^3
#
#
#
# Elastic Constant Matrix: (Units=GPa)
#
#
# Indices 1 2 3 4 5 6 
#
# 1 102.8483 33.4818 18.9958 0.0000 10.6230 0.0000
# 2 33.4818 343.8579 5.2467 0.0000 -8.9311 0.0000
# 3 18.9958 5.2467 109.6669 0.0000 12.6843 0.0000
# 4 0.0000 0.0000 0.0000 -11.9881 0.0000 10.0541
# 5 10.6230 -8.9311 12.6843 0.0000 30.8395 0.0000
# 6 0.0000 0.0000 0.0000 10.0541 0.0000 -28.4912
#
#
#
# Elastic Compliance Matrix: (Units=1/GPa)
#
#
# Indices 1 2 3 4 5 6 
#
# 1 0.010698 -0.001109 -0.001403 0.000000 -0.003429 0.000000
# 2 -0.001109 0.003052 -0.000105 0.000000 0.001309 0.000000
# 3 -0.001403 -0.000105 0.009779 0.000000 -0.003569 0.000000
# 4 0.000000 0.000000 0.000000 -0.118481 0.000000 -0.041810
# 5 -0.003429 0.001309 -0.003569 0.000000 0.035454 0.000000
# 6 0.000000 0.000000 0.000000 -0.041810 0.000000 -0.049853
#
#
# Mechanical properties :
#
#
# Convention : Reuss Voigt Hill
#
# Bulk Modulus (GPa) = 54.66542 74.64687 64.65615
# Shear Modulus (GPa) = -51.01168 31.31529 -9.84819
#
# Velocity S-wave (km/s) = -4.43012 3.47104 -1.94652
# Velocity P-wave (km/s) = 2.26633 6.69204 4.45237
#
# Compressibility (1/GPa) = 0.01829310
#
# Stress axis : x y z
#
# Youngs Moduli (GPa) = 93.47949 327.67544 102.25497
#
# Poissons Ratio (x) = 0.36348 0.14349
# Poissons Ratio (y) = 0.10369 0.01077
# Poissons Ratio (z) = 0.13118 0.03450
#
# Static dielectric constant tensor:
#      x y z
#    x 1.950300 0.000000 0.047020 
#    y 0.000000 2.167630 0.000000 
#    z 0.047020 0.000000 2.001080 
# 
# From -- ./inp_files/72165.got.cif
#   From: 2010.05.17/outbox.cif.g08.bks.cpg/sg10_37_cif.got.tgz:72165.got - 2010.06.03 11:33:40.
