data_PCOD9142948
_publ_section_title
;
Structure prediction by ZEFSAII (Michael W. Deem and Ramdas Pophale) SiO2 
 PCOD9142948
Probable space group: P 2/M
;
_chemical_formula_sum "Si O2"
_cell_formula_units_Z 26
_cell_length_a 8.825821
_cell_length_b 12.991539
_cell_length_c 19.031455
_cell_angle_alpha 90.000000
_cell_angle_beta 37.835203
_cell_angle_gamma 90.000000
_cell_volume 1338.523840
_symmetry_space_group_name_H-M "P 2/M"
_symmetry_group_IT_number 10
_symmetry_cell_setting 'monoclinic'
loop_
_space_group_symop_operation_xyz
x,y,z
-x,y,-z
-x,-y,-z
x,-y,z
loop_
_atom_site_type_symbol
_atom_site_label
_atom_site_fract_x
_atom_site_fract_y
_atom_site_fract_z
Si Si1 0.248994 0.322313 0.547939
Si Si2 0.458134 0.782584 0.206247
Si Si3 0.974511 0.116555 0.425110
Si Si4 0.000000 0.772259 0.000000
Si Si5 0.757510 0.382092 0.811890
Si Si6 0.557814 0.387579 0.667366
Si Si7 0.015131 0.615143 0.122061
O O1 0.500000 0.334550 0.500000
O O2 0.277469 0.375112 0.461698
O O3 0.195483 0.203042 0.548245
O O4 0.016727 0.366807 0.675420
O O5 0.244161 0.865928 0.292100
O O6 0.735442 0.826316 0.105770
O O7 0.415670 0.706701 0.155719
O O8 0.414224 0.703984 0.287622
O O9 0.000000 0.133219 0.500000
O O10 0.887657 0.000000 0.446159
O O11 0.030553 0.698366 0.055902
O O12 0.670948 0.500000 0.833870
O O13 0.815039 0.367068 0.872888
O O14 0.601421 0.500000 0.684290
O O15 0.271282 0.383949 0.748613
O O16 0.064181 0.500000 0.076227
#
# Coordination Sequence:
#
# PCOD9142948 Si02
#       7
#     4   4   4   2   4   4   4
#     4  11  20  32  53  81 113 148 179 219 272 328
#     4  10  21  37  54  80 106 146 184 228 272 318
#     4  10  21  39  60  81 107 137 176 230 285 336
#     4  10  21  36  55  72 106 144 190 230 268 314
#     4  10  20  31  48  79 114 147 187 224 263 314
#     4  10  18  30  49  77 115 151 183 209 253 316
#     4   9  18  31  48  73 106 149 189 222 255 300
#
# _framework density 19.424382999999999
#
# number of rings (size 3 to 8) (size 9 to 14) (size 15 to 20)
#    0.000    2.000    3.077    1.154    0.000    3.385 
#    0.000    4.231    0.000    0.000    0.000    8.615 
#    0.000    0.000    0.000    0.000    0.000    0.000 
#
# Total GULP energy -145156.795824 kJ/mol
# GULP energy per Si atom -5582.953686 kJ/mol
# Density = 1.938017 g / cm^3
# Si number density = 19.424383 Si / 1000 Ang^3
#
#
#
# Elastic Constant Matrix: (Units=GPa)
#
#
# Indices 1 2 3 4 5 6 
#
# 1 50.8253 -2.7907 -2.1061 0.0000 4.2073 0.0000
# 2 -2.7907 45.9678 -8.3953 0.0000 2.8363 0.0000
# 3 -2.1061 -8.3953 64.0376 0.0000 -8.6476 0.0000
# 4 0.0000 0.0000 0.0000 -1.3107 0.0000 0.7877
# 5 4.2073 2.8363 -8.6476 0.0000 31.8467 0.0000
# 6 0.0000 0.0000 0.0000 0.7877 0.0000 15.4383
#
#
#
# Elastic Compliance Matrix: (Units=1/GPa)
#
#
# Indices 1 2 3 4 5 6 
#
# 1 0.019995 0.001467 0.000494 0.000000 -0.002638 0.000000
# 2 0.001467 0.022443 0.002797 0.000000 -0.001433 0.000000
# 3 0.000494 0.002797 0.016564 0.000000 0.004183 0.000000
# 4 0.000000 0.000000 0.000000 -0.740256 0.000000 0.037769
# 5 -0.002638 -0.001433 0.004183 0.000000 0.033012 0.000000
# 6 0.000000 0.000000 0.000000 0.037769 0.000000 0.062847
#
#
# Mechanical properties :
#
#
# Convention : Reuss Voigt Hill
#
# Bulk Modulus (GPa) = 14.59518 14.91627 14.75573
# Shear Modulus (GPa) = -8.74016 20.80306 6.03145
#
# Velocity S-wave (km/s) = -2.12352 3.27613 1.76404
# Velocity P-wave (km/s) = 1.23195 4.69111 3.42959
#
# Compressibility (1/GPa) = 0.06851576
#
# Stress axis : x y z
#
# Youngs Moduli (GPa) = 50.01342 44.55798 60.37316
#
# Poissons Ratio (x) = -0.06536 -0.02980
# Poissons Ratio (y) = -0.07336 -0.16886
# Poissons Ratio (z) = -0.02469 -0.12463
#
# Static dielectric constant tensor:
#      x y z
#    x 1.679110 0.000000 -0.021740 
#    y 0.000000 1.637420 0.000000 
#    z -0.021740 0.000000 1.716090 
# 
# From -- ./inp_files/24666.got.cif
#   From: 2010.05.17/outbox.cif.g08.bks.cpg/sg10_13_cif.got.tgz:24666.got - 2010.06.03 11:33:40.
