data_PCOD9142641
_publ_section_title
;
Structure prediction by ZEFSAII (Michael W. Deem and Ramdas Pophale) SiO2 
 PCOD9142641
Probable space group: P 2/M
;
_chemical_formula_sum "Si O2"
_cell_formula_units_Z 32
_cell_length_a 31.156404
_cell_length_b 9.253362
_cell_length_c 20.129275
_cell_angle_alpha 90.000000
_cell_angle_beta 160.246475
_cell_angle_gamma 90.000000
_cell_volume 1961.368076
_symmetry_space_group_name_H-M "P 2/M"
_symmetry_group_IT_number 10
_symmetry_cell_setting 'monoclinic'
loop_
_space_group_symop_operation_xyz
x,y,z
-x,y,-z
-x,-y,-z
x,-y,z
loop_
_atom_site_type_symbol
_atom_site_label
_atom_site_fract_x
_atom_site_fract_y
_atom_site_fract_z
Si Si1 0.646712 0.834833 0.459788
Si Si2 0.152511 0.172320 0.908023
Si Si3 0.944183 0.172312 0.093252
Si Si4 0.119371 0.326182 0.720394
Si Si5 0.342735 0.164521 0.364462
Si Si6 0.601143 0.334970 0.894298
Si Si7 0.410735 0.664752 0.284664
Si Si8 0.904442 0.326852 0.799781
O O1 0.649024 0.836818 0.543525
O O2 0.511849 0.764676 0.244236
O O3 0.766818 0.741549 0.612135
O O4 0.657945 0.000000 0.452986
O O5 0.056756 0.201434 0.829362
O O6 0.112557 0.246326 0.781046
O O7 0.164271 0.000000 0.917336
O O8 0.290757 0.236826 0.128394
O O9 0.037672 0.262122 0.183377
O O10 0.963269 0.000000 0.110453
O O11 0.800189 0.206886 0.861005
O O12 0.124284 0.500000 0.739026
O O13 0.000000 0.293830 0.500000
O O14 0.254084 0.286723 0.882460
O O15 0.452712 0.269075 0.499064
O O16 0.364317 0.000000 0.372063
O O17 0.583930 0.500000 0.892231
O O18 0.592039 0.337015 0.800418
O O19 0.394765 0.500000 0.284043
O O20 0.896852 0.500000 0.786095
O O21 0.000000 0.287893 0.000000
#
# Coordination Sequence:
#
# PCOD9142641 Si02
#       8
#     4   4   4   4   4   4   4   4
#     4  10  18  29  48  68  93 129 167 207 248 289
#     4  10  20  33  49  70  98 129 162 201 242 289
#     4  10  21  35  48  65  93 130 169 207 248 292
#     4   9  18  34  56  80 105 132 159 192 240 297
#     4   9  17  29  45  64  88 125 169 207 243 284
#     4   8  15  28  46  70  99 126 157 197 238 285
#     4   9  17  29  45  64  92 128 164 202 242 285
#     4  11  22  33  48  70  94 125 169 218 257 289
#
# _framework density 16.315142999999999
#
# number of rings (size 3 to 8) (size 9 to 14) (size 15 to 20)
#    0.000    2.500    1.250    2.250    0.000    6.250 
#    0.000    2.500    0.000    0.000    0.000    0.875 
#    0.000    7.000    0.000    0.000    0.000    0.000 
#
# Total GULP energy -178479.669788 kJ/mol
# GULP energy per Si atom -5577.489681 kJ/mol
# Density = 1.627801 g / cm^3
# Si number density = 16.315143 Si / 1000 Ang^3
#
#
#
# Elastic Constant Matrix: (Units=GPa)
#
#
# Indices 1 2 3 4 5 6 
#
# 1 66.2362 49.8818 45.2960 0.0000 17.3458 0.0000
# 2 49.8818 77.8382 57.2583 0.0000 17.1631 0.0000
# 3 45.2960 57.2583 117.3832 0.0000 11.1369 0.0000
# 4 0.0000 0.0000 0.0000 24.1647 0.0000 9.4765
# 5 17.3458 17.1631 11.1369 0.0000 22.7400 0.0000
# 6 0.0000 0.0000 0.0000 9.4765 0.0000 18.2420
#
#
#
# Elastic Compliance Matrix: (Units=1/GPa)
#
#
# Indices 1 2 3 4 5 6 
#
# 1 0.032214 -0.015328 -0.003901 0.000000 -0.011093 0.000000
# 2 -0.015328 0.030249 -0.008163 0.000000 -0.007141 0.000000
# 3 -0.003901 -0.008163 0.013780 0.000000 0.002388 0.000000
# 4 0.000000 0.000000 0.000000 0.051970 0.000000 -0.026998
# 5 -0.011093 -0.007141 0.002388 0.000000 0.056657 0.000000
# 6 0.000000 0.000000 0.000000 -0.026998 0.000000 0.068844
#
#
# Mechanical properties :
#
#
# Convention : Reuss Voigt Hill
#
# Bulk Modulus (GPa) = 46.60268 62.92556 54.76412
# Shear Modulus (GPa) = 15.84026 20.29743 18.06885
#
# Velocity S-wave (km/s) = 3.11930 3.53099 3.33151
# Velocity P-wave (km/s) = 6.44976 7.43481 6.95973
#
# Compressibility (1/GPa) = 0.02145799
#
# Stress axis : x y z
#
# Youngs Moduli (GPa) = 31.04256 33.05860 72.57001
#
# Poissons Ratio (x) = 0.50673 0.28312
# Poissons Ratio (y) = 0.47582 0.59239
# Poissons Ratio (z) = 0.12111 0.26986
#
# Static dielectric constant tensor:
#      x y z
#    x 1.553380 0.000000 -0.005500 
#    y 0.000000 1.554720 0.000000 
#    z -0.005500 0.000000 1.542580 
# 
# From -- ./inp_files/52710.got.cif
#   From: 2010.05.17/outbox.cif.g08.bks.cpg/sg10_27_cif.got.tgz:52710.got - 2010.06.03 11:33:40.
