data_PCOD9142103
_publ_section_title
;
Structure prediction by ZEFSAII (Michael W. Deem and Ramdas Pophale) SiO2 
 PCOD9142103
Probable space group: P 2/M
;
_chemical_formula_sum "Si O2"
_cell_formula_units_Z 32
_cell_length_a 8.629347
_cell_length_b 15.343251
_cell_length_c 18.914290
_cell_angle_alpha 90.000000
_cell_angle_beta 38.280970
_cell_angle_gamma 90.000000
_cell_volume 1551.456264
_symmetry_space_group_name_H-M "P 2/M"
_symmetry_group_IT_number 10
_symmetry_cell_setting 'monoclinic'
loop_
_space_group_symop_operation_xyz
x,y,z
-x,y,-z
-x,-y,-z
x,-y,z
loop_
_atom_site_type_symbol
_atom_site_label
_atom_site_fract_x
_atom_site_fract_y
_atom_site_fract_z
Si Si1 0.137284 0.096341 0.280200
Si Si2 0.938774 0.600200 0.157202
Si Si3 0.286096 0.171072 0.366581
Si Si4 0.530820 0.597113 0.074331
Si Si5 0.118821 0.405878 0.571685
Si Si6 0.936722 0.284931 0.751401
Si Si7 0.586526 0.097073 0.538232
Si Si8 0.618962 0.371816 0.667232
O O1 0.315321 0.120210 0.282653
O O2 0.102487 0.180792 0.242019
O O3 0.876718 0.088421 0.415873
O O4 0.192219 0.000000 0.229882
O O5 0.971865 0.500000 0.173106
O O6 0.667296 0.602799 0.218573
O O7 0.175782 0.615217 0.020922
O O8 0.964835 0.672244 0.210541
O O9 0.449838 0.136425 0.372631
O O10 0.353718 0.269858 0.330212
O O11 0.000000 0.169315 0.500000
O O12 0.469866 0.500000 0.123271
O O13 0.500000 0.594387 0.000000
O O14 0.332729 0.669423 0.167495
O O15 0.163798 0.500000 0.590710
O O16 0.314631 0.392419 0.438278
O O17 0.112302 0.324821 0.627118
O O18 0.847264 0.409429 0.630881
O O19 0.500000 0.148342 0.500000
O O20 0.469918 0.000000 0.580626
#
# Coordination Sequence:
#
# PCOD9142103 Si02
#       8
#     4   4   4   4   4   4   4   4
#     4  10  20  34  51  75 103 136 180 224 267 318
#     4  10  21  36  56  81 108 141 179 223 267 314
#     4  10  17  33  49  70 102 148 186 210 254 312
#     4   8  16  34  57  78 103 135 177 224 270 315
#     4  11  20  33  51  75 113 150 177 212 258 318
#     4  11  20  35  56  81 103 139 185 223 265 323
#     4   9  18  30  48  73 101 135 177 226 269 306
#     4  11  20  34  48  76 113 149 178 206 259 320
#
# _framework density 20.625782000000001
#
# number of rings (size 3 to 8) (size 9 to 14) (size 15 to 20)
#    0.000    2.000    2.500    4.500    1.750    2.000 
#    0.000    1.875    0.000    5.625    0.000    0.875 
#    0.000    0.000    0.000    0.000    0.000    0.000 
#
# Total GULP energy -178325.959437 kJ/mol
# GULP energy per Si atom -5572.686232 kJ/mol
# Density = 2.057884 g / cm^3
# Si number density = 20.625782 Si / 1000 Ang^3
#
#
#
# Elastic Constant Matrix: (Units=GPa)
#
#
# Indices 1 2 3 4 5 6 
#
# 1 46.6780 15.8553 -6.1669 0.0000 -0.2386 0.0000
# 2 15.8553 150.2210 4.2945 0.0000 11.6091 0.0000
# 3 -6.1669 4.2945 47.6398 0.0000 -12.2610 0.0000
# 4 0.0000 0.0000 0.0000 16.2220 0.0000 -2.9529
# 5 -0.2386 11.6091 -12.2610 0.0000 31.5460 0.0000
# 6 0.0000 0.0000 0.0000 -2.9529 0.0000 15.7762
#
#
#
# Elastic Compliance Matrix: (Units=1/GPa)
#
#
# Indices 1 2 3 4 5 6 
#
# 1 0.022882 -0.002735 0.003903 0.000000 0.002696 0.000000
# 2 -0.002735 0.007265 -0.001892 0.000000 -0.003429 0.000000
# 3 0.003903 -0.001892 0.024282 0.000000 0.010163 0.000000
# 4 0.000000 0.000000 0.000000 0.063819 0.000000 0.011945
# 5 0.002696 -0.003429 0.010163 0.000000 0.036932 0.000000
# 6 0.000000 0.000000 0.000000 0.011945 0.000000 0.065622
#
#
# Mechanical properties :
#
#
# Convention : Reuss Voigt Hill
#
# Bulk Modulus (GPa) = 18.87482 30.27829 24.57655
# Shear Modulus (GPa) = 20.84108 28.07923 24.46015
#
# Velocity S-wave (km/s) = 3.18219 3.69367 3.44743
# Velocity P-wave (km/s) = 4.76159 5.73608 5.27140
#
# Compressibility (1/GPa) = 0.05298063
#
# Stress axis : x y z
#
# Youngs Moduli (GPa) = 43.70292 137.65346 41.18229
#
# Poissons Ratio (x) = 0.37649 -0.16071
# Poissons Ratio (y) = 0.11953 0.07790
# Poissons Ratio (z) = -0.17055 0.26037
#
# Static dielectric constant tensor:
#      x y z
#    x 1.866180 0.000000 -0.020680 
#    y 0.000000 1.769560 0.000000 
#    z -0.020680 0.000000 1.747690 
# 
# From -- ./inp_files/61884.got.cif
#   From: 2010.05.17/outbox.cif.g08.bks.cpg/sg10_31_cif.got.tgz:61884.got - 2010.06.03 11:33:40.
