data_PCOD9142502
_publ_section_title
;
Structure prediction by ZEFSAII (Michael W. Deem and Ramdas Pophale) SiO2 
 PCOD9142502
Probable space group: P 2/M
;
_chemical_formula_sum "Si O2"
_cell_formula_units_Z 32
_cell_length_a 29.633511
_cell_length_b 8.965917
_cell_length_c 13.641692
_cell_angle_alpha 90.000000
_cell_angle_beta 35.570014
_cell_angle_gamma 90.000000
_cell_volume 2108.352144
_symmetry_space_group_name_H-M "P 2/M"
_symmetry_group_IT_number 10
_symmetry_cell_setting 'monoclinic'
loop_
_space_group_symop_operation_xyz
x,y,z
-x,y,-z
-x,-y,-z
x,-y,z
loop_
_atom_site_type_symbol
_atom_site_label
_atom_site_fract_x
_atom_site_fract_y
_atom_site_fract_z
Si Si1 0.162251 0.323225 0.104119
Si Si2 0.547730 0.822011 0.611887
Si Si3 0.004235 0.171021 0.373629
Si Si4 0.690320 0.823502 0.239638
Si Si5 0.593024 0.327648 0.241875
Si Si6 0.317412 0.327281 0.124410
Si Si7 0.537684 0.820854 0.036112
Si Si8 0.832115 0.820879 0.689423
O O1 0.166844 0.500000 0.106546
O O2 0.175084 0.249721 0.189045
O O3 0.077203 0.272384 0.218728
O O4 0.229727 0.263694 0.914392
O O5 0.636855 0.789838 0.428436
O O6 0.491308 0.733622 0.638042
O O7 0.519464 0.786404 0.771525
O O8 0.535874 0.000000 0.617415
O O9 0.917615 0.218531 0.496995
O O10 0.000000 0.170367 0.500000
O O11 0.018416 0.000000 0.317598
O O12 0.636467 0.773764 0.243692
O O13 0.705138 0.000000 0.209010
O O14 0.590429 0.500000 0.278967
O O15 0.642124 0.321231 0.054376
O O16 0.303345 0.500000 0.172955
O O17 0.237460 0.238584 0.254033
O O18 0.380166 0.255296 0.086135
O O19 0.548390 0.000000 0.015873
O O20 0.500000 0.774885 0.000000
O O21 0.829165 0.000000 0.704652
#
# Coordination Sequence:
#
# PCOD9142502 Si02
#       8
#     4   4   4   4   4   4   4   4
#     4  11  20  28  40  60  86 118 153 186 221 256
#     4   9  19  32  45  63  83 110 148 182 220 265
#     4   8  16  29  42  58  81 114 152 184 217 255
#     4  11  20  29  42  58  84 119 151 184 215 255
#     4  10  19  29  41  60  86 115 146 182 220 256
#     4  10  19  29  44  67  92 117 147 184 222 262
#     4   9  18  34  53  68  86 113 145 184 228 272
#     4  10  18  29  45  62  85 117 152 186 217 257
#
# _framework density 15.17773
#
# number of rings (size 3 to 8) (size 9 to 14) (size 15 to 20)
#    0.000    2.250    1.250    3.750    0.000    6.500 
#    0.000    0.000    0.000    0.000    0.000    0.000 
#    0.000    1.000    0.000   11.500    0.000    3.250 
#
# Total GULP energy -178431.513655 kJ/mol
# GULP energy per Si atom -5575.984802 kJ/mol
# Density = 1.514319 g / cm^3
# Si number density = 15.177730 Si / 1000 Ang^3
#
#
#
# Elastic Constant Matrix: (Units=GPa)
#
#
# Indices 1 2 3 4 5 6 
#
# 1 67.7623 32.5920 42.9573 0.0000 -17.7496 0.0000
# 2 32.5920 69.9321 54.4765 0.0000 -15.8799 0.0000
# 3 42.9573 54.4765 107.8198 0.0000 -31.0878 0.0000
# 4 0.0000 0.0000 0.0000 9.1483 0.0000 1.9025
# 5 -17.7496 -15.8799 -31.0878 0.0000 20.9673 0.0000
# 6 0.0000 0.0000 0.0000 1.9025 0.0000 6.7845
#
#
#
# Elastic Compliance Matrix: (Units=1/GPa)
#
#
# Indices 1 2 3 4 5 6 
#
# 1 0.021981 -0.005604 -0.003118 0.000000 0.009741 0.000000
# 2 -0.005604 0.025011 -0.011022 0.000000 -0.002144 0.000000
# 3 -0.003118 -0.011022 0.022564 0.000000 0.022469 0.000000
# 4 0.000000 0.000000 0.000000 0.116079 0.000000 -0.032552
# 5 0.009741 -0.002144 0.022469 0.000000 0.087630 0.000000
# 6 0.000000 0.000000 0.000000 -0.032552 0.000000 0.156524
#
#
# Mechanical properties :
#
#
# Convention : Reuss Voigt Hill
#
# Bulk Modulus (GPa) = 33.25740 56.17397 44.71568
# Shear Modulus (GPa) = 10.43192 15.07924 12.75558
#
# Velocity S-wave (km/s) = 2.62452 3.15542 2.90213
# Velocity P-wave (km/s) = 5.58065 7.09695 6.38398
#
# Compressibility (1/GPa) = 0.03006850
#
# Stress axis : x y z
#
# Youngs Moduli (GPa) = 45.49467 39.98305 44.31767
#
# Poissons Ratio (x) = 0.22405 0.13816
# Poissons Ratio (y) = 0.25493 0.48849
# Poissons Ratio (z) = 0.14183 0.44071
#
# Static dielectric constant tensor:
#      x y z
#    x 1.476770 0.000000 -0.012090 
#    y 0.000000 1.506770 0.000000 
#    z -0.012090 0.000000 1.535560 
# 
# From -- ./inp_files/68199.got.cif
#   From: 2010.05.17/outbox.cif.g08.bks.cpg/sg10_35_cif.got.tgz:68199.got - 2010.06.03 11:33:40.
