data_PCOD9142775
_publ_section_title
;
Structure prediction by ZEFSAII (Michael W. Deem and Ramdas Pophale) SiO2 
 PCOD9142775
Probable space group: P 2/M
;
_chemical_formula_sum "Si O2"
_cell_formula_units_Z 30
_cell_length_a 11.896777
_cell_length_b 10.003236
_cell_length_c 15.618296
_cell_angle_alpha 90.000000
_cell_angle_beta 99.695034
_cell_angle_gamma 90.000000
_cell_volume 1832.129649
_symmetry_space_group_name_H-M "P 2/M"
_symmetry_group_IT_number 10
_symmetry_cell_setting 'monoclinic'
loop_
_space_group_symop_operation_xyz
x,y,z
-x,y,-z
-x,-y,-z
x,-y,z
loop_
_atom_site_type_symbol
_atom_site_label
_atom_site_fract_x
_atom_site_fract_y
_atom_site_fract_z
Si Si1 0.034855 0.157788 0.102544
Si Si2 0.742613 0.849832 0.775550
Si Si3 0.928656 0.340864 0.234685
Si Si4 0.742113 0.152471 0.466585
Si Si5 0.500000 0.245589 0.500000
Si Si6 0.544932 0.346717 0.696214
Si Si7 0.082055 0.152250 0.361169
Si Si8 0.708695 0.655304 0.304961
O O1 0.169377 0.182299 0.136796
O O2 0.967509 0.258149 0.156324
O O3 0.015244 0.000000 0.123419
O O4 0.000000 0.175420 0.000000
O O5 0.642075 0.748631 0.744233
O O6 0.824620 0.849836 0.702950
O O7 0.697607 0.000000 0.781108
O O8 0.955998 0.500000 0.233675
O O9 0.794696 0.326789 0.237603
O O10 0.993554 0.265603 0.321342
O O11 0.618324 0.167531 0.496989
O O12 0.845652 0.180688 0.544611
O O13 0.744620 0.251845 0.387879
O O14 0.752568 0.000000 0.438917
O O15 0.523252 0.324531 0.591485
O O16 0.577108 0.500000 0.713623
O O17 0.424579 0.318318 0.726949
O O18 0.033960 0.000000 0.360653
O O19 0.717113 0.500000 0.332953
#
# Coordination Sequence:
#
# PCOD9142775 Si02
#       8
#     4   4   4   4   2   4   4   4
#     4   9  19  37  60  83 105 127 152 195 257 313
#     4   9  17  31  50  75 104 128 158 206 256 299
#     4  10  20  35  53  73  99 131 166 205 245 296
#     4  10  19  30  47  68  93 131 178 218 251 291
#     4  10  18  30  44  68 100 134 174 220 256 284
#     4  10  19  31  48  69  98 138 176 210 248 292
#     4   9  18  32  47  69  99 131 166 212 261 297
#     4   9  21  36  46  65 100 138 173 208 248 289
#
# _framework density 16.374388
#
# number of rings (size 3 to 8) (size 9 to 14) (size 15 to 20)
#    0.000    2.533    1.333    1.600    0.000    7.200 
#    0.000    2.667    0.000    0.800    0.000    5.600 
#    0.000    0.000    0.000    0.000    0.000    0.000 
#
# Total GULP energy -167121.871456 kJ/mol
# GULP energy per Si atom -5570.729049 kJ/mol
# Density = 1.633712 g / cm^3
# Si number density = 16.374388 Si / 1000 Ang^3
#
#
#
# Elastic Constant Matrix: (Units=GPa)
#
#
# Indices 1 2 3 4 5 6 
#
# 1 98.3030 74.9347 43.6786 0.0000 5.2357 0.0000
# 2 74.9347 96.4669 47.8006 0.0000 7.4595 0.0000
# 3 43.6786 47.8006 57.4246 0.0000 14.5160 0.0000
# 4 0.0000 0.0000 0.0000 1.0362 0.0000 14.0508
# 5 5.2357 7.4595 14.5160 0.0000 21.0347 0.0000
# 6 0.0000 0.0000 0.0000 14.0508 0.0000 13.7418
#
#
#
# Elastic Compliance Matrix: (Units=1/GPa)
#
#
# Indices 1 2 3 4 5 6 
#
# 1 0.026036 -0.017389 -0.006359 0.000000 0.004074 0.000000
# 2 -0.017389 0.029649 -0.011980 0.000000 0.002081 0.000000
# 3 -0.006359 -0.011980 0.037247 0.000000 -0.019873 0.000000
# 4 0.000000 0.000000 0.000000 -0.075016 0.000000 0.076702
# 5 0.004074 0.002081 -0.019873 0.000000 0.059502 0.000000
# 6 0.000000 0.000000 0.000000 0.076702 0.000000 -0.005656
#
#
# Mechanical properties :
#
#
# Convention : Reuss Voigt Hill
#
# Bulk Modulus (GPa) = 46.56282 65.00250 55.78266
# Shear Modulus (GPa) = 33.24980 12.88123 23.06551
#
# Velocity S-wave (km/s) = 4.51110 2.80781 3.75725
# Velocity P-wave (km/s) = 7.45865 7.09194 7.27760
#
# Compressibility (1/GPa) = 0.02147636
#
# Stress axis : x y z
#
# Youngs Moduli (GPa) = 38.40762 33.72804 26.84810
#
# Poissons Ratio (x) = 0.58649 0.17074
# Poissons Ratio (y) = 0.66787 0.32163
# Poissons Ratio (z) = 0.24425 0.40405
#
# Static dielectric constant tensor:
#      x y z
#    x 1.567670 0.000000 -0.003520 
#    y 0.000000 1.552730 0.000000 
#    z -0.003520 0.000000 1.536110 
# 
# From -- ./inp_files/63443.got.cif
#   From: 2010.05.17/outbox.cif.g08.bks.cpg/sg10_32_cif.got.tgz:63443.got - 2010.06.03 11:33:40.
