data_PCOD9142999
_publ_section_title
;
Structure prediction by ZEFSAII (Michael W. Deem and Ramdas Pophale) SiO2 
 PCOD9142999
Probable space group: P 2/M
;
_chemical_formula_sum "Si O2"
_cell_formula_units_Z 32
_cell_length_a 29.051956
_cell_length_b 7.695791
_cell_length_c 22.342709
_cell_angle_alpha 90.000000
_cell_angle_beta 18.609372
_cell_angle_gamma 90.000000
_cell_volume 1594.082461
_symmetry_space_group_name_H-M "P 2/M"
_symmetry_group_IT_number 10
_symmetry_cell_setting 'monoclinic'
loop_
_space_group_symop_operation_xyz
x,y,z
-x,y,-z
-x,-y,-z
x,-y,z
loop_
_atom_site_type_symbol
_atom_site_label
_atom_site_fract_x
_atom_site_fract_y
_atom_site_fract_z
Si Si1 0.845300 0.287182 0.078213
Si Si2 0.804954 0.205510 0.497684
Si Si3 0.332186 0.713066 0.586193
Si Si4 0.342610 0.294153 0.801970
Si Si5 0.824941 0.709478 0.339678
Si Si6 0.340115 0.299756 0.203508
Si Si7 0.038515 0.794655 0.517907
Si Si8 0.897666 0.790122 0.812819
O O1 0.847545 0.500000 0.074358
O O2 0.769595 0.235463 0.233304
O O3 0.751142 0.224873 0.137934
O O4 0.010115 0.228318 0.869963
O O5 0.766934 0.240042 0.476220
O O6 0.705924 0.289378 0.670322
O O7 0.969478 0.265405 0.307905
O O8 0.800636 0.000000 0.514578
O O9 0.333469 0.500000 0.584133
O O10 0.495552 0.774874 0.394064
O O11 0.268222 0.770658 0.601640
O O12 0.356166 0.500000 0.774764
O O13 0.251179 0.268883 0.974970
O O14 0.827937 0.500000 0.333831
O O15 0.349176 0.500000 0.173285
O O16 0.205671 0.223738 0.331725
O O17 0.500000 0.221044 0.000000
O O18 0.000000 0.721594 0.500000
O O19 0.942058 0.725656 0.692067
O O20 0.007697 0.000000 0.553507
O O21 0.895652 0.000000 0.814346
#
# Coordination Sequence:
#
# PCOD9142999 Si02
#       8
#     4   4   4   4   4   4   4   4
#     4   9  16  28  50  75  98 132 175 212 257 314
#     4  10  20  35  56  78 103 139 180 217 256 310
#     4   9  18  30  46  74 108 133 163 217 269 308
#     4  10  18  30  50  75 100 132 171 212 256 308
#     4  10  18  31  52  76 102 133 172 217 263 308
#     4  10  21  37  58  85 114 140 174 222 270 315
#     4   9  19  37  59  82 110 145 183 219 260 313
#     4   9  18  33  53  75 101 134 172 216 253 297
#
# _framework density 20.074242999999999
#
# number of rings (size 3 to 8) (size 9 to 14) (size 15 to 20)
#    0.000    2.500    1.250    2.250    0.000    6.250 
#    2.250    0.625    0.000    4.500    0.000    0.000 
#    0.000    0.000    0.000    0.000    0.000    0.000 
#
# Total GULP energy -178566.297787 kJ/mol
# GULP energy per Si atom -5580.196806 kJ/mol
# Density = 2.002855 g / cm^3
# Si number density = 20.074243 Si / 1000 Ang^3
#
#
#
# Elastic Constant Matrix: (Units=GPa)
#
#
# Indices 1 2 3 4 5 6 
#
# 1 127.0925 -4.4239 27.4717 0.0000 3.9213 0.0000
# 2 -4.4239 29.3732 -12.3843 0.0000 -4.2352 0.0000
# 3 27.4717 -12.3843 74.4793 0.0000 -0.2700 0.0000
# 4 0.0000 0.0000 0.0000 24.8318 0.0000 12.5924
# 5 3.9213 -4.2352 -0.2700 0.0000 24.0985 0.0000
# 6 0.0000 0.0000 0.0000 12.5924 0.0000 19.6827
#
#
#
# Elastic Compliance Matrix: (Units=1/GPa)
#
#
# Indices 1 2 3 4 5 6 
#
# 1 0.008601 -0.000278 -0.003224 0.000000 -0.001485 0.000000
# 2 -0.000278 0.037669 0.006390 0.000000 0.006737 0.000000
# 3 -0.003224 0.006390 0.015685 0.000000 0.001823 0.000000
# 4 0.000000 0.000000 0.000000 0.059611 0.000000 -0.038137
# 5 -0.001485 0.006737 0.001823 0.000000 0.042942 0.000000
# 6 0.000000 0.000000 0.000000 -0.038137 0.000000 0.075205
#
#
# Mechanical properties :
#
#
# Convention : Reuss Voigt Hill
#
# Bulk Modulus (GPa) = 14.76423 28.03023 21.39723
# Shear Modulus (GPa) = 19.49217 28.40802 23.95009
#
# Velocity S-wave (km/s) = 3.11947 3.76593 3.45784
# Velocity P-wave (km/s) = 4.51061 5.73613 5.15988
#
# Compressibility (1/GPa) = 0.06773125
#
# Stress axis : x y z
#
# Youngs Moduli (GPa) = 116.26092 26.54738 63.75518
#
# Poissons Ratio (x) = 0.00738 0.20556
# Poissons Ratio (y) = 0.03232 -0.40742
# Poissons Ratio (z) = 0.37485 -0.16965
#
# Static dielectric constant tensor:
#      x y z
#    x 1.700250 0.000000 -0.002490 
#    y 0.000000 1.746400 0.000000 
#    z -0.002490 0.000000 1.691190 
# 
# From -- ./inp_files/86775.got.cif
#   From: 2010.05.17/outbox.cif.g08.bks.cpg/sg10_44_cif.got.tgz:86775.got - 2010.06.03 11:33:40.
