data_PCOD9142865
_publ_section_title
;
Structure prediction by ZEFSAII (Michael W. Deem and Ramdas Pophale) SiO2 
 PCOD9142865
Probable space group: P 2/M
;
_chemical_formula_sum "Si O2"
_cell_formula_units_Z 28
_cell_length_a 21.201376
_cell_length_b 9.069934
_cell_length_c 18.792085
_cell_angle_alpha 90.000000
_cell_angle_beta 152.845597
_cell_angle_gamma 90.000000
_cell_volume 1649.222434
_symmetry_space_group_name_H-M "P 2/M"
_symmetry_group_IT_number 10
_symmetry_cell_setting 'monoclinic'
loop_
_space_group_symop_operation_xyz
x,y,z
-x,y,-z
-x,-y,-z
x,-y,z
loop_
_atom_site_type_symbol
_atom_site_label
_atom_site_fract_x
_atom_site_fract_y
_atom_site_fract_z
Si Si1 0.354446 0.322271 0.563200
Si Si2 0.159089 0.678222 0.238028
Si Si3 0.325981 0.830742 0.964976
Si Si4 0.836756 0.678640 0.918077
Si Si5 0.344066 0.822188 0.140858
Si Si6 0.668605 0.330904 0.171691
Si Si7 0.662578 0.169502 0.308742
O O1 0.364718 0.500000 0.574647
O O2 0.256189 0.273927 0.399775
O O3 0.505006 0.251270 0.703279
O O4 0.299805 0.264328 0.584330
O O5 0.162258 0.500000 0.240599
O O6 0.204145 0.722691 0.203700
O O7 0.998819 0.717551 0.088139
O O8 0.283386 0.783592 0.001557
O O9 0.494232 0.828322 0.136284
O O10 0.284377 0.000000 0.911203
O O11 0.282103 0.733447 0.854102
O O12 0.823047 0.500000 0.910788
O O13 0.748272 0.759235 0.888721
O O14 0.356290 0.000000 0.155482
O O15 0.709413 0.500000 0.221425
O O16 0.711960 0.236876 0.283770
O O17 0.500000 0.326143 0.000000
O O18 0.704993 0.000000 0.359565
#
# Coordination Sequence:
#
# PCOD9142865 Si02
#       7
#     4   4   4   4   4   4   4
#     4  10  18  30  48  70  95 124 158 196 236 277
#     4   8  17  33  53  73  92 118 157 200 237 277
#     4   8  15  26  38  54  85 123 152 183 226 272
#     4   9  17  34  55  71  90 121 159 196 235 281
#     4  10  20  32  45  69 101 128 155 191 236 282
#     4   9  15  22  36  59  85 115 154 192 224 266
#     4   9  16  26  39  59  90 124 153 185 230 278
#
# _framework density 16.977698
#
# number of rings (size 3 to 8) (size 9 to 14) (size 15 to 20)
#    0.000    3.000    0.000    3.429    0.000    6.286 
#    0.000    7.143    0.000    0.000    0.000    1.000 
#    0.000    8.000    0.000    0.000    0.000    0.000 
#
# Total GULP energy -155942.938442 kJ/mol
# GULP energy per Si atom -5569.390659 kJ/mol
# Density = 1.693906 g / cm^3
# Si number density = 16.977698 Si / 1000 Ang^3
#
#
#
# Elastic Constant Matrix: (Units=GPa)
#
#
# Indices 1 2 3 4 5 6 
#
# 1 118.3932 59.9640 79.4522 0.0000 -48.5790 0.0000
# 2 59.9640 75.3067 35.1108 0.0000 -19.5314 0.0000
# 3 79.4522 35.1108 39.7340 0.0000 -20.5067 0.0000
# 4 0.0000 0.0000 0.0000 2.2893 0.0000 -6.6149
# 5 -48.5790 -19.5314 -20.5067 0.0000 17.7935 0.0000
# 6 0.0000 0.0000 0.0000 -6.6149 0.0000 26.7173
#
#
#
# Elastic Compliance Matrix: (Units=1/GPa)
#
#
# Indices 1 2 3 4 5 6 
#
# 1 -0.019395 -0.005168 0.032312 0.000000 -0.021385 0.000000
# 2 -0.005168 0.021348 -0.009176 0.000000 -0.001252 0.000000
# 3 0.032312 -0.009176 0.022198 0.000000 0.103728 0.000000
# 4 0.000000 0.000000 0.000000 1.534787 0.000000 0.379994
# 5 -0.021385 -0.001252 0.103728 0.000000 0.115987 0.000000
# 6 0.000000 0.000000 0.000000 0.379994 0.000000 0.131511
#
#
# Mechanical properties :
#
#
# Convention : Reuss Voigt Hill
#
# Bulk Modulus (GPa) = 16.64244 64.72085 40.68165
# Shear Modulus (GPa) = 2.79247 13.28716 8.03982
#
# Velocity S-wave (km/s) = 1.28388 2.80058 2.17848
# Velocity P-wave (km/s) = 3.46722 6.97578 5.50832
#
# Compressibility (1/GPa) = 0.06008734
#
# Stress axis : x y z
#
# Youngs Moduli (GPa) = -51.55979 46.84372 45.04939
#
# Poissons Ratio (x) = 0.24209 -1.45564
# Poissons Ratio (y) = -0.26646 0.41336
# Poissons Ratio (z) = 1.66601 0.42983
#
# Static dielectric constant tensor:
#      x y z
#    x 1.577450 0.000000 -0.017990 
#    y 0.000000 1.567240 0.000000 
#    z -0.017990 0.000000 1.564500 
# 
# From -- ./inp_files/54470.got.cif
#   From: 2010.05.17/outbox.cif.g08.bks.cpg/sg10_28_cif.got.tgz:54470.got - 2010.06.03 11:33:40.
