data_PCOD9142904
_publ_section_title
;
Structure prediction by ZEFSAII (Michael W. Deem and Ramdas Pophale) SiO2 
 PCOD9142904
Probable space group: P 2/M
;
_chemical_formula_sum "Si O2"
_cell_formula_units_Z 32
_cell_length_a 20.356530
_cell_length_b 9.299162
_cell_length_c 31.527491
_cell_angle_alpha 90.000000
_cell_angle_beta 19.301767
_cell_angle_gamma 90.000000
_cell_volume 1972.720665
_symmetry_space_group_name_H-M "P 2/M"
_symmetry_group_IT_number 10
_symmetry_cell_setting 'monoclinic'
loop_
_space_group_symop_operation_xyz
x,y,z
-x,y,-z
-x,-y,-z
x,-y,z
loop_
_atom_site_type_symbol
_atom_site_label
_atom_site_fract_x
_atom_site_fract_y
_atom_site_fract_z
Si Si1 0.103272 0.828785 0.048606
Si Si2 0.727537 0.172338 0.871640
Si Si3 0.453532 0.833877 0.358669
Si Si4 0.086792 0.171797 0.151404
Si Si5 0.285923 0.336623 0.589135
Si Si6 0.092434 0.334536 0.612376
Si Si7 0.635058 0.162575 0.342961
Si Si8 0.204408 0.327705 0.901212
O O1 0.866076 0.804131 0.196604
O O2 0.179462 0.790659 0.049342
O O3 0.133744 0.000000 0.022233
O O4 0.184433 0.736551 0.960467
O O5 0.782774 0.208428 0.886837
O O6 0.883360 0.255373 0.747047
O O7 0.755854 0.000000 0.849395
O O8 0.500000 0.206784 0.000000
O O9 0.242532 0.753706 0.491088
O O10 0.542798 0.835841 0.351945
O O11 0.610683 0.747610 0.234597
O O12 0.433589 0.000000 0.357157
O O13 0.872013 0.244196 0.288340
O O14 0.057493 0.000000 0.169086
O O15 0.291299 0.500000 0.600852
O O16 0.194414 0.336147 0.597003
O O17 0.503183 0.269069 0.451168
O O18 0.070057 0.500000 0.612538
O O19 0.616012 0.000000 0.371470
O O20 0.227172 0.500000 0.887774
O O21 0.000000 0.294421 0.000000
#
# Coordination Sequence:
#
# PCOD9142904 Si02
#       8
#     4   4   4   4   4   4   4   4
#     4  10  20  33  47  64  88 123 166 203 237 279
#     4   9  17  31  52  77 102 127 157 192 234 288
#     4  10  18  30  49  68  92 126 165 205 241 278
#     4   9  18  32  48  66  92 124 157 195 235 279
#     4   9  17  28  43  62  89 123 157 193 232 277
#     4   9  17  29  46  71 100 126 157 195 239 287
#     4   9  17  28  43  62  85 119 161 200 233 269
#     4  11  22  33  47  68  94 125 163 208 250 282
#
# _framework density 16.221252
#
# number of rings (size 3 to 8) (size 9 to 14) (size 15 to 20)
#    0.000    2.500    1.250    1.500    0.000    5.750 
#    0.000    2.500    0.000    0.000    0.000    0.875 
#    0.000    7.000    0.000    0.000    0.000    0.000 
#
# Total GULP energy -178479.007611 kJ/mol
# GULP energy per Si atom -5577.468988 kJ/mol
# Density = 1.618433 g / cm^3
# Si number density = 16.221252 Si / 1000 Ang^3
#
#
#
# Elastic Constant Matrix: (Units=GPa)
#
#
# Indices 1 2 3 4 5 6 
#
# 1 53.9099 38.1232 50.0048 0.0000 4.6587 0.0000
# 2 38.1232 85.6136 79.7386 0.0000 8.8382 0.0000
# 3 50.0048 79.7386 128.8467 0.0000 5.9178 0.0000
# 4 0.0000 0.0000 0.0000 11.6904 0.0000 -1.0354
# 5 4.6587 8.8382 5.9178 0.0000 28.8945 0.0000
# 6 0.0000 0.0000 0.0000 -1.0354 0.0000 12.4707
#
#
#
# Elastic Compliance Matrix: (Units=1/GPa)
#
#
# Indices 1 2 3 4 5 6 
#
# 1 0.030286 -0.005786 -0.008106 0.000000 -0.001453 0.000000
# 2 -0.005786 0.029410 -0.015733 0.000000 -0.004841 0.000000
# 3 -0.008106 -0.015733 0.020556 0.000000 0.001909 0.000000
# 4 0.000000 0.000000 0.000000 0.086174 0.000000 0.007155
# 5 -0.001453 -0.004841 0.001909 0.000000 0.035933 0.000000
# 6 0.000000 0.000000 0.000000 0.007155 0.000000 0.080782
#
#
# Mechanical properties :
#
#
# Convention : Reuss Voigt Hill
#
# Bulk Modulus (GPa) = 47.61618 67.12257 57.36938
# Shear Modulus (GPa) = 14.31063 17.31136 15.81099
#
# Velocity S-wave (km/s) = 2.97343 3.27035 3.12542
# Velocity P-wave (km/s) = 6.41922 7.46522 6.96189
#
# Compressibility (1/GPa) = 0.02100126
#
# Stress axis : x y z
#
# Youngs Moduli (GPa) = 33.01877 34.00230 48.64788
#
# Poissons Ratio (x) = 0.19674 0.39435
# Poissons Ratio (y) = 0.19105 0.76536
# Poissons Ratio (z) = 0.26766 0.53495
#
# Static dielectric constant tensor:
#      x y z
#    x 1.564830 0.000000 0.006780 
#    y 0.000000 1.550590 0.000000 
#    z 0.006780 0.000000 1.515060 
# 
# From -- ./inp_files/66122.got.cif
#   From: 2010.05.17/outbox.cif.g08.bks.cpg/sg10_34_cif.got.tgz:66122.got - 2010.06.03 11:33:40.
