data_PCOD9142553
_publ_section_title
;
Structure prediction by ZEFSAII (Michael W. Deem and Ramdas Pophale) SiO2 
 PCOD9142553
Probable space group: P 2/M
;
_chemical_formula_sum "Si O2"
_cell_formula_units_Z 28
_cell_length_a 9.085821
_cell_length_b 19.981688
_cell_length_c 8.215586
_cell_angle_alpha 90.000000
_cell_angle_beta 49.246979
_cell_angle_gamma 90.000000
_cell_volume 1129.887118
_symmetry_space_group_name_H-M "P 2/M"
_symmetry_group_IT_number 10
_symmetry_cell_setting 'monoclinic'
loop_
_space_group_symop_operation_xyz
x,y,z
-x,y,-z
-x,-y,-z
x,-y,z
loop_
_atom_site_type_symbol
_atom_site_label
_atom_site_fract_x
_atom_site_fract_y
_atom_site_fract_z
Si Si1 0.221727 0.854504 0.790190
Si Si2 0.225209 0.284136 0.280665
Si Si3 0.773142 0.714743 0.108726
Si Si4 0.774228 0.571948 0.718127
Si Si5 0.708728 0.000000 0.271006
Si Si6 0.210930 0.000000 0.423540
Si Si7 0.772578 0.571601 0.113242
Si Si8 0.225270 0.856728 0.399275
O O1 0.318999 0.784999 0.771419
O O2 0.274184 0.927677 0.823336
O O3 0.234636 0.856095 0.587093
O O4 0.000000 0.847812 0.000000
O O5 0.309889 0.356118 0.276438
O O6 0.310433 0.213290 0.275423
O O7 0.000000 0.284387 0.500000
O O8 0.228183 0.284590 0.084765
O O9 0.692411 0.643403 0.227915
O O10 0.000000 0.714390 0.000000
O O11 0.690237 0.500000 0.722989
O O12 0.000000 0.571898 0.500000
O O13 0.765914 0.571746 0.920559
O O14 0.500000 0.000000 0.500000
O O15 0.834054 0.000000 0.347748
O O16 0.308408 0.930312 0.299246
O O17 0.000000 0.000000 0.500000
O O18 0.692266 0.500000 0.229434
O O19 0.000000 0.571510 0.000000
O O20 0.000000 0.857034 0.500000
#
# Coordination Sequence:
#
# PCOD9142553 Si02
#       8
#     4   4   4   4   2   2   4   4
#     4  10  18  29  46  68  89 114 151 194 232 271
#     4   9  14  20  31  49  74 104 136 174 217 257
#     4   9  15  22  34  56  83 108 145 192 229 264
#     4   8  13  19  26  38  61  97 138 170 199 247
#     4  10  21  35  50  71  97 124 155 194 240 287
#     4   8  16  29  46  67  86 112 149 184 215 267
#     4   8  13  20  29  43  70 109 143 174 220 272
#     4   9  15  24  38  59  82 106 139 180 219 260
#
# _framework density 24.781237999999998
#
# number of rings (size 3 to 8) (size 9 to 14) (size 15 to 20)
#    0.000    3.143    0.000    3.643    0.000    1.143 
#    0.000    2.143    0.000    0.000    0.000   72.000 
#    0.000    0.571    0.000    0.429    0.000   51.286 
#
# Total GULP energy -156060.970104 kJ/mol
# GULP energy per Si atom -5573.606075 kJ/mol
# Density = 2.472483 g / cm^3
# Si number density = 24.781238 Si / 1000 Ang^3
#
#
#
# Elastic Constant Matrix: (Units=GPa)
#
#
# Indices 1 2 3 4 5 6 
#
# 1 76.3611 25.4512 6.6904 0.0000 -3.6081 0.0000
# 2 25.4512 388.7740 32.0766 0.0000 13.6121 0.0000
# 3 6.6904 32.0766 42.6340 0.0000 -5.3696 0.0000
# 4 0.0000 0.0000 0.0000 0.2892 0.0000 29.6541
# 5 -3.6081 13.6121 -5.3696 0.0000 17.8348 0.0000
# 6 0.0000 0.0000 0.0000 29.6541 0.0000 -16.4381
#
#
#
# Elastic Compliance Matrix: (Units=1/GPa)
#
#
# Indices 1 2 3 4 5 6 
#
# 1 0.013642 -0.000916 -0.001056 0.000000 0.003141 0.000000
# 2 -0.000916 0.002948 -0.002475 0.000000 -0.003180 0.000000
# 3 -0.001056 -0.002475 0.026707 0.000000 0.009716 0.000000
# 4 0.000000 0.000000 0.000000 0.018593 0.000000 0.033541
# 5 0.003141 -0.003180 0.009716 0.000000 0.062058 0.000000
# 6 0.000000 0.000000 0.000000 0.033541 0.000000 -0.000327
#
#
# Mechanical properties :
#
#
# Convention : Reuss Voigt Hill
#
# Bulk Modulus (GPa) = 29.06714 70.68951 49.87833
# Shear Modulus (GPa) = 34.72700 29.90724 32.31712
#
# Velocity S-wave (km/s) = 3.74751 3.47774 3.61515
# Velocity P-wave (km/s) = 5.52088 6.68682 6.13163
#
# Compressibility (1/GPa) = 0.03440311
#
# Stress axis : x y z
#
# Youngs Moduli (GPa) = 73.30362 339.25241 37.44397
#
# Poissons Ratio (x) = 0.31073 0.03954
# Poissons Ratio (y) = 0.06714 0.09266
# Poissons Ratio (z) = 0.07741 0.83949
#
# Static dielectric constant tensor:
#      x y z
#    x 1.889500 0.000000 -0.005060 
#    y 0.000000 2.161400 0.000000 
#    z -0.005060 0.000000 1.895140 
# 
# From -- ./inp_files/25964.got.cif
#   From: 2010.05.17/outbox.cif.g08.bks.cpg/sg10_13_cif.got.tgz:25964.got - 2010.06.03 11:33:40.
