data_PCOD9142354
_publ_section_title
;
Structure prediction by ZEFSAII (Michael W. Deem and Ramdas Pophale) SiO2 
 PCOD9142354
Probable space group: P 2/M
;
_chemical_formula_sum "Si O2"
_cell_formula_units_Z 32
_cell_length_a 17.495892
_cell_length_b 13.088132
_cell_length_c 20.972774
_cell_angle_alpha 90.000000
_cell_angle_beta 23.075516
_cell_angle_gamma 90.000000
_cell_volume 1882.320932
_symmetry_space_group_name_H-M "P 2/M"
_symmetry_group_IT_number 10
_symmetry_cell_setting 'monoclinic'
loop_
_space_group_symop_operation_xyz
x,y,z
-x,y,-z
-x,-y,-z
x,-y,z
loop_
_atom_site_type_symbol
_atom_site_label
_atom_site_fract_x
_atom_site_fract_y
_atom_site_fract_z
Si Si1 0.206281 0.687951 0.971676
Si Si2 0.768788 0.390177 0.182718
Si Si3 0.688600 0.624212 0.815641
Si Si4 0.569189 0.376212 0.764619
Si Si5 0.809119 0.882266 0.100902
Si Si6 0.834944 0.620854 0.331944
Si Si7 0.070976 0.377573 0.595287
Si Si8 0.480204 0.780134 0.584251
O O1 0.294612 0.629889 0.841608
O O2 0.364325 0.675630 0.905791
O O3 0.175272 0.801968 0.968751
O O4 0.004730 0.638866 0.149872
O O5 0.703467 0.500000 0.255297
O O6 0.690602 0.304209 0.288385
O O7 0.000000 0.386738 0.000000
O O8 0.694046 0.500000 0.813739
O O9 0.657417 0.650230 0.765803
O O10 0.885125 0.662132 0.698729
O O11 0.500000 0.657218 0.000000
O O12 0.541157 0.500000 0.784215
O O13 0.726408 0.343285 0.591187
O O14 0.610929 0.854208 0.292311
O O15 0.806039 0.000000 0.083552
O O16 0.000000 0.868043 0.000000
O O17 0.772601 0.500000 0.377073
O O18 0.930392 0.638861 0.328347
O O19 0.665601 0.707069 0.456815
O O20 0.069507 0.500000 0.587398
O O21 0.500000 0.830819 0.500000
#
# Coordination Sequence:
#
# PCOD9142354 Si02
#       8
#     4   4   4   4   4   4   4   4
#     4  11  20  33  50  70  96 126 167 207 248 298
#     4  10  19  30  44  63  92 130 163 189 225 282
#     4   9  16  26  40  61  93 134 176 210 240 280
#     4  10  18  28  45  68  98 136 170 203 245 293
#     4  10  22  41  60  73  90 122 166 217 265 300
#     4  11  21  31  47  74 109 142 166 196 240 294
#     4   9  17  28  41  62  96 137 176 207 235 277
#     4  11  21  33  49  73 100 125 160 202 248 301
#
# _framework density 17.000288999999999
#
# number of rings (size 3 to 8) (size 9 to 14) (size 15 to 20)
#    0.000    1.875    0.000    7.125    0.000    6.750 
#    0.000    0.625    0.000    0.000    0.000    0.000 
#    0.000   12.500    0.000    0.000    0.000    0.125 
#
# Total GULP energy -178381.806535 kJ/mol
# GULP energy per Si atom -5574.431454 kJ/mol
# Density = 1.696160 g / cm^3
# Si number density = 17.000289 Si / 1000 Ang^3
#
#
#
# Elastic Constant Matrix: (Units=GPa)
#
#
# Indices 1 2 3 4 5 6 
#
# 1 76.9446 12.4000 25.8628 0.0000 -9.6957 0.0000
# 2 12.4000 57.7176 4.0539 0.0000 -5.8739 0.0000
# 3 25.8628 4.0539 73.8484 0.0000 -6.8215 0.0000
# 4 0.0000 0.0000 0.0000 9.0386 0.0000 4.2451
# 5 -9.6957 -5.8739 -6.8215 0.0000 33.5176 0.0000
# 6 0.0000 0.0000 0.0000 4.2451 0.0000 9.3768
#
#
#
# Elastic Compliance Matrix: (Units=1/GPa)
#
#
# Indices 1 2 3 4 5 6 
#
# 1 0.015485 -0.002671 -0.005000 0.000000 0.002994 0.000000
# 2 -0.002671 0.018136 0.000165 0.000000 0.002439 0.000000
# 3 -0.005000 0.000165 0.015443 0.000000 0.001726 0.000000
# 4 0.000000 0.000000 0.000000 0.140512 0.000000 -0.063612
# 5 0.002994 0.002439 0.001726 0.000000 0.031480 0.000000
# 6 0.000000 0.000000 0.000000 -0.063612 0.000000 0.135444
#
#
# Mechanical properties :
#
#
# Convention : Reuss Voigt Hill
#
# Bulk Modulus (GPa) = 29.36663 32.57157 30.96910
# Shear Modulus (GPa) = 13.05957 21.46622 17.26289
#
# Velocity S-wave (km/s) = 2.77464 3.55730 3.19006
# Velocity P-wave (km/s) = 5.25134 6.00612 5.64137
#
# Compressibility (1/GPa) = 0.03405226
#
# Stress axis : x y z
#
# Youngs Moduli (GPa) = 64.58054 55.13835 64.75607
#
# Poissons Ratio (x) = 0.14727 0.32377
# Poissons Ratio (y) = 0.17249 -0.01069
# Poissons Ratio (z) = 0.32289 -0.00910
#
# Static dielectric constant tensor:
#      x y z
#    x 1.619810 0.000000 0.003990 
#    y 0.000000 1.554260 0.000000 
#    z 0.003990 0.000000 1.616230 
# 
# From -- ./inp_files/85948.got.cif
#   From: 2010.05.17/outbox.cif.g08.bks.cpg/sg10_43_cif.got.tgz:85948.got - 2010.06.03 11:33:40.
