data_PCOD9142759
_publ_section_title
;
Structure prediction by ZEFSAII (Michael W. Deem and Ramdas Pophale) SiO2 
 PCOD9142759
Probable space group: P 2/M
;
_chemical_formula_sum "Si O2"
_cell_formula_units_Z 32
_cell_length_a 31.434351
_cell_length_b 11.684002
_cell_length_c 9.920005
_cell_angle_alpha 90.000000
_cell_angle_beta 27.583371
_cell_angle_gamma 90.000000
_cell_volume 1687.040106
_symmetry_space_group_name_H-M "P 2/M"
_symmetry_group_IT_number 10
_symmetry_cell_setting 'monoclinic'
loop_
_space_group_symop_operation_xyz
x,y,z
-x,y,-z
-x,-y,-z
x,-y,z
loop_
_atom_site_type_symbol
_atom_site_label
_atom_site_fract_x
_atom_site_fract_y
_atom_site_fract_z
Si Si1 0.336024 0.132631 0.725630
Si Si2 0.567057 0.369716 0.925295
Si Si3 0.729691 0.131364 0.802715
Si Si4 0.161100 0.866347 0.756095
Si Si5 0.033868 0.871740 0.562310
Si Si6 0.090047 0.626225 0.343099
Si Si7 0.466362 0.796637 0.740019
Si Si8 0.742414 0.288100 0.290904
O O1 0.445361 0.137468 0.448808
O O2 0.307833 0.211564 0.680982
O O3 0.311402 0.000000 0.770103
O O4 0.286010 0.177831 0.002620
O O5 0.539194 0.500000 0.026028
O O6 0.667985 0.360599 0.580564
O O7 0.500000 0.318697 0.000000
O O8 0.558004 0.301685 0.087627
O O9 0.803253 0.178871 0.488994
O O10 0.756022 0.000000 0.750068
O O11 0.628347 0.135922 0.019266
O O12 0.209480 0.796185 0.738115
O O13 0.189029 0.000000 0.685738
O O14 0.053232 0.863472 0.093156
O O15 0.086120 0.750126 0.429849
O O16 0.000000 0.873793 0.500000
O O17 0.076603 0.000000 0.463243
O O18 0.090789 0.500000 0.410351
O O19 0.000000 0.626227 0.500000
O O20 0.180006 0.637038 0.998326
O O21 0.500000 0.753428 0.500000
#
# Coordination Sequence:
#
# PCOD9142759 Si02
#       8
#     4   4   4   4   4   4   4   4
#     4  10  21  34  51  79 113 145 178 221 276 334
#     4  11  23  38  52  73 106 141 181 232 282 321
#     4   9  18  33  53  77 110 146 179 219 268 326
#     4  10  18  29  51  81 108 138 176 219 270 326
#     4   9  16  29  49  78 110 136 170 222 276 325
#     4  10  20  34  53  81 111 143 182 229 281 334
#     4  10  19  35  55  75 103 143 186 222 268 328
#     4  12  20  34  54  82 107 142 181 227 273 329
#
# _framework density 18.968133000000002
#
# number of rings (size 3 to 8) (size 9 to 14) (size 15 to 20)
#    0.000    1.875    5.000    1.125    0.000    2.250 
#    0.000    0.625    0.000    0.750    0.000    4.375 
#    0.000    0.000    0.000    0.000    0.000    0.000 
#
# Total GULP energy -178251.776034 kJ/mol
# GULP energy per Si atom -5570.368001 kJ/mol
# Density = 1.892496 g / cm^3
# Si number density = 18.968133 Si / 1000 Ang^3
#
#
#
# Elastic Constant Matrix: (Units=GPa)
#
#
# Indices 1 2 3 4 5 6 
#
# 1 34.4054 21.3181 10.0387 0.0000 8.8015 0.0000
# 2 21.3181 94.2895 21.7001 0.0000 9.4401 0.0000
# 3 10.0387 21.7001 115.1026 0.0000 10.4739 0.0000
# 4 0.0000 0.0000 0.0000 11.7292 0.0000 -8.0797
# 5 8.8015 9.4401 10.4739 0.0000 28.3901 0.0000
# 6 0.0000 0.0000 0.0000 -8.0797 0.0000 8.3410
#
#
#
# Elastic Compliance Matrix: (Units=1/GPa)
#
#
# Indices 1 2 3 4 5 6 
#
# 1 0.035874 -0.007031 -0.001039 0.000000 -0.008400 0.000000
# 2 -0.007031 0.012720 -0.001654 0.000000 -0.001440 0.000000
# 3 -0.001039 -0.001654 0.009324 0.000000 -0.002568 0.000000
# 4 0.000000 0.000000 0.000000 0.256230 0.000000 0.248201
# 5 -0.008400 -0.001440 -0.002568 0.000000 0.039254 0.000000
# 6 0.000000 0.000000 0.000000 0.248201 0.000000 0.360313
#
#
# Mechanical properties :
#
#
# Convention : Reuss Voigt Hill
#
# Bulk Modulus (GPa) = 25.99369 38.87903 32.43636
# Shear Modulus (GPa) = 6.70255 22.40811 14.55533
#
# Velocity S-wave (km/s) = 1.88182 3.44081 2.77313
# Velocity P-wave (km/s) = 4.29596 6.02720 5.23366
#
# Compressibility (1/GPa) = 0.03847087
#
# Stress axis : x y z
#
# Youngs Moduli (GPa) = 27.87566 78.61650 107.25044
#
# Poissons Ratio (x) = 0.55272 0.11142
# Poissons Ratio (y) = 0.19598 0.17738
# Poissons Ratio (z) = 0.02896 0.13002
#
# Static dielectric constant tensor:
#      x y z
#    x 1.657980 0.000000 -0.009870 
#    y 0.000000 1.661270 0.000000 
#    z -0.009870 0.000000 1.695050 
# 
# From -- ./inp_files/28587.got.cif
#   From: 2010.05.17/outbox.cif.g08.bks.cpg/sg10_15_cif.got.tgz:28587.got - 2010.06.03 11:33:40.
