data_PCOD9142732
_publ_section_title
;
Structure prediction by ZEFSAII (Michael W. Deem and Ramdas Pophale) SiO2 
 PCOD9142732
Probable space group: P 2/M
;
_chemical_formula_sum "Si O2"
_cell_formula_units_Z 24
_cell_length_a 11.511164
_cell_length_b 8.536591
_cell_length_c 22.431447
_cell_angle_alpha 90.000000
_cell_angle_beta 147.588233
_cell_angle_gamma 90.000000
_cell_volume 1181.478834
_symmetry_space_group_name_H-M "P 2/M"
_symmetry_group_IT_number 10
_symmetry_cell_setting 'monoclinic'
loop_
_space_group_symop_operation_xyz
x,y,z
-x,y,-z
-x,-y,-z
x,-y,z
loop_
_atom_site_type_symbol
_atom_site_label
_atom_site_fract_x
_atom_site_fract_y
_atom_site_fract_z
Si Si1 0.003501 0.821458 0.573859
Si Si2 0.293938 0.811515 0.372353
Si Si3 0.834459 0.688431 0.170577
Si Si4 0.466325 0.685616 0.771316
Si Si5 0.526424 0.811087 0.357740
Si Si6 0.390867 0.309086 0.043673
O O1 0.216822 0.723973 0.680974
O O2 0.000000 0.829860 0.500000
O O3 0.764421 0.757196 0.484183
O O4 0.026082 0.000000 0.606338
O O5 0.500000 0.758708 0.500000
O O6 0.345859 0.762431 0.326812
O O7 0.061787 0.750929 0.291834
O O8 0.289385 0.000000 0.373021
O O9 0.839811 0.500000 0.173674
O O10 0.624218 0.736752 0.117264
O O11 0.787019 0.741112 0.081715
O O12 0.489391 0.500000 0.775906
O O13 0.509248 0.757852 0.725229
O O14 0.614751 0.743722 0.890347
O O15 0.540065 0.000000 0.363512
O O16 0.386686 0.500000 0.042588
#
# Coordination Sequence:
#
# PCOD9142732 Si02
#       6
#     4   4   4   4   4   4
#     4   8  15  28  45  66  97 137 170 199 247 306
#     4  10  22  38  55  76 106 140 174 216 261 305
#     4   9  18  37  59  77 103 139 176 213 258 312
#     4  10  18  29  50  79 104 129 169 217 259 300
#     4   9  19  35  49  68 104 143 171 203 257 314
#     4   8  17  34  56  80 107 136 167 215 270 307
#
# _framework density 20.313527000000001
#
# number of rings (size 3 to 8) (size 9 to 14) (size 15 to 20)
#    0.000    3.000    0.000    2.500    2.333    4.000 
#    0.000    5.000    0.000    5.000    0.000    0.000 
#    0.000    0.000    0.000    0.000    0.000    0.000 
#
# Total GULP energy -133795.318560 kJ/mol
# GULP energy per Si atom -5574.804940 kJ/mol
# Density = 2.026729 g / cm^3
# Si number density = 20.313527 Si / 1000 Ang^3
#
#
#
# Elastic Constant Matrix: (Units=GPa)
#
#
# Indices 1 2 3 4 5 6 
#
# 1 49.2807 8.1995 22.1546 0.0000 -10.8156 0.0000
# 2 8.1995 6.3118 6.4305 0.0000 -2.9908 0.0000
# 3 22.1546 6.4305 92.6966 0.0000 -12.6880 0.0000
# 4 0.0000 0.0000 0.0000 17.9441 0.0000 3.2914
# 5 -10.8156 -2.9908 -12.6880 0.0000 35.6135 0.0000
# 6 0.0000 0.0000 0.0000 3.2914 0.0000 15.0028
#
#
#
# Elastic Compliance Matrix: (Units=1/GPa)
#
#
# Indices 1 2 3 4 5 6 
#
# 1 0.028136 -0.030312 -0.003995 0.000000 0.004576 0.000000
# 2 -0.030312 0.207047 -0.006306 0.000000 0.005935 0.000000
# 3 -0.003995 -0.006306 0.012554 0.000000 0.002730 0.000000
# 4 0.000000 0.000000 0.000000 0.058065 0.000000 -0.012739
# 5 0.004576 0.005935 0.002730 0.000000 0.030940 0.000000
# 6 0.000000 0.000000 0.000000 -0.012739 0.000000 0.069449
#
#
# Mechanical properties :
#
#
# Convention : Reuss Voigt Hill
#
# Bulk Modulus (GPa) = 6.00564 24.65093 15.32829
# Shear Modulus (GPa) = 9.20945 21.14571 15.17758
#
# Velocity S-wave (km/s) = 2.13155 3.22990 2.73640
# Velocity P-wave (km/s) = 3.00348 5.10600 4.18880
#
# Compressibility (1/GPa) = 0.16651012
#
# Stress axis : x y z
#
# Youngs Moduli (GPa) = 35.54209 4.82982 79.65668
#
# Poissons Ratio (x) = 0.14640 0.31826
# Poissons Ratio (y) = 1.07734 0.50234
# Poissons Ratio (z) = 0.14200 0.03046
#
# Static dielectric constant tensor:
#      x y z
#    x 1.765580 0.000000 -0.023540 
#    y 0.000000 1.694340 0.000000 
#    z -0.023540 0.000000 1.737240 
# 
# From -- ./inp_files/88749.got.cif
#   From: 2010.05.17/outbox.cif.g08.bks.cpg/sg10_45_cif.got.tgz:88749.got - 2010.06.03 11:33:40.
