data_PCOD9142810
_publ_section_title
;
Structure prediction by ZEFSAII (Michael W. Deem and Ramdas Pophale) SiO2 
 PCOD9142810
Probable space group: P 2/M
;
_chemical_formula_sum "Si O2"
_cell_formula_units_Z 24
_cell_length_a 10.122294
_cell_length_b 7.422463
_cell_length_c 20.554019
_cell_angle_alpha 90.000000
_cell_angle_beta 49.001160
_cell_angle_gamma 90.000000
_cell_volume 1165.497237
_symmetry_space_group_name_H-M "P 2/M"
_symmetry_group_IT_number 10
_symmetry_cell_setting 'monoclinic'
loop_
_space_group_symop_operation_xyz
x,y,z
-x,y,-z
-x,-y,-z
x,-y,z
loop_
_atom_site_type_symbol
_atom_site_label
_atom_site_fract_x
_atom_site_fract_y
_atom_site_fract_z
Si Si1 0.651555 0.719472 0.402926
Si Si2 0.613875 0.705416 0.765575
Si Si3 0.045688 0.720127 0.277270
Si Si4 0.422381 0.791612 0.957312
Si Si5 0.657453 0.279680 0.251145
Si Si6 0.948934 0.282621 0.874876
O O1 0.500000 0.781908 0.500000
O O2 0.650065 0.500000 0.404228
O O3 0.624656 0.772443 0.336501
O O4 0.848496 0.774294 0.358504
O O5 0.649770 0.500000 0.733136
O O6 0.800690 0.785700 0.725457
O O7 0.501711 0.701694 0.868224
O O8 0.491070 0.786687 0.749761
O O9 0.051070 0.500000 0.275480
O O10 0.079500 0.773782 0.191280
O O11 0.475965 0.000000 0.936198
O O12 0.500000 0.716628 0.000000
O O13 0.213231 0.780169 0.029973
O O14 0.658437 0.500000 0.248635
O O15 0.855553 0.224109 0.168980
O O16 0.946548 0.500000 0.876738
#
# Coordination Sequence:
#
# PCOD9142810 Si02
#       6
#     4   4   4   4   4   4
#     4   8  13  24  42  65  95 124 145 176 227 274
#     4  10  18  30  47  66  91 122 156 190 222 260
#     4   8  14  24  42  64  85 118 157 182 211 266
#     4  11  22  32  44  66  93 117 153 196 231 266
#     4   8  16  28  44  67  92 119 152 188 222 264
#     4   9  16  30  48  64  86 121 160 187 217 264
#
# _framework density 20.592071000000001
#
# number of rings (size 3 to 8) (size 9 to 14) (size 15 to 20)
#    0.000    3.000    1.667    2.500    0.000    1.333 
#    0.000    5.000    0.000    5.000    0.000    0.000 
#    0.000   25.333    0.000    0.000    0.000    0.000 
#
# Total GULP energy -133908.333585 kJ/mol
# GULP energy per Si atom -5579.513899 kJ/mol
# Density = 2.054520 g / cm^3
# Si number density = 20.592071 Si / 1000 Ang^3
#
#
#
# Elastic Constant Matrix: (Units=GPa)
#
#
# Indices 1 2 3 4 5 6 
#
# 1 203.6270 4.8181 72.3198 0.0000 -23.8258 0.0000
# 2 4.8181 67.0021 -6.5781 0.0000 0.0025 0.0000
# 3 72.3198 -6.5781 121.3054 0.0000 -26.3990 0.0000
# 4 0.0000 0.0000 0.0000 -73.8637 0.0000 21.0854
# 5 -23.8258 0.0025 -26.3990 0.0000 22.1765 0.0000
# 6 0.0000 0.0000 0.0000 21.0854 0.0000 -12.9171
#
#
#
# Elastic Compliance Matrix: (Units=1/GPa)
#
#
# Indices 1 2 3 4 5 6 
#
# 1 0.006428 -0.000777 -0.003201 0.000000 0.003096 0.000000
# 2 -0.000777 0.015127 0.001486 0.000000 0.000933 0.000000
# 3 -0.003201 0.001486 0.012800 0.000000 0.011798 0.000000
# 4 0.000000 0.000000 0.000000 -0.025352 0.000000 -0.041384
# 5 0.003096 0.000933 0.011798 0.000000 0.062464 0.000000
# 6 0.000000 0.000000 0.000000 -0.041384 0.000000 -0.144971
#
#
# Mechanical properties :
#
#
# Convention : Reuss Voigt Hill
#
# Bulk Modulus (GPa) = 34.04466 59.22821 46.63644
# Shear Modulus (GPa) = -85.13450 8.50413 -38.31518
#
# Velocity S-wave (km/s) = -6.43685 2.03440 -4.31824
# Velocity P-wave (km/s) = 6.21895 5.86033 1.47172
#
# Compressibility (1/GPa) = 0.02937318
#
# Stress axis : x y z
#
# Youngs Moduli (GPa) = 155.56013 66.10845 78.12466
#
# Poissons Ratio (x) = 0.05134 0.25006
# Poissons Ratio (y) = 0.12081 -0.11612
# Poissons Ratio (z) = 0.49791 -0.09826
#
# Static dielectric constant tensor:
#      x y z
#    x 1.748860 0.000000 -0.021000 
#    y 0.000000 1.784390 0.000000 
#    z -0.021000 0.000000 1.685190 
# 
# From -- ./inp_files/33730.got.cif
#   From: 2010.05.17/outbox.cif.g08.bks.cpg/sg10_17_cif.got.tgz:33730.got - 2010.06.03 11:33:40.
