data_PCOD9142296
_publ_section_title
;
Structure prediction by ZEFSAII (Michael W. Deem and Ramdas Pophale) SiO2 
 PCOD9142296
Probable space group: P 2/M
;
_chemical_formula_sum "Si O2"
_cell_formula_units_Z 32
_cell_length_a 14.593730
_cell_length_b 7.635679
_cell_length_c 31.950267
_cell_angle_alpha 90.000000
_cell_angle_beta 151.450187
_cell_angle_gamma 90.000000
_cell_volume 1701.555234
_symmetry_space_group_name_H-M "P 2/M"
_symmetry_group_IT_number 10
_symmetry_cell_setting 'monoclinic'
loop_
_space_group_symop_operation_xyz
x,y,z
-x,y,-z
-x,-y,-z
x,-y,z
loop_
_atom_site_type_symbol
_atom_site_label
_atom_site_fract_x
_atom_site_fract_y
_atom_site_fract_z
Si Si1 0.973199 0.285963 0.818562
Si Si2 0.211142 0.298118 0.586199
Si Si3 0.149178 0.285957 0.978756
Si Si4 0.685087 0.714316 0.102269
Si Si5 0.406391 0.705437 0.297548
Si Si6 0.376206 0.196940 0.738732
Si Si7 0.222282 0.296708 0.130391
Si Si8 0.415622 0.710592 0.845571
O O1 0.966096 0.500000 0.814773
O O2 0.753072 0.222963 0.734356
O O3 0.076955 0.237488 0.903623
O O4 0.115654 0.229433 0.839045
O O5 0.191273 0.500000 0.564037
O O6 0.382953 0.218173 0.626981
O O7 0.286701 0.302498 0.664337
O O8 0.000000 0.217274 0.500000
O O9 0.146416 0.500000 0.979439
O O10 0.993151 0.226791 0.950334
O O11 0.365292 0.225653 0.069661
O O12 0.682754 0.500000 0.100853
O O13 0.666803 0.771723 0.143078
O O14 0.500000 0.767365 0.000000
O O15 0.432068 0.500000 0.318182
O O16 0.302597 0.709046 0.210429
O O17 0.607483 0.213307 0.827655
O O18 0.317708 0.243844 0.762342
O O19 0.320057 0.000000 0.707284
O O20 0.213190 0.500000 0.113335
O O21 0.422154 0.500000 0.850302
#
# Coordination Sequence:
#
# PCOD9142296 Si02
#       8
#     4   4   4   4   4   4   4   4
#     4   8  11  18  34  61  93 115 138 180 226 260
#     4   9  17  32  54  75  91 109 137 174 218 272
#     4   8  13  22  40  63  84 112 150 192 228 257
#     4   9  14  21  37  64  91 114 149 195 230 252
#     4   7  11  20  38  64  90 111 131 165 217 267
#     4  11  22  33  43  60  90 122 148 178 218 264
#     4   8  14  27  44  60  81 113 153 187 218 256
#     4  10  18  28  43  63  88 118 155 193 226 259
#
# _framework density 18.806325000000001
#
# number of rings (size 3 to 8) (size 9 to 14) (size 15 to 20)
#    0.000    3.250    1.250    3.375    0.000    0.750 
#    0.000    3.125    0.000    0.375    0.000    4.375 
#    0.000    7.000    0.000    0.000    0.000    0.000 
#
# Total GULP energy -178191.626115 kJ/mol
# GULP energy per Si atom -5568.488316 kJ/mol
# Density = 1.876352 g / cm^3
# Si number density = 18.806325 Si / 1000 Ang^3
#
#
#
# Elastic Constant Matrix: (Units=GPa)
#
#
# Indices 1 2 3 4 5 6 
#
# 1 153.9981 6.6849 61.2853 0.0000 17.8129 0.0000
# 2 6.6849 35.2861 -2.4307 0.0000 3.7179 0.0000
# 3 61.2853 -2.4307 59.3106 0.0000 26.2364 0.0000
# 4 0.0000 0.0000 0.0000 77.4944 0.0000 44.1740
# 5 17.8129 3.7179 26.2364 0.0000 29.3685 0.0000
# 6 0.0000 0.0000 0.0000 44.1740 0.0000 -133.2526
#
#
#
# Elastic Compliance Matrix: (Units=1/GPa)
#
#
# Indices 1 2 3 4 5 6 
#
# 1 0.012230 -0.004224 -0.016146 0.000000 0.007541 0.000000
# 2 -0.004224 0.030963 0.010307 0.000000 -0.010566 0.000000
# 3 -0.016146 0.010307 0.049952 0.000000 -0.036136 0.000000
# 4 0.000000 0.000000 0.000000 0.010853 0.000000 0.003598
# 5 0.007541 -0.010566 -0.036136 0.000000 0.063096 0.000000
# 6 0.000000 0.000000 0.000000 0.003598 0.000000 -0.006312
#
#
# Mechanical properties :
#
#
# Convention : Reuss Voigt Hill
#
# Bulk Modulus (GPa) = 13.69494 42.18596 27.94045
# Shear Modulus (GPa) = 24.36069 6.92575 15.64322
#
# Velocity S-wave (km/s) = 3.60300 1.92111 2.88723
# Velocity P-wave (km/s) = 4.96051 5.23463 5.09941
#
# Compressibility (1/GPa) = 0.07301966
#
# Stress axis : x y z
#
# Youngs Moduli (GPa) = 81.76391 32.29629 20.01928
#
# Poissons Ratio (x) = 0.13641 0.32324
# Poissons Ratio (y) = 0.34536 -0.20635
# Poissons Ratio (z) = 1.32020 -0.33289
#
# Static dielectric constant tensor:
#      x y z
#    x 1.696010 0.000000 0.027610 
#    y 0.000000 1.691570 0.000000 
#    z 0.027610 0.000000 1.656430 
# 
# From -- ./inp_files/95277.got.cif
#   From: 2010.05.17/outbox.cif.g08.bks.cpg/sg10_48_cif.got.tgz:95277.got - 2010.06.03 11:33:40.
