data_PCOD9142757
_publ_section_title
;
Structure prediction by ZEFSAII (Michael W. Deem and Ramdas Pophale) SiO2 
 PCOD9142757
Probable space group: P 2/M
;
_chemical_formula_sum "Si O2"
_cell_formula_units_Z 20
_cell_length_a 12.948889
_cell_length_b 7.877536
_cell_length_c 9.515497
_cell_angle_alpha 90.000000
_cell_angle_beta 52.078476
_cell_angle_gamma 90.000000
_cell_volume 765.685827
_symmetry_space_group_name_H-M "P 2/M"
_symmetry_group_IT_number 10
_symmetry_cell_setting 'monoclinic'
loop_
_space_group_symop_operation_xyz
x,y,z
-x,y,-z
-x,-y,-z
x,-y,z
loop_
_atom_site_type_symbol
_atom_site_label
_atom_site_fract_x
_atom_site_fract_y
_atom_site_fract_z
Si Si1 0.632333 0.796168 0.967275
Si Si2 0.154054 0.692160 0.890331
Si Si3 0.903112 0.299466 0.764004
Si Si4 0.197394 0.806542 0.544355
Si Si5 0.521195 0.208490 0.642807
O O1 0.597584 0.741060 0.156611
O O2 0.635056 0.000000 0.959400
O O3 0.500000 0.740787 0.000000
O O4 0.771339 0.737009 0.786685
O O5 0.212199 0.500000 0.839100
O O6 0.193866 0.795275 0.719376
O O7 0.145226 0.783189 0.048882
O O8 0.000000 0.665446 0.000000
O O9 0.906143 0.500000 0.781683
O O10 0.054466 0.255129 0.609879
O O11 0.341869 0.728482 0.405362
O O12 0.203906 0.000000 0.492296
O O13 0.500000 0.262671 0.500000
O O14 0.526110 0.000000 0.638506
#
# Coordination Sequence:
#
# PCOD9142757 Si02
#       5
#     4   4   4   4   4
#     4  10  21  38  59  81 106 140 183 227 271 323
#     4   8  15  27  43  69 106 140 171 213 261 309
#     4  10  20  34  52  75 107 145 183 223 267 322
#     4  10  18  29  51  80 108 141 180 224 273 320
#     4   9  18  33  54  83 115 141 172 221 275 322
#
# _framework density 26.120372
#
# number of rings (size 3 to 8) (size 9 to 14) (size 15 to 20)
#    0.000    2.600    0.000    3.600    0.000    6.400 
#    0.000    3.000    0.000   11.400    0.000    0.000 
#    0.000    0.000    0.000    0.000    0.000    0.000 
#
# Total GULP energy -111476.760643 kJ/mol
# GULP energy per Si atom -5573.838032 kJ/mol
# Density = 2.606092 g / cm^3
# Si number density = 26.120372 Si / 1000 Ang^3
#
#
#
# Elastic Constant Matrix: (Units=GPa)
#
#
# Indices 1 2 3 4 5 6 
#
# 1 158.6882 15.7989 74.8477 0.0000 -49.3540 0.0000
# 2 15.7989 43.4957 5.0106 0.0000 -8.1336 0.0000
# 3 74.8477 5.0106 177.8222 0.0000 -50.1895 0.0000
# 4 0.0000 0.0000 0.0000 -0.9683 0.0000 -22.1082
# 5 -49.3540 -8.1336 -50.1895 0.0000 63.2519 0.0000
# 6 0.0000 0.0000 0.0000 -22.1082 0.0000 45.1454
#
#
#
# Elastic Compliance Matrix: (Units=1/GPa)
#
#
# Indices 1 2 3 4 5 6 
#
# 1 0.009202 -0.002131 -0.002402 0.000000 0.005000 0.000000
# 2 -0.002131 0.024059 0.000803 0.000000 0.002068 0.000000
# 3 -0.002402 0.000803 0.007876 0.000000 0.004479 0.000000
# 4 0.000000 0.000000 0.000000 -0.084782 0.000000 -0.041519
# 5 0.005000 0.002068 0.004479 0.000000 0.023531 0.000000
# 6 0.000000 0.000000 0.000000 -0.041519 0.000000 0.001819
#
#
# Mechanical properties :
#
#
# Convention : Reuss Voigt Hill
#
# Bulk Modulus (GPa) = 29.69389 63.48008 46.58698
# Shear Modulus (GPa) = 12842.60137 40.44238 6441.52188
#
# Velocity S-wave (km/s) = 70.19525 3.93912 49.71363
# Velocity P-wave (km/s) = 81.12474 6.71153 57.55983
#
# Compressibility (1/GPa) = 0.03367697
#
# Stress axis : x y z
#
# Youngs Moduli (GPa) = 108.67487 41.56455 126.96773
#
# Poissons Ratio (x) = 0.08856 0.30496
# Poissons Ratio (y) = 0.23155 -0.10191
# Poissons Ratio (z) = 0.26102 -0.03336
#
# Static dielectric constant tensor:
#      x y z
#    x 2.397160 0.000000 0.173530 
#    y 0.000000 1.940910 0.000000 
#    z 0.173530 0.000000 2.152960 
# 
# From -- ./inp_files/44920.got.cif
#   From: 2010.05.17/outbox.cif.g08.bks.cpg/sg10_23_cif.got.tgz:44920.got - 2010.06.03 11:33:40.
