data_PCOD9142578
_publ_section_title
;
Structure prediction by ZEFSAII (Michael W. Deem and Ramdas Pophale) SiO2 
 PCOD9142578
Probable space group: P 2/M
;
_chemical_formula_sum "Si O2"
_cell_formula_units_Z 28
_cell_length_a 13.711449
_cell_length_b 8.235223
_cell_length_c 13.770276
_cell_angle_alpha 90.000000
_cell_angle_beta 60.686230
_cell_angle_gamma 90.000000
_cell_volume 1355.794154
_symmetry_space_group_name_H-M "P 2/M"
_symmetry_group_IT_number 10
_symmetry_cell_setting 'monoclinic'
loop_
_space_group_symop_operation_xyz
x,y,z
-x,y,-z
-x,-y,-z
x,-y,z
loop_
_atom_site_type_symbol
_atom_site_label
_atom_site_fract_x
_atom_site_fract_y
_atom_site_fract_z
Si Si1 0.679255 0.802934 0.057689
Si Si2 0.734980 0.190142 0.521179
Si Si3 0.935636 0.804425 0.936237
Si Si4 0.475657 0.809291 0.268272
Si Si5 0.356193 0.312065 0.136981
Si Si6 0.940653 0.307399 0.317108
Si Si7 0.865372 0.690108 0.643012
O O1 0.599742 0.744872 0.184750
O O2 0.678402 0.000000 0.059083
O O3 0.807290 0.745443 0.998724
O O4 0.628328 0.747128 0.979620
O O5 0.612373 0.259840 0.609985
O O6 0.811785 0.265606 0.400159
O O7 0.808350 0.215420 0.583073
O O8 0.723166 0.000000 0.506802
O O9 0.005716 0.761140 0.806603
O O10 0.929772 0.000000 0.943796
O O11 0.000000 0.744231 0.000000
O O12 0.414921 0.788908 0.193381
O O13 0.486025 0.000000 0.285520
O O14 0.390295 0.500000 0.130973
O O15 0.224080 0.303072 0.225831
O O16 0.953893 0.500000 0.308712
O O17 0.018097 0.249948 0.370057
O O18 0.874648 0.500000 0.608198
#
# Coordination Sequence:
#
# PCOD9142578 Si02
#       7
#     4   4   4   4   4   4   4
#     4  10  19  33  53  73 101 137 171 213 264 313
#     4  10  20  32  49  75 106 140 178 212 246 301
#     4  10  22  39  59  82 103 128 172 227 274 314
#     4   9  19  33  48  72 106 143 176 206 249 306
#     4  10  18  29  46  73 107 141 176 210 248 301
#     4  11  21  35  54  75 104 139 173 213 264 316
#     4   9  18  31  46  70 106 142 174 209 251 304
#
# _framework density 20.652103
#
# number of rings (size 3 to 8) (size 9 to 14) (size 15 to 20)
#    0.000    2.143    1.429    2.143    0.000    6.571 
#    0.000    0.000    0.000    0.857    0.000    6.000 
#    0.000    0.000    0.000    0.000    0.000    0.000 
#
# Total GULP energy -156177.825192 kJ/mol
# GULP energy per Si atom -5577.779471 kJ/mol
# Density = 2.060510 g / cm^3
# Si number density = 20.652103 Si / 1000 Ang^3
#
#
#
# Elastic Constant Matrix: (Units=GPa)
#
#
# Indices 1 2 3 4 5 6 
#
# 1 46.9813 -2.4665 50.9272 0.0000 -22.0194 0.0000
# 2 -2.4665 10.3222 -1.1536 0.0000 -1.4560 0.0000
# 3 50.9272 -1.1536 101.6427 0.0000 -48.0775 0.0000
# 4 0.0000 0.0000 0.0000 39.4784 0.0000 -3.9028
# 5 -22.0194 -1.4560 -48.0775 0.0000 39.5552 0.0000
# 6 0.0000 0.0000 0.0000 -3.9028 0.0000 7.4188
#
#
#
# Elastic Compliance Matrix: (Units=1/GPa)
#
#
# Indices 1 2 3 4 5 6 
#
# 1 0.047751 0.007786 -0.026178 0.000000 -0.004950 0.000000
# 2 0.007786 0.100566 0.002450 0.000000 0.011013 0.000000
# 3 -0.026178 0.002450 0.037951 0.000000 0.031645 0.000000
# 4 0.000000 0.000000 0.000000 0.026720 0.000000 0.014057
# 5 -0.004950 0.011013 0.031645 0.000000 0.061394 0.000000
# 6 0.000000 0.000000 0.000000 0.014057 0.000000 0.142188
#
#
# Mechanical properties :
#
#
# Convention : Reuss Voigt Hill
#
# Bulk Modulus (GPa) = 6.47741 28.17338 17.32539
# Shear Modulus (GPa) = 10.00170 24.73307 17.36739
#
# Velocity S-wave (km/s) = 2.20306 3.46440 2.90306
# Velocity P-wave (km/s) = 3.10073 5.44741 4.43220
#
# Compressibility (1/GPa) = 0.15438279
#
# Stress axis : x y z
#
# Youngs Moduli (GPa) = 20.94217 9.94367 26.35003
#
# Poissons Ratio (x) = -0.07742 0.68979
# Poissons Ratio (y) = -0.16306 -0.06455
# Poissons Ratio (z) = 0.54823 -0.02436
#
# Static dielectric constant tensor:
#      x y z
#    x 1.764390 0.000000 -0.075620 
#    y 0.000000 1.709920 0.000000 
#    z -0.075620 0.000000 1.783730 
# 
# From -- ./inp_files/49647.got.cif
#   From: 2010.05.17/outbox.cif.g08.bks.cpg/sg10_25_cif.got.tgz:49647.got - 2010.06.03 11:33:40.
