data_PCOD9142547
_publ_section_title
;
Structure prediction by ZEFSAII (Michael W. Deem and Ramdas Pophale) SiO2 
 PCOD9142547
Probable space group: P 2/M
;
_chemical_formula_sum "Si O2"
_cell_formula_units_Z 28
_cell_length_a 19.560911
_cell_length_b 7.593334
_cell_length_c 18.277940
_cell_angle_alpha 90.000000
_cell_angle_beta 149.527111
_cell_angle_gamma 90.000000
_cell_volume 1376.792994
_symmetry_space_group_name_H-M "P 2/M"
_symmetry_group_IT_number 10
_symmetry_cell_setting 'monoclinic'
loop_
_space_group_symop_operation_xyz
x,y,z
-x,y,-z
-x,-y,-z
x,-y,z
loop_
_atom_site_type_symbol
_atom_site_label
_atom_site_fract_x
_atom_site_fract_y
_atom_site_fract_z
Si Si1 0.099955 0.288490 0.527025
Si Si2 0.353095 0.701457 0.842178
Si Si3 0.011802 0.714918 0.095254
Si Si4 0.305307 0.714535 0.364015
Si Si5 0.845428 0.201279 0.214396
Si Si6 0.421232 0.714743 0.315367
Si Si7 0.223953 0.286596 0.014100
O O1 0.109172 0.500000 0.539562
O O2 0.251261 0.222575 0.685349
O O3 0.000000 0.227623 0.500000
O O4 0.004481 0.248127 0.369731
O O5 0.383323 0.500000 0.847280
O O6 0.254119 0.698310 0.821665
O O7 0.500000 0.779473 0.000000
O O8 0.004833 0.500000 0.087691
O O9 0.159952 0.770012 0.256697
O O10 0.896737 0.773167 0.044024
O O11 0.000000 0.770941 0.000000
O O12 0.307528 0.500000 0.365754
O O13 0.332654 0.765833 0.304793
O O14 0.428904 0.774421 0.527484
O O15 0.797131 0.225345 0.087293
O O16 0.830358 0.000000 0.222245
O O17 0.420964 0.500000 0.314795
O O18 0.357804 0.771584 0.180664
O O19 0.223019 0.500000 0.011239
#
# Coordination Sequence:
#
# PCOD9142547 Si02
#       7
#     4   4   4   4   4   4   4
#     4   8  15  31  55  79 102 128 161 200 243 292
#     4   9  18  35  60  86 106 126 158 204 252 299
#     4   9  14  22  39  65  91 115 152 203 253 296
#     4   8  12  20  35  61  91 111 143 197 255 303
#     4  11  22  34  49  72 105 142 175 205 241 293
#     4   8  13  21  37  61  89 118 146 192 252 303
#     4  10  18  29  46  67  94 128 164 206 256 300
#
# _framework density 20.337116999999999
#
# number of rings (size 3 to 8) (size 9 to 14) (size 15 to 20)
#    0.000    3.000    1.429    3.000    0.000    2.857 
#    0.000    1.429    0.000    5.571    0.000    2.000 
#    0.000    0.000    0.000    0.000    0.000    0.000 
#
# Total GULP energy -155909.627692 kJ/mol
# GULP energy per Si atom -5568.200989 kJ/mol
# Density = 2.029083 g / cm^3
# Si number density = 20.337117 Si / 1000 Ang^3
#
#
#
# Elastic Constant Matrix: (Units=GPa)
#
#
# Indices 1 2 3 4 5 6 
#
# 1 35.2834 -3.9629 34.2552 0.0000 -5.6019 0.0000
# 2 -3.9629 49.9566 5.1392 0.0000 1.2544 0.0000
# 3 34.2552 5.1392 186.6207 0.0000 -3.7682 0.0000
# 4 0.0000 0.0000 0.0000 -91.3149 0.0000 56.4638
# 5 -5.6019 1.2544 -3.7682 0.0000 35.0484 0.0000
# 6 0.0000 0.0000 0.0000 56.4638 0.0000 -53.8790
#
#
#
# Elastic Compliance Matrix: (Units=1/GPa)
#
#
# Indices 1 2 3 4 5 6 
#
# 1 0.035894 0.003401 -0.006583 0.000000 0.004908 0.000000
# 2 0.003401 0.020418 -0.001193 0.000000 -0.000315 0.000000
# 3 -0.006583 -0.001193 0.006594 0.000000 -0.000301 0.000000
# 4 0.000000 0.000000 0.000000 -0.031112 0.000000 -0.032604
# 5 0.004908 -0.000315 -0.000301 0.000000 0.029295 0.000000
# 6 0.000000 0.000000 0.000000 -0.032604 0.000000 -0.052728
#
#
# Mechanical properties :
#
#
# Convention : Reuss Voigt Hill
#
# Bulk Modulus (GPa) = 18.46506 38.08042 28.27274
# Shear Modulus (GPa) = 142.19457 -6.26717 67.96370
#
# Velocity S-wave (km/s) = 8.37081 -1.75736 5.78715
# Velocity P-wave (km/s) = 10.12554 3.82720 7.65422
#
# Compressibility (1/GPa) = 0.05415633
#
# Stress axis : x y z
#
# Youngs Moduli (GPa) = 27.85943 48.97682 151.66162
#
# Poissons Ratio (x) = -0.16659 0.99842
# Poissons Ratio (y) = -0.09476 0.18093
# Poissons Ratio (z) = 0.18340 0.05843
#
# Static dielectric constant tensor:
#      x y z
#    x 1.680300 0.000000 0.012380 
#    y 0.000000 1.778370 0.000000 
#    z 0.012380 0.000000 1.801540 
# 
# From -- ./inp_files/79301.got.cif
#   From: 2010.05.17/outbox.cif.g08.bks.cpg/sg10_40_cif.got.tgz:79301.got - 2010.06.03 11:33:40.
