data_PCOD9142282
_publ_section_title
;
Structure prediction by ZEFSAII (Michael W. Deem and Ramdas Pophale) SiO2 
 PCOD9142282
Probable space group: P 2/M
;
_chemical_formula_sum "Si O2"
_cell_formula_units_Z 22
_cell_length_a 9.471997
_cell_length_b 8.438593
_cell_length_c 10.176404
_cell_angle_alpha 90.000000
_cell_angle_beta 100.903798
_cell_angle_gamma 90.000000
_cell_volume 798.718265
_symmetry_space_group_name_H-M "P 2/M"
_symmetry_group_IT_number 10
_symmetry_cell_setting 'monoclinic'
loop_
_space_group_symop_operation_xyz
x,y,z
-x,y,-z
-x,-y,-z
x,-y,z
loop_
_atom_site_type_symbol
_atom_site_label
_atom_site_fract_x
_atom_site_fract_y
_atom_site_fract_z
Si Si1 0.336882 0.305444 0.012755
Si Si2 0.369001 0.500000 0.351124
Si Si3 0.170049 0.500000 0.569797
Si Si4 0.633593 0.824425 0.692913
Si Si5 0.942911 0.174477 0.140744
Si Si6 0.826396 0.168051 0.463442
Si Si7 0.068616 0.500000 0.161054
O O1 0.313831 0.500000 0.997257
O O2 0.315623 0.214358 0.149945
O O3 0.500000 0.281197 0.000000
O O4 0.223834 0.215155 0.902606
O O5 0.454772 0.662791 0.350304
O O6 0.275097 0.500000 0.463501
O O7 0.237678 0.500000 0.222396
O O8 0.204050 0.324908 0.626529
O O9 0.000000 0.500000 0.500000
O O10 0.752542 0.823282 0.596066
O O11 0.568981 0.000000 0.676943
O O12 0.014022 0.334535 0.209648
O O13 0.974135 0.000000 0.203191
O O14 0.000000 0.167911 0.000000
O O15 0.000000 0.163077 0.500000
O O16 0.775986 0.000000 0.399195
O O17 0.000000 0.500000 0.000000
#
# Coordination Sequence:
#
# PCOD9142282 Si02
#       7
#     4   2   2   4   4   4   2
#     4  11  22  35  50  68  94 131 171 209 248 287
#     4  10  18  28  44  65  93 124 159 200 239 284
#     4   8  14  24  38  58  85 120 153 184 229 288
#     4  10  18  28  44  64  88 123 160 194 236 285
#     4  10  20  33  50  68  88 121 163 204 247 290
#     4   8  14  24  38  58  84 114 147 184 228 284
#     4  10  18  28  42  61  89 118 153 200 241 276
#
# _framework density 27.544129999999999
#
# number of rings (size 3 to 8) (size 9 to 14) (size 15 to 20)
#    0.000    2.364    1.818    2.727    0.000    3.636 
#    0.000    0.000    0.000    0.000    0.000    0.000 
#    0.000    0.000    0.000   67.091    0.000  308.545 
#
# Total GULP energy -122681.733381 kJ/mol
# GULP energy per Si atom -5576.442426 kJ/mol
# Density = 2.748144 g / cm^3
# Si number density = 27.544130 Si / 1000 Ang^3
#
#
#
# Elastic Constant Matrix: (Units=GPa)
#
#
# Indices 1 2 3 4 5 6 
#
# 1 123.6523 42.3202 10.4996 0.0000 3.9469 0.0000
# 2 42.3202 359.5795 24.1146 0.0000 0.5638 0.0000
# 3 10.4996 24.1146 118.7090 0.0000 -14.3646 0.0000
# 4 0.0000 0.0000 0.0000 -7.1668 0.0000 -25.3655
# 5 3.9469 0.5638 -14.3646 0.0000 34.0179 0.0000
# 6 0.0000 0.0000 0.0000 -25.3655 0.0000 -18.5670
#
#
#
# Elastic Compliance Matrix: (Units=1/GPa)
#
#
# Indices 1 2 3 4 5 6 
#
# 1 0.008514 -0.000952 -0.000714 0.000000 -0.001273 0.000000
# 2 -0.000952 0.002929 -0.000530 0.000000 -0.000162 0.000000
# 3 -0.000714 -0.000530 0.009069 0.000000 0.003921 0.000000
# 4 0.000000 0.000000 0.000000 0.036381 0.000000 -0.049703
# 5 -0.001273 -0.000162 0.003921 0.000000 0.031203 0.000000
# 6 0.000000 0.000000 0.000000 -0.049703 0.000000 0.014043
#
#
# Mechanical properties :
#
#
# Convention : Reuss Voigt Hill
#
# Bulk Modulus (GPa) = 62.03498 83.97883 73.00690
# Shear Modulus (GPa) = 44.68044 36.65725 40.66885
#
# Velocity S-wave (km/s) = 4.03195 3.65205 3.84669
# Velocity P-wave (km/s) = 6.65180 6.95257 6.80385
#
# Compressibility (1/GPa) = 0.01611994
#
# Stress axis : x y z
#
# Youngs Moduli (GPa) = 117.44879 341.42293 110.26167
#
# Poissons Ratio (x) = 0.32511 0.07870
# Poissons Ratio (y) = 0.11184 0.05848
# Poissons Ratio (z) = 0.08383 0.18108
#
# Static dielectric constant tensor:
#      x y z
#    x 2.080810 0.000000 -0.031130 
#    y 0.000000 2.253370 0.000000 
#    z -0.031130 0.000000 2.225500 
# 
# From -- ./inp_files/60245.got.cif
#   From: 2010.05.17/outbox.cif.g08.bks.cpg/sg10_31_cif.got.tgz:60245.got - 2010.06.03 11:33:40.
