data_PCOD9142663
_publ_section_title
;
Structure prediction by ZEFSAII (Michael W. Deem and Ramdas Pophale) SiO2 
 PCOD9142663
Probable space group: P 2/M
;
_chemical_formula_sum "Si O2"
_cell_formula_units_Z 28
_cell_length_a 14.010567
_cell_length_b 14.724442
_cell_length_c 7.704367
_cell_angle_alpha 90.000000
_cell_angle_beta 74.041145
_cell_angle_gamma 90.000000
_cell_volume 1528.137606
_symmetry_space_group_name_H-M "P 2/M"
_symmetry_group_IT_number 10
_symmetry_cell_setting 'monoclinic'
loop_
_space_group_symop_operation_xyz
x,y,z
-x,y,-z
-x,-y,-z
x,-y,z
loop_
_atom_site_type_symbol
_atom_site_label
_atom_site_fract_x
_atom_site_fract_y
_atom_site_fract_z
Si Si1 0.886443 0.898385 0.347706
Si Si2 1.000000 0.605485 0.787390
Si Si3 0.197147 0.709094 0.694437
Si Si4 0.886447 0.101615 0.765857
Si Si5 0.389131 0.395986 0.596712
Si Si6 0.197147 0.290905 0.108410
Si Si7 0.610869 0.395986 0.985846
O O1 0.817190 0.815703 0.329459
O O2 0.889005 0.899912 0.555501
O O3 0.999997 0.880563 0.230479
O O4 0.858304 0.000000 0.302884
O O5 0.000001 0.500000 0.263034
O O6 0.099159 0.656869 0.676797
O O7 0.900840 0.656869 0.775959
O O8 0.000000 0.607923 0.000000
O O9 0.299038 0.665754 0.575554
O O10 0.197324 0.695213 0.901335
O O11 0.817193 0.184295 0.853360
O O12 0.858310 0.000000 0.838820
O O13 0.500000 0.363139 0.500000
O O14 0.379668 0.500000 0.536673
O O15 0.381978 0.399456 0.809009
O O16 0.299038 0.334243 0.125403
O O17 0.620335 0.500000 0.916342
O O18 0.500000 0.363141 0.000000
#
# Coordination Sequence:
#
# PCOD9142663 Si02
#       7
#     4   4   4   4   4   4   4
#     4   9  18  32  48  67  95 129 159 189 233 288
#     4   9  16  26  42  67  98 126 149 181 230 281
#     4  10  18  29  48  73  96 122 158 197 234 276
#     4   9  18  32  48  67  95 129 159 189 233 288
#     4   9  18  32  49  70  96 127 163 198 232 275
#     4  10  18  29  48  73  96 122 158 197 234 276
#     4   9  18  32  49  70  96 127 163 198 232 275
#
# _framework density 18.322956000000001
#
# number of rings (size 3 to 8) (size 9 to 14) (size 15 to 20)
#    0.000    2.714    1.429    1.714    0.000    5.143 
#    0.000    1.429    0.000    4.286    0.000    0.000 
#    0.000    0.000    0.000    0.000    0.000    0.000 
#
# Total GULP energy -156156.091401 kJ/mol
# GULP energy per Si atom -5577.003264 kJ/mol
# Density = 1.828125 g / cm^3
# Si number density = 18.322956 Si / 1000 Ang^3
#
#
#
# Elastic Constant Matrix: (Units=GPa)
#
#
# Indices 1 2 3 4 5 6 
#
# 1 142.5534 93.6551 22.1647 0.0000 -38.7265 0.0000
# 2 93.6551 136.2908 12.5730 0.0000 -36.0946 0.0000
# 3 22.1647 12.5730 33.3753 0.0000 -9.8761 0.0000
# 4 0.0000 0.0000 0.0000 -102.3421 0.0000 -48.8634
# 5 -38.7265 -36.0946 -9.8761 0.0000 29.5401 0.0000
# 6 0.0000 0.0000 0.0000 -48.8634 0.0000 7.4765
#
#
#
# Elastic Compliance Matrix: (Units=1/GPa)
#
#
# Indices 1 2 3 4 5 6 
#
# 1 0.015192 -0.007611 -0.004528 0.000000 0.009103 0.000000
# 2 -0.007611 0.014662 0.002086 0.000000 0.008634 0.000000
# 3 -0.004528 0.002086 0.034605 0.000000 0.008182 0.000000
# 4 0.000000 0.000000 0.000000 -0.002371 0.000000 -0.015498
# 5 0.009103 0.008634 0.008182 0.000000 0.059071 0.000000
# 6 0.000000 0.000000 0.000000 -0.015498 0.000000 0.032461
#
#
# Mechanical properties :
#
#
# Convention : Reuss Voigt Hill
#
# Bulk Modulus (GPa) = 22.54688 63.22281 42.88484
# Shear Modulus (GPa) = 26.52376 -0.80999 12.85689
#
# Velocity S-wave (km/s) = 3.80882 -0.66560 2.65180
# Velocity P-wave (km/s) = 5.62804 5.83000 5.72991
#
# Compressibility (1/GPa) = 0.04435203
#
# Stress axis : x y z
#
# Youngs Moduli (GPa) = 65.82245 68.20520 28.89773
#
# Poissons Ratio (x) = 0.51913 0.13086
# Poissons Ratio (y) = 0.50099 -0.06029
# Poissons Ratio (z) = 0.29807 -0.14230
#
# Static dielectric constant tensor:
#      x y z
#    x 1.632290 0.000000 0.022160 
#    y 0.000000 1.626720 0.000000 
#    z 0.022160 0.000000 1.682070 
# 
# From -- ./inp_files/24877.got.cif
#   From: 2010.05.17/outbox.cif.g08.bks.cpg/sg10_13_cif.got.tgz:24877.got - 2010.06.03 11:33:40.
