data_PCOD9142138
_publ_section_title
;
Structure prediction by ZEFSAII (Michael W. Deem and Ramdas Pophale) SiO2 
 PCOD9142138
Probable space group: P 2/M
;
_chemical_formula_sum "Si O2"
_cell_formula_units_Z 28
_cell_length_a 22.018035
_cell_length_b 7.639988
_cell_length_c 16.532551
_cell_angle_alpha 90.000000
_cell_angle_beta 151.884231
_cell_angle_gamma 90.000000
_cell_volume 1310.589691
_symmetry_space_group_name_H-M "P 2/M"
_symmetry_group_IT_number 10
_symmetry_cell_setting 'monoclinic'
loop_
_space_group_symop_operation_xyz
x,y,z
-x,y,-z
-x,-y,-z
x,-y,z
loop_
_atom_site_type_symbol
_atom_site_label
_atom_site_fract_x
_atom_site_fract_y
_atom_site_fract_z
Si Si1 0.039354 0.290324 0.401683
Si Si2 0.131610 0.000000 0.206371
Si Si3 0.551718 0.696669 0.759265
Si Si4 0.242782 0.207765 0.888730
Si Si5 0.380042 0.788161 0.707844
Si Si6 0.566113 0.000000 0.489269
Si Si7 0.111845 0.301275 0.315203
Si Si8 0.687816 0.202296 0.202799
O O1 0.056664 0.500000 0.424445
O O2 0.909232 0.239705 0.293352
O O3 0.026702 0.240165 0.291816
O O4 0.166044 0.207420 0.590108
O O5 0.275439 0.000000 0.332744
O O6 0.120822 0.830573 0.251620
O O7 0.000000 0.000000 0.000000
O O8 0.524487 0.500000 0.701144
O O9 0.486970 0.738197 0.769561
O O10 0.491490 0.833138 0.626344
O O11 0.700064 0.716659 0.960658
O O12 0.302373 0.281125 0.874890
O O13 0.267414 0.000000 0.920240
O O14 0.252291 0.703079 0.521276
O O15 0.393642 0.729017 0.816503
O O16 0.365745 0.000000 0.690941
O O17 0.500000 0.000000 0.500000
O O18 0.078195 0.500000 0.252269
O O19 0.648708 0.000000 0.145461
#
# Coordination Sequence:
#
# PCOD9142138 Si02
#       8
#     4   2   4   4   4   2   4   4
#     4  10  21  34  55  87 125 174 224 273 327 379
#     4  12  26  44  72 105 127 162 210 262 330 406
#     4  12  24  43  70  95 125 171 218 264 326 398
#     4  11  22  37  56  88 133 179 226 275 321 383
#     4  10  17  36  65  91 123 170 219 261 312 375
#     4  12  28  52  74 102 136 170 208 265 345 412
#     4  10  20  38  64  93 125 164 211 262 316 381
#     4   9  20  34  56  88 127 177 226 271 326 374
#
# _framework density 21.364429000000001
#
# number of rings (size 3 to 8) (size 9 to 14) (size 15 to 20)
#    0.000    1.429    3.571    1.714    2.000    5.714 
#    0.000    2.857    0.000    0.000    0.000    0.000 
#    0.000    0.000    0.000    0.000    0.000    0.000 
#
# Total GULP energy -156333.975160 kJ/mol
# GULP energy per Si atom -5583.356256 kJ/mol
# Density = 2.131580 g / cm^3
# Si number density = 21.364429 Si / 1000 Ang^3
#
#
#
# Elastic Constant Matrix: (Units=GPa)
#
#
# Indices 1 2 3 4 5 6 
#
# 1 130.8302 32.8804 53.7879 0.0000 -15.6023 0.0000
# 2 32.8804 117.6902 26.3233 0.0000 -15.4017 0.0000
# 3 53.7879 26.3233 101.1107 0.0000 -18.8105 0.0000
# 4 0.0000 0.0000 0.0000 -7.2464 0.0000 12.2791
# 5 -15.6023 -15.4017 -18.8105 0.0000 24.1880 0.0000
# 6 0.0000 0.0000 0.0000 12.2791 0.0000 5.8255
#
#
#
# Elastic Compliance Matrix: (Units=1/GPa)
#
#
# Indices 1 2 3 4 5 6 
#
# 1 0.010176 -0.001547 -0.004645 0.000000 0.001967 0.000000
# 2 -0.001547 0.009713 -0.000866 0.000000 0.004514 0.000000
# 3 -0.004645 -0.000866 0.013944 0.000000 0.007296 0.000000
# 4 0.000000 0.000000 0.000000 -0.030186 0.000000 0.063625
# 5 0.001967 0.004514 0.007296 0.000000 0.051160 0.000000
# 6 0.000000 0.000000 0.000000 0.063625 0.000000 0.037548
#
#
# Mechanical properties :
#
#
# Convention : Reuss Voigt Hill
#
# Bulk Modulus (GPa) = 50.71515 63.95715 57.33615
# Shear Modulus (GPa) = 44.23017 20.32938 32.27977
#
# Velocity S-wave (km/s) = 4.55496 3.08807 3.89126
# Velocity P-wave (km/s) = 7.17309 6.53576 6.86183
#
# Compressibility (1/GPa) = 0.01971797
#
# Stress axis : x y z
#
# Youngs Moduli (GPa) = 98.26576 102.94991 71.71523
#
# Poissons Ratio (x) = 0.15924 0.33311
# Poissons Ratio (y) = 0.15199 0.06213
# Poissons Ratio (z) = 0.45644 0.08918
#
# Static dielectric constant tensor:
#      x y z
#    x 1.830220 0.000000 0.059590 
#    y 0.000000 1.792300 0.000000 
#    z 0.059590 0.000000 1.824720 
# 
# From -- ./inp_files/70338.got.cif
#   From: 2010.05.17/outbox.cif.g08.bks.cpg/sg10_36_cif.got.tgz:70338.got - 2010.06.03 11:33:40.
