data_PCOD9142559
_publ_section_title
;
Structure prediction by ZEFSAII (Michael W. Deem and Ramdas Pophale) SiO2 
 PCOD9142559
Probable space group: P 2/M
;
_chemical_formula_sum "Si O2"
_cell_formula_units_Z 24
_cell_length_a 25.073010
_cell_length_b 8.272843
_cell_length_c 18.984196
_cell_angle_alpha 90.000000
_cell_angle_beta 160.772652
_cell_angle_gamma 90.000000
_cell_volume 1296.785383
_symmetry_space_group_name_H-M "P 2/M"
_symmetry_group_IT_number 10
_symmetry_cell_setting 'monoclinic'
loop_
_space_group_symop_operation_xyz
x,y,z
-x,y,-z
-x,-y,-z
x,-y,z
loop_
_atom_site_type_symbol
_atom_site_label
_atom_site_fract_x
_atom_site_fract_y
_atom_site_fract_z
Si Si1 0.661952 0.697350 0.416470
Si Si2 0.170801 0.688388 0.510166
Si Si3 0.665251 0.308300 0.917038
Si Si4 0.025350 0.808534 0.611257
Si Si5 0.010384 0.695374 0.093862
Si Si6 0.136568 0.188412 0.956281
O O1 0.660508 0.500000 0.412437
O O2 0.693415 0.750802 0.374968
O O3 0.496505 0.751584 0.246136
O O4 0.817098 0.744230 0.656989
O O5 0.199012 0.500000 0.559894
O O6 0.128670 0.774824 0.530501
O O7 0.006172 0.707954 0.258717
O O8 0.650893 0.500000 0.888432
O O9 0.704757 0.228214 0.891033
O O10 0.819335 0.273312 0.159005
O O11 0.000000 0.751407 0.500000
O O12 0.055181 0.000000 0.647583
O O13 0.000235 0.500000 0.083556
O O14 0.872655 0.765917 0.973477
O O15 0.000000 0.746552 0.000000
O O16 0.097341 0.000000 0.898120
#
# Coordination Sequence:
#
# PCOD9142559 Si02
#       6
#     4   4   4   4   4   4
#     4   8  16  30  49  74  96 117 153 199 238 273
#     4   9  16  30  51  71  92 121 160 196 229 277
#     4  10  18  31  51  71  94 123 157 195 233 277
#     4  10  20  33  48  69  97 125 156 194 234 279
#     4   9  17  32  53  73  94 123 160 198 234 275
#     4  10  18  29  46  69  97 126 158 192 230 280
#
# _framework density 18.507303
#
# number of rings (size 3 to 8) (size 9 to 14) (size 15 to 20)
#    0.000    2.667    0.000    6.000    0.000    1.667 
#    0.000   10.000    0.000   10.000    0.000    0.000 
#    0.000    0.000    0.000    0.000    0.000    0.000 
#
# Total GULP energy -133712.323447 kJ/mol
# GULP energy per Si atom -5571.346810 kJ/mol
# Density = 1.846518 g / cm^3
# Si number density = 18.507303 Si / 1000 Ang^3
#
#
#
# Elastic Constant Matrix: (Units=GPa)
#
#
# Indices 1 2 3 4 5 6 
#
# 1 208.4732 10.6856 55.8085 0.0000 14.4104 0.0000
# 2 10.6856 22.0223 3.9565 0.0000 -0.2315 0.0000
# 3 55.8085 3.9565 37.3589 0.0000 15.0940 0.0000
# 4 0.0000 0.0000 0.0000 -2.8670 0.0000 -27.8337
# 5 14.4104 -0.2315 15.0940 0.0000 34.2712 0.0000
# 6 0.0000 0.0000 0.0000 -27.8337 0.0000 93.9673
#
#
#
# Elastic Compliance Matrix: (Units=1/GPa)
#
#
# Indices 1 2 3 4 5 6 
#
# 1 0.008203 -0.001621 -0.012996 0.000000 0.002264 0.000000
# 2 -0.001621 0.046866 -0.003582 0.000000 0.002576 0.000000
# 3 -0.012996 -0.003582 0.053966 0.000000 -0.018328 0.000000
# 4 0.000000 0.000000 0.000000 -0.089997 0.000000 -0.026658
# 5 0.002264 0.002576 -0.018328 0.000000 0.036316 0.000000
# 6 0.000000 0.000000 0.000000 -0.026658 0.000000 0.002746
#
#
# Mechanical properties :
#
#
# Convention : Reuss Voigt Hill
#
# Bulk Modulus (GPa) = 13.76746 45.41727 29.59237
# Shear Modulus (GPa) = 42.11917 38.23455 40.17686
#
# Velocity S-wave (km/s) = 4.77572 4.55017 4.66431
# Velocity P-wave (km/s) = 6.15347 7.22488 6.71059
#
# Compressibility (1/GPa) = 0.07263503
#
# Stress axis : x y z
#
# Youngs Moduli (GPa) = 121.91403 21.33752 18.53021
#
# Poissons Ratio (x) = 0.03459 0.24082
# Poissons Ratio (y) = 0.19766 0.06638
# Poissons Ratio (z) = 1.58443 0.07643
#
# Static dielectric constant tensor:
#      x y z
#    x 1.697140 0.000000 0.020630 
#    y 0.000000 1.632100 0.000000 
#    z 0.020630 0.000000 1.619340 
# 
# From -- ./inp_files/35635.got.cif
#   From: 2010.05.17/outbox.cif.g08.bks.cpg/sg10_18_cif.got.tgz:35635.got - 2010.06.03 11:33:40.
