data_PCOD9142430
_publ_section_title
;
Structure prediction by ZEFSAII (Michael W. Deem and Ramdas Pophale) SiO2 
 PCOD9142430
Probable space group: P 2/M
;
_chemical_formula_sum "Si O2"
_cell_formula_units_Z 30
_cell_length_a 17.588988
_cell_length_b 13.776529
_cell_length_c 14.199286
_cell_angle_alpha 90.000000
_cell_angle_beta 147.430116
_cell_angle_gamma 90.000000
_cell_volume 1852.226345
_symmetry_space_group_name_H-M "P 2/M"
_symmetry_group_IT_number 10
_symmetry_cell_setting 'monoclinic'
loop_
_space_group_symop_operation_xyz
x,y,z
-x,y,-z
-x,-y,-z
x,-y,z
loop_
_atom_site_type_symbol
_atom_site_label
_atom_site_fract_x
_atom_site_fract_y
_atom_site_fract_z
Si Si1 0.500000 0.747298 0.500000
Si Si2 0.761909 0.385786 0.723068
Si Si3 0.807644 0.884362 0.465164
Si Si4 0.207883 0.116370 0.766971
Si Si5 0.494714 0.887140 0.144984
Si Si6 0.078632 0.797771 0.818478
Si Si7 0.966496 0.386930 0.117341
Si Si8 0.657139 0.887622 0.810513
O O1 0.377513 0.680113 0.418315
O O2 0.579241 0.816527 0.657319
O O3 0.724472 0.500000 0.674966
O O4 0.878975 0.363048 0.765142
O O5 0.851313 0.375258 0.913465
O O6 0.845701 0.870743 0.394576
O O7 0.649756 0.843178 0.310627
O O8 0.919977 0.837359 0.651471
O O9 0.809738 0.000000 0.484637
O O10 0.134805 0.176494 0.773043
O O11 0.196819 0.000000 0.778109
O O12 0.373479 0.144988 0.946410
O O13 0.424232 0.882769 0.174317
O O14 0.519137 0.000000 0.145642
O O15 0.074168 0.685914 0.842489
O O16 0.184170 0.852347 0.000300
O O17 0.967327 0.500000 0.145029
O O18 0.656327 0.000000 0.778488
#
# Coordination Sequence:
#
# PCOD9142430 Si02
#       8
#     2   4   4   4   4   4   4   4
#     4  12  20  32  56  76  98 132 170 200 240 310
#     4   9  19  36  57  78  96 117 160 218 263 295
#     4  10  18  28  48  75  99 131 172 211 241 285
#     4   9  17  30  48  72 103 134 165 205 250 286
#     4   8  16  30  46  66  97 133 168 204 239 278
#     4  11  19  31  50  72  99 132 169 201 245 300
#     4   9  19  37  55  73  99 125 155 210 269 302
#     4  10  21  34  45  68 108 145 165 195 242 290
#
# _framework density 16.196724
#
# number of rings (size 3 to 8) (size 9 to 14) (size 15 to 20)
#    0.000    2.400    1.333    4.000    1.867    2.667 
#    0.000    0.000    0.000    2.400    0.000    0.000 
#    0.000    3.467    0.000    0.000    0.000    0.000 
#
# Total GULP energy -167110.510151 kJ/mol
# GULP energy per Si atom -5570.350338 kJ/mol
# Density = 1.615986 g / cm^3
# Si number density = 16.196724 Si / 1000 Ang^3
#
#
#
# Elastic Constant Matrix: (Units=GPa)
#
#
# Indices 1 2 3 4 5 6 
#
# 1 37.9827 39.4170 27.2462 0.0000 8.2769 0.0000
# 2 39.4170 84.9167 47.7510 0.0000 5.2367 0.0000
# 3 27.2462 47.7510 122.9475 0.0000 11.2272 0.0000
# 4 0.0000 0.0000 0.0000 19.2326 0.0000 6.7647
# 5 8.2769 5.2367 11.2272 0.0000 21.4878 0.0000
# 6 0.0000 0.0000 0.0000 6.7647 0.0000 -21.4496
#
#
#
# Elastic Compliance Matrix: (Units=1/GPa)
#
#
# Indices 1 2 3 4 5 6 
#
# 1 0.055595 -0.023959 -0.001672 0.000000 -0.014702 0.000000
# 2 -0.023959 0.025401 -0.005075 0.000000 0.005690 0.000000
# 3 -0.001672 -0.005075 0.010820 0.000000 -0.003772 0.000000
# 4 0.000000 0.000000 0.000000 0.046803 0.000000 0.014761
# 5 -0.014702 0.005690 -0.003772 0.000000 0.052785 0.000000
# 6 0.000000 0.000000 0.000000 0.014761 0.000000 -0.041966
#
#
# Mechanical properties :
#
#
# Convention : Reuss Voigt Hill
#
# Bulk Modulus (GPa) = 32.89281 52.74171 42.81726
# Shear Modulus (GPa) = 22.62572 12.61633 17.62103
#
# Velocity S-wave (km/s) = 3.74161 2.79398 3.30197
# Velocity P-wave (km/s) = 6.24649 6.56067 6.40550
#
# Compressibility (1/GPa) = 0.03040178
#
# Stress axis : x y z
#
# Youngs Moduli (GPa) = 17.98708 39.36858 92.42291
#
# Poissons Ratio (x) = 0.94325 0.15457
# Poissons Ratio (y) = 0.43096 0.46908
# Poissons Ratio (z) = 0.03008 0.19981
#
# Static dielectric constant tensor:
#      x y z
#    x 1.568160 0.000000 0.034780 
#    y 0.000000 1.518950 0.000000 
#    z 0.034780 0.000000 1.582070 
# 
# From -- ./inp_files/32442.got.cif
#   From: 2010.05.17/outbox.cif.g08.bks.cpg/sg10_17_cif.got.tgz:32442.got - 2010.06.03 11:33:40.
