data_PCOD9142910
_publ_section_title
;
Structure prediction by ZEFSAII (Michael W. Deem and Ramdas Pophale) SiO2 
 PCOD9142910
Probable space group: P 2/M
;
_chemical_formula_sum "Si O2"
_cell_formula_units_Z 32
_cell_length_a 14.670293
_cell_length_b 7.784875
_cell_length_c 27.682238
_cell_angle_alpha 90.000000
_cell_angle_beta 34.583821
_cell_angle_gamma 90.000000
_cell_volume 1794.496655
_symmetry_space_group_name_H-M "P 2/M"
_symmetry_group_IT_number 10
_symmetry_cell_setting 'monoclinic'
loop_
_space_group_symop_operation_xyz
x,y,z
-x,y,-z
-x,-y,-z
x,-y,z
loop_
_atom_site_type_symbol
_atom_site_label
_atom_site_fract_x
_atom_site_fract_y
_atom_site_fract_z
Si Si1 0.493994 0.291208 0.846911
Si Si2 0.742633 0.792801 0.604242
Si Si3 0.041465 0.801813 0.928286
Si Si4 0.177183 0.197176 0.251443
Si Si5 0.604763 0.297750 0.217235
Si Si6 0.676978 0.800538 0.909433
Si Si7 0.207199 0.699775 0.042379
Si Si8 0.023423 0.210464 0.411787
O O1 0.513177 0.500000 0.838881
O O2 0.658760 0.203517 0.789408
O O3 0.433894 0.238838 0.820430
O O4 0.360328 0.242906 0.944256
O O5 0.559943 0.732192 0.682213
O O6 0.834035 0.734905 0.613534
O O7 0.857542 0.739291 0.509973
O O8 0.741409 0.000000 0.605860
O O9 0.231694 0.789058 0.837209
O O10 0.943780 0.719213 0.927117
O O11 0.990103 0.000000 0.951693
O O12 0.000000 0.728357 0.000000
O O13 0.230258 0.277465 0.177133
O O14 0.051661 0.272988 0.344897
O O15 0.126932 0.000000 0.264014
O O16 0.638516 0.500000 0.200859
O O17 0.786305 0.792787 0.909291
O O18 0.646476 0.000000 0.909451
O O19 0.500000 0.726609 0.000000
O O20 0.228262 0.500000 0.044442
O O21 0.027924 0.000000 0.408867
#
# Coordination Sequence:
#
# PCOD9142910 Si02
#       8
#     4   4   4   4   4   4   4   4
#     4  10  20  30  44  68  99 132 164 200 240 287
#     4   9  16  29  48  70  97 128 167 205 241 289
#     4  11  23  36  53  74  96 127 167 206 243 287
#     4  10  18  30  49  70  97 134 171 204 242 286
#     4  11  21  33  48  71 102 133 165 199 244 295
#     4  10  20  32  48  73 100 129 168 210 244 283
#     4  11  22  36  51  68  98 135 167 204 246 288
#     4   8  15  27  46  71  97 129 165 204 244 287
#
# _framework density 17.832298000000002
#
# number of rings (size 3 to 8) (size 9 to 14) (size 15 to 20)
#    0.000    2.000    3.750    1.875    0.000    2.250 
#    0.000    1.875    0.000    0.000    0.000    0.875 
#    0.000    7.000    0.000    0.000    0.000    0.000 
#
# Total GULP energy -178466.735874 kJ/mol
# GULP energy per Si atom -5577.085496 kJ/mol
# Density = 1.779171 g / cm^3
# Si number density = 17.832298 Si / 1000 Ang^3
#
#
#
# Elastic Constant Matrix: (Units=GPa)
#
#
# Indices 1 2 3 4 5 6 
#
# 1 74.7708 -0.2591 40.3296 0.0000 17.6385 0.0000
# 2 -0.2591 25.9756 -0.7889 0.0000 3.9783 0.0000
# 3 40.3296 -0.7889 118.1843 0.0000 24.0848 0.0000
# 4 0.0000 0.0000 0.0000 19.9373 0.0000 -13.7410
# 5 17.6385 3.9783 24.0848 0.0000 32.3748 0.0000
# 6 0.0000 0.0000 0.0000 -13.7410 0.0000 23.8460
#
#
#
# Elastic Compliance Matrix: (Units=1/GPa)
#
#
# Indices 1 2 3 4 5 6 
#
# 1 0.017331 0.000964 -0.004667 0.000000 -0.006089 0.000000
# 2 0.000964 0.039507 0.001215 0.000000 -0.006284 0.000000
# 3 -0.004667 0.001215 0.011285 0.000000 -0.006002 0.000000
# 4 0.000000 0.000000 0.000000 0.083200 0.000000 0.047943
# 5 -0.006089 -0.006284 -0.006002 0.000000 0.039443 0.000000
# 6 0.000000 0.000000 0.000000 0.047943 0.000000 0.069562
#
#
# Mechanical properties :
#
#
# Convention : Reuss Voigt Hill
#
# Bulk Modulus (GPa) = 15.83592 33.05488 24.44540
# Shear Modulus (GPa) = 17.46095 27.20822 22.33459
#
# Velocity S-wave (km/s) = 3.13257 3.91037 3.54288
# Velocity P-wave (km/s) = 4.68868 6.24217 5.52035
#
# Compressibility (1/GPa) = 0.06314758
#
# Stress axis : x y z
#
# Youngs Moduli (GPa) = 57.69967 25.31224 88.61168
#
# Poissons Ratio (x) = -0.02439 0.41353
# Poissons Ratio (y) = -0.05561 -0.10770
# Poissons Ratio (z) = 0.26927 -0.03077
#
# Static dielectric constant tensor:
#      x y z
#    x 1.596670 0.000000 0.034040 
#    y 0.000000 1.653810 0.000000 
#    z 0.034040 0.000000 1.644290 
# 
# From -- ./inp_files/95250.got.cif
#   From: 2010.05.17/outbox.cif.g08.bks.cpg/sg10_48_cif.got.tgz:95250.got - 2010.06.03 11:33:40.
