data_PCOD9142358
_publ_section_title
;
Structure prediction by ZEFSAII (Michael W. Deem and Ramdas Pophale) SiO2 
 PCOD9142358
Probable space group: P 2/M
;
_chemical_formula_sum "Si O2"
_cell_formula_units_Z 32
_cell_length_a 28.375589
_cell_length_b 8.141690
_cell_length_c 20.061763
_cell_angle_alpha 90.000000
_cell_angle_beta 21.756993
_cell_angle_gamma 90.000000
_cell_volume 1717.975296
_symmetry_space_group_name_H-M "P 2/M"
_symmetry_group_IT_number 10
_symmetry_cell_setting 'monoclinic'
loop_
_space_group_symop_operation_xyz
x,y,z
-x,y,-z
-x,-y,-z
x,-y,z
loop_
_atom_site_type_symbol
_atom_site_label
_atom_site_fract_x
_atom_site_fract_y
_atom_site_fract_z
Si Si1 0.616774 0.301431 0.800879
Si Si2 0.849910 0.305032 0.902797
Si Si3 0.586387 0.305158 0.193438
Si Si4 0.886238 0.310772 0.280750
Si Si5 0.424668 0.197546 0.530701
Si Si6 0.158631 0.805765 0.933161
Si Si7 0.609726 0.701358 0.655543
Si Si8 0.882686 0.189794 0.434009
O O1 0.621826 0.500000 0.796208
O O2 0.598929 0.250684 0.747062
O O3 0.754504 0.233793 0.641011
O O4 0.500000 0.247119 0.000000
O O5 0.859506 0.500000 0.880504
O O6 0.983512 0.224968 0.707025
O O7 0.725960 0.238673 0.027565
O O8 0.832665 0.272981 0.004701
O O9 0.602179 0.500000 0.162330
O O10 0.496967 0.278531 0.374709
O O11 0.508350 0.239560 0.232930
O O12 0.894081 0.500000 0.250266
O O13 0.746593 0.243456 0.445913
O O14 0.882943 0.297799 0.366067
O O15 0.018742 0.227194 0.087334
O O16 0.500000 0.234621 0.500000
O O17 0.278279 0.250363 0.732271
O O18 0.428505 0.000000 0.516443
O O19 0.172698 0.000000 0.924914
O O20 0.613160 0.500000 0.649526
O O21 0.879597 0.000000 0.417128
#
# Coordination Sequence:
#
# PCOD9142358 Si02
#       8
#     4   4   4   4   4   4   4   4
#     4   9  17  32  56  80 101 126 155 191 235 281
#     4  10  18  28  45  69  94 122 161 201 236 278
#     4  10  20  32  49  70  94 126 162 201 240 284
#     4   9  16  29  49  68  92 124 159 200 241 285
#     4  10  20  33  46  64  94 128 162 203 248 288
#     4  10  18  29  46  66  91 121 158 205 249 283
#     4   8  16  32  50  72  99 123 153 194 239 284
#     4  10  18  28  46  72 101 127 155 194 235 277
#
# _framework density 18.626577999999999
#
# number of rings (size 3 to 8) (size 9 to 14) (size 15 to 20)
#    0.000    2.500    1.250    4.500    0.000    2.000 
#    0.000    3.750    0.000    4.500    0.000    5.250 
#    0.000    0.000    0.000    0.000    0.000    0.000 
#
# Total GULP energy -178361.706589 kJ/mol
# GULP energy per Si atom -5573.803331 kJ/mol
# Density = 1.858418 g / cm^3
# Si number density = 18.626578 Si / 1000 Ang^3
#
#
#
# Elastic Constant Matrix: (Units=GPa)
#
#
# Indices 1 2 3 4 5 6 
#
# 1 62.8955 1.6066 44.8693 0.0000 -26.8943 0.0000
# 2 1.6066 21.3051 6.4314 0.0000 -3.9160 0.0000
# 3 44.8693 6.4314 154.9893 0.0000 -32.8543 0.0000
# 4 0.0000 0.0000 0.0000 33.9777 0.0000 9.6318
# 5 -26.8943 -3.9160 -32.8543 0.0000 26.0139 0.0000
# 6 0.0000 0.0000 0.0000 9.6318 0.0000 7.7991
#
#
#
# Elastic Compliance Matrix: (Units=1/GPa)
#
#
# Indices 1 2 3 4 5 6 
#
# 1 0.029655 0.003704 -0.002897 0.000000 0.027557 0.000000
# 2 0.003704 0.048781 -0.000994 0.000000 0.009916 0.000000
# 3 -0.002897 -0.000994 0.009102 0.000000 0.008351 0.000000
# 4 0.000000 0.000000 0.000000 0.045285 0.000000 -0.055926
# 5 0.027557 0.009916 0.008351 0.000000 0.078970 0.000000
# 6 0.000000 0.000000 0.000000 -0.055926 0.000000 0.197287
#
#
# Mechanical properties :
#
#
# Convention : Reuss Voigt Hill
#
# Bulk Modulus (GPa) = 11.47286 38.33381 24.90334
# Shear Modulus (GPa) = 11.40223 25.97698 18.68961
#
# Velocity S-wave (km/s) = 2.47685 3.73851 3.17106
# Velocity P-wave (km/s) = 3.78847 6.26579 5.17748
#
# Compressibility (1/GPa) = 0.08716220
#
# Stress axis : x y z
#
# Youngs Moduli (GPa) = 33.72075 20.49989 109.86300
#
# Poissons Ratio (x) = -0.07592 0.31831
# Poissons Ratio (y) = -0.12489 0.10924
# Poissons Ratio (z) = 0.09770 0.02038
#
# Static dielectric constant tensor:
#      x y z
#    x 1.643330 0.000000 -0.046280 
#    y 0.000000 1.649550 0.000000 
#    z -0.046280 0.000000 1.680170 
# 
# From -- ./inp_files/87172.got.cif
#   From: 2010.05.17/outbox.cif.g08.bks.cpg/sg10_44_cif.got.tgz:87172.got - 2010.06.03 11:33:40.
