data_PCOD9142258
_publ_section_title
;
Structure prediction by ZEFSAII (Michael W. Deem and Ramdas Pophale) SiO2 
 PCOD9142258
Probable space group: P 2/M
;
_chemical_formula_sum "Si O2"
_cell_formula_units_Z 32
_cell_length_a 15.878714
_cell_length_b 8.630213
_cell_length_c 16.981280
_cell_angle_alpha 90.000000
_cell_angle_beta 128.219932
_cell_angle_gamma 90.000000
_cell_volume 1828.234073
_symmetry_space_group_name_H-M "P 2/M"
_symmetry_group_IT_number 10
_symmetry_cell_setting 'monoclinic'
loop_
_space_group_symop_operation_xyz
x,y,z
-x,y,-z
-x,-y,-z
x,-y,z
loop_
_atom_site_type_symbol
_atom_site_label
_atom_site_fract_x
_atom_site_fract_y
_atom_site_fract_z
Si Si1 0.838226 0.811168 0.950700
Si Si2 0.757889 0.186826 0.641425
Si Si3 0.369676 0.320376 0.924373
Si Si4 0.373284 0.183822 0.090677
Si Si5 0.636151 0.815100 0.414893
Si Si6 0.387840 0.685060 0.762747
Si Si7 0.051733 0.188524 0.149968
Si Si8 0.564871 0.323476 0.620377
O O1 0.719689 0.758551 0.904718
O O2 0.883154 0.766500 0.891388
O O3 0.835162 0.000000 0.949854
O O4 0.929400 0.761150 0.066205
O O5 0.712241 0.240440 0.530680
O O6 0.876503 0.239662 0.734872
O O7 0.674735 0.239852 0.660949
O O8 0.756041 0.000000 0.638978
O O9 0.336794 0.500000 0.915554
O O10 0.340546 0.263088 0.819928
O O11 0.500000 0.319295 0.000000
O O12 0.335710 0.220925 0.979668
O O13 0.487877 0.263147 0.168155
O O14 0.387632 0.000000 0.108710
O O15 0.665578 0.749550 0.346846
O O16 0.515216 0.762665 0.367002
O O17 0.638712 0.000000 0.414390
O O18 0.384503 0.500000 0.760897
O O19 0.049525 0.000000 0.150013
O O20 0.500000 0.326276 0.500000
O O21 0.582773 0.500000 0.656227
#
# Coordination Sequence:
#
# PCOD9142258 Si02
#       8
#     4   4   4   4   4   4   4   4
#     4   8  15  26  42  67  92 115 147 183 217 261
#     4   9  17  28  45  64  84 116 152 186 221 255
#     4   8  16  31  46  61  86 119 149 175 215 273
#     4  10  18  27  45  72  94 114 146 184 221 258
#     4  10  19  29  41  63  89 113 149 189 221 256
#     4  10  20  32  45  63  89 122 152 177 217 270
#     4   8  14  27  44  62  90 121 148 181 220 257
#     4   9  17  28  40  56  83 117 149 179 212 255
#
# _framework density 17.503229999999999
#
# number of rings (size 3 to 8) (size 9 to 14) (size 15 to 20)
#    0.000    3.000    0.000    3.000    1.750    4.750 
#    0.000    0.000    0.000    1.500    0.000    5.250 
#    0.000    7.000    0.000    0.000    0.000    0.000 
#
# Total GULP energy -178228.766413 kJ/mol
# GULP energy per Si atom -5569.648950 kJ/mol
# Density = 1.746339 g / cm^3
# Si number density = 17.503230 Si / 1000 Ang^3
#
#
#
# Elastic Constant Matrix: (Units=GPa)
#
#
# Indices 1 2 3 4 5 6 
#
# 1 16.3496 -1.2045 -0.2456 0.0000 -3.6944 0.0000
# 2 -1.2045 16.4527 5.1235 0.0000 -5.7544 0.0000
# 3 -0.2456 5.1235 81.5374 0.0000 -6.5461 0.0000
# 4 0.0000 0.0000 0.0000 16.1728 0.0000 -7.4270
# 5 -3.6944 -5.7544 -6.5461 0.0000 23.8872 0.0000
# 6 0.0000 0.0000 0.0000 -7.4270 0.0000 59.8523
#
#
#
# Elastic Compliance Matrix: (Units=1/GPa)
#
#
# Indices 1 2 3 4 5 6 
#
# 1 0.064601 0.008833 0.000626 0.000000 0.012291 0.000000
# 2 0.008833 0.068282 -0.002898 0.000000 0.017021 0.000000
# 3 0.000626 -0.002898 0.012679 0.000000 0.002873 0.000000
# 4 0.000000 0.000000 0.000000 0.065569 0.000000 0.008136
# 5 0.012291 0.017021 0.002873 0.000000 0.048652 0.000000
# 6 0.000000 0.000000 0.000000 0.008136 0.000000 0.017717
#
#
# Mechanical properties :
#
#
# Convention : Reuss Voigt Hill
#
# Bulk Modulus (GPa) = 6.30175 13.52074 9.91125
# Shear Modulus (GPa) = 15.75932 27.36020 21.55976
#
# Velocity S-wave (km/s) = 3.00387 3.95796 3.51345
# Velocity P-wave (km/s) = 3.95463 5.35058 4.70467
#
# Compressibility (1/GPa) = 0.15868603
#
# Stress axis : x y z
#
# Youngs Moduli (GPa) = 15.47964 14.64505 78.87091
#
# Poissons Ratio (x) = -0.12936 -0.04940
# Poissons Ratio (y) = -0.13673 0.22853
# Poissons Ratio (z) = -0.00969 0.04243
#
# Static dielectric constant tensor:
#      x y z
#    x 1.584750 0.000000 -0.018290 
#    y 0.000000 1.593440 0.000000 
#    z -0.018290 0.000000 1.663700 
# 
# From -- ./inp_files/78535.got.cif
#   From: 2010.05.17/outbox.cif.g08.bks.cpg/sg10_40_cif.got.tgz:78535.got - 2010.06.03 11:33:40.
