data_PCOD9142563
_publ_section_title
;
Structure prediction by ZEFSAII (Michael W. Deem and Ramdas Pophale) SiO2 
 PCOD9142563
Probable space group: P 2/M
;
_chemical_formula_sum "Si O2"
_cell_formula_units_Z 32
_cell_length_a 20.181083
_cell_length_b 9.540201
_cell_length_c 24.545584
_cell_angle_alpha 90.000000
_cell_angle_beta 23.825813
_cell_angle_gamma 90.000000
_cell_volume 1909.022296
_symmetry_space_group_name_H-M "P 2/M"
_symmetry_group_IT_number 10
_symmetry_cell_setting 'monoclinic'
loop_
_space_group_symop_operation_xyz
x,y,z
-x,y,-z
-x,-y,-z
x,-y,z
loop_
_atom_site_type_symbol
_atom_site_label
_atom_site_fract_x
_atom_site_fract_y
_atom_site_fract_z
Si Si1 0.615352 0.335945 0.797924
Si Si2 0.769248 0.335326 0.896947
Si Si3 0.462456 0.337434 0.616954
Si Si4 0.229483 0.663574 0.698790
Si Si5 0.973764 0.165930 0.229911
Si Si6 0.332836 0.165066 0.457446
Si Si7 0.886610 0.335223 0.685677
Si Si8 0.783024 0.831800 0.576553
O O1 0.634462 0.500000 0.767460
O O2 0.732306 0.313634 0.762026
O O3 0.674455 0.235513 0.705493
O O4 0.425447 0.312983 0.954821
O O5 0.801309 0.500000 0.884452
O O6 0.835312 0.306830 0.786462
O O7 0.865678 0.239966 0.867142
O O8 0.439670 0.500000 0.648721
O O9 0.616056 0.331479 0.459241
O O10 0.304720 0.291234 0.700364
O O11 0.519556 0.248664 0.625489
O O12 0.179655 0.500000 0.739579
O O13 0.091755 0.759882 0.775523
O O14 0.830689 0.188003 0.383057
O O15 0.994841 0.000000 0.206853
O O16 0.292296 0.204164 0.426052
O O17 0.368678 0.000000 0.432538
O O18 0.933963 0.500000 0.645895
O O19 0.037595 0.237954 0.555495
O O20 0.793258 0.000000 0.573160
#
# Coordination Sequence:
#
# PCOD9142563 Si02
#       8
#     4   4   4   4   4   4   4   4
#     4  10  22  38  54  76 102 129 170 215 256 307
#     4  10  20  35  55  76 100 132 168 212 261 303
#     4   8  14  24  41  65  94 127 164 204 245 291
#     4   8  14  25  40  64  97 129 162 202 247 293
#     4  10  18  29  46  70 100 133 169 206 244 297
#     4   9  18  30  44  66  99 133 166 204 243 293
#     4  10  20  36  58  78  98 129 168 213 261 306
#     4  11  22  36  52  75 106 138 170 207 253 303
#
# _framework density 16.762508
#
# number of rings (size 3 to 8) (size 9 to 14) (size 15 to 20)
#    0.000    2.500    1.250    2.250    0.000    6.000 
#    0.000    2.500    0.000    2.250    0.000    0.875 
#    0.000    7.000    0.000    0.000    0.000    0.000 
#
# Total GULP energy -178412.699052 kJ/mol
# GULP energy per Si atom -5575.396845 kJ/mol
# Density = 1.672436 g / cm^3
# Si number density = 16.762508 Si / 1000 Ang^3
#
#
#
# Elastic Constant Matrix: (Units=GPa)
#
#
# Indices 1 2 3 4 5 6 
#
# 1 73.4082 38.9673 5.9960 0.0000 -27.6850 0.0000
# 2 38.9673 43.5572 14.7268 0.0000 -7.9670 0.0000
# 3 5.9960 14.7268 10.1023 0.0000 8.8159 0.0000
# 4 0.0000 0.0000 0.0000 1.9337 0.0000 6.6081
# 5 -27.6850 -7.9670 8.8159 0.0000 11.6893 0.0000
# 6 0.0000 0.0000 0.0000 6.6081 0.0000 24.3682
#
#
#
# Elastic Compliance Matrix: (Units=1/GPa)
#
#
# Indices 1 2 3 4 5 6 
#
# 1 0.033621 -0.054990 0.068525 0.000000 -0.009531 0.000000
# 2 -0.054990 0.078363 -0.042562 0.000000 -0.044730 0.000000
# 3 0.068525 -0.042562 0.011842 0.000000 0.124355 0.000000
# 4 0.000000 0.000000 0.000000 7.056386 0.000000 -1.913525
# 5 -0.009531 -0.044730 0.124355 0.000000 -0.061298 0.000000
# 6 0.000000 0.000000 0.000000 -1.913525 0.000000 0.559939
#
#
# Mechanical properties :
#
#
# Convention : Reuss Voigt Hill
#
# Bulk Modulus (GPa) = 15.20422 27.38311 21.29366
# Shear Modulus (GPa) = 0.64443 12.09008 6.36725
#
# Velocity S-wave (km/s) = 0.62071 2.68854 1.95109
# Velocity P-wave (km/s) = 3.09899 5.09990 4.21976
#
# Compressibility (1/GPa) = 0.06577122
#
# Stress axis : x y z
#
# Youngs Moduli (GPa) = 29.74289 12.76111 84.44459
#
# Poissons Ratio (x) = 0.70174 -5.78659
# Poissons Ratio (y) = 1.63558 3.59417
# Poissons Ratio (z) = -2.03814 0.54314
#
# Static dielectric constant tensor:
#      x y z
#    x 1.563920 0.000000 -0.008890 
#    y 0.000000 1.556260 0.000000 
#    z -0.008890 0.000000 1.541530 
# 
# From -- ./inp_files/86104.got.cif
#   From: 2010.05.17/outbox.cif.g08.bks.cpg/sg10_44_cif.got.tgz:86104.got - 2010.06.03 11:33:40.
