data_PCOD9142719
_publ_section_title
;
Structure prediction by ZEFSAII (Michael W. Deem and Ramdas Pophale) SiO2 
 PCOD9142719
Probable space group: P 2/M
;
_chemical_formula_sum "Si O2"
_cell_formula_units_Z 32
_cell_length_a 22.190496
_cell_length_b 8.072203
_cell_length_c 12.196663
_cell_angle_alpha 90.000000
_cell_angle_beta 130.285158
_cell_angle_gamma 90.000000
_cell_volume 1666.599332
_symmetry_space_group_name_H-M "P 2/M"
_symmetry_group_IT_number 10
_symmetry_cell_setting 'monoclinic'
loop_
_space_group_symop_operation_xyz
x,y,z
-x,y,-z
-x,-y,-z
x,-y,z
loop_
_atom_site_type_symbol
_atom_site_label
_atom_site_fract_x
_atom_site_fract_y
_atom_site_fract_z
Si Si1 0.223479 0.689852 0.847567
Si Si2 0.842144 0.692574 0.804771
Si Si3 0.930189 0.693891 0.700399
Si Si4 0.311378 0.195603 0.502536
Si Si5 0.051434 0.192643 0.668401
Si Si6 0.222797 0.192385 0.604776
Si Si7 0.738317 0.703737 0.871720
Si Si8 0.583821 0.300285 0.553960
O O1 0.248638 0.500000 0.865876
O O2 0.129803 0.699756 0.759065
O O3 0.238356 0.775566 0.749546
O O4 0.260704 0.761114 0.002228
O O5 0.863258 0.500000 0.845350
O O6 0.905649 0.761774 0.792263
O O7 0.759145 0.705699 0.640899
O O8 0.814802 0.761311 0.890596
O O9 0.949759 0.500000 0.734773
O O10 0.852264 0.709505 0.531711
O O11 0.999631 0.781237 0.715929
O O12 0.297320 0.228104 0.614054
O O13 0.392451 0.244683 0.540227
O O14 0.297846 0.000000 0.467694
O O15 0.000000 0.234153 0.500000
O O16 0.074441 0.000000 0.685183
O O17 0.201144 0.000000 0.564569
O O18 0.741435 0.500000 0.875137
O O19 0.657590 0.753878 0.716471
O O20 0.500000 0.239865 0.500000
O O21 0.582635 0.500000 0.554309
#
# Coordination Sequence:
#
# PCOD9142719 Si02
#       8
#     4   4   4   4   4   4   4   4
#     4  11  21  32  50  71  94 128 167 205 240 287
#     4   8  15  30  50  70  95 125 158 200 246 290
#     4  10  18  29  50  74  92 119 164 211 249 289
#     4   9  17  28  46  73 102 128 158 198 238 280
#     4  11  22  34  47  65  96 132 163 205 253 292
#     4  10  19  31  46  68  99 131 162 201 247 286
#     4   8  16  32  51  74 101 125 156 197 241 287
#     4   9  17  32  56  81 104 129 156 192 239 287
#
# _framework density 19.200775
#
# number of rings (size 3 to 8) (size 9 to 14) (size 15 to 20)
#    0.000    2.500    1.250    2.625    0.000    2.750 
#    0.000    5.625    0.000    4.500    0.000    5.250 
#    0.000    0.000    0.000    0.000    0.000    0.000 
#
# Total GULP energy -178340.375205 kJ/mol
# GULP energy per Si atom -5573.136725 kJ/mol
# Density = 1.915707 g / cm^3
# Si number density = 19.200775 Si / 1000 Ang^3
#
#
#
# Elastic Constant Matrix: (Units=GPa)
#
#
# Indices 1 2 3 4 5 6 
#
# 1 128.3587 2.5378 25.0515 0.0000 -19.0299 0.0000
# 2 2.5378 19.8135 2.3625 0.0000 0.3617 0.0000
# 3 25.0515 2.3625 41.0546 0.0000 -16.3093 0.0000
# 4 0.0000 0.0000 0.0000 -8.1405 0.0000 -7.0461
# 5 -19.0299 0.3617 -16.3093 0.0000 20.9118 0.0000
# 6 0.0000 0.0000 0.0000 -7.0461 0.0000 19.9379
#
#
#
# Elastic Compliance Matrix: (Units=1/GPa)
#
#
# Indices 1 2 3 4 5 6 
#
# 1 0.009331 -0.000913 -0.003277 0.000000 0.005951 0.000000
# 2 -0.000913 0.051213 -0.004451 0.000000 -0.005188 0.000000
# 3 -0.003277 -0.004451 0.036888 0.000000 0.025865 0.000000
# 4 0.000000 0.000000 0.000000 -0.094068 0.000000 -0.033244
# 5 0.005951 -0.005188 0.025865 0.000000 0.073497 0.000000
# 6 0.000000 0.000000 0.000000 -0.033244 0.000000 0.038407
#
#
# Mechanical properties :
#
#
# Convention : Reuss Voigt Hill
#
# Bulk Modulus (GPa) = 12.47653 27.68115 20.07884
# Shear Modulus (GPa) = 31.39381 17.16017 24.27699
#
# Velocity S-wave (km/s) = 4.04794 2.99276 3.55966
# Velocity P-wave (km/s) = 5.32539 5.13714 5.23211
#
# Compressibility (1/GPa) = 0.08015049
#
# Stress axis : x y z
#
# Youngs Moduli (GPa) = 107.17506 19.52626 27.10876
#
# Poissons Ratio (x) = 0.01783 0.08883
# Poissons Ratio (y) = 0.09785 0.12066
# Poissons Ratio (z) = 0.35120 0.08691
#
# Static dielectric constant tensor:
#      x y z
#    x 1.705970 0.000000 -0.036470 
#    y 0.000000 1.678750 0.000000 
#    z -0.036470 0.000000 1.669440 
# 
# From -- ./inp_files/54882.got.cif
#   From: 2010.05.17/outbox.cif.g08.bks.cpg/sg10_28_cif.got.tgz:54882.got - 2010.06.03 11:33:40.
