data_PCOD9142709
_publ_section_title
;
Structure prediction by ZEFSAII (Michael W. Deem and Ramdas Pophale) SiO2 
 PCOD9142709
Probable space group: P 2/M
;
_chemical_formula_sum "Si O2"
_cell_formula_units_Z 32
_cell_length_a 15.133389
_cell_length_b 7.801796
_cell_length_c 24.677706
_cell_angle_alpha 90.000000
_cell_angle_beta 28.126004
_cell_angle_gamma 90.000000
_cell_volume 1373.524407
_symmetry_space_group_name_H-M "P 2/M"
_symmetry_group_IT_number 10
_symmetry_cell_setting 'monoclinic'
loop_
_space_group_symop_operation_xyz
x,y,z
-x,y,-z
-x,-y,-z
x,-y,z
loop_
_atom_site_type_symbol
_atom_site_label
_atom_site_fract_x
_atom_site_fract_y
_atom_site_fract_z
Si Si1 0.423232 0.193540 0.328981
Si Si2 0.978313 0.701135 0.291564
Si Si3 0.569140 0.792920 0.559452
Si Si4 0.988826 0.803173 0.565364
Si Si5 0.819819 0.207671 0.264472
Si Si6 0.979758 0.800372 0.950303
Si Si7 0.428356 0.702287 0.865273
Si Si8 0.706159 0.305679 0.804792
O O1 0.493024 0.274499 0.347195
O O2 0.205056 0.181849 0.462435
O O3 0.450714 0.276494 0.255542
O O4 0.500028 0.000000 0.281636
O O5 0.997528 0.500000 0.290565
O O6 0.779358 0.751500 0.426617
O O7 0.947440 0.735129 0.245185
O O8 0.171795 0.777518 0.212398
O O9 0.398374 0.740976 0.612625
O O10 0.563863 0.000000 0.566105
O O11 0.000000 0.726719 0.500000
O O12 0.868035 0.695268 0.671416
O O13 0.911355 0.000000 0.604335
O O14 0.898607 0.272505 0.164624
O O15 0.825877 0.000000 0.261575
O O16 0.035189 0.000000 0.925114
O O17 0.767332 0.787421 0.044223
O O18 0.000000 0.725284 0.000000
O O19 0.398685 0.500000 0.889431
O O20 0.533509 0.769551 0.862704
O O21 0.650267 0.500000 0.850156
#
# Coordination Sequence:
#
# PCOD9142709 Si02
#       8
#     4   4   4   4   4   4   4   4
#     4  10  19  32  53  83 118 154 192 234 285 341
#     4  11  23  38  57  83 118 158 195 233 281 338
#     4  10  20  36  59  86 117 153 192 235 286 346
#     4  10  18  29  49  78 111 150 195 238 279 329
#     4  10  22  40  62  86 112 146 190 239 291 343
#     4  10  22  44  70  91 113 145 186 236 292 346
#     4  11  23  37  57  86 119 155 195 240 288 341
#     4  10  22  37  52  77 118 161 195 230 282 341
#
# _framework density 23.297729
#
# number of rings (size 3 to 8) (size 9 to 14) (size 15 to 20)
#    0.000    1.750    2.500    1.875    0.000    7.000 
#    0.000    1.875    0.000    3.750    0.000    0.000 
#    0.000    0.000    0.000    0.000    0.000    0.000 
#
# Total GULP energy -178405.386841 kJ/mol
# GULP energy per Si atom -5575.168339 kJ/mol
# Density = 2.324470 g / cm^3
# Si number density = 23.297729 Si / 1000 Ang^3
#
#
#
# Elastic Constant Matrix: (Units=GPa)
#
#
# Indices 1 2 3 4 5 6 
#
# 1 206.0159 -0.1394 43.8939 0.0000 -6.9184 0.0000
# 2 -0.1394 39.1828 -7.0972 0.0000 3.9289 0.0000
# 3 43.8939 -7.0972 55.9805 0.0000 -5.0153 0.0000
# 4 0.0000 0.0000 0.0000 31.7447 0.0000 9.2903
# 5 -6.9184 3.9289 -5.0153 0.0000 39.3275 0.0000
# 6 0.0000 0.0000 0.0000 9.2903 0.0000 26.1934
#
#
#
# Elastic Compliance Matrix: (Units=1/GPa)
#
#
# Indices 1 2 3 4 5 6 
#
# 1 0.005864 -0.000876 -0.004662 0.000000 0.000525 0.000000
# 2 -0.000876 0.026444 0.003833 0.000000 -0.002307 0.000000
# 3 -0.004662 0.003833 0.022150 0.000000 0.001622 0.000000
# 4 0.000000 0.000000 0.000000 0.035150 0.000000 -0.012467
# 5 0.000525 -0.002307 0.001622 0.000000 0.025957 0.000000
# 6 0.000000 0.000000 0.000000 -0.012467 0.000000 0.042599
#
#
# Mechanical properties :
#
#
# Convention : Reuss Voigt Hill
#
# Bulk Modulus (GPa) = 19.58967 41.61040 30.60003
# Shear Modulus (GPa) = 27.99680 37.08791 32.54236
#
# Velocity S-wave (km/s) = 3.47031 3.99420 3.74144
# Velocity P-wave (km/s) = 4.94814 6.25864 5.64157
#
# Compressibility (1/GPa) = 0.05104732
#
# Stress axis : x y z
#
# Youngs Moduli (GPa) = 170.52118 37.81592 45.14616
#
# Poissons Ratio (x) = 0.03314 0.21049
# Poissons Ratio (y) = 0.14942 -0.17304
# Poissons Ratio (z) = 0.79502 -0.14495
#
# Static dielectric constant tensor:
#      x y z
#    x 1.996670 0.000000 -0.027360 
#    y 0.000000 1.881730 0.000000 
#    z -0.027360 0.000000 1.867770 
# 
# From -- ./inp_files/89525.got.cif
#   From: 2010.05.17/outbox.cif.g08.bks.cpg/sg10_45_cif.got.tgz:89525.got - 2010.06.03 11:33:40.
