data_PCOD9142827
_publ_section_title
;
Structure prediction by ZEFSAII (Michael W. Deem and Ramdas Pophale) SiO2 
 PCOD9142827
Probable space group: P 2/M
;
_chemical_formula_sum "Si O2"
_cell_formula_units_Z 32
_cell_length_a 14.690530
_cell_length_b 8.134820
_cell_length_c 16.179232
_cell_angle_alpha 90.000000
_cell_angle_beta 90.006939
_cell_angle_gamma 90.000000
_cell_volume 1933.496149
_symmetry_space_group_name_H-M "P 2/M"
_symmetry_group_IT_number 10
_symmetry_cell_setting 'monoclinic'
loop_
_space_group_symop_operation_xyz
x,y,z
-x,y,-z
-x,-y,-z
x,-y,z
loop_
_atom_site_type_symbol
_atom_site_label
_atom_site_fract_x
_atom_site_fract_y
_atom_site_fract_z
Si Si1 0.716103 0.199012 0.162988
Si Si2 0.396155 0.197694 0.321608
Si Si3 0.604652 0.200668 0.000695
Si Si4 0.604965 0.696128 0.500718
Si Si5 0.284927 0.201426 0.162036
Si Si6 0.105241 0.310272 0.917451
Si Si7 0.093206 0.191914 0.100247
Si Si8 0.606213 0.197818 0.323001
O O1 0.656787 0.252364 0.083532
O O2 0.818116 0.259454 0.147374
O O3 0.667925 0.256049 0.247074
O O4 0.717015 0.000000 0.163613
O O5 0.357542 0.244201 0.411594
O O6 0.335009 0.256179 0.245340
O O7 0.501207 0.258507 0.315099
O O8 0.399840 0.000000 0.316835
O O9 0.604298 0.000000 0.000615
O O10 0.500000 0.254663 0.000000
O O11 0.657829 0.253084 0.918505
O O12 0.500000 0.758329 0.500000
O O13 0.604273 0.500000 0.501035
O O14 0.643626 0.754764 0.413275
O O15 0.180525 0.254175 0.150428
O O16 0.284076 0.000000 0.161708
O O17 0.116418 0.500000 0.939893
O O18 0.002486 0.281314 0.886934
O O19 0.116404 0.208844 0.002544
O O20 0.079431 0.000000 0.118535
O O21 0.602572 0.000000 0.318732
#
# Coordination Sequence:
#
# PCOD9142827 Si02
#       8
#     4   4   4   4   4   4   4   4
#     4  10  18  30  47  69  93 122 157 191 230 275
#     4   9  16  28  46  70  96 120 152 193 230 269
#     4   9  15  24  41  66  94 121 152 187 220 261
#     4   9  17  29  44  63  90 125 159 190 228 271
#     4   9  16  26  44  70  93 118 151 188 231 270
#     4  11  21  32  46  66  91 121 156 195 237 275
#     4  10  18  32  51  68  88 117 155 198 238 275
#     4   9  17  28  46  70  94 121 155 194 230 265
#
# _framework density 16.550331
#
# number of rings (size 3 to 8) (size 9 to 14) (size 15 to 20)
#    0.000    2.500    1.250    3.375    0.000    5.000 
#    0.000    1.250    0.000    0.375    0.000    0.875 
#    0.000    7.000    0.000    0.000    0.000    0.000 
#
# Total GULP energy -178395.779966 kJ/mol
# GULP energy per Si atom -5574.868124 kJ/mol
# Density = 1.651266 g / cm^3
# Si number density = 16.550331 Si / 1000 Ang^3
#
#
#
# Elastic Constant Matrix: (Units=GPa)
#
#
# Indices 1 2 3 4 5 6 
#
# 1 100.5636 4.2294 68.4246 0.0000 -2.3831 0.0000
# 2 4.2294 12.6522 5.4896 0.0000 -1.5192 0.0000
# 3 68.4246 5.4896 147.8035 0.0000 -4.1816 0.0000
# 4 0.0000 0.0000 0.0000 -9.1919 0.0000 -0.6507
# 5 -2.3831 -1.5192 -4.1816 0.0000 10.7022 0.0000
# 6 0.0000 0.0000 0.0000 -0.6507 0.0000 1.5596
#
#
#
# Elastic Compliance Matrix: (Units=1/GPa)
#
#
# Indices 1 2 3 4 5 6 
#
# 1 0.014566 -0.001935 -0.006661 0.000000 0.000366 0.000000
# 2 -0.001935 0.081740 -0.001844 0.000000 0.010451 0.000000
# 3 -0.006661 -0.001844 0.009979 0.000000 0.002154 0.000000
# 4 0.000000 0.000000 0.000000 -0.105670 0.000000 -0.044091
# 5 0.000366 0.010451 0.002154 0.000000 0.095845 0.000000
# 6 0.000000 0.000000 0.000000 -0.044091 0.000000 0.622800
#
#
# Mechanical properties :
#
#
# Convention : Reuss Voigt Hill
#
# Bulk Modulus (GPa) = 11.70907 46.36739 29.03823
# Shear Modulus (GPa) = 6.50525 12.80568 9.65547
#
# Velocity S-wave (km/s) = 1.98472 2.78464 2.41799
# Velocity P-wave (km/s) = 3.51317 6.19805 5.03776
#
# Compressibility (1/GPa) = 0.08540387
#
# Stress axis : x y z
#
# Youngs Moduli (GPa) = 68.65137 12.23392 100.21121
#
# Poissons Ratio (x) = 0.02367 0.66752
# Poissons Ratio (y) = 0.13285 0.18483
# Poissons Ratio (z) = 0.45730 0.02256
#
# Static dielectric constant tensor:
#      x y z
#    x 1.554150 0.000000 0.003510 
#    y 0.000000 1.568050 0.000000 
#    z 0.003510 0.000000 1.557800 
# 
# From -- ./inp_files/66151.got.cif
#   From: 2010.05.17/outbox.cif.g08.bks.cpg/sg10_34_cif.got.tgz:66151.got - 2010.06.03 11:33:40.
