data_PCOD9142030
_publ_section_title
;
Structure prediction by ZEFSAII (Michael W. Deem and Ramdas Pophale) SiO2 
 PCOD9142030
Probable space group: P 2/M
;
_chemical_formula_sum "Si O2"
_cell_formula_units_Z 30
_cell_length_a 11.123074
_cell_length_b 12.198886
_cell_length_c 11.740394
_cell_angle_alpha 90.000000
_cell_angle_beta 80.576894
_cell_angle_gamma 90.000000
_cell_volume 1571.547446
_symmetry_space_group_name_H-M "P 2/M"
_symmetry_group_IT_number 10
_symmetry_cell_setting 'monoclinic'
loop_
_space_group_symop_operation_xyz
x,y,z
-x,y,-z
-x,-y,-z
x,-y,z
loop_
_atom_site_type_symbol
_atom_site_label
_atom_site_fract_x
_atom_site_fract_y
_atom_site_fract_z
Si Si1 0.122357 0.124677 0.058157
Si Si2 0.949802 0.126241 0.280857
Si Si3 0.519019 0.869274 0.868542
Si Si4 0.677506 0.624377 0.350365
Si Si5 0.736817 0.213850 0.158465
Si Si6 0.500000 0.209000 0.500000
Si Si7 0.699906 0.129143 0.643883
Si Si8 0.125042 0.709851 0.512255
O O1 0.069211 0.156490 0.188716
O O2 0.173857 0.000000 0.054558
O O3 0.212267 0.204776 0.977858
O O4 0.000000 0.118914 0.000000
O O5 0.831487 0.143010 0.218563
O O6 0.924833 0.199209 0.392341
O O7 0.960840 0.000000 0.309490
O O8 0.396527 0.837388 0.821544
O O9 0.635497 0.839120 0.773621
O O10 0.525183 0.000000 0.875492
O O11 0.500000 0.825441 0.000000
O O12 0.634712 0.500000 0.348846
O O13 0.730192 0.669620 0.222520
O O14 0.574719 0.709924 0.405534
O O15 0.780537 0.636553 0.431638
O O16 0.595969 0.140688 0.560792
O O17 0.801156 0.218487 0.592353
O O18 0.738535 0.000000 0.641784
O O19 0.000000 0.649210 0.500000
#
# Coordination Sequence:
#
# PCOD9142030 Si02
#       8
#     4   4   4   4   4   2   4   4
#     4   8  14  25  45  73 100 131 172 206 245 307
#     4   9  17  29  48  75 105 140 180 215 254 315
#     4  10  20  32  48  76 113 149 177 206 256 327
#     4  10  21  36  58  80  99 132 184 240 285 322
#     4  10  17  31  50  73 102 135 175 224 267 311
#     4  10  18  36  56  84 108 136 176 230 282 322
#     4  10  20  33  52  82 117 148 179 212 263 329
#     4  10  22  36  51  75 110 145 179 221 277 326
#
# _framework density 19.089465000000001
#
# number of rings (size 3 to 8) (size 9 to 14) (size 15 to 20)
#    0.000    2.400    1.333    2.800    0.000    2.400 
#    0.000    2.667    0.000   10.400    0.000    1.867 
#    0.000    0.000    0.000    0.000    0.000    0.000 
#
# Total GULP energy -167261.652357 kJ/mol
# GULP energy per Si atom -5575.388412 kJ/mol
# Density = 1.904602 g / cm^3
# Si number density = 19.089465 Si / 1000 Ang^3
#
#
#
# Elastic Constant Matrix: (Units=GPa)
#
#
# Indices 1 2 3 4 5 6 
#
# 1 74.9131 0.9059 9.7483 0.0000 -5.3908 0.0000
# 2 0.9059 45.7885 29.4636 0.0000 -15.5482 0.0000
# 3 9.7483 29.4636 99.6302 0.0000 -16.4440 0.0000
# 4 0.0000 0.0000 0.0000 0.8704 0.0000 -5.0265
# 5 -5.3908 -15.5482 -16.4440 0.0000 18.0590 0.0000
# 6 0.0000 0.0000 0.0000 -5.0265 0.0000 3.8212
#
#
#
# Elastic Compliance Matrix: (Units=1/GPa)
#
#
# Indices 1 2 3 4 5 6 
#
# 1 0.013829 0.002152 -0.001180 0.000000 0.004907 0.000000
# 2 0.002152 0.034079 -0.006284 0.000000 0.024261 0.000000
# 3 -0.001180 -0.006284 0.013016 0.000000 0.006089 0.000000
# 4 0.000000 0.000000 0.000000 -0.174171 0.000000 -0.229106
# 5 0.004907 0.024261 0.006089 0.000000 0.083271 0.000000
# 6 0.000000 0.000000 0.000000 -0.229106 0.000000 -0.039674
#
#
# Mechanical properties :
#
#
# Convention : Reuss Voigt Hill
#
# Bulk Modulus (GPa) = 19.88092 33.39636 26.63864
# Shear Modulus (GPa) = -118.32194 16.56441 -50.87877
#
# Velocity S-wave (km/s) = -7.88146 2.94891 -5.16824
# Velocity P-wave (km/s) = 8.50800 5.39698 4.65073
#
# Compressibility (1/GPa) = 0.05029947
#
# Stress axis : x y z
#
# Youngs Moduli (GPa) = 72.30991 29.34361 76.82827
#
# Poissons Ratio (x) = -0.06313 0.09062
# Poissons Ratio (y) = -0.15558 0.48282
# Poissons Ratio (z) = 0.08529 0.18441
#
# Static dielectric constant tensor:
#      x y z
#    x 1.739100 0.000000 0.025410 
#    y 0.000000 1.594150 0.000000 
#    z 0.025410 0.000000 1.742640 
# 
# From -- ./inp_files/46645.got.cif
#   From: 2010.05.17/outbox.cif.g08.bks.cpg/sg10_24_cif.got.tgz:46645.got - 2010.06.03 11:33:40.
