data_PCOD9142110
_publ_section_title
;
Structure prediction by ZEFSAII (Michael W. Deem and Ramdas Pophale) SiO2 
 PCOD9142110
Probable space group: P 2/M
;
_chemical_formula_sum "Si O2"
_cell_formula_units_Z 32
_cell_length_a 15.771900
_cell_length_b 20.150666
_cell_length_c 7.882477
_cell_angle_alpha 90.000000
_cell_angle_beta 35.604001
_cell_angle_gamma 90.000000
_cell_volume 1458.455644
_symmetry_space_group_name_H-M "P 2/M"
_symmetry_group_IT_number 10
_symmetry_cell_setting 'monoclinic'
loop_
_space_group_symop_operation_xyz
x,y,z
-x,y,-z
-x,-y,-z
x,-y,z
loop_
_atom_site_type_symbol
_atom_site_label
_atom_site_fract_x
_atom_site_fract_y
_atom_site_fract_z
Si Si1 0.529748 0.574829 0.751213
Si Si2 0.829005 0.210471 0.636010
Si Si3 0.581151 0.289170 0.192148
Si Si4 0.666477 0.791211 0.538470
Si Si5 0.918520 0.285904 0.948977
Si Si6 0.863523 0.426961 0.090071
Si Si7 0.768431 0.925779 0.289015
Si Si8 0.066585 0.074677 0.614544
O O1 0.492085 0.500000 0.754469
O O2 0.435686 0.632596 0.817120
O O3 0.703983 0.583478 0.435760
O O4 0.500000 0.578828 0.000000
O O5 0.739552 0.209324 0.603883
O O6 0.978379 0.246350 0.343621
O O7 0.865995 0.133330 0.607585
O O8 0.736784 0.254713 0.915892
O O9 0.500000 0.276602 0.500000
O O10 0.479354 0.250270 0.225569
O O11 0.654383 0.866142 0.488138
O O12 0.776438 0.754059 0.232802
O O13 0.000000 0.291141 0.000000
O O14 0.887008 0.360965 0.942637
O O15 0.859957 0.500000 0.013352
O O16 0.000000 0.429181 0.000000
O O17 0.898436 0.913493 0.942678
O O18 0.710029 0.000000 0.357083
O O19 0.849379 0.924674 0.340694
O O20 0.083740 0.000000 0.519395
#
# Coordination Sequence:
#
# PCOD9142110 Si02
#       8
#     4   4   4   4   4   4   4   4
#     4  10  21  38  62  87 109 140 182 222 266 324
#     4  10  19  33  56  82 106 141 179 227 272 325
#     4  12  26  39  51  74 111 153 188 222 264 313
#     4  10  17  33  56  79 107 136 180 225 271 325
#     4   9  16  27  51  82 103 130 171 223 274 315
#     4   9  17  29  50  84 116 133 158 213 271 311
#     4   8  13  23  47  83 114 134 162 219 287 338
#     4   8  13  24  47  83 114 132 163 220 288 336
#
# _framework density 21.941015
#
# number of rings (size 3 to 8) (size 9 to 14) (size 15 to 20)
#    0.000    2.500    2.500    1.875    3.500    0.250 
#    0.000    1.250    0.000    4.500    0.000    3.500 
#    0.000    0.000    0.000    0.000    0.000    0.000 
#
# Total GULP energy -178613.271884 kJ/mol
# GULP energy per Si atom -5581.664746 kJ/mol
# Density = 2.189108 g / cm^3
# Si number density = 21.941015 Si / 1000 Ang^3
#
#
#
# Elastic Constant Matrix: (Units=GPa)
#
#
# Indices 1 2 3 4 5 6 
#
# 1 54.3689 16.5448 18.4098 0.0000 2.8314 0.0000
# 2 16.5448 193.0635 69.0993 0.0000 -2.1734 0.0000
# 3 18.4098 69.0993 110.0476 0.0000 -5.2851 0.0000
# 4 0.0000 0.0000 0.0000 46.7137 0.0000 -29.6594
# 5 2.8314 -2.1734 -5.2851 0.0000 23.3829 0.0000
# 6 0.0000 0.0000 0.0000 -29.6594 0.0000 14.0461
#
#
#
# Elastic Compliance Matrix: (Units=1/GPa)
#
#
# Indices 1 2 3 4 5 6 
#
# 1 0.019787 -0.000635 -0.003063 0.000000 -0.003147 0.000000
# 2 -0.000635 0.006704 -0.004114 0.000000 -0.000230 0.000000
# 3 -0.003063 -0.004114 0.012316 0.000000 0.002772 0.000000
# 4 0.000000 0.000000 0.000000 -0.062835 0.000000 -0.132682
# 5 -0.003147 -0.000230 0.002772 0.000000 0.043753 0.000000
# 6 0.000000 0.000000 0.000000 -0.132682 0.000000 -0.208974
#
#
# Mechanical properties :
#
#
# Convention : Reuss Voigt Hill
#
# Bulk Modulus (GPa) = 43.13481 62.84310 52.98895
# Shear Modulus (GPa) = -30.13888 33.72360 1.79236
#
# Velocity S-wave (km/s) = -3.71028 3.92473 0.90480
# Velocity P-wave (km/s) = 1.16072 7.01726 5.02938
#
# Compressibility (1/GPa) = 0.02318313
#
# Stress axis : x y z
#
# Youngs Moduli (GPa) = 50.53813 149.16440 81.19631
#
# Poissons Ratio (x) = 0.09471 0.24867
# Poissons Ratio (y) = 0.03209 0.33407
# Poissons Ratio (z) = 0.15478 0.61371
#
# Static dielectric constant tensor:
#      x y z
#    x 1.647590 0.000000 0.142320 
#    y 0.000000 1.828220 0.000000 
#    z 0.142320 0.000000 1.671290 
# 
# From -- ./inp_files/35436.got.cif
#   From: 2010.05.17/outbox.cif.g08.bks.cpg/sg10_18_cif.got.tgz:35436.got - 2010.06.03 11:33:40.
