data_PCOD9142548
_publ_section_title
;
Structure prediction by ZEFSAII (Michael W. Deem and Ramdas Pophale) SiO2 
 PCOD9142548
Probable space group: P 2/M
;
_chemical_formula_sum "Si O2"
_cell_formula_units_Z 24
_cell_length_a 22.160957
_cell_length_b 8.969038
_cell_length_c 12.420466
_cell_angle_alpha 90.000000
_cell_angle_beta 38.197750
_cell_angle_gamma 90.000000
_cell_volume 1526.602498
_symmetry_space_group_name_H-M "P 2/M"
_symmetry_group_IT_number 10
_symmetry_cell_setting 'monoclinic'
loop_
_space_group_symop_operation_xyz
x,y,z
-x,y,-z
-x,-y,-z
x,-y,z
loop_
_atom_site_type_symbol
_atom_site_label
_atom_site_fract_x
_atom_site_fract_y
_atom_site_fract_z
Si Si1 0.660048 0.821812 0.594713
Si Si2 0.727105 0.822136 0.743423
Si Si3 0.991638 0.678917 0.850611
Si Si4 0.466079 0.327777 0.922191
Si Si5 0.852327 0.820591 0.204811
Si Si6 0.935357 0.679018 0.489033
O O1 0.706076 0.782464 0.647253
O O2 0.556090 0.742394 0.731151
O O3 0.741152 0.785037 0.391994
O O4 0.644889 0.000000 0.616477
O O5 0.829344 0.753110 0.635079
O O6 0.730344 0.000000 0.745911
O O7 0.635488 0.759900 0.939021
O O8 0.992363 0.500000 0.864798
O O9 0.078567 0.752415 0.798714
O O10 0.010522 0.712506 0.699430
O O11 0.893491 0.748778 0.037999
O O12 0.451603 0.500000 0.914739
O O13 0.500000 0.319644 0.000000
O O14 0.863642 0.000000 0.187574
O O15 0.922728 0.500000 0.512036
O O16 0.000000 0.726473 0.500000
#
# Coordination Sequence:
#
# PCOD9142548 Si02
#       6
#     4   4   4   4   4   4
#     4   9  17  28  43  66  94 124 152 183 228 278
#     4  10  18  30  46  65  92 123 156 193 231 275
#     4  10  19  30  45  66  91 121 158 194 231 275
#     4   9  17  27  42  65  92 122 153 186 227 276
#     4  10  18  29  46  67  95 125 152 186 233 280
#     4  10  21  35  49  66  92 126 162 199 235 272
#
# _framework density 15.721183999999999
#
# number of rings (size 3 to 8) (size 9 to 14) (size 15 to 20)
#    0.000    2.333    1.667    3.000    0.000    5.000 
#    0.000    0.000    0.000    0.000    0.000    1.167 
#    0.000    9.333    0.000    0.000    0.000    0.000 
#
# Total GULP energy -133790.451839 kJ/mol
# GULP energy per Si atom -5574.602160 kJ/mol
# Density = 1.568540 g / cm^3
# Si number density = 15.721184 Si / 1000 Ang^3
#
#
#
# Elastic Constant Matrix: (Units=GPa)
#
#
# Indices 1 2 3 4 5 6 
#
# 1 68.4929 35.8935 57.9006 0.0000 -6.4367 0.0000
# 2 35.8935 55.5387 63.3984 0.0000 -8.3599 0.0000
# 3 57.9006 63.3984 164.9078 0.0000 -21.5052 0.0000
# 4 0.0000 0.0000 0.0000 21.0794 0.0000 -11.7087
# 5 -6.4367 -8.3599 -21.5052 0.0000 17.7863 0.0000
# 6 0.0000 0.0000 0.0000 -11.7087 0.0000 13.4944
#
#
#
# Elastic Compliance Matrix: (Units=1/GPa)
#
#
# Indices 1 2 3 4 5 6 
#
# 1 0.023747 -0.010394 -0.004581 0.000000 -0.001830 0.000000
# 2 -0.010394 0.036637 -0.010305 0.000000 0.000999 0.000000
# 3 -0.004581 -0.010305 0.012805 0.000000 0.008981 0.000000
# 4 0.000000 0.000000 0.000000 0.091574 0.000000 0.079456
# 5 -0.001830 0.000999 0.008981 0.000000 0.066890 0.000000
# 6 0.000000 0.000000 0.000000 0.079456 0.000000 0.143046
#
#
# Mechanical properties :
#
#
# Convention : Reuss Voigt Hill
#
# Bulk Modulus (GPa) = 44.18959 67.03605 55.61282
# Shear Modulus (GPa) = 11.55262 19.25515 15.40389
#
# Velocity S-wave (km/s) = 2.71374 3.50350 3.13360
# Velocity P-wave (km/s) = 6.16348 7.68760 6.96734
#
# Compressibility (1/GPa) = 0.02262976
#
# Stress axis : x y z
#
# Youngs Moduli (GPa) = 42.11020 27.29493 78.09242
#
# Poissons Ratio (x) = 0.28370 0.35770
# Poissons Ratio (y) = 0.43769 0.80476
# Poissons Ratio (z) = 0.19289 0.28128
#
# Static dielectric constant tensor:
#      x y z
#    x 1.489150 0.000000 0.003460 
#    y 0.000000 1.525630 0.000000 
#    z 0.003460 0.000000 1.541620 
# 
# From -- ./inp_files/48669.got.cif
#   From: 2010.05.17/outbox.cif.g08.bks.cpg/sg10_25_cif.got.tgz:48669.got - 2010.06.03 11:33:40.
