data_PCOD9142492
_publ_section_title
;
Structure prediction by ZEFSAII (Michael W. Deem and Ramdas Pophale) SiO2 
 PCOD9142492
Probable space group: P 2/M
;
_chemical_formula_sum "Si O2"
_cell_formula_units_Z 32
_cell_length_a 22.162968
_cell_length_b 13.252172
_cell_length_c 17.180472
_cell_angle_alpha 90.000000
_cell_angle_beta 25.463808
_cell_angle_gamma 90.000000
_cell_volume 2169.495785
_symmetry_space_group_name_H-M "P 2/M"
_symmetry_group_IT_number 10
_symmetry_cell_setting 'monoclinic'
loop_
_space_group_symop_operation_xyz
x,y,z
-x,y,-z
-x,-y,-z
x,-y,z
loop_
_atom_site_type_symbol
_atom_site_label
_atom_site_fract_x
_atom_site_fract_y
_atom_site_fract_z
Si Si1 0.341348 0.123022 0.666341
Si Si2 0.216302 0.877795 0.646633
Si Si3 0.286017 0.217927 0.105275
Si Si4 0.023489 0.185116 0.316326
Si Si5 0.081085 0.384004 0.323156
Si Si6 0.080177 0.877792 0.074807
Si Si7 0.433394 0.119964 0.257651
Si Si8 0.275525 0.115186 0.280079
O O1 0.500000 0.156280 0.500000
O O2 0.284241 0.156473 0.648510
O O3 0.343759 0.000000 0.662698
O O4 0.225635 0.153052 0.865084
O O5 0.315985 0.852081 0.457771
O O6 0.056426 0.845841 0.816184
O O7 0.212414 0.000000 0.654578
O O8 0.153424 0.158736 0.221863
O O9 0.234340 0.333119 0.156164
O O10 0.299662 0.187448 0.179143
O O11 0.426328 0.184948 0.898582
O O12 0.006502 0.305425 0.351509
O O13 0.061837 0.161801 0.183383
O O14 0.883539 0.128843 0.505125
O O15 0.084642 0.500000 0.294964
O O16 0.000000 0.376592 0.500000
O O17 0.078553 0.000000 0.080056
O O18 0.371978 0.134425 0.242615
O O19 0.463850 0.000000 0.231468
O O20 0.300041 0.000000 0.225714
#
# Coordination Sequence:
#
# PCOD9142492 Si02
#       8
#     4   4   4   4   4   4   4   4
#     4   9  18  28  42  63  90 125 164 198 223 257
#     4   9  17  30  43  59  90 136 166 181 222 270
#     4  10  20  31  45  70  88 125 162 196 237 273
#     4  10  19  31  47  72  86 122 162 197 233 277
#     4   9  18  35  52  66  87 117 158 207 255 282
#     4  10  18  29  44  65  97 127 156 191 225 275
#     4  10  20  30  44  65  99 136 159 189 230 275
#     4  11  19  31  43  65 101 133 159 187 225 275
#
# _framework density 14.749971
#
# number of rings (size 3 to 8) (size 9 to 14) (size 15 to 20)
#    0.750    1.500    2.500    1.875    1.750    5.000 
#    0.000    0.000    0.000    2.250    0.000    0.000 
#    0.000    6.500    0.000    0.000    0.000    0.250 
#
# Total GULP energy -178136.893978 kJ/mol
# GULP energy per Si atom -5566.777937 kJ/mol
# Density = 1.471640 g / cm^3
# Si number density = 14.749971 Si / 1000 Ang^3
#
#
#
# Elastic Constant Matrix: (Units=GPa)
#
#
# Indices 1 2 3 4 5 6 
#
# 1 44.7057 9.4123 21.2453 0.0000 8.7340 0.0000
# 2 9.4123 31.2595 9.3478 0.0000 -5.4035 0.0000
# 3 21.2453 9.3478 95.3065 0.0000 -7.5561 0.0000
# 4 0.0000 0.0000 0.0000 9.0026 0.0000 0.0433
# 5 8.7340 -5.4035 -7.5561 0.0000 22.2337 0.0000
# 6 0.0000 0.0000 0.0000 0.0433 0.0000 0.3484
#
#
#
# Elastic Compliance Matrix: (Units=1/GPa)
#
#
# Indices 1 2 3 4 5 6 
#
# 1 0.031418 -0.010253 -0.007373 0.000000 -0.017339 0.000000
# 2 -0.010253 0.037431 -0.000355 0.000000 0.013004 0.000000
# 3 -0.007373 -0.000355 0.012737 0.000000 0.007139 0.000000
# 4 0.000000 0.000000 0.000000 0.111145 0.000000 -0.013812
# 5 -0.017339 0.013004 0.007139 0.000000 0.057375 0.000000
# 6 0.000000 0.000000 0.000000 -0.013812 0.000000 2.871740
#
#
# Mechanical properties :
#
#
# Convention : Reuss Voigt Hill
#
# Bulk Modulus (GPa) = 21.91738 27.92027 24.91882
# Shear Modulus (GPa) = 1.57579 15.06805 8.32192
#
# Velocity S-wave (km/s) = 1.03472 3.19966 2.37786
# Velocity P-wave (km/s) = 4.03969 5.71144 4.94670
#
# Compressibility (1/GPa) = 0.04562590
#
# Stress axis : x y z
#
# Youngs Moduli (GPa) = 31.82851 26.71561 78.51305
#
# Poissons Ratio (x) = 0.27391 0.57886
# Poissons Ratio (y) = 0.32633 0.02786
# Poissons Ratio (z) = 0.23466 0.00948
#
# Static dielectric constant tensor:
#      x y z
#    x 1.495940 0.000000 -0.010140 
#    y 0.000000 1.458720 0.000000 
#    z -0.010140 0.000000 1.504500 
# 
# From -- ./inp_files/80332.got.cif
#   From: 2010.05.17/outbox.cif.g08.bks.cpg/sg10_41_cif.got.tgz:80332.got - 2010.06.03 11:33:40.
