data_PCOD9142535
_publ_section_title
;
Structure prediction by ZEFSAII (Michael W. Deem and Ramdas Pophale) SiO2 
 PCOD9142535
Probable space group: P 2/M
;
_chemical_formula_sum "Si O2"
_cell_formula_units_Z 28
_cell_length_a 22.548990
_cell_length_b 7.974613
_cell_length_c 15.003315
_cell_angle_alpha 90.000000
_cell_angle_beta 142.370311
_cell_angle_gamma 90.000000
_cell_volume 1647.210771
_symmetry_space_group_name_H-M "P 2/M"
_symmetry_group_IT_number 10
_symmetry_cell_setting 'monoclinic'
loop_
_space_group_symop_operation_xyz
x,y,z
-x,y,-z
-x,-y,-z
x,-y,z
loop_
_atom_site_type_symbol
_atom_site_label
_atom_site_fract_x
_atom_site_fract_y
_atom_site_fract_z
Si Si1 0.636132 0.204959 0.732267
Si Si2 0.104881 0.801576 0.650210
Si Si3 0.750277 0.797132 0.031953
Si Si4 0.378926 0.300486 0.676643
Si Si5 0.738189 0.692964 0.303877
Si Si6 0.417794 0.797516 0.525182
Si Si7 0.590477 0.803885 0.990157
O O1 0.637199 0.257351 0.630379
O O2 0.530680 0.254396 0.646580
O O3 0.636918 0.000000 0.733740
O O4 0.721428 0.263749 0.899416
O O5 0.158297 0.731713 0.802385
O O6 0.180543 0.782376 0.658818
O O7 0.000000 0.729570 0.500000
O O8 0.091913 0.000000 0.650849
O O9 0.760164 0.000000 0.038585
O O10 0.656632 0.765095 0.982848
O O11 0.382577 0.500000 0.692937
O O12 0.290335 0.238103 0.633004
O O13 0.374949 0.262294 0.567327
O O14 0.479803 0.228306 0.834269
O O15 0.768726 0.500000 0.347521
O O16 0.638234 0.703926 0.127978
O O17 0.418080 0.000000 0.527364
O O18 0.603435 0.000000 0.026825
#
# Coordination Sequence:
#
# PCOD9142535 Si02
#       7
#     4   4   4   4   4   4   4
#     4   8  13  24  42  64  86 113 151 189 220 258
#     4   9  18  32  50  72  92 111 144 189 228 268
#     4   8  13  24  44  66  88 113 141 177 224 266
#     4  11  21  30  40  60  93 126 153 184 222 263
#     4  10  21  33  44  62  90 122 151 182 224 273
#     4   9  16  26  43  62  84 117 157 190 214 255
#     4  10  18  29  46  65  87 120 157 188 218 258
#
# _framework density 16.998429999999999
#
# number of rings (size 3 to 8) (size 9 to 14) (size 15 to 20)
#    0.000    2.714    1.429    3.429    0.000    4.286 
#    0.000    1.429    0.000    0.000    0.000    1.000 
#    0.000    8.000    0.000    0.000    0.000    0.000 
#
# Total GULP energy -155974.532607 kJ/mol
# GULP energy per Si atom -5570.519022 kJ/mol
# Density = 1.695974 g / cm^3
# Si number density = 16.998430 Si / 1000 Ang^3
#
#
#
# Elastic Constant Matrix: (Units=GPa)
#
#
# Indices 1 2 3 4 5 6 
#
# 1 84.5984 -2.7077 57.1935 0.0000 -24.3040 0.0000
# 2 -2.7077 10.1739 0.2557 0.0000 -0.3948 0.0000
# 3 57.1935 0.2557 118.3687 0.0000 -12.4515 0.0000
# 4 0.0000 0.0000 0.0000 6.1216 0.0000 -4.0346
# 5 -24.3040 -0.3948 -12.4515 0.0000 18.3429 0.0000
# 6 0.0000 0.0000 0.0000 -4.0346 0.0000 20.5999
#
#
#
# Elastic Compliance Matrix: (Units=1/GPa)
#
#
# Indices 1 2 3 4 5 6 
#
# 1 0.027544 0.008742 -0.010197 0.000000 0.029762 0.000000
# 2 0.008742 0.101148 -0.003225 0.000000 0.011570 0.000000
# 3 -0.010197 -0.003225 0.012873 0.000000 -0.004842 0.000000
# 4 0.000000 0.000000 0.000000 0.187568 0.000000 0.036736
# 5 0.029762 0.011570 -0.004842 0.000000 0.090913 0.000000
# 6 0.000000 0.000000 0.000000 0.036736 0.000000 0.055739
#
#
# Mechanical properties :
#
#
# Convention : Reuss Voigt Hill
#
# Bulk Modulus (GPa) = 7.56407 35.84712 21.70560
# Shear Modulus (GPa) = 9.44797 19.57284 14.51040
#
# Velocity S-wave (km/s) = 2.36013 3.39698 2.92487
# Velocity P-wave (km/s) = 3.44768 6.04320 4.91969
#
# Compressibility (1/GPa) = 0.13220391
#
# Stress axis : x y z
#
# Youngs Moduli (GPa) = 36.30493 9.88654 77.68292
#
# Poissons Ratio (x) = -0.08643 0.79214
# Poissons Ratio (y) = -0.31737 0.25055
# Poissons Ratio (z) = 0.37021 0.03189
#
# Static dielectric constant tensor:
#      x y z
#    x 1.591490 0.000000 -0.030330 
#    y 0.000000 1.606820 0.000000 
#    z -0.030330 0.000000 1.588110 
# 
# From -- ./inp_files/65736.got.cif
#   From: 2010.05.17/outbox.cif.g08.bks.cpg/sg10_33_cif.got.tgz:65736.got - 2010.06.03 11:33:40.
