data_PCOD9142334
_publ_section_title
;
Structure prediction by ZEFSAII (Michael W. Deem and Ramdas Pophale) SiO2 
 PCOD9142334
Probable space group: P 2/M
;
_chemical_formula_sum "Si O2"
_cell_formula_units_Z 32
_cell_length_a 16.215639
_cell_length_b 18.235606
_cell_length_c 22.559265
_cell_angle_alpha 90.000000
_cell_angle_beta 17.249787
_cell_angle_gamma 90.000000
_cell_volume 1978.151746
_symmetry_space_group_name_H-M "P 2/M"
_symmetry_group_IT_number 10
_symmetry_cell_setting 'monoclinic'
loop_
_space_group_symop_operation_xyz
x,y,z
-x,y,-z
-x,-y,-z
x,-y,z
loop_
_atom_site_type_symbol
_atom_site_label
_atom_site_fract_x
_atom_site_fract_y
_atom_site_fract_z
Si Si1 0.418405 0.084866 0.124529
Si Si2 0.483668 0.820708 0.651114
Si Si3 0.224447 0.085451 0.729656
Si Si4 0.573174 0.312454 0.382443
Si Si5 0.331358 0.156392 0.938392
Si Si6 0.778161 0.086433 0.543179
Si Si7 0.331686 0.582955 0.786099
Si Si8 0.231626 0.281038 0.926792
O O1 0.589335 0.138544 0.049154
O O2 0.088424 0.098172 0.354289
O O3 0.473311 0.000000 0.105086
O O4 0.500000 0.091474 0.000000
O O5 0.293702 0.876282 0.744412
O O6 0.583790 0.758954 0.535749
O O7 0.714618 0.866704 0.527751
O O8 0.315234 0.774636 0.816342
O O9 0.500000 0.091280 0.500000
O O10 0.157961 0.000000 0.783346
O O11 0.969875 0.125514 0.872576
O O12 0.500000 0.328766 0.500000
O O13 0.533301 0.379635 0.364570
O O14 0.900248 0.291238 0.155930
O O15 0.555921 0.112700 0.744228
O O16 0.334630 0.240854 0.915194
O O17 0.746558 0.000000 0.552339
O O18 0.424254 0.500000 0.733703
O O19 0.361443 0.640858 0.819284
O O20 0.000000 0.580817 0.000000
#
# Coordination Sequence:
#
# PCOD9142334 Si02
#       8
#     4   4   4   4   4   4   4   4
#     4  10  22  37  52  68  91 126 169 217 265 299
#     4  10  19  32  47  67  96 129 165 199 247 293
#     4  11  23  32  46  72 100 131 167 210 254 304
#     4  10  18  28  44  68  99 132 161 194 239 287
#     4  11  21  35  52  69  95 128 165 210 255 298
#     4  10  21  34  51  69  89 123 169 218 257 296
#     4   8  15  29  47  67  96 130 160 191 228 285
#     4   9  19  31  48  70  97 127 163 195 241 300
#
# _framework density 16.176717
#
# number of rings (size 3 to 8) (size 9 to 14) (size 15 to 20)
#    0.000    2.125    1.250    3.375    3.500    1.250 
#    0.000    1.875    0.000    0.000    0.000    0.000 
#    0.000   18.500    0.000    0.000    0.000   13.625 
#
# Total GULP energy -178519.927445 kJ/mol
# GULP energy per Si atom -5578.747733 kJ/mol
# Density = 1.613990 g / cm^3
# Si number density = 16.176717 Si / 1000 Ang^3
#
#
#
# Elastic Constant Matrix: (Units=GPa)
#
#
# Indices 1 2 3 4 5 6 
#
# 1 79.7583 46.8153 4.4751 0.0000 -2.1144 0.0000
# 2 46.8153 115.6445 8.9972 0.0000 3.0322 0.0000
# 3 4.4751 8.9972 28.7093 0.0000 1.7263 0.0000
# 4 0.0000 0.0000 0.0000 6.4081 0.0000 0.7158
# 5 -2.1144 3.0322 1.7263 0.0000 16.1997 0.0000
# 6 0.0000 0.0000 0.0000 0.7158 0.0000 20.1640
#
#
#
# Elastic Compliance Matrix: (Units=1/GPa)
#
#
# Indices 1 2 3 4 5 6 
#
# 1 0.016648 -0.006779 -0.000682 0.000000 0.003514 0.000000
# 2 -0.006779 0.011654 -0.002427 0.000000 -0.002807 0.000000
# 3 -0.000682 -0.002427 0.035907 0.000000 -0.003461 0.000000
# 4 0.000000 0.000000 0.000000 0.156675 0.000000 -0.005562
# 5 0.003514 -0.002807 -0.003461 0.000000 0.063082 0.000000
# 6 0.000000 0.000000 0.000000 -0.005562 0.000000 0.049791
#
#
# Mechanical properties :
#
#
# Convention : Reuss Voigt Hill
#
# Bulk Modulus (GPa) = 22.50530 38.29860 30.40195
# Shear Modulus (GPa) = 13.57431 19.47599 16.52515
#
# Velocity S-wave (km/s) = 2.89991 3.47357 3.19962
# Velocity P-wave (km/s) = 5.01548 6.30984 5.69952
#
# Compressibility (1/GPa) = 0.04443398
#
# Stress axis : x y z
#
# Youngs Moduli (GPa) = 60.06696 85.80964 27.84986
#
# Poissons Ratio (x) = 0.58167 0.01899
# Poissons Ratio (y) = 0.40717 0.06758
# Poissons Ratio (z) = 0.04097 0.20824
#
# Static dielectric constant tensor:
#      x y z
#    x 1.555560 0.000000 0.030720 
#    y 0.000000 1.555460 0.000000 
#    z 0.030720 0.000000 1.555590 
# 
# From -- ./inp_files/36462.got.cif
#   From: 2010.05.17/outbox.cif.g08.bks.cpg/sg10_19_cif.got.tgz:36462.got - 2010.06.03 11:33:40.
