data_PCOD9142902
_publ_section_title
;
Structure prediction by ZEFSAII (Michael W. Deem and Ramdas Pophale) SiO2 
 PCOD9142902
Probable space group: P 2/M
;
_chemical_formula_sum "Si O2"
_cell_formula_units_Z 32
_cell_length_a 16.937290
_cell_length_b 13.462825
_cell_length_c 14.012731
_cell_angle_alpha 90.000000
_cell_angle_beta 35.631771
_cell_angle_gamma 90.000000
_cell_volume 1861.460490
_symmetry_space_group_name_H-M "P 2/M"
_symmetry_group_IT_number 10
_symmetry_cell_setting 'monoclinic'
loop_
_space_group_symop_operation_xyz
x,y,z
-x,y,-z
-x,-y,-z
x,-y,z
loop_
_atom_site_type_symbol
_atom_site_label
_atom_site_fract_x
_atom_site_fract_y
_atom_site_fract_z
Si Si1 0.898929 0.195029 0.275597
Si Si2 0.682651 0.891463 0.363474
Si Si3 0.852045 0.879719 0.680906
Si Si4 0.528395 0.171708 0.265067
Si Si5 0.379142 0.690196 0.685025
Si Si6 0.828492 0.115343 0.922179
Si Si7 0.708549 0.879241 0.631489
Si Si8 0.859422 0.610490 0.193157
O O1 0.829246 0.121569 0.267456
O O2 0.823549 0.167014 0.448646
O O3 0.857500 0.303149 0.275005
O O4 0.058971 0.177487 0.130307
O O5 0.571521 0.876481 0.556804
O O6 0.659662 0.800438 0.315790
O O7 0.668207 0.000000 0.334762
O O8 0.828178 0.848111 0.812714
O O9 0.744536 0.853116 0.704882
O O10 0.000000 0.847161 0.500000
O O11 0.853279 0.000000 0.682300
O O12 0.563174 0.283478 0.267723
O O13 0.436176 0.160620 0.262027
O O14 0.674117 0.122105 0.108281
O O15 0.500000 0.652586 0.500000
O O16 0.251339 0.626347 0.781510
O O17 0.873050 0.000000 0.881240
O O18 0.711637 0.000000 0.617997
O O19 0.844259 0.500000 0.248991
O O20 0.000000 0.619138 0.000000
#
# Coordination Sequence:
#
# PCOD9142902 Si02
#       8
#     4   4   4   4   4   4   4   4
#     4  10  18  30  49  68  86 119 160 194 227 275
#     4   9  17  29  44  62  92 132 161 182 221 273
#     4   9  17  29  44  64  91 128 167 195 225 268
#     4  10  19  28  41  65  97 127 159 195 229 262
#     4   9  19  33  48  68  94 125 160 192 225 276
#     4  11  19  27  44  70  98 125 160 201 231 265
#     4  10  18  31  48  66  96 131 160 189 226 274
#     4  10  21  37  53  69  93 121 150 194 247 286
#
# _framework density 17.190802999999999
#
# number of rings (size 3 to 8) (size 9 to 14) (size 15 to 20)
#    0.000    2.250    1.250    4.500    0.000    4.000 
#    0.000    1.875    0.000    6.000    0.000    1.750 
#    0.000    0.000    0.000   21.500    0.000    1.500 
#
# Total GULP energy -178297.252586 kJ/mol
# GULP energy per Si atom -5571.789143 kJ/mol
# Density = 1.715168 g / cm^3
# Si number density = 17.190803 Si / 1000 Ang^3
#
#
#
# Elastic Constant Matrix: (Units=GPa)
#
#
# Indices 1 2 3 4 5 6 
#
# 1 113.1695 22.3008 32.8770 0.0000 -22.3203 0.0000
# 2 22.3008 57.6497 15.5261 0.0000 -4.6212 0.0000
# 3 32.8770 15.5261 58.1599 0.0000 -17.6894 0.0000
# 4 0.0000 0.0000 0.0000 24.5657 0.0000 -18.2127
# 5 -22.3203 -4.6212 -17.6894 0.0000 32.6902 0.0000
# 6 0.0000 0.0000 0.0000 -18.2127 0.0000 31.2867
#
#
#
# Elastic Compliance Matrix: (Units=1/GPa)
#
#
# Indices 1 2 3 4 5 6 
#
# 1 0.011684 -0.002963 -0.004207 0.000000 0.005282 0.000000
# 2 -0.002963 0.019442 -0.003943 0.000000 -0.001409 0.000000
# 3 -0.004207 -0.003943 0.023440 0.000000 0.009254 0.000000
# 4 0.000000 0.000000 0.000000 0.071615 0.000000 0.041688
# 5 0.005282 -0.001409 0.009254 0.000000 0.039005 0.000000
# 6 0.000000 0.000000 0.000000 0.041688 0.000000 0.056230
#
#
# Mechanical properties :
#
#
# Convention : Reuss Voigt Hill
#
# Bulk Modulus (GPa) = 30.92403 41.15410 36.03907
# Shear Modulus (GPa) = 19.65236 28.26020 23.95628
#
# Velocity S-wave (km/s) = 3.38478 4.05892 3.73708
# Velocity P-wave (km/s) = 5.77091 6.77923 6.29529
#
# Compressibility (1/GPa) = 0.03233731
#
# Stress axis : x y z
#
# Youngs Moduli (GPa) = 85.58471 51.43626 42.66303
#
# Poissons Ratio (x) = 0.15242 0.17950
# Poissons Ratio (y) = 0.25362 0.16824
# Poissons Ratio (z) = 0.36008 0.20283
#
# Static dielectric constant tensor:
#      x y z
#    x 1.650980 0.000000 -0.009930 
#    y 0.000000 1.579050 0.000000 
#    z -0.009930 0.000000 1.611780 
# 
# From -- ./inp_files/69295.got.cif
#   From: 2010.05.17/outbox.cif.g08.bks.cpg/sg10_35_cif.got.tgz:69295.got - 2010.06.03 11:33:40.
