data_PCOD9142793
_publ_section_title
;
Structure prediction by ZEFSAII (Michael W. Deem and Ramdas Pophale) SiO2 
 PCOD9142793
Probable space group: P 2/M
;
_chemical_formula_sum "Si O2"
_cell_formula_units_Z 32
_cell_length_a 16.157585
_cell_length_b 9.195860
_cell_length_c 21.821087
_cell_angle_alpha 90.000000
_cell_angle_beta 34.634690
_cell_angle_gamma 90.000000
_cell_volume 1842.701299
_symmetry_space_group_name_H-M "P 2/M"
_symmetry_group_IT_number 10
_symmetry_cell_setting 'monoclinic'
loop_
_space_group_symop_operation_xyz
x,y,z
-x,y,-z
-x,-y,-z
x,-y,z
loop_
_atom_site_type_symbol
_atom_site_label
_atom_site_fract_x
_atom_site_fract_y
_atom_site_fract_z
Si Si1 0.367639 0.674404 0.037173
Si Si2 0.357899 0.672856 0.901547
Si Si3 0.512121 0.673844 0.687113
Si Si4 0.671134 0.656808 0.406246
Si Si5 0.053201 0.173641 0.084461
Si Si6 0.213949 0.666456 0.801324
Si Si7 0.234408 0.828861 0.540303
Si Si8 0.062470 0.825158 0.223160
O O1 0.350430 0.500000 0.053361
O O2 0.215343 0.750963 0.145014
O O3 0.500000 0.720186 0.000000
O O4 0.398725 0.706743 0.946670
O O5 0.325741 0.500000 0.917369
O O6 0.483633 0.703511 0.775944
O O7 0.210986 0.758694 0.974662
O O8 0.523550 0.500000 0.670129
O O9 0.359582 0.719521 0.747280
O O10 0.655018 0.748454 0.572595
O O11 0.500000 0.654510 0.500000
O O12 0.713367 0.500000 0.409763
O O13 0.741262 0.662646 0.297247
O O14 0.706487 0.789956 0.428146
O O15 0.026117 0.211823 0.173632
O O16 0.931643 0.238641 0.113171
O O17 0.055048 0.000000 0.078887
O O18 0.184512 0.500000 0.839887
O O19 0.065892 0.781944 0.651647
O O20 0.238345 0.000000 0.525919
O O21 0.075303 0.000000 0.217329
#
# Coordination Sequence:
#
# PCOD9142793 Si02
#       8
#     4   4   4   4   4   4   4   4
#     4   9  18  34  59  88 106 119 151 201 253 302
#     4   9  19  36  55  73  99 133 165 203 252 306
#     4  10  21  36  50  68  97 138 182 210 243 299
#     4  10  18  30  46  66  94 131 178 223 254 288
#     4  10  19  32  49  70 100 132 170 217 258 296
#     4  10  19  30  46  67  94 132 178 220 251 288
#     4  11  21  32  48  72 103 134 170 214 254 292
#     4   9  19  33  49  75 106 133 161 198 247 300
#
# _framework density 17.365811000000001
#
# number of rings (size 3 to 8) (size 9 to 14) (size 15 to 20)
#    0.000    2.250    2.500    0.750    0.000    3.500 
#    0.000    2.500    0.000    0.750    0.000    5.250 
#    0.000    0.000    0.000    0.000    0.000    0.000 
#
# Total GULP energy -178339.883159 kJ/mol
# GULP energy per Si atom -5573.121349 kJ/mol
# Density = 1.732629 g / cm^3
# Si number density = 17.365811 Si / 1000 Ang^3
#
#
#
# Elastic Constant Matrix: (Units=GPa)
#
#
# Indices 1 2 3 4 5 6 
#
# 1 77.5508 32.7119 65.5522 0.0000 -17.8826 0.0000
# 2 32.7119 28.7104 43.6860 0.0000 -5.5602 0.0000
# 3 65.5522 43.6860 131.0521 0.0000 -2.9856 0.0000
# 4 0.0000 0.0000 0.0000 25.8953 0.0000 -1.1525
# 5 -17.8826 -5.5602 -2.9856 0.0000 19.1860 0.0000
# 6 0.0000 0.0000 0.0000 -1.1525 0.0000 14.2729
#
#
#
# Elastic Compliance Matrix: (Units=1/GPa)
#
#
# Indices 1 2 3 4 5 6 
#
# 1 0.037015 -0.019693 -0.011335 0.000000 0.027030 0.000000
# 2 -0.019693 0.087060 -0.019082 0.000000 0.003906 0.000000
# 3 -0.011335 -0.019082 0.019363 0.000000 -0.013082 0.000000
# 4 0.000000 0.000000 0.000000 0.038756 0.000000 0.003130
# 5 0.027030 0.003906 -0.013082 0.000000 0.076411 0.000000
# 6 0.000000 0.000000 0.000000 0.003130 0.000000 0.070316
#
#
# Mechanical properties :
#
#
# Convention : Reuss Voigt Hill
#
# Bulk Modulus (GPa) = 23.13770 57.91263 40.52517
# Shear Modulus (GPa) = 11.27277 18.22837 14.75057
#
# Velocity S-wave (km/s) = 2.55058 3.24338 2.91761
# Velocity P-wave (km/s) = 4.69325 6.88818 5.89379
#
# Compressibility (1/GPa) = 0.04321950
#
# Stress axis : x y z
#
# Youngs Moduli (GPa) = 27.01586 11.48634 51.64451
#
# Poissons Ratio (x) = 0.22620 0.58538
# Poissons Ratio (y) = 0.53201 0.98548
# Poissons Ratio (z) = 0.30622 0.21918
#
# Static dielectric constant tensor:
#      x y z
#    x 1.565470 0.000000 0.047180 
#    y 0.000000 1.605610 0.000000 
#    z 0.047180 0.000000 1.516310 
# 
# From -- ./inp_files/84729.got.cif
#   From: 2010.05.17/outbox.cif.g08.bks.cpg/sg10_43_cif.got.tgz:84729.got - 2010.06.03 11:33:40.
