data_PCOD9142854
_publ_section_title
;
Structure prediction by ZEFSAII (Michael W. Deem and Ramdas Pophale) SiO2 
 PCOD9142854
Probable space group: P 2/M
;
_chemical_formula_sum "Si O2"
_cell_formula_units_Z 20
_cell_length_a 12.563414
_cell_length_b 8.179163
_cell_length_c 12.972845
_cell_angle_alpha 90.000000
_cell_angle_beta 59.915167
_cell_angle_gamma 90.000000
_cell_volume 1153.481174
_symmetry_space_group_name_H-M "P 2/M"
_symmetry_group_IT_number 10
_symmetry_cell_setting 'monoclinic'
loop_
_space_group_symop_operation_xyz
x,y,z
-x,y,-z
-x,-y,-z
x,-y,z
loop_
_atom_site_type_symbol
_atom_site_label
_atom_site_fract_x
_atom_site_fract_y
_atom_site_fract_z
Si Si1 0.174749 0.699098 0.838953
Si Si2 0.360200 0.699792 0.575475
Si Si3 0.901122 0.697346 0.902179
Si Si4 0.887714 0.811804 0.684025
Si Si5 0.840731 0.690863 0.491234
O O1 0.175345 0.500000 0.838813
O O2 0.286998 0.753767 0.713339
O O3 0.043730 0.746764 0.852165
O O4 0.171690 0.750612 0.959819
O O5 0.500000 0.757869 0.500000
O O6 0.363666 0.500000 0.575668
O O7 0.275479 0.745743 0.519134
O O8 0.899522 0.500000 0.899131
O O9 0.854861 0.762018 0.815785
O O10 0.826501 0.711810 0.620613
O O11 0.034591 0.783011 0.600672
O O12 0.859780 0.000000 0.679653
O O13 0.863161 0.500000 0.456351
#
# Coordination Sequence:
#
# PCOD9142854 Si02
#       5
#     4   4   4   4   4
#     4   8  14  25  44  69  94 119 150 188 228 275
#     4   9  16  27  47  74  97 116 147 193 234 268
#     4   9  15  27  47  68  92 122 153 184 231 281
#     4  11  20  29  44  68  98 123 151 195 235 268
#     4  10  18  30  48  68  93 124 156 185 228 283
#
# _framework density 17.338816999999999
#
# number of rings (size 3 to 8) (size 9 to 14) (size 15 to 20)
#    0.000    2.600    2.000    4.800    0.000    0.000 
#    0.000    2.000    0.000    3.600    0.000    8.400 
#    0.000    0.000    0.000    0.000    0.000    0.000 
#
# Total GULP energy -111469.281040 kJ/mol
# GULP energy per Si atom -5573.464052 kJ/mol
# Density = 1.729935 g / cm^3
# Si number density = 17.338817 Si / 1000 Ang^3
#
#
#
# Elastic Constant Matrix: (Units=GPa)
#
#
# Indices 1 2 3 4 5 6 
#
# 1 83.7979 -1.6174 64.0234 0.0000 -1.0657 0.0000
# 2 -1.6174 13.4711 -3.5092 0.0000 -3.0923 0.0000
# 3 64.0234 -3.5092 143.6322 0.0000 8.3134 0.0000
# 4 0.0000 0.0000 0.0000 -0.8316 0.0000 -8.0978
# 5 -1.0657 -3.0923 8.3134 0.0000 26.5023 0.0000
# 6 0.0000 0.0000 0.0000 -8.0978 0.0000 -17.5636
#
#
#
# Elastic Compliance Matrix: (Units=1/GPa)
#
#
# Indices 1 2 3 4 5 6 
#
# 1 0.018396 0.000821 -0.008381 0.000000 0.003464 0.000000
# 2 0.000821 0.076579 0.001004 0.000000 0.008653 0.000000
# 3 -0.008381 0.001004 0.010934 0.000000 -0.003650 0.000000
# 4 0.000000 0.000000 0.000000 0.344602 0.000000 -0.158881
# 5 0.003464 0.008653 -0.003650 0.000000 0.040026 0.000000
# 6 0.000000 0.000000 0.000000 -0.158881 0.000000 0.016317
#
#
# Mechanical properties :
#
#
# Convention : Reuss Voigt Hill
#
# Bulk Modulus (GPa) = 10.77604 39.85499 25.31552
# Shear Modulus (GPa) = 9.07609 13.75503 11.41556
#
# Velocity S-wave (km/s) = 2.29040 2.81963 2.56868
# Velocity P-wave (km/s) = 3.63635 5.79968 4.84042
#
# Compressibility (1/GPa) = 0.09279845
#
# Stress axis : x y z
#
# Youngs Moduli (GPa) = 54.35883 13.05834 91.46139
#
# Poissons Ratio (x) = -0.01072 0.76649
# Poissons Ratio (y) = -0.04462 -0.09184
# Poissons Ratio (z) = 0.45556 -0.01311
#
# Static dielectric constant tensor:
#      x y z
#    x 1.561840 0.000000 0.016720 
#    y 0.000000 1.595570 0.000000 
#    z 0.016720 0.000000 1.620580 
# 
# From -- ./inp_files/44612.got.cif
#   From: 2010.05.17/outbox.cif.g08.bks.cpg/sg10_23_cif.got.tgz:44612.got - 2010.06.03 11:33:40.
