data_PCOD9142384
_publ_section_title
;
Structure prediction by ZEFSAII (Michael W. Deem and Ramdas Pophale) SiO2 
 PCOD9142384
Probable space group: P 2/M
;
_chemical_formula_sum "Si O2"
_cell_formula_units_Z 28
_cell_length_a 14.156328
_cell_length_b 9.181746
_cell_length_c 14.183291
_cell_angle_alpha 90.000000
_cell_angle_beta 82.367348
_cell_angle_gamma 90.000000
_cell_volume 1827.207679
_symmetry_space_group_name_H-M "P 2/M"
_symmetry_group_IT_number 10
_symmetry_cell_setting 'monoclinic'
loop_
_space_group_symop_operation_xyz
x,y,z
-x,y,-z
-x,-y,-z
x,-y,z
loop_
_atom_site_type_symbol
_atom_site_label
_atom_site_fract_x
_atom_site_fract_y
_atom_site_fract_z
Si Si1 0.173472 0.174148 0.337883
Si Si2 0.089381 0.825727 0.920022
Si Si3 0.891719 0.332347 0.473575
Si Si4 0.519863 0.666752 0.110242
Si Si5 0.723748 0.675259 0.024952
Si Si6 0.331992 0.825843 0.164121
Si Si7 0.964885 0.825819 0.286902
O O1 0.170600 0.253122 0.438749
O O2 0.262671 0.210751 0.260070
O O3 0.075044 0.211751 0.296039
O O4 0.172455 0.000000 0.352847
O O5 0.180965 0.737960 0.942389
O O6 0.061453 0.788793 0.816494
O O7 0.108390 0.000000 0.922569
O O8 0.000000 0.795899 0.000000
O O9 0.864161 0.500000 0.466278
O O10 0.898874 0.252007 0.372746
O O11 0.000000 0.327312 0.500000
O O12 0.507966 0.500000 0.144480
O O13 0.630394 0.710713 0.100885
O O14 0.439539 0.769092 0.164603
O O15 0.500000 0.666850 0.000000
O O16 0.726235 0.500000 0.014421
O O17 0.707362 0.748410 0.925024
O O18 0.330778 0.000000 0.150699
O O19 0.956238 0.000000 0.299281
#
# Coordination Sequence:
#
# PCOD9142384 Si02
#       7
#     4   4   4   4   4   4   4
#     4   9  17  29  45  66  91 117 145 179 223 269
#     4  10  20  33  48  67  91 120 156 191 219 255
#     4   9  17  28  43  64  88 114 147 184 218 259
#     4   8  16  30  44  61  88 119 149 182 223 269
#     4  10  20  32  45  63  91 125 155 184 221 266
#     4  10  18  28  46  70  92 116 149 188 226 266
#     4   9  17  30  46  62  87 122 151 180 219 259
#
# _framework density 15.323929
#
# number of rings (size 3 to 8) (size 9 to 14) (size 15 to 20)
#    0.000    2.714    0.000    3.000    0.000    9.143 
#    0.000    2.857    0.000    0.000    0.000    1.000 
#    0.000    8.000    0.000    0.000    0.000    0.000 
#
# Total GULP energy -156020.966036 kJ/mol
# GULP energy per Si atom -5572.177358 kJ/mol
# Density = 1.528905 g / cm^3
# Si number density = 15.323929 Si / 1000 Ang^3
#
#
#
# Elastic Constant Matrix: (Units=GPa)
#
#
# Indices 1 2 3 4 5 6 
#
# 1 100.5029 52.5430 62.1890 0.0000 -19.7490 0.0000
# 2 52.5430 57.2333 63.2345 0.0000 -16.1083 0.0000
# 3 62.1890 63.2345 127.6071 0.0000 -21.0109 0.0000
# 4 0.0000 0.0000 0.0000 -5.3848 0.0000 -3.0610
# 5 -19.7490 -16.1083 -21.0109 0.0000 23.1419 0.0000
# 6 0.0000 0.0000 0.0000 -3.0610 0.0000 24.6226
#
#
#
# Elastic Compliance Matrix: (Units=1/GPa)
#
#
# Indices 1 2 3 4 5 6 
#
# 1 0.019702 -0.015416 -0.001130 0.000000 0.005057 0.000000
# 2 -0.015416 0.053300 -0.017586 0.000000 0.007978 0.000000
# 3 -0.001130 -0.017586 0.017551 0.000000 0.002730 0.000000
# 4 0.000000 0.000000 0.000000 -0.173450 0.000000 -0.021563
# 5 0.005057 0.007978 0.002730 0.000000 0.055559 0.000000
# 6 0.000000 0.000000 0.000000 -0.021563 0.000000 0.037932
#
#
# Mechanical properties :
#
#
# Convention : Reuss Voigt Hill
#
# Bulk Modulus (GPa) = 44.86256 71.25291 58.05773
# Shear Modulus (GPa) = 57.94429 15.63441 36.78935
#
# Velocity S-wave (km/s) = 6.15589 3.19762 4.90509
# Velocity P-wave (km/s) = 8.93680 7.76091 8.36953
#
# Compressibility (1/GPa) = 0.02229030
#
# Stress axis : x y z
#
# Youngs Moduli (GPa) = 50.75525 18.76160 56.97599
#
# Poissons Ratio (x) = 0.28923 0.06438
# Poissons Ratio (y) = 0.78244 1.00198
# Poissons Ratio (z) = 0.05735 0.32994
#
# Static dielectric constant tensor:
#      x y z
#    x 1.511250 0.000000 -0.009190 
#    y 0.000000 1.513380 0.000000 
#    z -0.009190 0.000000 1.488990 
# 
# From -- ./inp_files/54728.got.cif
#   From: 2010.05.17/outbox.cif.g08.bks.cpg/sg10_28_cif.got.tgz:54728.got - 2010.06.03 11:33:40.
