data_PCOD9142668
_publ_section_title
;
Structure prediction by ZEFSAII (Michael W. Deem and Ramdas Pophale) SiO2 
 PCOD9142668
Probable space group: P 2/M
;
_chemical_formula_sum "Si O2"
_cell_formula_units_Z 28
_cell_length_a 5.107812
_cell_length_b 16.770390
_cell_length_c 14.596386
_cell_angle_alpha 90.000000
_cell_angle_beta 91.641780
_cell_angle_gamma 90.000000
_cell_volume 1249.813141
_symmetry_space_group_name_H-M "P 2/M"
_symmetry_group_IT_number 10
_symmetry_cell_setting 'monoclinic'
loop_
_space_group_symop_operation_xyz
x,y,z
-x,y,-z
-x,-y,-z
x,-y,z
loop_
_atom_site_type_symbol
_atom_site_label
_atom_site_fract_x
_atom_site_fract_y
_atom_site_fract_z
Si Si1 0.588086 0.902012 0.101662
Si Si2 0.094616 0.907129 0.200647
Si Si3 0.391383 0.677833 0.214971
Si Si4 0.276746 0.500000 0.198954
Si Si5 0.061547 0.862873 0.404531
Si Si6 0.247113 0.500000 0.903983
Si Si7 0.558158 0.240080 0.404002
Si Si8 0.122877 0.317907 0.908573
O O1 0.869380 0.871228 0.135181
O O2 0.376761 0.875405 0.174927
O O3 0.601813 0.000000 0.101076
O O4 0.500000 0.877675 0.000000
O O5 0.021978 0.902293 0.305937
O O6 0.107933 0.000000 0.176755
O O7 0.384419 0.582931 0.238024
O O8 0.469618 0.718602 0.310265
O O9 0.602277 0.701340 0.138588
O O10 0.103138 0.691852 0.170472
O O11 0.437161 0.500000 0.104071
O O12 0.963878 0.500000 0.184921
O O13 0.362055 0.835583 0.408810
O O14 0.000000 0.905848 0.500000
O O15 0.857998 0.788565 0.403094
O O16 0.179526 0.411158 0.935760
O O17 0.500000 0.284223 0.500000
O O18 0.000000 0.281198 0.000000
#
# Coordination Sequence:
#
# PCOD9142668 Si02
#       8
#     4   4   4   2   4   2   4   4
#     4   9  17  30  50  77 109 143 176 207 241 291
#     4  10  19  32  54  82 109 136 167 210 261 297
#     4  10  19  33  52  74 102 132 167 213 252 295
#     4   8  16  28  46  74 100 124 160 208 260 294
#     4  10  21  37  57  79 102 131 171 212 252 309
#     4   8  15  26  42  68 101 132 163 198 238 300
#     4  10  21  38  58  75  95 134 179 211 249 304
#     4  10  18  29  48  74 103 135 166 199 250 305
#
# _framework density 22.403348999999999
#
# number of rings (size 3 to 8) (size 9 to 14) (size 15 to 20)
#    0.000    2.429    0.000    2.786    0.000    2.000 
#    0.000    4.643    0.000   22.286    0.000    9.000 
#    0.000    0.000    0.000    0.000    0.000    0.000 
#
# Total GULP energy -156098.685511 kJ/mol
# GULP energy per Si atom -5574.953054 kJ/mol
# Density = 2.235236 g / cm^3
# Si number density = 22.403349 Si / 1000 Ang^3
#
#
#
# Elastic Constant Matrix: (Units=GPa)
#
#
# Indices 1 2 3 4 5 6 
#
# 1 109.8882 15.7877 17.9014 0.0000 6.8838 0.0000
# 2 15.7877 49.9161 13.8001 0.0000 -0.8802 0.0000
# 3 17.9014 13.8001 103.1860 0.0000 0.6683 0.0000
# 4 0.0000 0.0000 0.0000 5.3056 0.0000 1.7411
# 5 6.8838 -0.8802 0.6683 0.0000 34.3955 0.0000
# 6 0.0000 0.0000 0.0000 1.7411 0.0000 13.2943
#
#
#
# Elastic Compliance Matrix: (Units=1/GPa)
#
#
# Indices 1 2 3 4 5 6 
#
# 1 0.009842 -0.002783 -0.001322 0.000000 -0.002015 0.000000
# 2 -0.002783 0.021601 -0.002414 0.000000 0.001157 0.000000
# 3 -0.001322 -0.002414 0.010243 0.000000 0.000004 0.000000
# 4 0.000000 0.000000 0.000000 0.196946 0.000000 -0.025793
# 5 -0.002015 0.001157 0.000004 0.000000 0.029506 0.000000
# 6 0.000000 0.000000 0.000000 -0.025793 0.000000 0.078598
#
#
# Mechanical properties :
#
#
# Convention : Reuss Voigt Hill
#
# Bulk Modulus (GPa) = 34.90496 39.77429 37.33963
# Shear Modulus (GPa) = 13.53823 24.96580 19.25201
#
# Velocity S-wave (km/s) = 2.46091 3.34185 2.93462
# Velocity P-wave (km/s) = 4.86712 5.71690 5.30904
#
# Compressibility (1/GPa) = 0.02864922
#
# Stress axis : x y z
#
# Youngs Moduli (GPa) = 101.60965 46.29314 97.62380
#
# Poissons Ratio (x) = 0.12882 0.12908
# Poissons Ratio (y) = 0.28275 0.23564
# Poissons Ratio (z) = 0.13434 0.11174
#
# Static dielectric constant tensor:
#      x y z
#    x 1.826410 0.000000 -0.027070 
#    y 0.000000 1.896670 0.000000 
#    z -0.027070 0.000000 1.846590 
# 
# From -- ./inp_files/12481.got.cif
#   From: 2010.05.17/outbox.cif.g08.bks.cpg/sg10_7_cif.got.tgz:12481.got - 2010.06.03 11:33:40.
