data_PCOD9142683
_publ_section_title
;
Structure prediction by ZEFSAII (Michael W. Deem and Ramdas Pophale) SiO2 
 PCOD9142683
Probable space group: P 2/M
;
_chemical_formula_sum "Si O2"
_cell_formula_units_Z 28
_cell_length_a 12.537104
_cell_length_b 12.250976
_cell_length_c 6.793258
_cell_angle_alpha 90.000000
_cell_angle_beta 94.651081
_cell_angle_gamma 90.000000
_cell_volume 1039.952557
_symmetry_space_group_name_H-M "P 2/M"
_symmetry_group_IT_number 10
_symmetry_cell_setting 'monoclinic'
loop_
_space_group_symop_operation_xyz
x,y,z
-x,y,-z
-x,-y,-z
x,-y,z
loop_
_atom_site_type_symbol
_atom_site_label
_atom_site_fract_x
_atom_site_fract_y
_atom_site_fract_z
Si Si1 0.596615 0.386223 0.219921
Si Si2 0.892785 0.378023 0.353328
Si Si3 0.126456 0.373526 0.122785
Si Si4 0.629688 0.654566 0.690670
Si Si5 0.648845 0.888334 0.592383
Si Si6 0.136002 0.122804 0.132320
Si Si7 0.740746 0.195525 0.231583
O O1 0.643315 0.500000 0.152798
O O2 0.468764 0.389430 0.198277
O O3 0.621573 0.381591 0.460548
O O4 0.655944 0.283185 0.135063
O O5 0.852138 0.500000 0.395537
O O6 0.896992 0.376850 0.115127
O O7 0.817960 0.273486 0.375047
O O8 0.000000 0.365807 0.500000
O O9 0.094200 0.500000 0.181988
O O10 0.087709 0.245741 0.166895
O O11 0.251145 0.367057 0.210638
O O12 0.597282 0.781335 0.668510
O O13 0.672416 0.878708 0.365391
O O14 0.594070 0.000000 0.641359
O O15 0.765707 0.886221 0.705766
O O16 0.188762 0.137018 0.922711
O O17 0.083577 0.000000 0.141316
#
# Coordination Sequence:
#
# PCOD9142683 Si02
#       7
#     4   4   4   4   4   4   4
#     4  10  18  29  48  76 111 143 177 223 270 320
#     4   9  18  33  53  78 108 141 179 227 281 331
#     4   9  16  29  52  76  99 133 175 215 260 317
#     4   9  17  30  49  77 108 143 178 215 268 325
#     4   9  18  33  53  76 105 143 184 225 268 320
#     4   9  18  33  52  75 106 141 176 220 272 322
#     4  10  19  32  54  79 102 141 187 222 270 330
#
# _framework density 26.924302000000001
#
# number of rings (size 3 to 8) (size 9 to 14) (size 15 to 20)
#    0.000    2.714    0.000    2.571    0.000    0.571 
#    0.000   13.571    0.000   40.714    0.000   55.000 
#    0.000    0.000    0.000    0.000    0.000    0.000 
#
# Total GULP energy -156230.740306 kJ/mol
# GULP energy per Si atom -5579.669297 kJ/mol
# Density = 2.686302 g / cm^3
# Si number density = 26.924302 Si / 1000 Ang^3
#
#
#
# Elastic Constant Matrix: (Units=GPa)
#
#
# Indices 1 2 3 4 5 6 
#
# 1 73.0019 26.1894 20.1624 0.0000 35.5131 0.0000
# 2 26.1894 261.9765 23.2068 0.0000 1.0043 0.0000
# 3 20.1624 23.2068 128.9187 0.0000 15.6201 0.0000
# 4 0.0000 0.0000 0.0000 65.5137 0.0000 47.5498
# 5 35.5131 1.0043 15.6201 0.0000 62.1670 0.0000
# 6 0.0000 0.0000 0.0000 47.5498 0.0000 40.8920
#
#
#
# Elastic Compliance Matrix: (Units=1/GPa)
#
#
# Indices 1 2 3 4 5 6 
#
# 1 0.020181 -0.001844 -0.001476 0.000000 -0.011128 0.000000
# 2 -0.001844 0.004048 -0.000578 0.000000 0.001133 0.000000
# 3 -0.001476 -0.000578 0.008239 0.000000 -0.001218 0.000000
# 4 0.000000 0.000000 0.000000 0.097827 0.000000 -0.113755
# 5 -0.011128 0.001133 -0.001218 0.000000 0.022730 0.000000
# 6 0.000000 0.000000 0.000000 -0.113755 0.000000 0.156730
#
#
# Mechanical properties :
#
#
# Convention : Reuss Voigt Hill
#
# Bulk Modulus (GPa) = 40.53031 67.00158 53.76594
# Shear Modulus (GPa) = 15.34799 60.00377 37.67588
#
# Velocity S-wave (km/s) = 2.39015 4.72594 3.74482
# Velocity P-wave (km/s) = 4.76478 7.39720 6.22180
#
# Compressibility (1/GPa) = 0.02467289
#
# Stress axis : x y z
#
# Youngs Moduli (GPa) = 49.55226 247.01683 121.37120
#
# Poissons Ratio (x) = 0.45551 0.17914
# Poissons Ratio (y) = 0.09138 0.07011
# Poissons Ratio (z) = 0.07314 0.14269
#
# Static dielectric constant tensor:
#      x y z
#    x 2.170540 0.000000 -0.039550 
#    y 0.000000 2.105880 0.000000 
#    z -0.039550 0.000000 2.162020 
# 
# From -- ./inp_files/28345.got.cif
#   From: 2010.05.17/outbox.cif.g08.bks.cpg/sg10_15_cif.got.tgz:28345.got - 2010.06.03 11:33:40.
