data_PCOD9142443
_publ_section_title
;
Structure prediction by ZEFSAII (Michael W. Deem and Ramdas Pophale) SiO2 
 PCOD9142443
Probable space group: P 2/M
;
_chemical_formula_sum "Si O2"
_cell_formula_units_Z 26
_cell_length_a 9.447878
_cell_length_b 13.004799
_cell_length_c 15.673195
_cell_angle_alpha 90.000000
_cell_angle_beta 138.452757
_cell_angle_gamma 90.000000
_cell_volume 1277.216284
_symmetry_space_group_name_H-M "P 2/M"
_symmetry_group_IT_number 10
_symmetry_cell_setting 'monoclinic'
loop_
_space_group_symop_operation_xyz
x,y,z
-x,y,-z
-x,-y,-z
x,-y,z
loop_
_atom_site_type_symbol
_atom_site_label
_atom_site_fract_x
_atom_site_fract_y
_atom_site_fract_z
Si Si1 0.752593 0.117068 0.364131
Si Si2 0.164489 0.619673 0.153997
Si Si3 0.022498 0.229265 0.787063
Si Si4 0.512575 0.707867 0.823559
Si Si5 0.296442 0.881880 0.468398
Si Si6 0.839763 0.890960 0.006088
Si Si7 0.500000 0.682939 0.000000
O O1 0.691737 0.220270 0.286066
O O2 0.634289 0.128029 0.401976
O O3 0.000000 0.119068 0.500000
O O4 0.712740 0.000000 0.312168
O O5 0.161545 0.500000 0.175428
O O6 0.088828 0.686600 0.200820
O O7 0.392283 0.651169 0.215975
O O8 0.000000 0.634607 0.000000
O O9 0.882906 0.198929 0.642549
O O10 0.271138 0.259112 0.886014
O O11 0.030384 0.128086 0.849523
O O12 0.680476 0.798310 0.920533
O O13 0.513261 0.637282 0.909553
O O14 0.500000 0.868644 0.500000
O O15 0.217000 0.000000 0.424439
O O16 0.727227 0.000000 0.959355
O O17 0.000000 0.890660 0.000000
#
# Coordination Sequence:
#
# PCOD9142443 Si02
#       7
#     4   4   4   4   4   4   2
#     4  10  21  36  55  81 115 159 193 217 261 326
#     4  11  21  38  61  82 109 139 182 232 291 349
#     4  11  19  38  52  82 114 144 178 231 279 336
#     4  11  19  38  54  82 112 147 184 231 280 330
#     4  10  21  34  54  82 110 149 193 231 264 312
#     4  10  18  28  49  79 104 140 177 218 270 327
#     4  10  22  32  56  82 110 144 180 224 286 344
#
# _framework density 20.356771999999999
#
# number of rings (size 3 to 8) (size 9 to 14) (size 15 to 20)
#    0.000    1.538    4.615    2.769    0.000    0.000 
#    0.000   14.615    0.000    4.615    0.000    0.000 
#    0.000    0.000    0.000    0.000    0.000    0.000 
#
# Total GULP energy -144747.551697 kJ/mol
# GULP energy per Si atom -5567.213527 kJ/mol
# Density = 2.031044 g / cm^3
# Si number density = 20.356772 Si / 1000 Ang^3
#
#
#
# Elastic Constant Matrix: (Units=GPa)
#
#
# Indices 1 2 3 4 5 6 
#
# 1 89.7576 14.7703 7.5550 0.0000 -1.0056 0.0000
# 2 14.7703 76.7507 20.0038 0.0000 5.7692 0.0000
# 3 7.5550 20.0038 51.7680 0.0000 4.6120 0.0000
# 4 0.0000 0.0000 0.0000 16.4850 0.0000 -3.0405
# 5 -1.0056 5.7692 4.6120 0.0000 21.9760 0.0000
# 6 0.0000 0.0000 0.0000 -3.0405 0.0000 8.9888
#
#
#
# Elastic Compliance Matrix: (Units=1/GPa)
#
#
# Indices 1 2 3 4 5 6 
#
# 1 0.011580 -0.002062 -0.001007 0.000000 0.001283 0.000000
# 2 -0.002062 0.015012 -0.005238 0.000000 -0.002936 0.000000
# 3 -0.001007 -0.005238 0.021777 0.000000 -0.003241 0.000000
# 4 0.000000 0.000000 0.000000 0.064697 0.000000 0.021884
# 5 0.001283 -0.002936 -0.003241 0.000000 0.047014 0.000000
# 6 0.000000 0.000000 0.000000 0.021884 0.000000 0.118652
#
#
# Mechanical properties :
#
#
# Convention : Reuss Voigt Hill
#
# Bulk Modulus (GPa) = 31.49336 33.65937 32.57636
# Shear Modulus (GPa) = 16.34349 21.21978 18.78163
#
# Velocity S-wave (km/s) = 2.83654 3.23212 3.04077
# Velocity P-wave (km/s) = 5.12174 5.52262 5.32596
#
# Compressibility (1/GPa) = 0.03175273
#
# Stress axis : x y z
#
# Youngs Moduli (GPa) = 86.35840 66.61312 45.92033
#
# Poissons Ratio (x) = 0.13738 0.04626
# Poissons Ratio (y) = 0.17810 0.24054
# Poissons Ratio (z) = 0.08699 0.34894
#
# Static dielectric constant tensor:
#      x y z
#    x 1.826950 0.000000 -0.020160 
#    y 0.000000 1.718940 0.000000 
#    z -0.020160 0.000000 1.787120 
# 
# From -- ./inp_files/62087.got.cif
#   From: 2010.05.17/outbox.cif.g08.bks.cpg/sg10_32_cif.got.tgz:62087.got - 2010.06.03 11:33:40.
