data_PCOD9142206
_publ_section_title
;
Structure prediction by ZEFSAII (Michael W. Deem and Ramdas Pophale) SiO2 
 PCOD9142206
Probable space group: P 2/M
;
_chemical_formula_sum "Si O2"
_cell_formula_units_Z 28
_cell_length_a 5.082934
_cell_length_b 20.064092
_cell_length_c 12.603907
_cell_angle_alpha 90.000000
_cell_angle_beta 89.240379
_cell_angle_gamma 90.000000
_cell_volume 1285.289624
_symmetry_space_group_name_H-M "P 2/M"
_symmetry_group_IT_number 10
_symmetry_cell_setting 'monoclinic'
loop_
_space_group_symop_operation_xyz
x,y,z
-x,y,-z
-x,-y,-z
x,-y,z
loop_
_atom_site_type_symbol
_atom_site_label
_atom_site_fract_x
_atom_site_fract_y
_atom_site_fract_z
Si Si1 0.581810 0.841234 0.108783
Si Si2 0.080890 0.923936 0.158495
Si Si3 0.478336 0.648781 0.268591
Si Si4 0.593396 0.500000 0.279019
Si Si5 0.078811 0.867201 0.389195
Si Si6 0.894800 0.500000 0.845029
Si Si7 0.580363 0.215969 0.340001
Si Si8 0.013630 0.352487 0.881552
O O1 0.868325 0.874004 0.109669
O O2 0.558542 0.796890 0.213311
O O3 0.370101 0.900650 0.123514
O O4 0.500000 0.806543 0.000000
O O5 0.061908 0.913373 0.285841
O O6 0.028404 0.000000 0.130932
O O7 0.503023 0.573849 0.318321
O O8 0.523102 0.706542 0.354174
O O9 0.709329 0.654256 0.179221
O O10 0.210263 0.664046 0.204905
O O11 0.907322 0.500000 0.259251
O O12 0.418234 0.500000 0.171965
O O13 0.362575 0.832678 0.390436
O O14 0.000000 0.900874 0.500000
O O15 0.866160 0.808345 0.373006
O O16 0.965731 0.431026 0.896149
O O17 0.000000 0.321067 0.000000
#
# Coordination Sequence:
#
# PCOD9142206 Si02
#       8
#     4   4   4   2   4   2   4   4
#     4  10  21  35  52  77 113 154 189 217 248 296
#     4  10  21  36  56  84 113 141 178 220 260 307
#     4  10  19  32  47  69  99 132 173 222 267 316
#     4   8  16  28  45  66  91 128 170 210 270 324
#     4  10  21  39  61  83 106 134 171 218 273 325
#     4   8  15  26  38  56  88 124 165 214 253 298
#     4  10  21  37  55  79 108 139 180 224 262 314
#     4  10  18  27  41  63  92 131 173 212 256 302
#
# _framework density 21.784972
#
# number of rings (size 3 to 8) (size 9 to 14) (size 15 to 20)
#    0.000    2.286    0.000    2.786    0.000    3.143 
#    0.000    4.286    0.000    5.143    0.000    3.000 
#    0.000    0.000    0.000    0.000    0.000    0.000 
#
# Total GULP energy -156147.863987 kJ/mol
# GULP energy per Si atom -5576.709428 kJ/mol
# Density = 2.173539 g / cm^3
# Si number density = 21.784972 Si / 1000 Ang^3
#
#
#
# Elastic Constant Matrix: (Units=GPa)
#
#
# Indices 1 2 3 4 5 6 
#
# 1 88.6838 0.9142 2.8213 0.0000 6.1582 0.0000
# 2 0.9142 64.6819 -13.0967 0.0000 6.0582 0.0000
# 3 2.8213 -13.0967 70.6832 0.0000 2.1164 0.0000
# 4 0.0000 0.0000 0.0000 -12.6399 0.0000 -19.0885
# 5 6.1582 6.0582 2.1164 0.0000 12.1100 0.0000
# 6 0.0000 0.0000 0.0000 -19.0885 0.0000 -59.0836
#
#
#
# Elastic Compliance Matrix: (Units=1/GPa)
#
#
# Indices 1 2 3 4 5 6 
#
# 1 0.011702 0.000361 -0.000218 0.000000 -0.006094 0.000000
# 2 0.000361 0.017018 0.003417 0.000000 -0.009294 0.000000
# 3 -0.000218 0.003417 0.014915 0.000000 -0.004205 0.000000
# 4 0.000000 0.000000 0.000000 -0.154493 0.000000 0.049913
# 5 -0.006094 -0.009294 -0.004205 0.000000 0.091059 0.000000
# 6 0.000000 0.000000 0.000000 0.049913 0.000000 -0.033051
#
#
# Mechanical properties :
#
#
# Convention : Reuss Voigt Hill
#
# Bulk Modulus (GPa) = 19.70191 22.81403 21.25797
# Shear Modulus (GPa) = -116.14124 3.63798 -56.25163
#
# Velocity S-wave (km/s) = -7.30947 1.29367 -5.08698
# Velocity P-wave (km/s) = 7.88507 3.56743 4.97231
#
# Compressibility (1/GPa) = 0.05075649
#
# Stress axis : x y z
#
# Youngs Moduli (GPa) = 85.45283 58.76279 67.04489
#
# Poissons Ratio (x) = -0.02123 0.01460
# Poissons Ratio (y) = -0.03087 -0.22909
# Poissons Ratio (z) = 0.01860 -0.20079
#
# Static dielectric constant tensor:
#      x y z
#    x 1.772030 0.000000 -0.025810 
#    y 0.000000 1.817520 0.000000 
#    z -0.025810 0.000000 1.877840 
# 
# From -- ./inp_files/39611.got.cif
#   From: 2010.05.17/outbox.cif.g08.bks.cpg/sg10_20_cif.got.tgz:39611.got - 2010.06.03 11:33:40.
