data_PCOD9142507
_publ_section_title
;
Structure prediction by ZEFSAII (Michael W. Deem and Ramdas Pophale) SiO2 
 PCOD9142507
Probable space group: P 2/M
;
_chemical_formula_sum "Si O2"
_cell_formula_units_Z 28
_cell_length_a 16.701562
_cell_length_b 8.608264
_cell_length_c 14.135293
_cell_angle_alpha 90.000000
_cell_angle_beta 63.924302
_cell_angle_gamma 90.000000
_cell_volume 1825.397068
_symmetry_space_group_name_H-M "P 2/M"
_symmetry_group_IT_number 10
_symmetry_cell_setting 'monoclinic'
loop_
_space_group_symop_operation_xyz
x,y,z
-x,y,-z
-x,-y,-z
x,-y,z
loop_
_atom_site_type_symbol
_atom_site_label
_atom_site_fract_x
_atom_site_fract_y
_atom_site_fract_z
Si Si1 0.182287 0.812604 0.023308
Si Si2 0.459028 0.189172 0.167257
Si Si3 0.638734 0.810622 0.968793
Si Si4 0.195002 0.184554 0.795160
Si Si5 0.369930 0.683702 0.611623
Si Si6 0.454954 0.813700 0.383679
Si Si7 0.006879 0.320495 0.881963
O O1 0.265927 0.758661 0.042225
O O2 0.086936 0.746781 0.104379
O O3 0.177584 0.000000 0.028806
O O4 0.198937 0.770012 0.904490
O O5 0.389577 0.238304 0.122096
O O6 0.440216 0.239353 0.283646
O O7 0.458962 0.000000 0.167943
O O8 0.557523 0.236114 0.080136
O O9 0.639968 0.000000 0.968722
O O10 0.272958 0.268610 0.698048
O O11 0.096422 0.228570 0.810216
O O12 0.208164 0.000000 0.782669
O O13 0.383087 0.500000 0.612097
O O14 0.389838 0.737706 0.494309
O O15 0.445235 0.768062 0.635871
O O16 0.446261 0.000000 0.393218
O O17 0.016579 0.500000 0.850451
O O18 0.000000 0.311140 0.000000
#
# Coordination Sequence:
#
# PCOD9142507 Si02
#       7
#     4   4   4   4   4   4   4
#     4   9  16  26  43  65  89 116 145 177 211 251
#     4   8  14  24  41  64  89 114 142 179 215 246
#     4   8  13  23  40  65  91 113 141 176 214 250
#     4  10  18  29  45  65  87 113 146 180 212 251
#     4  11  21  31  43  62  87 116 146 177 218 260
#     4  10  18  30  46  64  86 114 148 182 212 247
#     4   9  17  28  41  60  88 118 144 173 212 256
#
# _framework density 15.339127
#
# number of rings (size 3 to 8) (size 9 to 14) (size 15 to 20)
#    0.000    2.714    0.000    5.143    0.000    4.571 
#    0.000    0.000    0.000    1.714    0.000    7.000 
#    0.000    8.000    0.000    0.000    0.000    0.000 
#
# Total GULP energy -156024.933187 kJ/mol
# GULP energy per Si atom -5572.319042 kJ/mol
# Density = 1.530421 g / cm^3
# Si number density = 15.339127 Si / 1000 Ang^3
#
#
#
# Elastic Constant Matrix: (Units=GPa)
#
#
# Indices 1 2 3 4 5 6 
#
# 1 109.8674 8.0924 42.3154 0.0000 -3.6492 0.0000
# 2 8.0924 21.1229 8.9797 0.0000 -3.2469 0.0000
# 3 42.3154 8.9797 73.2128 0.0000 0.5420 0.0000
# 4 0.0000 0.0000 0.0000 10.0648 0.0000 -3.4496
# 5 -3.6492 -3.2469 0.5420 0.0000 23.1072 0.0000
# 6 0.0000 0.0000 0.0000 -3.4496 0.0000 -1.2461
#
#
#
# Elastic Compliance Matrix: (Units=1/GPa)
#
#
# Indices 1 2 3 4 5 6 
#
# 1 0.011841 -0.001414 -0.006684 0.000000 0.001828 0.000000
# 2 -0.001414 0.051329 -0.005531 0.000000 0.007119 0.000000
# 3 -0.006684 -0.005531 0.018217 0.000000 -0.002260 0.000000
# 4 0.000000 0.000000 0.000000 0.050983 0.000000 -0.141137
# 5 0.001828 0.007119 -0.002260 0.000000 0.044619 0.000000
# 6 0.000000 0.000000 0.000000 -0.141137 0.000000 -0.411789
#
#
# Mechanical properties :
#
#
# Convention : Reuss Voigt Hill
#
# Bulk Modulus (GPa) = 18.47425 35.88647 27.18036
# Shear Modulus (GPa) = -26.38540 16.03955 -5.17293
#
# Velocity S-wave (km/s) = -4.15195 3.23718 -1.83839
# Velocity P-wave (km/s) = 3.30378 6.11707 3.64031
#
# Compressibility (1/GPa) = 0.05412940
#
# Stress axis : x y z
#
# Youngs Moduli (GPa) = 84.45163 19.48204 54.89333
#
# Poissons Ratio (x) = 0.02755 0.36691
# Poissons Ratio (y) = 0.11941 0.30362
# Poissons Ratio (z) = 0.56448 0.10776
#
# Static dielectric constant tensor:
#      x y z
#    x 1.510470 0.000000 0.005420 
#    y 0.000000 1.515290 0.000000 
#    z 0.005420 0.000000 1.495450 
# 
# From -- ./inp_files/65928.got.cif
#   From: 2010.05.17/outbox.cif.g08.bks.cpg/sg10_33_cif.got.tgz:65928.got - 2010.06.03 11:33:40.
