data_PCOD9142396
_publ_section_title
;
Structure prediction by ZEFSAII (Michael W. Deem and Ramdas Pophale) SiO2 
 PCOD9142396
Probable space group: P 2/M
;
_chemical_formula_sum "Si O2"
_cell_formula_units_Z 20
_cell_length_a 22.109174
_cell_length_b 9.130318
_cell_length_c 10.523094
_cell_angle_alpha 90.000000
_cell_angle_beta 144.935959
_cell_angle_gamma 90.000000
_cell_volume 1220.353368
_symmetry_space_group_name_H-M "P 2/M"
_symmetry_group_IT_number 10
_symmetry_cell_setting 'monoclinic'
loop_
_space_group_symop_operation_xyz
x,y,z
-x,y,-z
-x,-y,-z
x,-y,z
loop_
_atom_site_type_symbol
_atom_site_label
_atom_site_fract_x
_atom_site_fract_y
_atom_site_fract_z
Si Si1 0.501865 0.668919 0.157959
Si Si2 0.933497 0.175641 0.011568
Si Si3 0.286824 0.825215 0.484766
Si Si4 0.727800 0.323397 0.265324
Si Si5 0.955329 0.323784 0.559165
O O1 0.518019 0.500000 0.223618
O O2 0.600927 0.764851 0.369166
O O3 0.500000 0.672742 0.000000
O O4 0.383857 0.717659 0.990622
O O5 0.811738 0.211685 0.774367
O O6 0.942934 0.000000 0.042340
O O7 0.000000 0.216707 0.000000
O O8 0.980840 0.253394 0.215373
O O9 0.265674 0.753123 0.586204
O O10 0.290924 0.000000 0.506578
O O11 0.723632 0.500000 0.277652
O O12 0.832005 0.287600 0.365764
O O13 0.964798 0.500000 0.583343
O O14 0.000000 0.276188 0.500000
#
# Coordination Sequence:
#
# PCOD9142396 Si02
#       5
#     4   4   4   4   4
#     4   8  15  27  43  66  96 127 157 193 243 293
#     4  10  20  34  50  72 102 132 163 202 248 294
#     4  10  18  28  46  72  99 124 159 203 240 284
#     4   9  17  30  47  68  98 130 158 196 245 291
#     4  10  21  35  52  75 100 129 168 207 243 291
#
# _framework density 16.388695999999999
#
# number of rings (size 3 to 8) (size 9 to 14) (size 15 to 20)
#    0.000    2.600    2.000    1.800    0.000    6.000 
#    0.000    0.000    0.000    1.200    0.000    8.400 
#    0.000    0.000    0.000    0.000    0.000    0.000 
#
# Total GULP energy -111439.182947 kJ/mol
# GULP energy per Si atom -5571.959147 kJ/mol
# Density = 1.635139 g / cm^3
# Si number density = 16.388696 Si / 1000 Ang^3
#
#
#
# Elastic Constant Matrix: (Units=GPa)
#
#
# Indices 1 2 3 4 5 6 
#
# 1 117.4666 37.8128 88.1086 0.0000 22.6836 0.0000
# 2 37.8128 25.8590 42.6780 0.0000 12.8232 0.0000
# 3 88.1086 42.6780 124.0341 0.0000 30.7406 0.0000
# 4 0.0000 0.0000 0.0000 31.2932 0.0000 4.3410
# 5 22.6836 12.8232 30.7406 0.0000 32.9872 0.0000
# 6 0.0000 0.0000 0.0000 4.3410 0.0000 15.4875
#
#
#
# Elastic Compliance Matrix: (Units=1/GPa)
#
#
# Indices 1 2 3 4 5 6 
#
# 1 0.020068 -0.013569 -0.009718 0.000000 0.000531 0.000000
# 2 -0.013569 0.100288 -0.022780 0.000000 -0.008426 0.000000
# 3 -0.009718 -0.022780 0.024645 0.000000 -0.007428 0.000000
# 4 0.000000 0.000000 0.000000 0.033249 0.000000 -0.009319
# 5 0.000531 -0.008426 -0.007428 0.000000 0.040147 0.000000
# 6 0.000000 0.000000 0.000000 -0.009319 0.000000 0.067181
#
#
# Mechanical properties :
#
#
# Convention : Reuss Voigt Hill
#
# Bulk Modulus (GPa) = 18.91587 67.17318 43.04452
# Shear Modulus (GPa) = 12.64757 22.53759 17.59258
#
# Velocity S-wave (km/s) = 2.78101 3.71238 3.27992
# Velocity P-wave (km/s) = 4.67751 7.71052 6.37696
#
# Compressibility (1/GPa) = 0.05286567
#
# Stress axis : x y z
#
# Youngs Moduli (GPa) = 49.83178 9.97132 40.57634
#
# Poissons Ratio (x) = 0.13530 0.39432
# Poissons Ratio (y) = 0.67617 0.92434
# Poissons Ratio (z) = 0.48426 0.22715
#
# Static dielectric constant tensor:
#      x y z
#    x 1.560940 0.000000 0.046540 
#    y 0.000000 1.546680 0.000000 
#    z 0.046540 0.000000 1.541950 
# 
# From -- ./inp_files/22279.got.cif
#   From: 2010.05.17/outbox.cif.g08.bks.cpg/sg10_12_cif.got.tgz:22279.got - 2010.06.03 11:33:40.
