data_PCOD9142765
_publ_section_title
;
Structure prediction by ZEFSAII (Michael W. Deem and Ramdas Pophale) SiO2 
 PCOD9142765
Probable space group: P 2/M
;
_chemical_formula_sum "Si O2"
_cell_formula_units_Z 22
_cell_length_a 11.793515
_cell_length_b 7.438097
_cell_length_c 24.991992
_cell_angle_alpha 90.000000
_cell_angle_beta 23.014322
_cell_angle_gamma 90.000000
_cell_volume 857.116087
_symmetry_space_group_name_H-M "P 2/M"
_symmetry_group_IT_number 10
_symmetry_cell_setting 'monoclinic'
loop_
_space_group_symop_operation_xyz
x,y,z
-x,y,-z
-x,-y,-z
x,-y,z
loop_
_atom_site_type_symbol
_atom_site_label
_atom_site_fract_x
_atom_site_fract_y
_atom_site_fract_z
Si Si1 0.282765 0.782992 0.911776
Si Si2 0.219001 0.500000 0.485688
Si Si3 0.180920 0.718124 0.157073
Si Si4 0.243654 0.203292 0.568775
Si Si5 0.626665 0.794699 0.666224
Si Si6 0.079887 0.294073 0.837992
O O1 0.554162 0.723783 0.757847
O O2 0.289435 0.000000 0.911761
O O3 0.220180 0.709765 0.998052
O O4 0.000000 0.726024 0.000000
O O5 0.239996 0.343991 0.523316
O O6 0.213662 0.659641 0.441919
O O7 0.178641 0.500000 0.159532
O O8 0.971648 0.773506 0.198904
O O9 0.053498 0.786588 0.267723
O O10 0.500000 0.775254 0.000000
O O11 0.500000 0.244157 0.500000
O O12 0.284144 0.000000 0.531320
O O13 0.312905 0.805755 0.772304
O O14 0.721592 0.000000 0.630299
O O15 0.192063 0.500000 0.785516
#
# Coordination Sequence:
#
# PCOD9142765 Si02
#       6
#     4   2   4   4   4   4
#     4   8  16  29  45  72 111 147 181 227 287 348
#     4  12  21  34  54  76 110 148 187 228 282 336
#     4  10  22  40  59  84 118 155 197 242 286 342
#     4  11  24  39  59  86 116 151 196 244 290 342
#     4  10  20  32  50  81 117 150 186 233 288 345
#     4  10  18  29  52  79 109 150 191 233 291 345
#
# _framework density 25.667468
#
# number of rings (size 3 to 8) (size 9 to 14) (size 15 to 20)
#    0.000    2.000    1.818    3.545    3.818    4.364 
#    0.000    0.000    0.000    0.000    0.000    2.545 
#    0.000    4.364    0.000    0.000    0.000    0.000 
#
# Total GULP energy -122673.046399 kJ/mol
# GULP energy per Si atom -5576.047564 kJ/mol
# Density = 2.560905 g / cm^3
# Si number density = 25.667468 Si / 1000 Ang^3
#
#
#
# Elastic Constant Matrix: (Units=GPa)
#
#
# Indices 1 2 3 4 5 6 
#
# 1 72.0633 40.4186 34.4537 0.0000 34.8779 0.0000
# 2 40.4186 128.3164 30.1312 0.0000 34.5006 0.0000
# 3 34.4537 30.1312 109.9814 0.0000 18.5529 0.0000
# 4 0.0000 0.0000 0.0000 37.5472 0.0000 26.4696
# 5 34.8779 34.5006 18.5529 0.0000 45.0786 0.0000
# 6 0.0000 0.0000 0.0000 26.4696 0.0000 0.0426
#
#
#
# Elastic Compliance Matrix: (Units=1/GPa)
#
#
# Indices 1 2 3 4 5 6 
#
# 1 0.024999 -0.002664 -0.004495 0.000000 -0.015453 0.000000
# 2 -0.002664 0.010341 -0.001087 0.000000 -0.005406 0.000000
# 3 -0.004495 -0.001087 0.010823 0.000000 -0.000145 0.000000
# 4 0.000000 0.000000 0.000000 -0.000061 0.000000 0.037866
# 5 -0.015453 -0.005406 -0.000145 0.000000 0.038337 0.000000
# 6 0.000000 0.000000 0.000000 0.037866 0.000000 -0.053713
#
#
# Mechanical properties :
#
#
# Convention : Reuss Voigt Hill
#
# Bulk Modulus (GPa) = 33.70180 57.81868 45.76024
# Shear Modulus (GPa) = 87.55393 30.22419 58.88906
#
# Velocity S-wave (km/s) = 5.84679 3.43524 4.79509
# Velocity P-wave (km/s) = 7.66411 6.18946 6.96592
#
# Compressibility (1/GPa) = 0.02967200
#
# Stress axis : x y z
#
# Youngs Moduli (GPa) = 40.00145 96.70165 92.39875
#
# Poissons Ratio (x) = 0.25762 0.41531
# Poissons Ratio (y) = 0.10657 0.10040
# Poissons Ratio (z) = 0.17980 0.10507
#
# Static dielectric constant tensor:
#      x y z
#    x 2.059460 0.000000 -0.250060 
#    y 0.000000 1.936700 0.000000 
#    z -0.250060 0.000000 2.450160 
# 
# From -- ./inp_files/95206.got.cif
#   From: 2010.05.17/outbox.cif.g08.bks.cpg/sg10_48_cif.got.tgz:95206.got - 2010.06.03 11:33:40.
