data_PCOD9142025
_publ_section_title
;
Structure prediction by ZEFSAII (Michael W. Deem and Ramdas Pophale) SiO2 
 PCOD9142025
Probable space group: P 2/M
;
_chemical_formula_sum "Si O2"
_cell_formula_units_Z 16
_cell_length_a 13.957433
_cell_length_b 12.226996
_cell_length_c 15.793139
_cell_angle_alpha 90.000000
_cell_angle_beta 19.304745
_cell_angle_gamma 90.000000
_cell_volume 891.018757
_symmetry_space_group_name_H-M "P 2/M"
_symmetry_group_IT_number 10
_symmetry_cell_setting 'monoclinic'
loop_
_space_group_symop_operation_xyz
x,y,z
-x,y,-z
-x,-y,-z
x,-y,z
loop_
_atom_site_type_symbol
_atom_site_label
_atom_site_fract_x
_atom_site_fract_y
_atom_site_fract_z
Si Si1 0.211331 0.666241 0.398187
Si Si2 0.865168 0.315148 0.851925
Si Si3 0.497195 0.872457 0.900650
Si Si4 0.165459 0.367739 0.777210
O O1 0.545829 0.629643 0.113043
O O2 0.252640 0.797622 0.349360
O O3 0.000000 0.627442 0.500000
O O4 0.071796 0.643250 0.605003
O O5 0.005392 0.329886 0.825942
O O6 0.788508 0.188145 0.896350
O O7 0.519696 0.000000 0.863411
O O8 0.500000 0.856488 0.000000
O O9 0.500000 0.332362 0.500000
O O10 0.162014 0.500000 0.778863
O O11 0.000000 0.331728 0.000000
#
# Coordination Sequence:
#
# PCOD9142025 Si02
#       4
#     4   4   4   4
#     4  10  17  31  47  75 107 142 169 200 247 301
#     4  10  19  32  52  76 105 137 167 216 262 301
#     4   9  18  30  50  78 109 142 178 206 241 296
#     4  10  21  38  60  81  97 124 175 229 270 308
#
# _framework density 17.956972
#
# number of rings (size 3 to 8) (size 9 to 14) (size 15 to 20)
#    1.500    0.750    2.500    2.250    0.000    1.500 
#    0.000    0.000    0.000    9.750    0.000    0.000 
#    0.000    0.000    0.000    0.000    0.000    0.000 
#
# Total GULP energy -89099.618100 kJ/mol
# GULP energy per Si atom -5568.726131 kJ/mol
# Density = 1.791610 g / cm^3
# Si number density = 17.956972 Si / 1000 Ang^3
#
#
#
# Elastic Constant Matrix: (Units=GPa)
#
#
# Indices 1 2 3 4 5 6 
#
# 1 156.4635 22.3545 72.3833 0.0000 7.8844 0.0000
# 2 22.3545 61.8076 20.2362 0.0000 0.7788 0.0000
# 3 72.3833 20.2362 139.9874 0.0000 13.4636 0.0000
# 4 0.0000 0.0000 0.0000 -20.9780 0.0000 -5.8851
# 5 7.8844 0.7788 13.4636 0.0000 37.3852 0.0000
# 6 0.0000 0.0000 0.0000 -5.8851 0.0000 16.6580
#
#
#
# Elastic Compliance Matrix: (Units=1/GPa)
#
#
# Indices 1 2 3 4 5 6 
#
# 1 0.008577 -0.001737 -0.004157 0.000000 -0.000276 0.000000
# 2 -0.001737 0.017346 -0.001667 0.000000 0.000606 0.000000
# 3 -0.004157 -0.001667 0.009785 0.000000 -0.002613 0.000000
# 4 0.000000 0.000000 0.000000 -0.043371 0.000000 -0.015322
# 5 -0.000276 0.000606 -0.002613 0.000000 0.027735 0.000000
# 6 0.000000 0.000000 0.000000 -0.015322 0.000000 0.054618
#
#
# Mechanical properties :
#
#
# Convention : Reuss Voigt Hill
#
# Bulk Modulus (GPa) = 48.58119 65.35630 56.96874
# Shear Modulus (GPa) = 51.71976 22.83201 37.27589
#
# Velocity S-wave (km/s) = 5.37258 3.56966 4.56109
# Velocity P-wave (km/s) = 8.09932 7.31198 7.71570
#
# Compressibility (1/GPa) = 0.02058410
#
# Stress axis : x y z
#
# Youngs Moduli (GPa) = 116.59763 57.65052 102.19465
#
# Poissons Ratio (x) = 0.10016 0.42482
# Poissons Ratio (y) = 0.20258 0.17039
# Poissons Ratio (z) = 0.48470 0.09612
#
# Static dielectric constant tensor:
#      x y z
#    x 1.570520 0.000000 0.002770 
#    y 0.000000 1.631730 0.000000 
#    z 0.002770 0.000000 1.646680 
# 
# From -- ./inp_files/43184.got.cif
#   From: 2010.05.17/outbox.cif.g08.bks.cpg/sg10_22_cif.got.tgz:43184.got - 2010.06.03 11:33:40.
