data_PCOD9142975
_publ_section_title
;
Structure prediction by ZEFSAII (Michael W. Deem and Ramdas Pophale) SiO2 
 PCOD9142975
Probable space group: P 2/M
;
_chemical_formula_sum "Si O2"
_cell_formula_units_Z 24
_cell_length_a 10.404628
_cell_length_b 8.680433
_cell_length_c 23.522373
_cell_angle_alpha 90.000000
_cell_angle_beta 41.500036
_cell_angle_gamma 90.000000
_cell_volume 1407.712475
_symmetry_space_group_name_H-M "P 2/M"
_symmetry_group_IT_number 10
_symmetry_cell_setting 'monoclinic'
loop_
_space_group_symop_operation_xyz
x,y,z
-x,y,-z
-x,-y,-z
x,-y,z
loop_
_atom_site_type_symbol
_atom_site_label
_atom_site_fract_x
_atom_site_fract_y
_atom_site_fract_z
Si Si1 0.530644 0.815726 0.556537
Si Si2 0.869310 0.685944 0.271653
Si Si3 0.524132 0.317309 0.899006
Si Si4 0.945498 0.684194 0.453725
Si Si5 0.855114 0.182576 0.720474
Si Si6 0.193833 0.317444 0.084433
O O1 0.500000 0.778509 0.500000
O O2 0.344471 0.752986 0.651720
O O3 0.729210 0.740584 0.511449
O O4 0.542722 0.000000 0.557674
O O5 0.864722 0.500000 0.273103
O O6 0.993866 0.739904 0.285166
O O7 0.988703 0.740690 0.176126
O O8 0.510803 0.500000 0.890530
O O9 0.639744 0.232095 0.811252
O O10 0.664638 0.303542 0.907678
O O11 0.315638 0.256672 0.990240
O O12 0.955926 0.500000 0.444147
O O13 0.000000 0.725616 0.500000
O O14 0.088099 0.760243 0.360599
O O15 0.877742 0.000000 0.717290
O O16 0.171687 0.500000 0.081112
#
# Coordination Sequence:
#
# PCOD9142975 Si02
#       6
#     4   4   4   4   4   4
#     4  11  22  35  53  79 107 136 169 208 259 315
#     4  10  18  30  50  73 100 135 174 212 249 294
#     4   8  13  25  43  63  93 131 168 204 246 297
#     4  11  24  40  57  76  98 132 178 219 255 302
#     4  11  20  30  46  72 103 134 168 207 258 309
#     4   7  12  23  41  66  94 127 166 207 248 289
#
# _framework density 17.048936000000001
#
# number of rings (size 3 to 8) (size 9 to 14) (size 15 to 20)
#    0.000    2.333    1.667    5.000    0.000    2.000 
#    0.000    7.500    0.000    0.000    0.000    1.167 
#    0.000    9.333    0.000    0.000    0.000    0.000 
#
# Total GULP energy -133731.751792 kJ/mol
# GULP energy per Si atom -5572.156325 kJ/mol
# Density = 1.701013 g / cm^3
# Si number density = 17.048936 Si / 1000 Ang^3
#
#
#
# Elastic Constant Matrix: (Units=GPa)
#
#
# Indices 1 2 3 4 5 6 
#
# 1 40.2563 12.0950 31.4478 0.0000 2.3922 0.0000
# 2 12.0950 25.4012 22.9686 0.0000 0.5983 0.0000
# 3 31.4478 22.9686 173.4539 0.0000 -11.2892 0.0000
# 4 0.0000 0.0000 0.0000 -13.4692 0.0000 -4.7850
# 5 2.3922 0.5983 -11.2892 0.0000 13.4210 0.0000
# 6 0.0000 0.0000 0.0000 -4.7850 0.0000 6.5633
#
#
#
# Elastic Compliance Matrix: (Units=1/GPa)
#
#
# Indices 1 2 3 4 5 6 
#
# 1 0.032629 -0.010669 -0.005131 0.000000 -0.009657 0.000000
# 2 -0.010669 0.048914 -0.004825 0.000000 -0.004337 0.000000
# 3 -0.005131 -0.004825 0.007837 0.000000 0.007722 0.000000
# 4 0.000000 0.000000 0.000000 -0.058970 0.000000 -0.042993
# 5 -0.009657 -0.004337 0.007722 0.000000 0.082920 0.000000
# 6 0.000000 0.000000 0.000000 -0.042993 0.000000 0.121018
#
#
# Mechanical properties :
#
#
# Convention : Reuss Voigt Hill
#
# Bulk Modulus (GPa) = 20.77779 41.34825 31.06302
# Shear Modulus (GPa) = 17.14433 12.80969 14.97701
#
# Velocity S-wave (km/s) = 3.17455 2.74405 2.96712
# Velocity P-wave (km/s) = 5.06465 5.86047 5.47703
#
# Compressibility (1/GPa) = 0.04812832
#
# Stress axis : x y z
#
# Youngs Moduli (GPa) = 30.64774 20.44424 127.59856
#
# Poissons Ratio (x) = 0.21812 0.65476
# Poissons Ratio (y) = 0.32698 0.61567
# Poissons Ratio (z) = 0.15727 0.09864
#
# Static dielectric constant tensor:
#      x y z
#    x 1.541740 0.000000 -0.010430 
#    y 0.000000 1.565440 0.000000 
#    z -0.010430 0.000000 1.634910 
# 
# From -- ./inp_files/80128.got.cif
#   From: 2010.05.17/outbox.cif.g08.bks.cpg/sg10_41_cif.got.tgz:80128.got - 2010.06.03 11:33:40.
