data_PCOD9142485
_publ_section_title
;
Structure prediction by ZEFSAII (Michael W. Deem and Ramdas Pophale) SiO2 
 PCOD9142485
Probable space group: P 2/M
;
_chemical_formula_sum "Si O2"
_cell_formula_units_Z 32
_cell_length_a 15.621794
_cell_length_b 7.580612
_cell_length_c 15.292800
_cell_angle_alpha 90.000000
_cell_angle_beta 80.467096
_cell_angle_gamma 90.000000
_cell_volume 1786.006631
_symmetry_space_group_name_H-M "P 2/M"
_symmetry_group_IT_number 10
_symmetry_cell_setting 'monoclinic'
loop_
_space_group_symop_operation_xyz
x,y,z
-x,y,-z
-x,-y,-z
x,-y,z
loop_
_atom_site_type_symbol
_atom_site_label
_atom_site_fract_x
_atom_site_fract_y
_atom_site_fract_z
Si Si1 0.591811 0.795790 0.382357
Si Si2 0.740974 0.204575 0.238124
Si Si3 0.128831 0.215948 0.922686
Si Si4 0.067163 0.707327 0.314160
Si Si5 0.941503 0.212760 0.882339
Si Si6 0.870936 0.714533 0.371677
Si Si7 0.398660 0.702039 0.419498
Si Si8 0.208479 0.716199 0.427438
O O1 0.653923 0.720138 0.296663
O O2 0.489713 0.789194 0.379383
O O3 0.606084 0.705740 0.473669
O O4 0.616523 0.000000 0.391849
O O5 0.787615 0.280632 0.144457
O O6 0.813314 0.215036 0.302052
O O7 0.721976 0.000000 0.221115
O O8 0.040318 0.269726 0.887532
O O9 0.129619 0.000000 0.920849
O O10 0.116900 0.269646 0.025391
O O11 0.061652 0.500000 0.336207
O O12 0.086046 0.726672 0.208430
O O13 0.142562 0.778264 0.363813
O O14 0.970273 0.777841 0.347980
O O15 0.941951 0.000000 0.881692
O O16 0.869688 0.500000 0.365956
O O17 0.829191 0.764807 0.471328
O O18 0.405463 0.500000 0.389806
O O19 0.307707 0.777722 0.401409
O O20 0.212018 0.500000 0.425562
#
# Coordination Sequence:
#
# PCOD9142485 Si02
#       8
#     4   4   4   4   4   4   4   4
#     4  10  19  29  44  66  91 113 139 184 231 259
#     4  10  18  29  46  66  90 119 146 177 220 265
#     4   8  15  28  46  64  86 117 148 176 216 268
#     4  10  19  30  45  65  90 119 150 187 221 250
#     4   9  16  29  47  64  85 116 150 182 214 262
#     4  10  18  29  44  63  89 121 154 182 207 251
#     4  10  18  30  47  63  84 118 153 181 209 261
#     4   9  18  31  45  62  87 122 157 180 212 258
#
# _framework density 17.917065999999998
#
# number of rings (size 3 to 8) (size 9 to 14) (size 15 to 20)
#    0.000    2.500    2.500    2.625    0.000    2.000 
#    0.000    3.750    0.000    1.500    0.000    0.875 
#    0.000    7.000    0.000    0.000    0.000    0.000 
#
# Total GULP energy -178457.699863 kJ/mol
# GULP energy per Si atom -5576.803121 kJ/mol
# Density = 1.787629 g / cm^3
# Si number density = 17.917066 Si / 1000 Ang^3
#
#
#
# Elastic Constant Matrix: (Units=GPa)
#
#
# Indices 1 2 3 4 5 6 
#
# 1 115.2057 -2.9583 52.5426 0.0000 -22.5028 0.0000
# 2 -2.9583 39.5527 -10.4886 0.0000 -2.9729 0.0000
# 3 52.5426 -10.4886 74.7070 0.0000 -23.7233 0.0000
# 4 0.0000 0.0000 0.0000 12.8447 0.0000 2.2163
# 5 -22.5028 -2.9729 -23.7233 0.0000 32.0665 0.0000
# 6 0.0000 0.0000 0.0000 2.2163 0.0000 7.3670
#
#
#
# Elastic Compliance Matrix: (Units=1/GPa)
#
#
# Indices 1 2 3 4 5 6 
#
# 1 0.013048 -0.001046 -0.008427 0.000000 0.002825 0.000000
# 2 -0.001046 0.027511 0.006764 0.000000 0.006821 0.000000
# 3 -0.008427 0.006764 0.024290 0.000000 0.012683 0.000000
# 4 0.000000 0.000000 0.000000 0.082116 0.000000 -0.024704
# 5 0.002825 0.006821 0.012683 0.000000 0.043184 0.000000
# 6 0.000000 0.000000 0.000000 -0.024704 0.000000 0.143172
#
#
# Mechanical properties :
#
#
# Convention : Reuss Voigt Hill
#
# Bulk Modulus (GPa) = 16.82620 34.18408 25.50514
# Shear Modulus (GPa) = 13.94510 23.14695 18.54603
#
# Velocity S-wave (km/s) = 2.79285 3.59819 3.22079
# Velocity P-wave (km/s) = 4.45102 6.03184 5.30069
#
# Compressibility (1/GPa) = 0.05943111
#
# Stress axis : x y z
#
# Youngs Moduli (GPa) = 76.63754 36.34927 41.16971
#
# Poissons Ratio (x) = 0.03803 0.34693
# Poissons Ratio (y) = 0.08019 -0.27848
# Poissons Ratio (z) = 0.64581 -0.24587
#
# Static dielectric constant tensor:
#      x y z
#    x 1.622280 0.000000 -0.032500 
#    y 0.000000 1.663610 0.000000 
#    z -0.032500 0.000000 1.605450 
# 
# From -- ./inp_files/66092.got.cif
#   From: 2010.05.17/outbox.cif.g08.bks.cpg/sg10_34_cif.got.tgz:66092.got - 2010.06.03 11:33:40.
