data_PCOD9142968
_publ_section_title
;
Structure prediction by ZEFSAII (Michael W. Deem and Ramdas Pophale) SiO2 
 PCOD9142968
Probable space group: P 2/M
;
_chemical_formula_sum "Si O2"
_cell_formula_units_Z 24
_cell_length_a 16.781861
_cell_length_b 17.033934
_cell_length_c 10.974500
_cell_angle_alpha 90.000000
_cell_angle_beta 22.600177
_cell_angle_gamma 90.000000
_cell_volume 1205.613616
_symmetry_space_group_name_H-M "P 2/M"
_symmetry_group_IT_number 10
_symmetry_cell_setting 'monoclinic'
loop_
_space_group_symop_operation_xyz
x,y,z
-x,y,-z
-x,-y,-z
x,-y,z
loop_
_atom_site_type_symbol
_atom_site_label
_atom_site_fract_x
_atom_site_fract_y
_atom_site_fract_z
Si Si1 0.508983 0.694068 0.249294
Si Si2 0.783769 0.587539 0.732657
Si Si3 0.585002 0.911940 0.519056
Si Si4 0.213092 0.259806 0.440815
Si Si5 0.163363 0.242743 0.868341
Si Si6 0.241272 0.164644 0.168635
O O1 0.366085 0.728143 0.339658
O O2 0.366181 0.703673 0.568844
O O3 0.598070 0.610461 0.086957
O O4 0.703750 0.753294 0.977574
O O5 0.757665 0.500000 0.719014
O O6 0.780979 0.657393 0.638509
O O7 0.000000 0.590414 0.500000
O O8 0.500000 0.907292 0.500000
O O9 0.756116 0.843678 0.282538
O O10 0.663768 0.000000 0.427971
O O11 0.402359 0.893423 0.874662
O O12 0.274221 0.189288 0.263281
O O13 0.978535 0.242459 0.813455
O O14 0.000000 0.273190 0.000000
O O15 0.000000 0.142218 0.500000
#
# Coordination Sequence:
#
# PCOD9142968 Si02
#       6
#     4   4   4   4   4   4
#     4   9  18  32  52  75  99 129 167 206 247 298
#     4  10  20  33  49  73 105 135 165 204 248 293
#     4  10  21  35  50  72 102 134 167 204 250 300
#     4  10  18  32  54  77  99 127 169 210 247 294
#     4   9  19  35  55  76  99 129 166 208 251 298
#     4  10  18  30  50  72  97 129 166 206 246 290
#
# _framework density 19.906874999999999
#
# number of rings (size 3 to 8) (size 9 to 14) (size 15 to 20)
#    0.000    2.333    0.000    5.000    0.000    3.333 
#    0.000    1.667    0.000   18.000    0.000    0.000 
#    0.000    0.000    0.000    0.000    0.000    0.000 
#
# Total GULP energy -133663.621538 kJ/mol
# GULP energy per Si atom -5569.317564 kJ/mol
# Density = 1.986157 g / cm^3
# Si number density = 19.906875 Si / 1000 Ang^3
#
#
#
# Elastic Constant Matrix: (Units=GPa)
#
#
# Indices 1 2 3 4 5 6 
#
# 1 70.0358 6.5239 23.4537 0.0000 -1.1876 0.0000
# 2 6.5239 85.9046 36.2837 0.0000 11.3395 0.0000
# 3 23.4537 36.2837 164.1528 0.0000 27.4002 0.0000
# 4 0.0000 0.0000 0.0000 16.7485 0.0000 2.5782
# 5 -1.1876 11.3395 27.4002 0.0000 26.7637 0.0000
# 6 0.0000 0.0000 0.0000 2.5782 0.0000 12.6205
#
#
#
# Elastic Compliance Matrix: (Units=1/GPa)
#
#
# Indices 1 2 3 4 5 6 
#
# 1 0.015284 -0.000510 -0.002678 0.000000 0.003636 0.000000
# 2 -0.000510 0.013067 -0.002277 0.000000 -0.003228 0.000000
# 3 -0.002678 -0.002277 0.008246 0.000000 -0.007596 0.000000
# 4 0.000000 0.000000 0.000000 0.061645 0.000000 -0.012593
# 5 0.003636 -0.003228 -0.007596 0.000000 0.046670 0.000000
# 6 0.000000 0.000000 0.000000 -0.012593 0.000000 0.081809
#
#
# Mechanical properties :
#
#
# Convention : Reuss Voigt Hill
#
# Bulk Modulus (GPa) = 38.95793 50.29065 44.62429
# Shear Modulus (GPa) = 20.30816 28.14865 24.22840
#
# Velocity S-wave (km/s) = 3.19746 3.76442 3.49246
# Velocity P-wave (km/s) = 5.76578 6.64923 6.22320
#
# Compressibility (1/GPa) = 0.02566871
#
# Stress axis : x y z
#
# Youngs Moduli (GPa) = 65.42638 76.52719 121.27582
#
# Poissons Ratio (x) = 0.03899 0.32478
# Poissons Ratio (y) = 0.03334 0.27611
# Poissons Ratio (z) = 0.17522 0.17423
#
# Static dielectric constant tensor:
#      x y z
#    x 1.788750 0.000000 0.039480 
#    y 0.000000 1.665080 0.000000 
#    z 0.039480 0.000000 1.773430 
# 
# From -- ./inp_files/25637.got.cif
#   From: 2010.05.17/outbox.cif.g08.bks.cpg/sg10_13_cif.got.tgz:25637.got - 2010.06.03 11:33:40.
