data_PCOD9142172
_publ_section_title
;
Structure prediction by ZEFSAII (Michael W. Deem and Ramdas Pophale) SiO2 
 PCOD9142172
Probable space group: P 2/M
;
_chemical_formula_sum "Si O2"
_cell_formula_units_Z 32
_cell_length_a 24.640118
_cell_length_b 8.693507
_cell_length_c 18.285944
_cell_angle_alpha 90.000000
_cell_angle_beta 149.423258
_cell_angle_gamma 90.000000
_cell_volume 1992.553827
_symmetry_space_group_name_H-M "P 2/M"
_symmetry_group_IT_number 10
_symmetry_cell_setting 'monoclinic'
loop_
_space_group_symop_operation_xyz
x,y,z
-x,y,-z
-x,-y,-z
x,-y,z
loop_
_atom_site_type_symbol
_atom_site_label
_atom_site_fract_x
_atom_site_fract_y
_atom_site_fract_z
Si Si1 0.167619 0.816678 0.827266
Si Si2 0.935375 0.686299 0.596156
Si Si3 0.475269 0.812787 0.554475
Si Si4 0.096830 0.314444 0.276745
Si Si5 0.141599 0.684484 0.051928
Si Si6 0.872719 0.321458 0.369614
Si Si7 0.765181 0.184578 0.691713
Si Si8 0.694077 0.813886 0.877009
O O1 0.183058 0.765746 0.761418
O O2 0.055920 0.745863 0.725688
O O3 0.158087 0.000000 0.818777
O O4 0.259606 0.767832 0.990423
O O5 0.939989 0.500000 0.598389
O O6 0.893257 0.731456 0.626802
O O7 0.866755 0.737501 0.445982
O O8 0.500000 0.763805 0.500000
O O9 0.357819 0.763343 0.442577
O O10 0.573792 0.763555 0.719470
O O11 0.474296 0.000000 0.553118
O O12 0.105303 0.500000 0.282283
O O13 0.182094 0.239904 0.322023
O O14 0.977694 0.272148 0.111480
O O15 0.148144 0.500000 0.059681
O O16 0.169179 0.747536 0.163910
O O17 0.226839 0.750753 0.093397
O O18 0.840721 0.500000 0.330075
O O19 0.000000 0.315242 0.500000
O O20 0.767995 0.000000 0.699505
O O21 0.696694 0.000000 0.875877
#
# Coordination Sequence:
#
# PCOD9142172 Si02
#       8
#     4   4   4   4   4   4   4   4
#     4  10  18  26  43  71  99 121 150 196 237 270
#     4   9  17  31  47  64  92 132 161 181 224 285
#     4   9  17  33  53  68  89 123 160 197 240 282
#     4  10  21  35  49  68  98 129 158 194 236 280
#     4  11  21  33  50  70  96 128 158 193 237 281
#     4   8  15  27  44  63  90 128 161 182 218 284
#     4  11  22  35  52  70  91 124 164 202 236 280
#     4  10  19  32  50  71  95 126 161 195 236 283
#
# _framework density 16.059791000000001
#
# number of rings (size 3 to 8) (size 9 to 14) (size 15 to 20)
#    0.000    2.250    2.500    2.250    0.000    5.750 
#    0.000    1.875    0.000    0.000    0.000    0.875 
#    0.000    7.000    0.000    0.000    0.000    0.000 
#
# Total GULP energy -178420.819291 kJ/mol
# GULP energy per Si atom -5575.650603 kJ/mol
# Density = 1.602324 g / cm^3
# Si number density = 16.059791 Si / 1000 Ang^3
#
#
#
# Elastic Constant Matrix: (Units=GPa)
#
#
# Indices 1 2 3 4 5 6 
#
# 1 125.1279 22.0240 72.9012 0.0000 -21.8769 0.0000
# 2 22.0240 11.4719 17.3882 0.0000 -6.8494 0.0000
# 3 72.9012 17.3882 81.9020 0.0000 -25.9049 0.0000
# 4 0.0000 0.0000 0.0000 -6.9350 0.0000 -13.3858
# 5 -21.8769 -6.8494 -25.9049 0.0000 32.2106 0.0000
# 6 0.0000 0.0000 0.0000 -13.3858 0.0000 21.2214
#
#
#
# Elastic Compliance Matrix: (Units=1/GPa)
#
#
# Indices 1 2 3 4 5 6 
#
# 1 0.018347 -0.015748 -0.013553 0.000000 -0.001787 0.000000
# 2 -0.015748 0.143312 -0.013616 0.000000 0.008828 0.000000
# 3 -0.013553 -0.013616 0.031298 0.000000 0.013071 0.000000
# 4 0.000000 0.000000 0.000000 -0.065027 0.000000 -0.041017
# 5 -0.001787 0.008828 0.013071 0.000000 0.042221 0.000000
# 6 0.000000 0.000000 0.000000 -0.041017 0.000000 0.021250
#
#
# Mechanical properties :
#
#
# Convention : Reuss Voigt Hill
#
# Bulk Modulus (GPa) = 9.33506 49.23650 29.28578
# Shear Modulus (GPa) = 15.97731 16.37864 16.17798
#
# Velocity S-wave (km/s) = 3.15757 3.19698 3.17734
# Velocity P-wave (km/s) = 4.37252 6.65976 5.63344
#
# Compressibility (1/GPa) = 0.10712299
#
# Stress axis : x y z
#
# Youngs Moduli (GPa) = 54.50392 6.97779 31.95083
#
# Poissons Ratio (x) = 0.10989 0.43303
# Poissons Ratio (y) = 0.85834 0.43504
# Poissons Ratio (z) = 0.73868 0.09501
#
# Static dielectric constant tensor:
#      x y z
#    x 1.531730 0.000000 -0.028370 
#    y 0.000000 1.546400 0.000000 
#    z -0.028370 0.000000 1.540750 
# 
# From -- ./inp_files/56415.got.cif
#   From: 2010.05.17/outbox.cif.g08.bks.cpg/sg10_29_cif.got.tgz:56415.got - 2010.06.03 11:33:40.
