data_PCOD9142889
_publ_section_title
;
Structure prediction by ZEFSAII (Michael W. Deem and Ramdas Pophale) SiO2 
 PCOD9142889
Probable space group: P 2/M
;
_chemical_formula_sum "Si O2"
_cell_formula_units_Z 32
_cell_length_a 14.593320
_cell_length_b 14.694506
_cell_length_c 9.283624
_cell_angle_alpha 90.000000
_cell_angle_beta 63.467820
_cell_angle_gamma 90.000000
_cell_volume 1781.132067
_symmetry_space_group_name_H-M "P 2/M"
_symmetry_group_IT_number 10
_symmetry_cell_setting 'monoclinic'
loop_
_space_group_symop_operation_xyz
x,y,z
-x,y,-z
-x,-y,-z
x,-y,z
loop_
_atom_site_type_symbol
_atom_site_label
_atom_site_fract_x
_atom_site_fract_y
_atom_site_fract_z
Si Si1 0.707794 0.605496 0.708402
Si Si2 0.985717 0.213152 0.674257
Si Si3 0.101607 0.103730 0.828159
Si Si4 0.489147 0.606553 0.341816
Si Si5 0.402664 0.273306 0.976467
Si Si6 0.793569 0.213849 0.006541
Si Si7 0.123518 0.396142 0.914084
Si Si8 0.096129 0.395421 0.606630
O O1 0.708669 0.500000 0.752171
O O2 0.627272 0.613280 0.633305
O O3 0.819964 0.629090 0.572057
O O4 0.663996 0.665418 0.867256
O O5 0.070876 0.164362 0.713436
O O6 0.007404 0.321280 0.666723
O O7 0.000000 0.184034 0.500000
O O8 0.876608 0.192590 0.823631
O O9 0.184706 0.151823 0.870168
O O10 0.126482 0.000000 0.772567
O O11 0.000000 0.102929 0.000000
O O12 0.500000 0.634977 0.500000
O O13 0.519528 0.500000 0.310771
O O14 0.554804 0.665332 0.183969
O O15 0.321023 0.203912 0.969365
O O16 0.500000 0.239017 0.000000
O O17 0.819009 0.317639 0.039649
O O18 0.140829 0.500000 0.953624
O O19 0.149524 0.391769 0.726257
O O20 0.000000 0.379752 0.000000
O O21 0.061542 0.500000 0.612236
#
# Coordination Sequence:
#
# PCOD9142889 Si02
#       8
#     4   4   4   4   4   4   4   4
#     4   9  18  32  46  64  98 142 179 216 262 303
#     4  11  21  33  52  82 114 142 170 210 254 310
#     4   9  19  37  58  79 105 134 169 211 259 317
#     4   9  18  30  45  66  91 128 182 230 261 295
#     4  10  21  35  50  70 100 135 177 226 271 313
#     4  11  20  35  55  77 102 142 181 213 260 311
#     4  10  18  30  48  73 105 141 181 218 250 300
#     4  10  19  31  47  72 110 145 178 212 247 302
#
# _framework density 17.966103
#
# number of rings (size 3 to 8) (size 9 to 14) (size 15 to 20)
#    0.000    2.125    2.500    1.500    1.750    3.000 
#    0.000    0.000    0.000    0.375    0.000    0.000 
#    0.000   14.500    0.000    0.000    0.000    0.250 
#
# Total GULP energy -178580.117102 kJ/mol
# GULP energy per Si atom -5580.628659 kJ/mol
# Density = 1.792521 g / cm^3
# Si number density = 17.966103 Si / 1000 Ang^3
#
#
#
# Elastic Constant Matrix: (Units=GPa)
#
#
# Indices 1 2 3 4 5 6 
#
# 1 100.6078 36.2017 39.3330 0.0000 12.7189 0.0000
# 2 36.2017 51.9597 21.4032 0.0000 3.9865 0.0000
# 3 39.3330 21.4032 84.9284 0.0000 17.6928 0.0000
# 4 0.0000 0.0000 0.0000 5.5378 0.0000 -2.7326
# 5 12.7189 3.9865 17.6928 0.0000 28.3725 0.0000
# 6 0.0000 0.0000 0.0000 -2.7326 0.0000 2.8435
#
#
#
# Elastic Compliance Matrix: (Units=1/GPa)
#
#
# Indices 1 2 3 4 5 6 
#
# 1 0.015011 -0.008504 -0.004202 0.000000 -0.002914 0.000000
# 2 -0.008504 0.026297 -0.003118 0.000000 0.002062 0.000000
# 3 -0.004202 -0.003118 0.016116 0.000000 -0.007728 0.000000
# 4 0.000000 0.000000 0.000000 0.343445 0.000000 0.330057
# 5 -0.002914 0.002062 -0.007728 0.000000 0.041081 0.000000
# 6 0.000000 0.000000 0.000000 0.330057 0.000000 0.668872
#
#
# Mechanical properties :
#
#
# Convention : Reuss Voigt Hill
#
# Bulk Modulus (GPa) = 38.79567 47.93019 43.36293
# Shear Modulus (GPa) = 4.34381 16.72127 10.53254
#
# Velocity S-wave (km/s) = 1.55661 3.05407 2.42388
# Velocity P-wave (km/s) = 4.98712 6.25879 5.65879
#
# Compressibility (1/GPa) = 0.02577607
#
# Stress axis : x y z
#
# Youngs Moduli (GPa) = 66.61935 38.02725 62.04838
#
# Poissons Ratio (x) = 0.32338 0.26071
# Poissons Ratio (y) = 0.56653 0.19348
# Poissons Ratio (z) = 0.27992 0.11858
#
# Static dielectric constant tensor:
#      x y z
#    x 1.645140 0.000000 0.015330 
#    y 0.000000 1.599950 0.000000 
#    z 0.015330 0.000000 1.634610 
# 
# From -- ./inp_files/29465.got.cif
#   From: 2010.05.17/outbox.cif.g08.bks.cpg/sg10_15_cif.got.tgz:29465.got - 2010.06.03 11:33:40.
