data_PCOD9142590
_publ_section_title
;
Structure prediction by ZEFSAII (Michael W. Deem and Ramdas Pophale) SiO2 
 PCOD9142590
Probable space group: P 2/M
;
_chemical_formula_sum "Si O2"
_cell_formula_units_Z 32
_cell_length_a 24.014663
_cell_length_b 7.394722
_cell_length_c 17.392580
_cell_angle_alpha 90.000000
_cell_angle_beta 29.579762
_cell_angle_gamma 90.000000
_cell_volume 1524.642599
_symmetry_space_group_name_H-M "P 2/M"
_symmetry_group_IT_number 10
_symmetry_cell_setting 'monoclinic'
loop_
_space_group_symop_operation_xyz
x,y,z
-x,y,-z
-x,-y,-z
x,-y,z
loop_
_atom_site_type_symbol
_atom_site_label
_atom_site_fract_x
_atom_site_fract_y
_atom_site_fract_z
Si Si1 0.665740 0.216787 0.072186
Si Si2 0.179436 0.204930 0.982421
Si Si3 0.980370 0.221592 0.111893
Si Si4 0.219324 0.203379 0.541749
Si Si5 0.655879 0.778847 0.748629
Si Si6 0.372221 0.718520 0.633681
Si Si7 0.589702 0.714192 0.580122
Si Si8 0.599685 0.220205 0.983860
O O1 0.766798 0.287589 0.004705
O O2 0.543715 0.251812 0.257264
O O3 0.653305 0.282761 0.999550
O O4 0.678894 0.000000 0.053989
O O5 0.284123 0.201049 0.797959
O O6 0.143941 0.000000 0.044066
O O7 0.078509 0.283476 0.052651
O O8 0.864926 0.280344 0.292865
O O9 0.982313 0.000000 0.105680
O O10 0.000000 0.281931 0.000000
O O11 0.246517 0.286646 0.426057
O O12 0.342451 0.196754 0.432788
O O13 0.177072 0.000000 0.578406
O O14 0.531131 0.723530 0.868892
O O15 0.657394 0.000000 0.744477
O O16 0.662307 0.725890 0.830156
O O17 0.500000 0.767269 0.500000
O O18 0.363294 0.500000 0.649305
O O19 0.355925 0.774615 0.565349
O O20 0.605313 0.500000 0.568137
O O21 0.598576 0.000000 0.987144
#
# Coordination Sequence:
#
# PCOD9142590 Si02
#       8
#     4   4   4   4   4   4   4   4
#     4  10  18  29  47  69  95 123 153 189 233 284
#     4  10  20  32  49  72  92 119 161 201 235 271
#     4   9  18  32  48  68  95 123 154 201 243 270
#     4  10  18  31  52  70  90 124 165 196 229 278
#     4   8  13  22  42  69  92 120 155 188 224 279
#     4  10  20  33  45  62  93 128 153 183 233 285
#     4  11  21  31  45  68  98 124 152 192 237 281
#     4   8  13  23  40  67  98 119 147 189 231 277
#
# _framework density 20.988526
#
# number of rings (size 3 to 8) (size 9 to 14) (size 15 to 20)
#    0.000    2.500    2.500    1.875    0.000    2.250 
#    0.000    0.625    0.000    4.500    0.000    5.250 
#    0.000    0.000    0.000    3.375    0.000    3.750 
#
# Total GULP energy -178481.378788 kJ/mol
# GULP energy per Si atom -5577.543087 kJ/mol
# Density = 2.094076 g / cm^3
# Si number density = 20.988526 Si / 1000 Ang^3
#
#
#
# Elastic Constant Matrix: (Units=GPa)
#
#
# Indices 1 2 3 4 5 6 
#
# 1 164.4282 6.6177 58.9576 0.0000 23.3920 0.0000
# 2 6.6177 73.8643 1.2997 0.0000 2.8122 0.0000
# 3 58.9576 1.2997 100.7646 0.0000 24.5627 0.0000
# 4 0.0000 0.0000 0.0000 -33.3652 0.0000 -33.0499
# 5 23.3920 2.8122 24.5627 0.0000 43.6544 0.0000
# 6 0.0000 0.0000 0.0000 -33.0499 0.0000 -28.0473
#
#
#
# Elastic Compliance Matrix: (Units=1/GPa)
#
#
# Indices 1 2 3 4 5 6 
#
# 1 0.007850 -0.000560 -0.004136 0.000000 -0.001843 0.000000
# 2 -0.000560 0.013612 0.000339 0.000000 -0.000768 0.000000
# 3 -0.004136 0.000339 0.013681 0.000000 -0.005503 0.000000
# 4 0.000000 0.000000 0.000000 0.179225 0.000000 -0.211192
# 5 -0.001843 -0.000768 -0.005503 0.000000 0.027041 0.000000
# 6 0.000000 0.000000 0.000000 -0.211192 0.000000 0.213207
#
#
# Mechanical properties :
#
#
# Convention : Reuss Voigt Hill
#
# Bulk Modulus (GPa) = 37.83842 52.53413 45.18627
# Shear Modulus (GPa) = 10.59008 14.59386 12.59197
#
# Velocity S-wave (km/s) = 2.24869 2.63976 2.45204
# Velocity P-wave (km/s) = 4.98091 5.86305 5.43989
#
# Compressibility (1/GPa) = 0.02642817
#
# Stress axis : x y z
#
# Youngs Moduli (GPa) = 127.39639 73.46575 73.09144
#
# Poissons Ratio (x) = 0.04116 0.30233
# Poissons Ratio (y) = 0.07138 -0.02481
# Poissons Ratio (z) = 0.52696 -0.02493
#
# Static dielectric constant tensor:
#      x y z
#    x 1.790160 0.000000 0.021570 
#    y 0.000000 1.784300 0.000000 
#    z 0.021570 0.000000 1.736840 
# 
# From -- ./inp_files/79943.got.cif
#   From: 2010.05.17/outbox.cif.g08.bks.cpg/sg10_40_cif.got.tgz:79943.got - 2010.06.03 11:33:40.
