data_PCOD9142862
_publ_section_title
;
Structure prediction by ZEFSAII (Michael W. Deem and Ramdas Pophale) SiO2 
 PCOD9142862
Probable space group: P 2/M
;
_chemical_formula_sum "Si O2"
_cell_formula_units_Z 22
_cell_length_a 15.914054
_cell_length_b 11.016950
_cell_length_c 19.920453
_cell_angle_alpha 90.000000
_cell_angle_beta 163.002557
_cell_angle_gamma 90.000000
_cell_volume 1020.970882
_symmetry_space_group_name_H-M "P 2/M"
_symmetry_group_IT_number 10
_symmetry_cell_setting 'monoclinic'
loop_
_space_group_symop_operation_xyz
x,y,z
-x,y,-z
-x,-y,-z
x,-y,z
loop_
_atom_site_type_symbol
_atom_site_label
_atom_site_fract_x
_atom_site_fract_y
_atom_site_fract_z
Si Si1 0.182925 0.267052 0.954785
Si Si2 0.703952 0.133264 0.296508
Si Si3 0.500000 0.810654 0.000000
Si Si4 0.420234 0.860396 0.517313
Si Si5 0.055906 0.630550 0.717754
Si Si6 0.392706 0.639498 0.248331
O O1 0.165162 0.357575 0.878164
O O2 0.917073 0.176075 0.738792
O O3 0.486372 0.198856 0.179522
O O4 0.175542 0.330041 0.021670
O O5 0.000000 0.195268 0.500000
O O6 0.776962 0.000000 0.379876
O O7 0.540777 0.122749 0.100979
O O8 0.781438 0.730222 0.200643
O O9 0.500000 0.857992 0.500000
O O10 0.590897 0.752614 0.686932
O O11 0.465677 0.000000 0.576942
O O12 0.132537 0.500000 0.748007
O O13 0.713504 0.639569 0.461682
O O14 0.346423 0.500000 0.238611
#
# Coordination Sequence:
#
# PCOD9142862 Si02
#       6
#     4   4   2   4   4   4
#     4  10  20  36  57  82 112 148 187 231 286 338
#     4  10  20  32  48  74 107 143 185 230 276 330
#     4  10  18  30  48  70 102 144 188 232 278 324
#     4  10  23  42  62  86 115 148 190 237 284 340
#     4   9  18  32  51  77 109 145 187 232 278 332
#     4  10  21  38  61  87 116 150 188 234 288 343
#
# _framework density 21.548117000000001
#
# number of rings (size 3 to 8) (size 9 to 14) (size 15 to 20)
#    0.000    2.182    0.000    2.727    0.000    3.273 
#    0.000    7.273    0.000    8.727    0.000    0.000 
#    0.000    0.000    0.000    0.000    0.000    0.000 
#
# Total GULP energy -122602.555911 kJ/mol
# GULP energy per Si atom -5572.843450 kJ/mol
# Density = 2.149907 g / cm^3
# Si number density = 21.548117 Si / 1000 Ang^3
#
#
#
# Elastic Constant Matrix: (Units=GPa)
#
#
# Indices 1 2 3 4 5 6 
#
# 1 57.3726 42.0250 8.5380 0.0000 -5.7832 0.0000
# 2 42.0250 139.7674 15.2781 0.0000 -19.6332 0.0000
# 3 8.5380 15.2781 40.8962 0.0000 -10.7065 0.0000
# 4 0.0000 0.0000 0.0000 8.0322 0.0000 -13.1242
# 5 -5.7832 -19.6332 -10.7065 0.0000 41.7220 0.0000
# 6 0.0000 0.0000 0.0000 -13.1242 0.0000 89.3580
#
#
#
# Elastic Compliance Matrix: (Units=1/GPa)
#
#
# Indices 1 2 3 4 5 6 
#
# 1 0.022566 -0.006607 -0.002399 0.000000 -0.000597 0.000000
# 2 -0.006607 0.009760 -0.001398 0.000000 0.003318 0.000000
# 3 -0.002399 -0.001398 0.027032 0.000000 0.005946 0.000000
# 4 0.000000 0.000000 0.000000 0.163810 0.000000 0.024059
# 5 -0.000597 0.003318 0.005946 0.000000 0.026973 0.000000
# 6 0.000000 0.000000 0.000000 0.024059 0.000000 0.014725
#
#
# Mechanical properties :
#
#
# Convention : Reuss Voigt Hill
#
# Bulk Modulus (GPa) = 25.94024 41.07982 33.51003
# Shear Modulus (GPa) = 16.74903 39.30212 28.02558
#
# Velocity S-wave (km/s) = 2.79101 4.27538 3.61030
# Velocity P-wave (km/s) = 4.73822 6.59374 5.74143
#
# Compressibility (1/GPa) = 0.03855015
#
# Stress axis : x y z
#
# Youngs Moduli (GPa) = 44.31410 102.45701 36.99304
#
# Poissons Ratio (x) = 0.67690 0.08876
# Poissons Ratio (y) = 0.29277 0.05172
# Poissons Ratio (z) = 0.10632 0.14326
#
# Static dielectric constant tensor:
#      x y z
#    x 1.751040 0.000000 -0.002470 
#    y 0.000000 1.817500 0.000000 
#    z -0.002470 0.000000 1.806810 
# 
# From -- ./inp_files/78158.got.cif
#   From: 2010.05.17/outbox.cif.g08.bks.cpg/sg10_40_cif.got.tgz:78158.got - 2010.06.03 11:33:40.
