data_PCOD9142743
_publ_section_title
;
Structure prediction by ZEFSAII (Michael W. Deem and Ramdas Pophale) SiO2 
 PCOD9142743
Probable space group: P 2/M
;
_chemical_formula_sum "Si O2"
_cell_formula_units_Z 28
_cell_length_a 9.249016
_cell_length_b 13.969730
_cell_length_c 15.199883
_cell_angle_alpha 90.000000
_cell_angle_beta 132.839816
_cell_angle_gamma 90.000000
_cell_volume 1440.059112
_symmetry_space_group_name_H-M "P 2/M"
_symmetry_group_IT_number 10
_symmetry_cell_setting 'monoclinic'
loop_
_space_group_symop_operation_xyz
x,y,z
-x,y,-z
-x,-y,-z
x,-y,z
loop_
_atom_site_type_symbol
_atom_site_label
_atom_site_fract_x
_atom_site_fract_y
_atom_site_fract_z
Si Si1 0.866333 0.895062 0.117434
Si Si2 0.779912 0.260380 0.943635
Si Si3 0.619082 0.787943 0.466882
Si Si4 0.458885 0.386806 0.879805
Si Si5 0.041008 0.111446 0.646860
Si Si6 0.683538 0.104499 0.763824
Si Si7 0.206981 0.288752 0.625331
O O1 0.848777 0.887190 0.214162
O O2 0.099145 0.895184 0.189112
O O3 0.789336 0.000000 0.057404
O O4 0.782140 0.804926 0.031859
O O5 0.656634 0.354360 0.911252
O O6 0.681234 0.189372 0.832615
O O7 0.000000 0.278760 0.000000
O O8 0.500000 0.745806 0.500000
O O9 0.479909 0.873432 0.375620
O O10 0.649160 0.713654 0.399220
O O11 0.833381 0.833044 0.574924
O O12 0.424404 0.500000 0.863622
O O13 0.289159 0.336579 0.748818
O O14 0.500000 0.360606 0.000000
O O15 0.164664 0.176757 0.631221
O O16 0.013411 0.000000 0.610779
O O17 0.653044 0.000000 0.791435
O O18 0.000000 0.327867 0.500000
#
# Coordination Sequence:
#
# PCOD9142743 Si02
#       7
#     4   4   4   4   4   4   4
#     4   9  17  30  50  80 118 157 192 229 275 337
#     4  10  20  36  59  85 116 150 190 241 293 351
#     4  11  20  33  55  82 118 160 202 237 278 335
#     4  11  24  44  68  91 114 146 194 249 310 370
#     4  10  20  33  51  80 121 160 195 237 281 334
#     4  10  18  29  50  81 116 157 196 232 271 330
#     4  10  23  41  60  88 120 159 197 247 292 349
#
# _framework density 19.443646999999999
#
# number of rings (size 3 to 8) (size 9 to 14) (size 15 to 20)
#    0.000    1.857    2.857    1.714    0.000    6.000 
#    0.000    0.000    0.000    3.429    0.000    0.000 
#    0.000    0.000    0.000    0.000    0.000    0.000 
#
# Total GULP energy -156065.184976 kJ/mol
# GULP energy per Si atom -5573.756606 kJ/mol
# Density = 1.939939 g / cm^3
# Si number density = 19.443647 Si / 1000 Ang^3
#
#
#
# Elastic Constant Matrix: (Units=GPa)
#
#
# Indices 1 2 3 4 5 6 
#
# 1 78.8965 23.8647 26.9261 0.0000 -20.4648 0.0000
# 2 23.8647 51.4776 24.5159 0.0000 -5.2620 0.0000
# 3 26.9261 24.5159 99.7885 0.0000 -13.7440 0.0000
# 4 0.0000 0.0000 0.0000 -116.5924 0.0000 -15.4882
# 5 -20.4648 -5.2620 -13.7440 0.0000 29.6418 0.0000
# 6 0.0000 0.0000 0.0000 -15.4882 0.0000 18.7787
#
#
#
# Elastic Compliance Matrix: (Units=1/GPa)
#
#
# Indices 1 2 3 4 5 6 
#
# 1 0.017926 -0.006372 -0.001840 0.000000 0.010391 0.000000
# 2 -0.006372 0.024327 -0.004560 0.000000 -0.002195 0.000000
# 3 -0.001840 -0.004560 0.012126 0.000000 0.003542 0.000000
# 4 0.000000 0.000000 0.000000 -0.007730 0.000000 -0.006375
# 5 0.010391 -0.002195 0.003542 0.000000 0.042163 0.000000
# 6 0.000000 0.000000 0.000000 -0.006375 0.000000 0.047994
#
#
# Mechanical properties :
#
#
# Convention : Reuss Voigt Hill
#
# Bulk Modulus (GPa) = 34.67954 42.30842 38.49398
# Shear Modulus (GPa) = 29.07653 -3.31066 12.88294
#
# Velocity S-wave (km/s) = 3.87127 -1.30629 2.57685
# Velocity P-wave (km/s) = 6.15280 4.41945 5.35670
#
# Compressibility (1/GPa) = 0.02883545
#
# Stress axis : x y z
#
# Youngs Moduli (GPa) = 55.78617 41.10679 82.46833
#
# Poissons Ratio (x) = 0.26191 0.15177
# Poissons Ratio (y) = 0.35544 0.37602
# Poissons Ratio (z) = 0.10266 0.18743
#
# Static dielectric constant tensor:
#      x y z
#    x 1.703560 0.000000 -0.012330 
#    y 0.000000 1.649640 0.000000 
#    z -0.012330 0.000000 1.743620 
# 
# From -- ./inp_files/29416.got.cif
#   From: 2010.05.17/outbox.cif.g08.bks.cpg/sg10_15_cif.got.tgz:29416.got - 2010.06.03 11:33:40.
