data_PCOD9142201
_publ_section_title
;
Structure prediction by ZEFSAII (Michael W. Deem and Ramdas Pophale) SiO2 
 PCOD9142201
Probable space group: P 2/M
;
_chemical_formula_sum "Si O2"
_cell_formula_units_Z 32
_cell_length_a 29.836902
_cell_length_b 9.079310
_cell_length_c 20.013561
_cell_angle_alpha 90.000000
_cell_angle_beta 23.180938
_cell_angle_gamma 90.000000
_cell_volume 2134.154508
_symmetry_space_group_name_H-M "P 2/M"
_symmetry_group_IT_number 10
_symmetry_cell_setting 'monoclinic'
loop_
_space_group_symop_operation_xyz
x,y,z
-x,y,-z
-x,-y,-z
x,-y,z
loop_
_atom_site_type_symbol
_atom_site_label
_atom_site_fract_x
_atom_site_fract_y
_atom_site_fract_z
Si Si1 0.331155 0.668566 0.248231
Si Si2 0.994033 0.825158 0.165928
Si Si3 0.555701 0.325161 0.763163
Si Si4 0.059376 0.670691 0.627345
Si Si5 0.667100 0.174811 0.891659
Si Si6 0.881300 0.669434 0.121110
Si Si7 0.911008 0.676916 0.563449
Si Si8 0.760798 0.175939 0.404622
O O1 0.355436 0.500000 0.192354
O O2 0.397832 0.696679 0.224831
O O3 0.196506 0.677010 0.447484
O O4 0.355632 0.778121 0.154281
O O5 0.994625 0.767599 0.240644
O O6 0.869210 0.791878 0.304696
O O7 0.009437 0.000000 0.141426
O O8 0.086619 0.745107 0.992611
O O9 0.548461 0.500000 0.761506
O O10 0.649027 0.252178 0.587284
O O11 0.432838 0.249248 0.928506
O O12 0.025022 0.500000 0.682701
O O13 0.040046 0.716639 0.576999
O O14 0.791157 0.241781 0.737524
O O15 0.666469 0.000000 0.899475
O O16 0.845957 0.500000 0.161309
O O17 0.794464 0.759475 0.286302
O O18 0.000000 0.669953 0.000000
O O19 0.889749 0.500000 0.590509
O O20 0.000000 0.708262 0.500000
O O21 0.747693 0.000000 0.420001
#
# Coordination Sequence:
#
# PCOD9142201 Si02
#       8
#     4   4   4   4   4   4   4   4
#     4   9  18  31  45  61  86 121 158 191 223 263
#     4  10  18  27  41  62  90 120 151 190 230 268
#     4  11  20  31  46  62  87 123 161 192 221 265
#     4   9  16  28  46  68  89 115 152 190 227 270
#     4  11  22  32  45  67  92 116 148 189 234 276
#     4   9  17  28  42  58  81 118 160 193 223 263
#     4   9  19  37  56  70  88 117 152 190 233 280
#     4  10  19  29  41  61  90 121 155 192 232 268
#
# _framework density 14.994228
#
# number of rings (size 3 to 8) (size 9 to 14) (size 15 to 20)
#    0.000    2.250    1.250    3.750    0.000    7.250 
#    0.000    0.000    0.000    0.000    0.000    0.000 
#    0.000    1.000    0.000   10.750    0.000    4.750 
#
# Total GULP energy -178477.143515 kJ/mol
# GULP energy per Si atom -5577.410735 kJ/mol
# Density = 1.496010 g / cm^3
# Si number density = 14.994228 Si / 1000 Ang^3
#
#
#
# Elastic Constant Matrix: (Units=GPa)
#
#
# Indices 1 2 3 4 5 6 
#
# 1 79.6203 46.6682 51.7777 0.0000 12.5371 0.0000
# 2 46.6682 88.5290 67.3079 0.0000 17.3849 0.0000
# 3 51.7777 67.3079 98.2272 0.0000 23.1314 0.0000
# 4 0.0000 0.0000 0.0000 23.6957 0.0000 -1.3740
# 5 12.5371 17.3849 23.1314 0.0000 15.4009 0.0000
# 6 0.0000 0.0000 0.0000 -1.3740 0.0000 -60.3538
#
#
#
# Elastic Compliance Matrix: (Units=1/GPa)
#
#
# Indices 1 2 3 4 5 6 
#
# 1 0.020253 -0.005348 -0.007041 0.000000 0.000125 0.000000
# 2 -0.005348 0.025125 -0.013529 0.000000 -0.003689 0.000000
# 3 -0.007041 -0.013529 0.028185 0.000000 -0.021329 0.000000
# 4 0.000000 0.000000 0.000000 0.042146 0.000000 -0.000960
# 5 0.000125 -0.003689 -0.021329 0.000000 0.101029 0.000000
# 6 0.000000 0.000000 0.000000 -0.000960 0.000000 -0.016547
#
#
# Mechanical properties :
#
#
# Convention : Reuss Voigt Hill
#
# Bulk Modulus (GPa) = 46.02266 66.43158 56.22712
# Shear Modulus (GPa) = 19.28504 2.45673 10.87089
#
# Velocity S-wave (km/s) = 3.59020 1.28141 2.69551
# Velocity P-wave (km/s) = 6.92433 6.82571 6.87519
#
# Compressibility (1/GPa) = 0.02172843
#
# Stress axis : x y z
#
# Youngs Moduli (GPa) = 49.37480 39.80085 35.48033
#
# Poissons Ratio (x) = 0.21286 0.24980
# Poissons Ratio (y) = 0.26406 0.48000
# Poissons Ratio (z) = 0.34763 0.53845
#
# Static dielectric constant tensor:
#      x y z
#    x 1.482380 0.000000 0.010630 
#    y 0.000000 1.499550 0.000000 
#    z 0.010630 0.000000 1.489440 
# 
# From -- ./inp_files/66095.got.cif
#   From: 2010.05.17/outbox.cif.g08.bks.cpg/sg10_34_cif.got.tgz:66095.got - 2010.06.03 11:33:40.
