data_PCOD9142225
_publ_section_title
;
Structure prediction by ZEFSAII (Michael W. Deem and Ramdas Pophale) SiO2 
 PCOD9142225
Probable space group: P 2/M
;
_chemical_formula_sum "Si O2"
_cell_formula_units_Z 28
_cell_length_a 9.342869
_cell_length_b 16.535559
_cell_length_c 14.791245
_cell_angle_alpha 90.000000
_cell_angle_beta 122.055023
_cell_angle_gamma 90.000000
_cell_volume 1936.704956
_symmetry_space_group_name_H-M "P 2/M"
_symmetry_group_IT_number 10
_symmetry_cell_setting 'monoclinic'
loop_
_space_group_symop_operation_xyz
x,y,z
-x,y,-z
-x,-y,-z
x,-y,z
loop_
_atom_site_type_symbol
_atom_site_label
_atom_site_fract_x
_atom_site_fract_y
_atom_site_fract_z
Si Si1 0.704227 0.000000 0.678526
Si Si2 0.333091 0.594456 0.000954
Si Si3 0.338028 0.594095 0.216902
Si Si4 0.170231 0.826876 0.284501
Si Si5 0.838764 0.173302 0.504826
Si Si6 0.507292 0.719861 0.398538
Si Si7 0.686190 0.000000 0.452938
Si Si8 0.000062 0.695905 0.892939
O O1 0.801900 0.081245 0.737339
O O2 0.689383 0.000000 0.563842
O O3 0.508809 0.000000 0.643816
O O4 0.287746 0.500000 0.968558
O O5 0.175816 0.652679 0.928093
O O6 0.500000 0.613602 0.000000
O O7 0.369649 0.601282 0.120235
O O8 0.342788 0.500000 0.242998
O O9 0.468088 0.647667 0.317241
O O10 0.152456 0.631838 0.171691
O O11 0.122340 0.827046 0.374581
O O12 0.354445 0.784452 0.339537
O O13 0.044390 0.773461 0.182442
O O14 0.682195 0.234241 0.439960
O O15 0.777726 0.083016 0.456861
O O16 0.000000 0.196147 0.500000
O O17 0.500000 0.690884 0.500000
O O18 0.000000 0.716030 0.000000
#
# Coordination Sequence:
#
# PCOD9142225 Si02
#       8
#     2   4   4   4   4   4   2   4
#     4   9  14  26  47  64  84 113 142 174 214 249
#     4   9  17  29  46  67  88 110 138 176 220 258
#     4   9  17  29  46  65  84 110 144 181 214 248
#     4   9  17  29  45  64  86 115 143 175 213 252
#     4  10  18  27  42  66  92 114 141 174 210 253
#     4   9  17  29  43  61  87 116 144 173 211 255
#     4   9  15  26  44  64  87 113 140 176 213 247
#     4   9  17  30  47  66  86 108 144 182 214 249
#
# _framework density 14.457545
#
# number of rings (size 3 to 8) (size 9 to 14) (size 15 to 20)
#    0.000    2.857    1.429    0.643    0.000    3.143 
#    0.000    0.357    0.000    0.429    0.000    0.500 
#    0.000    0.000    0.000    0.000    0.000    0.000 
#
# Total GULP energy -155931.961814 kJ/mol
# GULP energy per Si atom -5568.998636 kJ/mol
# Density = 1.442464 g / cm^3
# Si number density = 14.457545 Si / 1000 Ang^3
#
#
#
# Elastic Constant Matrix: (Units=GPa)
#
#
# Indices 1 2 3 4 5 6 
#
# 1 104.2532 51.4013 42.1499 0.0000 7.7004 0.0000
# 2 51.4013 116.7750 65.3403 0.0000 3.6622 0.0000
# 3 42.1499 65.3403 71.9095 0.0000 13.0219 0.0000
# 4 0.0000 0.0000 0.0000 26.4367 0.0000 2.6105
# 5 7.7004 3.6622 13.0219 0.0000 10.1588 0.0000
# 6 0.0000 0.0000 0.0000 2.6105 0.0000 15.4679
#
#
#
# Elastic Compliance Matrix: (Units=1/GPa)
#
#
# Indices 1 2 3 4 5 6 
#
# 1 0.013159 -0.003549 -0.003795 0.000000 -0.003831 0.000000
# 2 -0.003549 0.021429 -0.021461 0.000000 0.022475 0.000000
# 3 -0.003795 -0.021461 0.043900 0.000000 -0.045659 0.000000
# 4 0.000000 0.000000 0.000000 0.038467 0.000000 -0.006492
# 5 -0.003831 0.022475 -0.045659 0.000000 0.151767 0.000000
# 6 0.000000 0.000000 0.000000 -0.006492 0.000000 0.065746
#
#
# Mechanical properties :
#
#
# Convention : Reuss Voigt Hill
#
# Bulk Modulus (GPa) = 47.89724 67.85785 57.87754
# Shear Modulus (GPa) = 12.53015 19.34908 15.93962
#
# Velocity S-wave (km/s) = 2.94715 3.66230 3.32401
# Velocity P-wave (km/s) = 6.69196 8.05736 7.40620
#
# Compressibility (1/GPa) = 0.02087803
#
# Stress axis : x y z
#
# Youngs Moduli (GPa) = 75.99409 46.66525 22.77900
#
# Poissons Ratio (x) = 0.16560 0.08645
# Poissons Ratio (y) = 0.26968 0.48887
# Poissons Ratio (z) = 0.28840 1.00151
#
# Static dielectric constant tensor:
#      x y z
#    x 1.460830 0.000000 -0.000810 
#    y 0.000000 1.472720 0.000000 
#    z -0.000810 0.000000 1.464200 
# 
# From -- ./inp_files/28988.got.cif
#   From: 2010.05.17/outbox.cif.g08.bks.cpg/sg10_15_cif.got.tgz:28988.got - 2010.06.03 11:33:40.
