data_PCOD9142040
_publ_section_title
;
Structure prediction by ZEFSAII (Michael W. Deem and Ramdas Pophale) SiO2 
 PCOD9142040
Probable space group: P 2/M
;
_chemical_formula_sum "Si O2"
_cell_formula_units_Z 24
_cell_length_a 12.612299
_cell_length_b 11.582308
_cell_length_c 13.880691
_cell_angle_alpha 90.000000
_cell_angle_beta 138.256274
_cell_angle_gamma 90.000000
_cell_volume 1350.032500
_symmetry_space_group_name_H-M "P 2/M"
_symmetry_group_IT_number 10
_symmetry_cell_setting 'monoclinic'
loop_
_space_group_symop_operation_xyz
x,y,z
-x,y,-z
-x,-y,-z
x,-y,z
loop_
_atom_site_type_symbol
_atom_site_label
_atom_site_fract_x
_atom_site_fract_y
_atom_site_fract_z
Si Si1 0.837048 0.228325 0.048666
Si Si2 0.821614 0.140814 0.656497
Si Si3 0.547012 0.362965 0.922811
Si Si4 0.687355 0.000000 0.247570
Si Si5 0.630675 0.198923 0.346487
Si Si6 0.691187 0.000000 0.038367
Si Si7 0.700587 0.131529 0.781453
O O1 0.015613 0.204058 0.202092
O O2 0.746875 0.114292 0.024720
O O3 0.730213 0.329546 0.022109
O O4 0.810631 0.219818 0.915888
O O5 0.750931 0.207834 0.516984
O O6 0.707348 0.150976 0.672156
O O7 0.841505 0.000000 0.652285
O O8 0.525318 0.500000 0.904663
O O9 0.438301 0.301446 0.767166
O O10 0.500000 0.322519 0.000000
O O11 0.715021 0.888165 0.329726
O O12 0.762443 0.000000 0.193873
O O13 0.498610 0.000000 0.097200
O O14 0.475023 0.143070 0.292521
O O15 0.759864 0.000000 0.835752
#
# Coordination Sequence:
#
# PCOD9142040 Si02
#       7
#     4   4   4   2   4   2   4
#     4  11  19  34  53  80 113 140 176 223 268 318
#     4  11  21  31  50  85 123 146 169 208 272 337
#     4  10  22  41  63  78  94 138 197 234 260 307
#     4  11  18  29  50  76 103 138 175 221 271 321
#     4  11  19  34  53  80 113 140 176 223 268 318
#     4  11  18  29  50  76 103 138 175 221 271 321
#     4  10  17  31  52  78 112 152 185 209 251 322
#
# _framework density 17.777349000000001
#
# number of rings (size 3 to 8) (size 9 to 14) (size 15 to 20)
#    0.000    1.333    6.667    2.000    0.000    2.667 
#    0.000    5.000    0.000   18.000    0.000    0.000 
#    0.000    0.000    0.000    0.000    0.000    0.000 
#
# Total GULP energy -133691.577460 kJ/mol
# GULP energy per Si atom -5570.482394 kJ/mol
# Density = 1.773689 g / cm^3
# Si number density = 17.777349 Si / 1000 Ang^3
#
#
#
# Elastic Constant Matrix: (Units=GPa)
#
#
# Indices 1 2 3 4 5 6 
#
# 1 27.0962 11.2309 13.0754 0.0000 -19.5308 0.0000
# 2 11.2309 53.6494 16.4893 0.0000 -11.9438 0.0000
# 3 13.0754 16.4893 107.7276 0.0000 -17.3276 0.0000
# 4 0.0000 0.0000 0.0000 11.7285 0.0000 -4.0879
# 5 -19.5308 -11.9438 -17.3276 0.0000 33.6570 0.0000
# 6 0.0000 0.0000 0.0000 -4.0879 0.0000 20.2500
#
#
#
# Elastic Compliance Matrix: (Units=1/GPa)
#
#
# Indices 1 2 3 4 5 6 
#
# 1 0.065181 -0.005373 -0.001430 0.000000 0.035181 0.000000
# 2 -0.005373 0.021135 -0.002048 0.000000 0.003328 0.000000
# 3 -0.001430 -0.002048 0.010379 0.000000 0.003787 0.000000
# 4 0.000000 0.000000 0.000000 0.091715 0.000000 0.018514
# 5 0.035181 0.003328 0.003787 0.000000 0.053257 0.000000
# 6 0.000000 0.000000 0.000000 0.018514 0.000000 0.053120
#
#
# Mechanical properties :
#
#
# Convention : Reuss Voigt Hill
#
# Bulk Modulus (GPa) = 12.65938 30.00713 21.33326
# Shear Modulus (GPa) = 14.75712 22.97229 18.86471
#
# Velocity S-wave (km/s) = 2.88429 3.59865 3.26109
# Velocity P-wave (km/s) = 4.26950 5.84663 5.11917
#
# Compressibility (1/GPa) = 0.07899278
#
# Stress axis : x y z
#
# Youngs Moduli (GPa) = 15.34186 47.31590 96.35071
#
# Poissons Ratio (x) = 0.25424 0.13780
# Poissons Ratio (y) = 0.08243 0.19728
# Poissons Ratio (z) = 0.02194 0.09688
#
# Static dielectric constant tensor:
#      x y z
#    x 1.651070 0.000000 -0.016300 
#    y 0.000000 1.570930 0.000000 
#    z -0.016300 0.000000 1.681270 
# 
# From -- ./inp_files/46811.got.cif
#   From: 2010.05.17/outbox.cif.g08.bks.cpg/sg10_24_cif.got.tgz:46811.got - 2010.06.03 11:33:40.
