data_PCOD9142864
_publ_section_title
;
Structure prediction by ZEFSAII (Michael W. Deem and Ramdas Pophale) SiO2 
 PCOD9142864
Probable space group: P 2/M
;
_chemical_formula_sum "Si O2"
_cell_formula_units_Z 32
_cell_length_a 21.161694
_cell_length_b 7.538811
_cell_length_c 10.443127
_cell_angle_alpha 90.000000
_cell_angle_beta 83.558138
_cell_angle_gamma 90.000000
_cell_volume 1655.514957
_symmetry_space_group_name_H-M "P 2/M"
_symmetry_group_IT_number 10
_symmetry_cell_setting 'monoclinic'
loop_
_space_group_symop_operation_xyz
x,y,z
-x,y,-z
-x,-y,-z
x,-y,z
loop_
_atom_site_type_symbol
_atom_site_label
_atom_site_fract_x
_atom_site_fract_y
_atom_site_fract_z
Si Si1 0.322239 0.209853 0.534968
Si Si2 0.813813 0.203971 0.452851
Si Si3 0.331275 0.705776 0.830150
Si Si4 0.456461 0.713673 0.392568
Si Si5 0.531268 0.717689 0.125584
Si Si6 0.054083 0.283097 0.889345
Si Si7 0.193899 0.716014 0.845580
Si Si8 0.045535 0.294904 0.597935
O O1 0.255356 0.277484 0.491526
O O2 0.334683 0.287457 0.673926
O O3 0.383630 0.238471 0.434400
O O4 0.313623 0.000000 0.556781
O O5 0.808561 0.218130 0.299952
O O6 0.881428 0.290597 0.466812
O O7 0.819009 0.000000 0.492281
O O8 0.330599 0.500000 0.868802
O O9 0.396490 0.782014 0.870329
O O10 0.261783 0.779160 0.883874
O O11 0.500000 0.778522 0.500000
O O12 0.459601 0.500000 0.392622
O O13 0.487584 0.775307 0.253888
O O14 0.532865 0.500000 0.127943
O O15 0.500000 0.771737 0.000000
O O16 0.053226 0.500000 0.886818
O O17 0.125526 0.232223 0.917255
O O18 0.043981 0.221788 0.744044
O O19 0.000000 0.224589 0.000000
O O20 0.195879 0.500000 0.841042
O O21 0.026012 0.500000 0.616907
O O22 0.000000 0.214052 0.500000
#
# Coordination Sequence:
#
# PCOD9142864 Si02
#       8
#     4   4   4   4   4   4   4   4
#     4  10  19  29  45  70  95 117 148 194 235 265
#     4   9  17  28  43  66  92 118 149 185 222 264
#     4   9  15  27  46  66  88 115 150 188 226 271
#     4  10  18  30  48  70  91 117 152 187 229 274
#     4   9  17  29  46  66  91 119 147 185 228 271
#     4   8  13  23  41  64  88 112 139 176 219 257
#     4   8  14  24  42  65  85 112 147 184 223 263
#     4   9  17  29  46  67  92 120 149 181 219 263
#
# _framework density 19.329332000000001
#
# number of rings (size 3 to 8) (size 9 to 14) (size 15 to 20)
#    0.000    3.000    1.250    1.500    0.000    2.000 
#    0.000    0.000    2.750    7.500    0.000    0.000 
#    0.000    0.000    0.000    0.000    0.000    0.000 
#
# Total GULP energy -178178.425910 kJ/mol
# GULP energy per Si atom -5568.075810 kJ/mol
# Density = 1.928534 g / cm^3
# Si number density = 19.329332 Si / 1000 Ang^3
#
#
#
# Elastic Constant Matrix: (Units=GPa)
#
#
# Indices 1 2 3 4 5 6 
#
# 1 217.3466 -0.4258 86.1181 0.0000 -17.4774 0.0000
# 2 -0.4258 47.3252 2.9452 0.0000 0.5019 0.0000
# 3 86.1181 2.9452 87.5582 0.0000 -8.7173 0.0000
# 4 0.0000 0.0000 0.0000 -22.8392 0.0000 24.9286
# 5 -17.4774 0.5019 -8.7173 0.0000 32.0494 0.0000
# 6 0.0000 0.0000 0.0000 24.9286 0.0000 -20.8644
#
#
#
# Elastic Compliance Matrix: (Units=1/GPa)
#
#
# Indices 1 2 3 4 5 6 
#
# 1 0.007698 0.000505 -0.007371 0.000000 0.002185 0.000000
# 2 0.000505 0.021217 -0.001250 0.000000 -0.000397 0.000000
# 3 -0.007371 -0.001250 0.018824 0.000000 0.001120 0.000000
# 4 0.000000 0.000000 0.000000 0.143982 0.000000 0.172028
# 5 0.002185 -0.000397 0.001120 0.000000 0.032704 0.000000
# 6 0.000000 0.000000 0.000000 0.172028 0.000000 0.157609
#
#
# Mechanical properties :
#
#
# Convention : Reuss Voigt Hill
#
# Bulk Modulus (GPa) = 31.73833 58.83387 45.28610
# Shear Modulus (GPa) = 12.23183 15.24200 13.73692
#
# Velocity S-wave (km/s) = 2.51830 2.81115 2.66875
# Velocity P-wave (km/s) = 4.99112 6.40628 5.74246
#
# Compressibility (1/GPa) = 0.03150765
#
# Stress axis : x y z
#
# Youngs Moduli (GPa) = 129.89981 47.13223 53.12276
#
# Poissons Ratio (x) = -0.02379 0.39157
# Poissons Ratio (y) = -0.06557 0.06639
# Poissons Ratio (z) = 0.95750 0.05890
#
# Static dielectric constant tensor:
#      x y z
#    x 1.731590 0.000000 -0.012410 
#    y 0.000000 1.731470 0.000000 
#    z -0.012410 0.000000 1.634570 
# 
# From -- ./inp_files/54491.got.cif
#   From: 2010.05.17/outbox.cif.g08.bks.cpg/sg10_28_cif.got.tgz:54491.got - 2010.06.03 11:33:40.
