data_PCOD9143011
_publ_section_title
;
Structure prediction by ZEFSAII (Michael W. Deem and Ramdas Pophale) SiO2 
 PCOD9143011
Probable space group: P 2/M
;
_chemical_formula_sum "Si O2"
_cell_formula_units_Z 28
_cell_length_a 14.157214
_cell_length_b 21.781171
_cell_length_c 8.370382
_cell_angle_alpha 90.000000
_cell_angle_beta 27.375628
_cell_angle_gamma 90.000000
_cell_volume 1186.845350
_symmetry_space_group_name_H-M "P 2/M"
_symmetry_group_IT_number 10
_symmetry_cell_setting 'monoclinic'
loop_
_space_group_symop_operation_xyz
x,y,z
-x,y,-z
-x,-y,-z
x,-y,z
loop_
_atom_site_type_symbol
_atom_site_label
_atom_site_fract_x
_atom_site_fract_y
_atom_site_fract_z
Si Si1 0.737269 0.071617 0.044294
Si Si2 0.236549 0.431714 0.581439
Si Si3 0.682101 0.312899 0.353464
Si Si4 0.916186 0.647255 0.453015
Si Si5 0.277936 0.239179 0.379541
Si Si6 0.767907 0.926966 0.342149
Si Si7 0.191441 0.883924 0.396163
O O1 0.707336 0.111354 0.930022
O O2 0.986279 0.074720 0.691391
O O3 0.680016 0.000000 0.101167
O O4 0.669150 0.092961 0.324258
O O5 0.323026 0.500000 0.466671
O O6 0.354819 0.378087 0.499103
O O7 0.199563 0.408983 0.456980
O O8 0.000000 0.433043 0.000000
O O9 0.500000 0.299044 0.500000
O O10 0.722327 0.263427 0.436429
O O11 0.893623 0.326547 0.939662
O O12 0.757674 0.703084 0.682505
O O13 0.000000 0.632809 0.500000
O O14 0.130115 0.185024 0.542024
O O15 0.500000 0.213752 0.000000
O O16 0.685958 0.909427 0.636682
O O17 0.776471 0.000000 0.317651
O O18 0.000000 0.902100 0.000000
#
# Coordination Sequence:
#
# PCOD9143011 Si02
#       7
#     4   4   4   4   4   4   4
#     4   9  17  30  53  84 113 142 188 245 301 369
#     4   8  16  33  58  89 123 158 200 243 289 353
#     4  10  21  40  61  86 119 162 200 249 308 354
#     4  10  21  37  62  86 118 162 201 247 302 358
#     4  11  24  40  55  82 119 159 206 254 301 355
#     4   8  14  26  46  74 106 139 178 231 291 353
#     4  10  18  30  50  77 109 143 189 245 292 349
#
# _framework density 23.591954000000001
#
# number of rings (size 3 to 8) (size 9 to 14) (size 15 to 20)
#    0.000    2.571    0.000    4.714    2.000    4.000 
#    2.571    0.000    0.000   18.429    0.000    2.000 
#    0.000    0.000    0.000    0.000    0.000    0.000 
#
# Total GULP energy -156211.331604 kJ/mol
# GULP energy per Si atom -5578.976129 kJ/mol
# Density = 2.353826 g / cm^3
# Si number density = 23.591954 Si / 1000 Ang^3
#
#
#
# Elastic Constant Matrix: (Units=GPa)
#
#
# Indices 1 2 3 4 5 6 
#
# 1 208.1690 44.5629 22.4627 0.0000 33.7226 0.0000
# 2 44.5629 101.1149 2.5417 0.0000 17.0565 0.0000
# 3 22.4627 2.5417 55.6866 0.0000 17.1858 0.0000
# 4 0.0000 0.0000 0.0000 48.8742 0.0000 -6.8229
# 5 33.7226 17.0565 17.1858 0.0000 51.0104 0.0000
# 6 0.0000 0.0000 0.0000 -6.8229 0.0000 18.6201
#
#
#
# Elastic Compliance Matrix: (Units=1/GPa)
#
#
# Indices 1 2 3 4 5 6 
#
# 1 0.005839 -0.002085 -0.001433 0.000000 -0.002680 0.000000
# 2 -0.002085 0.011248 0.001186 0.000000 -0.002782 0.000000
# 3 -0.001433 0.001186 0.020436 0.000000 -0.006335 0.000000
# 4 0.000000 0.000000 0.000000 0.021564 0.000000 0.007901
# 5 -0.002680 -0.002782 -0.006335 0.000000 0.024440 0.000000
# 6 0.000000 0.000000 0.000000 0.007901 0.000000 0.056601
#
#
# Mechanical properties :
#
#
# Convention : Reuss Voigt Hill
#
# Bulk Modulus (GPa) = 30.43218 56.01166 43.22192
# Shear Modulus (GPa) = 32.10371 43.39448 37.74910
#
# Velocity S-wave (km/s) = 3.69289 4.29345 4.00444
# Velocity P-wave (km/s) = 5.57769 6.95497 6.30406
#
# Compressibility (1/GPa) = 0.03285995
#
# Stress axis : x y z
#
# Youngs Moduli (GPa) = 171.26326 88.90284 48.93212
#
# Poissons Ratio (x) = 0.18538 0.07012
# Poissons Ratio (y) = 0.35712 -0.05805
# Poissons Ratio (z) = 0.24542 -0.10547
#
# Static dielectric constant tensor:
#      x y z
#    x 1.919290 0.000000 -0.015250 
#    y 0.000000 1.867790 0.000000 
#    z -0.015250 0.000000 2.043770 
# 
# From -- ./inp_files/30411.got.cif
#   From: 2010.05.17/outbox.cif.g08.bks.cpg/sg10_16_cif.got.tgz:30411.got - 2010.06.03 11:33:40.
