data_PCOD9143275
_publ_section_title
;
Structure prediction by ZEFSAII (Michael W. Deem and Ramdas Pophale) SiO2 
 PCOD9143275
Probable space group: P 2/M
;
_chemical_formula_sum "Si O2"
_cell_formula_units_Z 32
_cell_length_a 18.986831
_cell_length_b 7.398661
_cell_length_c 27.280762
_cell_angle_alpha 90.000000
_cell_angle_beta 159.280671
_cell_angle_gamma 90.000000
_cell_volume 1355.839102
_symmetry_space_group_name_H-M "P 2/M"
_symmetry_group_IT_number 10
_symmetry_cell_setting 'monoclinic'
loop_
_space_group_symop_operation_xyz
x,y,z
-x,y,-z
-x,-y,-z
x,-y,z
loop_
_atom_site_type_symbol
_atom_site_label
_atom_site_fract_x
_atom_site_fract_y
_atom_site_fract_z
Si Si1 0.492687 0.706826 0.366757
Si Si2 0.064490 0.279095 0.348536
Si Si3 0.381523 0.277836 0.118266
Si Si4 0.325322 0.719698 0.846270
Si Si5 0.071197 0.705375 0.844185
Si Si6 0.215164 0.279910 0.662039
Si Si7 0.832686 0.707696 0.926253
Si Si8 0.308900 0.793882 0.347415
O O1 0.520429 0.500000 0.402086
O O2 0.709790 0.782793 0.496690
O O3 0.363757 0.703154 0.234403
O O4 0.365299 0.793073 0.327346
O O5 0.069428 0.500000 0.354365
O O6 0.009724 0.216126 0.258364
O O7 0.885991 0.226074 0.267527
O O8 0.376205 0.500000 0.117362
O O9 0.610895 0.228154 0.263120
O O10 0.243610 0.211809 0.072882
O O11 0.267215 0.215555 0.995304
O O12 0.343106 0.500000 0.856432
O O13 0.295361 0.774647 0.769032
O O14 0.500000 0.775729 0.000000
O O15 0.125088 0.500000 0.866439
O O16 0.894956 0.702712 0.769384
O O17 0.206045 0.500000 0.658212
O O18 0.000000 0.221296 0.500000
O O19 0.901992 0.500000 0.981564
O O20 0.000000 0.790671 0.000000
O O21 0.500000 0.715599 0.500000
O O22 0.285939 0.000000 0.349458
#
# Coordination Sequence:
#
# PCOD9143275 Si02
#       8
#     4   4   4   4   4   4   4   4
#     4  10  19  31  49  70  95 127 165 202 240 290
#     4   9  17  26  42  67  90 121 163 202 236 283
#     4   9  17  28  45  69  98 133 170 204 242 295
#     4   9  16  26  39  58  92 132 165 197 243 298
#     4  10  18  31  51  72  97 129 168 205 240 287
#     4   9  17  26  39  62  99 140 165 192 251 314
#     4   9  17  28  43  65  92 124 163 204 242 280
#     4  11  22  34  48  70 101 131 160 202 255 303
#
# _framework density 23.601621999999999
#
# number of rings (size 3 to 8) (size 9 to 14) (size 15 to 20)
#    0.000    2.500    1.250    1.875    1.750    5.500 
#    0.000    0.000    0.000    3.375    0.000    0.000 
#    0.000    9.500    0.000    0.125    0.000    0.000 
#
# Total GULP energy -178456.094614 kJ/mol
# GULP energy per Si atom -5576.752957 kJ/mol
# Density = 2.354790 g / cm^3
# Si number density = 23.601622 Si / 1000 Ang^3
#
#
#
# Elastic Constant Matrix: (Units=GPa)
#
#
# Indices 1 2 3 4 5 6 
#
# 1 114.7728 0.9338 56.9960 0.0000 18.3628 0.0000
# 2 0.9338 76.2697 1.3021 0.0000 -1.1716 0.0000
# 3 56.9960 1.3021 134.1018 0.0000 16.6477 0.0000
# 4 0.0000 0.0000 0.0000 23.5006 0.0000 17.6798
# 5 18.3628 -1.1716 16.6477 0.0000 40.0322 0.0000
# 6 0.0000 0.0000 0.0000 17.6798 0.0000 -10.7032
#
#
#
# Elastic Compliance Matrix: (Units=1/GPa)
#
#
# Indices 1 2 3 4 5 6 
#
# 1 0.011470 -0.000117 -0.004450 0.000000 -0.003414 0.000000
# 2 -0.000117 0.013123 -0.000139 0.000000 0.000496 0.000000
# 3 -0.004450 -0.000139 0.009592 0.000000 -0.001952 0.000000
# 4 0.000000 0.000000 0.000000 0.018974 0.000000 0.031341
# 5 -0.003414 0.000496 -0.001952 0.000000 0.027372 0.000000
# 6 0.000000 0.000000 0.000000 0.031341 0.000000 -0.041660
#
#
# Mechanical properties :
#
#
# Convention : Reuss Voigt Hill
#
# Bulk Modulus (GPa) = 40.36749 49.28979 44.82864
# Shear Modulus (GPa) = 88.43220 28.29340 58.36280
#
# Velocity S-wave (km/s) = 6.12781 3.46611 4.97815
# Velocity P-wave (km/s) = 8.19802 6.07848 7.21649
#
# Compressibility (1/GPa) = 0.02477241
#
# Stress axis : x y z
#
# Youngs Moduli (GPa) = 87.18474 76.20334 104.25359
#
# Poissons Ratio (x) = 0.00891 0.46393
# Poissons Ratio (y) = 0.01019 0.01452
# Poissons Ratio (z) = 0.38797 0.01061
#
# Static dielectric constant tensor:
#      x y z
#    x 1.906850 0.000000 -0.008310 
#    y 0.000000 1.955620 0.000000 
#    z -0.008310 0.000000 1.872620 
# 
# From -- ./inp_files/93476.got.cif
#   From: 2010.05.17/outbox.cif.g08.bks.cpg/sg10_47_cif.got.tgz:93476.got - 2010.06.03 11:33:40.
