data_PCOD9143623
_publ_section_title
;
Structure prediction by ZEFSAII (Michael W. Deem and Ramdas Pophale) SiO2 
 PCOD9143623
Probable space group: P 2/M
;
_chemical_formula_sum "Si O2"
_cell_formula_units_Z 28
_cell_length_a 15.856243
_cell_length_b 14.250520
_cell_length_c 9.880001
_cell_angle_alpha 90.000000
_cell_angle_beta 48.419054
_cell_angle_gamma 90.000000
_cell_volume 1669.938704
_symmetry_space_group_name_H-M "P 2/M"
_symmetry_group_IT_number 10
_symmetry_cell_setting 'monoclinic'
loop_
_space_group_symop_operation_xyz
x,y,z
-x,y,-z
-x,-y,-z
x,-y,z
loop_
_atom_site_type_symbol
_atom_site_label
_atom_site_fract_x
_atom_site_fract_y
_atom_site_fract_z
Si Si1 0.092589 0.390049 0.791904
Si Si2 0.472630 0.605708 0.868994
Si Si3 0.307716 0.714016 0.449915
Si Si4 0.563447 0.891503 0.572134
Si Si5 0.930200 0.398286 0.710635
Si Si6 0.264623 0.728097 0.172599
Si Si7 0.593059 0.106119 0.002825
O O1 0.119910 0.500000 0.792757
O O2 0.207239 0.332348 0.644603
O O3 0.020458 0.387089 0.731710
O O4 0.000000 0.356747 0.000000
O O5 0.449955 0.500000 0.844447
O O6 0.578393 0.651171 0.678781
O O7 0.500000 0.599083 0.000000
O O8 0.365250 0.673047 0.988381
O O9 0.346057 0.814734 0.471141
O O10 0.268978 0.715429 0.331900
O O11 0.500000 0.866166 0.500000
O O12 0.466993 0.893304 0.789460
O O13 0.606425 0.000000 0.514832
O O14 0.870393 0.500000 0.794058
O O15 0.845687 0.313464 0.777726
O O16 0.000000 0.404442 0.500000
O O17 0.293300 0.836110 0.119411
O O18 0.612139 0.000000 0.935920
O O19 0.500000 0.150789 0.000000
#
# Coordination Sequence:
#
# PCOD9143623 Si02
#       7
#     4   4   4   4   4   4   4
#     4  10  22  39  56  77 107 150 195 228 266 319
#     4   9  17  27  45  79 112 138 168 216 278 329
#     4  11  19  33  56  79 109 143 182 228 274 328
#     4  10  21  36  55  82 114 146 182 221 272 341
#     4  10  20  34  54  78 105 143 191 232 262 312
#     4  11  18  30  54  84 109 140 181 228 276 324
#     4  10  18  32  53  80 111 140 177 222 273 334
#
# _framework density 16.767081000000001
#
# number of rings (size 3 to 8) (size 9 to 14) (size 15 to 20)
#    0.000    1.857    4.286    1.286    0.000    2.286 
#    0.000    0.000    0.000    2.571    0.000    0.000 
#    0.000    0.000    0.000    0.000    0.000    0.000 
#
# Total GULP energy -155891.965280 kJ/mol
# GULP energy per Si atom -5567.570189 kJ/mol
# Density = 1.672892 g / cm^3
# Si number density = 16.767081 Si / 1000 Ang^3
#
#
#
# Elastic Constant Matrix: (Units=GPa)
#
#
# Indices 1 2 3 4 5 6 
#
# 1 38.8945 26.0261 19.5851 0.0000 -3.2094 0.0000
# 2 26.0261 101.7453 28.5531 0.0000 -20.9428 0.0000
# 3 19.5851 28.5531 96.3460 0.0000 -9.1006 0.0000
# 4 0.0000 0.0000 0.0000 12.5655 0.0000 -3.2720
# 5 -3.2094 -20.9428 -9.1006 0.0000 29.3385 0.0000
# 6 0.0000 0.0000 0.0000 -3.2720 0.0000 25.7861
#
#
#
# Elastic Compliance Matrix: (Units=1/GPa)
#
#
# Indices 1 2 3 4 5 6 
#
# 1 0.033048 -0.007838 -0.004720 0.000000 -0.003444 0.000000
# 2 -0.007838 0.014115 -0.001771 0.000000 0.008669 0.000000
# 3 -0.004720 -0.001771 0.012049 0.000000 0.001957 0.000000
# 4 0.000000 0.000000 0.000000 0.082303 0.000000 0.010443
# 5 -0.003444 0.008669 0.001957 0.000000 0.040503 0.000000
# 6 0.000000 0.000000 0.000000 0.010443 0.000000 0.040106
#
#
# Mechanical properties :
#
#
# Convention : Reuss Voigt Hill
#
# Bulk Modulus (GPa) = 32.73018 42.81272 37.77145
# Shear Modulus (GPa) = 19.15965 24.39277 21.77621
#
# Velocity S-wave (km/s) = 3.38404 3.81832 3.60772
# Velocity P-wave (km/s) = 5.90185 6.71034 6.31904
#
# Compressibility (1/GPa) = 0.03055284
#
# Stress axis : x y z
#
# Youngs Moduli (GPa) = 30.25910 70.84834 82.99787
#
# Poissons Ratio (x) = 0.55529 0.39179
# Poissons Ratio (y) = 0.23716 0.14699
# Poissons Ratio (z) = 0.14284 0.12547
#
# Static dielectric constant tensor:
#      x y z
#    x 1.560740 0.000000 0.009970 
#    y 0.000000 1.618220 0.000000 
#    z 0.009970 0.000000 1.565650 
# 
# From -- ./inp_files/29430.got.cif
#   From: 2010.05.17/outbox.cif.g08.bks.cpg/sg10_15_cif.got.tgz:29430.got - 2010.06.03 11:33:40.
