data_PCOD9143376
_publ_section_title
;
Structure prediction by ZEFSAII (Michael W. Deem and Ramdas Pophale) SiO2 
 PCOD9143376
Probable space group: P 2/M
;
_chemical_formula_sum "Si O2"
_cell_formula_units_Z 32
_cell_length_a 12.195347
_cell_length_b 8.470115
_cell_length_c 24.704292
_cell_angle_alpha 90.000000
_cell_angle_beta 135.963389
_cell_angle_gamma 90.000000
_cell_volume 1773.839562
_symmetry_space_group_name_H-M "P 2/M"
_symmetry_group_IT_number 10
_symmetry_cell_setting 'monoclinic'
loop_
_space_group_symop_operation_xyz
x,y,z
-x,y,-z
-x,-y,-z
x,-y,z
loop_
_atom_site_type_symbol
_atom_site_label
_atom_site_fract_x
_atom_site_fract_y
_atom_site_fract_z
Si Si1 0.392371 0.188426 0.715004
Si Si2 0.653415 0.181337 0.015216
Si Si3 0.455729 0.685490 0.851884
Si Si4 0.837410 0.808200 0.181887
Si Si5 0.959424 0.311691 0.423892
Si Si6 0.259001 0.810682 0.469047
Si Si7 0.473954 0.192902 0.352097
Si Si8 0.195668 0.192831 0.327610
O O1 0.472729 0.233933 0.799814
O O2 0.484127 0.243601 0.693710
O O3 0.217539 0.261172 0.652207
O O4 0.376198 0.000000 0.706253
O O5 0.599148 0.275410 0.943452
O O6 0.686546 0.000000 0.011544
O O7 0.500000 0.179672 0.000000
O O8 0.789189 0.241312 0.103673
O O9 0.441417 0.500000 0.839412
O O10 0.295431 0.747148 0.824000
O O11 0.013896 0.757142 0.258884
O O12 0.829472 0.000000 0.180198
O O13 0.974439 0.500000 0.425086
O O14 0.087002 0.232586 0.430235
O O15 0.000000 0.264101 0.500000
O O16 0.389890 0.752518 0.557860
O O17 0.270835 0.755226 0.411371
O O18 0.274699 0.000000 0.473441
O O19 0.306642 0.242533 0.317497
O O20 0.475876 0.000000 0.352708
O O21 0.193934 0.000000 0.327308
#
# Coordination Sequence:
#
# PCOD9143376 Si02
#       8
#     4   4   4   4   4   4   4   4
#     4  11  21  34  52  72 100 134 172 209 247 297
#     4   8  15  29  49  74 104 133 163 199 247 302
#     4  11  21  32  50  77 106 132 165 204 250 303
#     4   9  17  31  52  78 106 135 164 201 251 303
#     4  11  22  34  49  71 102 134 165 206 251 294
#     4  10  18  31  53  77 100 130 169 209 251 299
#     4   9  18  31  49  74  99 129 170 213 250 291
#     4   9  17  30  51  77 101 125 163 214 256 290
#
# _framework density 18.039963
#
# number of rings (size 3 to 8) (size 9 to 14) (size 15 to 20)
#    0.000    2.250    1.250    3.750    0.000    5.250 
#    0.000    0.000    0.000    6.000    0.000    5.250 
#    0.000    0.000    0.000    0.000    0.000    0.000 
#
# Total GULP energy -178516.316600 kJ/mol
# GULP energy per Si atom -5578.634894 kJ/mol
# Density = 1.799890 g / cm^3
# Si number density = 18.039963 Si / 1000 Ang^3
#
#
#
# Elastic Constant Matrix: (Units=GPa)
#
#
# Indices 1 2 3 4 5 6 
#
# 1 70.3899 -13.8348 30.7883 0.0000 -4.7961 0.0000
# 2 -13.8348 -12.2853 -1.5702 0.0000 8.6559 0.0000
# 3 30.7883 -1.5702 94.4735 0.0000 -13.0829 0.0000
# 4 0.0000 0.0000 0.0000 11.9075 0.0000 -2.5637
# 5 -4.7961 8.6559 -13.0829 0.0000 12.0418 0.0000
# 6 0.0000 0.0000 0.0000 -2.5637 0.0000 -6.6469
#
#
#
# Elastic Compliance Matrix: (Units=1/GPa)
#
#
# Indices 1 2 3 4 5 6 
#
# 1 0.014505 -0.009697 -0.003676 0.000000 0.008754 0.000000
# 2 -0.009697 -0.045406 0.007522 0.000000 0.036949 0.000000
# 3 -0.003676 0.007522 0.012897 0.000000 0.007141 0.000000
# 4 0.000000 0.000000 0.000000 0.077542 0.000000 -0.029907
# 5 0.008754 0.036949 0.007141 0.000000 0.067729 0.000000
# 6 0.000000 0.000000 0.000000 -0.029907 0.000000 -0.138911
#
#
# Mechanical properties :
#
#
# Convention : Reuss Voigt Hill
#
# Bulk Modulus (GPa) = -33.66359 20.37164 -6.64597
# Shear Modulus (GPa) = -507.85169 12.60679 -247.62245
#
# Velocity S-wave (km/s) = -16.79661 2.64640 -11.72865
# Velocity P-wave (km/s) = 19.87131 4.54477 13.67871
#
# Compressibility (1/GPa) = -0.02970569
#
# Stress axis : x y z
#
# Youngs Moduli (GPa) = 68.94169 -22.02345 77.53840
#
# Poissons Ratio (x) = -0.21356 0.28503
# Poissons Ratio (y) = 0.66853 -0.58327
# Poissons Ratio (z) = 0.25343 0.16567
#
# Static dielectric constant tensor:
#      x y z
#    x 1.595590 0.000000 -0.009590 
#    y 0.000000 1.612070 0.000000 
#    z -0.009590 0.000000 1.641780 
# 
# From -- ./inp_files/83607.got.cif
#   From: 2010.05.17/outbox.cif.g08.bks.cpg/sg10_42_cif.got.tgz:83607.got - 2010.06.03 11:33:40.
