data_PCOD9143219
_publ_section_title
;
Structure prediction by ZEFSAII (Michael W. Deem and Ramdas Pophale) SiO2 
 PCOD9143219
Probable space group: P 2/M
;
_chemical_formula_sum "Si O2"
_cell_formula_units_Z 32
_cell_length_a 19.537349
_cell_length_b 9.473061
_cell_length_c 11.989198
_cell_angle_alpha 90.000000
_cell_angle_beta 120.306024
_cell_angle_gamma 90.000000
_cell_volume 1915.707598
_symmetry_space_group_name_H-M "P 2/M"
_symmetry_group_IT_number 10
_symmetry_cell_setting 'monoclinic'
loop_
_space_group_symop_operation_xyz
x,y,z
-x,y,-z
-x,-y,-z
x,-y,z
loop_
_atom_site_type_symbol
_atom_site_label
_atom_site_fract_x
_atom_site_fract_y
_atom_site_fract_z
Si Si1 0.663949 0.161854 0.872715
Si Si2 0.913257 0.171241 0.153457
Si Si3 0.258304 0.332804 0.380467
Si Si4 0.417506 0.669094 0.377642
Si Si5 0.213071 0.668203 0.591405
Si Si6 0.948561 0.835062 0.571195
Si Si7 0.243878 0.829911 0.836076
Si Si8 0.829845 0.837126 0.869845
O O1 0.603391 0.259420 0.756953
O O2 0.747953 0.164385 0.874651
O O3 0.636511 0.000000 0.849152
O O4 0.687819 0.202197 0.017755
O O5 0.839888 0.210743 0.173965
O O6 0.994920 0.210192 0.280030
O O7 0.911419 0.000000 0.147589
O O8 0.894808 0.218445 0.011924
O O9 0.245992 0.500000 0.354067
O O10 0.343440 0.296306 0.397434
O O11 0.256385 0.303770 0.509861
O O12 0.190318 0.250691 0.256442
O O13 0.500000 0.715678 0.500000
O O14 0.420114 0.500000 0.366624
O O15 0.209432 0.500000 0.606445
O O16 0.126128 0.735245 0.504991
O O17 0.251512 0.746985 0.727855
O O18 0.000000 0.830999 0.500000
O O19 0.924748 0.000000 0.567319
O O20 0.241787 0.000000 0.817453
O O21 0.847825 0.000000 0.856010
#
# Coordination Sequence:
#
# PCOD9143219 Si02
#       8
#     4   4   4   4   4   4   4   4
#     4   8  15  27  47  74  99 119 146 193 239 272
#     4   8  14  27  47  69  89 112 151 202 241 267
#     4   9  19  34  47  65  97 127 152 187 234 281
#     4   9  17  31  53  76  96 122 156 191 228 277
#     4  11  22  32  44  66  97 128 156 193 236 279
#     4  10  18  31  50  67  89 124 161 198 239 277
#     4   9  16  30  49  68  92 124 160 194 232 276
#     4   8  14  27  48  69  88 114 153 195 231 274
#
# _framework density 16.704011999999999
#
# number of rings (size 3 to 8) (size 9 to 14) (size 15 to 20)
#    0.000    3.000    1.250    1.875    0.000    2.000 
#    0.000    3.125    0.000    4.500    0.000    5.250 
#    0.000    0.000    0.000    0.000    0.000    0.000 
#
# Total GULP energy -178241.936295 kJ/mol
# GULP energy per Si atom -5570.060509 kJ/mol
# Density = 1.666599 g / cm^3
# Si number density = 16.704012 Si / 1000 Ang^3
#
#
#
# Elastic Constant Matrix: (Units=GPa)
#
#
# Indices 1 2 3 4 5 6 
#
# 1 27.9814 27.4731 43.1709 0.0000 -2.9199 0.0000
# 2 27.4731 42.3919 68.0012 0.0000 -4.4117 0.0000
# 3 43.1709 68.0012 166.3462 0.0000 -0.3516 0.0000
# 4 0.0000 0.0000 0.0000 5.0806 0.0000 -3.9008
# 5 -2.9199 -4.4117 -0.3516 0.0000 22.6017 0.0000
# 6 0.0000 0.0000 0.0000 -3.9008 0.0000 12.7550
#
#
#
# Elastic Compliance Matrix: (Units=1/GPa)
#
#
# Indices 1 2 3 4 5 6 
#
# 1 0.098401 -0.066309 0.001569 0.000000 -0.000206 0.000000
# 2 -0.066309 0.117213 -0.030678 0.000000 0.013835 0.000000
# 3 0.001569 -0.030678 0.018134 0.000000 -0.005503 0.000000
# 4 0.000000 0.000000 0.000000 0.257226 0.000000 0.078667
# 5 -0.000206 0.013835 -0.005503 0.000000 0.046833 0.000000
# 6 0.000000 0.000000 0.000000 0.078667 0.000000 0.102459
#
#
# Mechanical properties :
#
#
# Convention : Reuss Voigt Hill
#
# Bulk Modulus (GPa) = 23.30393 57.11222 40.20808
# Shear Modulus (GPa) = 5.91432 14.62574 10.27003
#
# Velocity S-wave (km/s) = 1.88370 2.96223 2.48225
# Velocity P-wave (km/s) = 4.32580 6.77973 5.68671
#
# Compressibility (1/GPa) = 0.04291121
#
# Stress axis : x y z
#
# Youngs Moduli (GPa) = 10.16253 8.53145 55.14607
#
# Poissons Ratio (x) = 0.56571 -0.08652
# Poissons Ratio (y) = 0.67387 1.69177
# Poissons Ratio (z) = -0.01594 0.26173
#
# Static dielectric constant tensor:
#      x y z
#    x 1.559350 0.000000 -0.008360 
#    y 0.000000 1.553510 0.000000 
#    z -0.008360 0.000000 1.585020 
# 
# From -- ./inp_files/54875.got.cif
#   From: 2010.05.17/outbox.cif.g08.bks.cpg/sg10_28_cif.got.tgz:54875.got - 2010.06.03 11:33:40.
