data_PCOD9143622
_publ_section_title
;
Structure prediction by ZEFSAII (Michael W. Deem and Ramdas Pophale) SiO2 
 PCOD9143622
Probable space group: P 2/M
;
_chemical_formula_sum "Si O2"
_cell_formula_units_Z 28
_cell_length_a 14.832704
_cell_length_b 8.020274
_cell_length_c 14.985041
_cell_angle_alpha 90.000000
_cell_angle_beta 120.794919
_cell_angle_gamma 90.000000
_cell_volume 1531.310694
_symmetry_space_group_name_H-M "P 2/M"
_symmetry_group_IT_number 10
_symmetry_cell_setting 'monoclinic'
loop_
_space_group_symop_operation_xyz
x,y,z
-x,y,-z
-x,-y,-z
x,-y,z
loop_
_atom_site_type_symbol
_atom_site_label
_atom_site_fract_x
_atom_site_fract_y
_atom_site_fract_z
Si Si1 0.977120 0.196863 0.386741
Si Si2 0.196029 0.297923 0.435919
Si Si3 0.666274 0.296797 0.332145
Si Si4 0.614973 0.296030 0.597206
Si Si5 0.408598 0.194447 0.020552
Si Si6 0.243532 0.697424 0.804922
Si Si7 0.434251 0.699687 0.236028
O O1 0.875120 0.271792 0.286804
O O2 0.000000 0.262556 0.500000
O O3 0.078681 0.230147 0.376840
O O4 0.958948 0.000000 0.385937
O O5 0.190640 0.500000 0.430033
O O6 0.243137 0.244866 0.555346
O O7 0.284010 0.243358 0.409267
O O8 0.666394 0.500000 0.331441
O O9 0.687429 0.239139 0.243469
O O10 0.553835 0.240616 0.308496
O O11 0.500000 0.245788 0.500000
O O12 0.614476 0.500000 0.592616
O O13 0.625860 0.241422 0.705982
O O14 0.405389 0.261857 0.119647
O O15 0.431704 0.000000 0.040684
O O16 0.500000 0.266690 0.000000
O O17 0.295583 0.220675 0.917294
O O18 0.258331 0.500000 0.822394
O O19 0.434639 0.500000 0.242851
#
# Coordination Sequence:
#
# PCOD9143622 Si02
#       7
#     4   4   4   4   4   4   4
#     4  11  23  36  51  76 111 147 178 216 268 321
#     4  10  18  32  53  80 110 143 181 219 262 313
#     4   9  16  26  49  80 108 136 173 216 255 305
#     4   9  16  28  53  84 111 138 175 225 270 306
#     4  11  23  36  51  76 111 147 178 216 268 321
#     4  11  21  35  56  80 104 138 184 227 264 311
#     4  10  18  32  53  80 110 143 181 219 262 313
#
# _framework density 18.284990000000001
#
# number of rings (size 3 to 8) (size 9 to 14) (size 15 to 20)
#    0.000    1.857    4.286    1.286    0.000    1.143 
#    0.000    1.429    0.000    1.714    0.000    6.000 
#    0.000    0.000    0.000    0.000    0.000    0.000 
#
# Total GULP energy -156073.307696 kJ/mol
# GULP energy per Si atom -5574.046703 kJ/mol
# Density = 1.824337 g / cm^3
# Si number density = 18.284990 Si / 1000 Ang^3
#
#
#
# Elastic Constant Matrix: (Units=GPa)
#
#
# Indices 1 2 3 4 5 6 
#
# 1 90.8136 -2.4484 29.9238 0.0000 -8.1981 0.0000
# 2 -2.4484 12.7882 -6.2368 0.0000 -4.4345 0.0000
# 3 29.9238 -6.2368 83.2853 0.0000 -8.7929 0.0000
# 4 0.0000 0.0000 0.0000 -12.0167 0.0000 -8.0618
# 5 -8.1981 -4.4345 -8.7929 0.0000 27.5792 0.0000
# 6 0.0000 0.0000 0.0000 -8.0618 0.0000 7.4096
#
#
#
# Elastic Compliance Matrix: (Units=1/GPa)
#
#
# Indices 1 2 3 4 5 6 
#
# 1 0.012660 0.001306 -0.004172 0.000000 0.002643 0.000000
# 2 0.001306 0.088257 0.007947 0.000000 0.017113 0.000000
# 3 -0.004172 0.007947 0.014596 0.000000 0.004691 0.000000
# 4 0.000000 0.000000 0.000000 -0.048104 0.000000 -0.052338
# 5 0.002643 0.017113 0.004691 0.000000 0.041292 0.000000
# 6 0.000000 0.000000 0.000000 -0.052338 0.000000 0.078014
#
#
# Mechanical properties :
#
#
# Convention : Reuss Voigt Hill
#
# Bulk Modulus (GPa) = 7.95709 25.48493 16.72101
# Shear Modulus (GPa) = 22.88905 15.63766 19.26335
#
# Velocity S-wave (km/s) = 3.54191 2.92758 3.24930
# Velocity P-wave (km/s) = 4.59216 5.03940 4.82097
#
# Compressibility (1/GPa) = 0.12567411
#
# Stress axis : x y z
#
# Youngs Moduli (GPa) = 78.98875 11.33057 68.51117
#
# Poissons Ratio (x) = -0.01480 0.28582
# Poissons Ratio (y) = -0.10315 -0.54443
# Poissons Ratio (z) = 0.32953 -0.09004
#
# Static dielectric constant tensor:
#      x y z
#    x 1.646890 0.000000 -0.011720 
#    y 0.000000 1.660050 0.000000 
#    z -0.011720 0.000000 1.625370 
# 
# From -- ./inp_files/65935.got.cif
#   From: 2010.05.17/outbox.cif.g08.bks.cpg/sg10_33_cif.got.tgz:65935.got - 2010.06.03 11:33:40.
