data_PCOD9143308
_publ_section_title
;
Structure prediction by ZEFSAII (Michael W. Deem and Ramdas Pophale) SiO2 
 PCOD9143308
Probable space group: P 2/M
;
_chemical_formula_sum "Si O2"
_cell_formula_units_Z 32
_cell_length_a 20.945111
_cell_length_b 7.401700
_cell_length_c 20.461208
_cell_angle_alpha 90.000000
_cell_angle_beta 30.012690
_cell_angle_gamma 90.000000
_cell_volume 1586.653084
_symmetry_space_group_name_H-M "P 2/M"
_symmetry_group_IT_number 10
_symmetry_cell_setting 'monoclinic'
loop_
_space_group_symop_operation_xyz
x,y,z
-x,y,-z
-x,-y,-z
x,-y,z
loop_
_atom_site_type_symbol
_atom_site_label
_atom_site_fract_x
_atom_site_fract_y
_atom_site_fract_z
Si Si1 0.147874 0.289275 0.844907
Si Si2 0.194558 0.292115 0.162461
Si Si3 0.674348 0.717879 0.680257
Si Si4 0.642388 0.788501 0.860411
Si Si5 0.087416 0.721052 0.616237
Si Si6 0.399113 0.278968 0.875528
Si Si7 0.057005 0.720482 0.790775
Si Si8 0.773953 0.720588 0.087658
O O1 0.184029 0.500000 0.806962
O O2 0.141774 0.214714 0.776966
O O3 0.225838 0.214640 0.837439
O O4 0.000000 0.283803 0.000000
O O5 0.180267 0.500000 0.153771
O O6 0.254296 0.289231 0.181385
O O7 0.052232 0.216660 0.283888
O O8 0.299699 0.216178 0.019360
O O9 0.673698 0.500000 0.677434
O O10 0.676423 0.765072 0.754755
O O11 0.797252 0.782929 0.531583
O O12 0.541067 0.781794 0.767152
O O13 0.637981 0.000000 0.879921
O O14 0.500000 0.713483 0.000000
O O15 0.089966 0.500000 0.612046
O O16 0.100522 0.774792 0.680399
O O17 0.401801 0.500000 0.874344
O O18 0.341013 0.224543 0.857338
O O19 0.057996 0.500000 0.791882
O O20 0.909532 0.773075 0.934773
O O21 0.775164 0.500000 0.088575
#
# Coordination Sequence:
#
# PCOD9143308 Si02
#       8
#     4   4   4   4   4   4   4   4
#     4   7  10  14  25  48  80 116 149 179 214 257
#     4  10  18  31  52  72  89 117 153 187 223 265
#     4  10  20  33  49  70  92 118 152 188 227 270
#     4  11  23  37  52  70  92 117 145 185 232 275
#     4   9  17  28  44  67  93 118 151 192 225 259
#     4   9  15  24  42  64  86 114 151 189 220 256
#     4   8  11  18  32  53  83 117 149 182 220 259
#     4   8  11  17  31  55  83 113 152 188 215 254
#
# _framework density 20.168239
#
# number of rings (size 3 to 8) (size 9 to 14) (size 15 to 20)
#    0.000    3.000    2.500    1.875    0.000    1.000 
#    0.000    3.125    0.000    0.750    0.000    5.250 
#    0.000    0.000    0.000    6.750    0.000    7.500 
#
# Total GULP energy -178439.681327 kJ/mol
# GULP energy per Si atom -5576.240041 kJ/mol
# Density = 2.012234 g / cm^3
# Si number density = 20.168239 Si / 1000 Ang^3
#
#
#
# Elastic Constant Matrix: (Units=GPa)
#
#
# Indices 1 2 3 4 5 6 
#
# 1 190.8638 -6.6641 86.7672 0.0000 4.5502 0.0000
# 2 -6.6641 65.3893 3.3804 0.0000 -3.6729 0.0000
# 3 86.7672 3.3804 133.8410 0.0000 1.4686 0.0000
# 4 0.0000 0.0000 0.0000 -14.5533 0.0000 -6.9455
# 5 4.5502 -3.6729 1.4686 0.0000 26.0083 0.0000
# 6 0.0000 0.0000 0.0000 -6.9455 0.0000 -47.8069
#
#
#
# Elastic Compliance Matrix: (Units=1/GPa)
#
#
# Indices 1 2 3 4 5 6 
#
# 1 0.007516 0.000968 -0.004887 0.000000 -0.000902 0.000000
# 2 0.000968 0.015563 -0.001044 0.000000 0.002087 0.000000
# 3 -0.004887 -0.001044 0.010665 0.000000 0.000105 0.000000
# 4 0.000000 0.000000 0.000000 -0.073832 0.000000 0.010727
# 5 -0.000902 0.002087 0.000105 0.000000 0.038896 0.000000
# 6 0.000000 0.000000 0.000000 0.010727 0.000000 -0.022476
#
#
# Mechanical properties :
#
#
# Convention : Reuss Voigt Hill
#
# Bulk Modulus (GPa) = 41.98373 61.89568 51.93970
# Shear Modulus (GPa) = -861.70267 13.17033 -424.26617
#
# Velocity S-wave (km/s) = -20.69263 2.55820 -14.51965
# Velocity P-wave (km/s) = 23.45317 6.28348 15.97762
#
# Compressibility (1/GPa) = 0.02381875
#
# Stress axis : x y z
#
# Youngs Moduli (GPa) = 133.04142 64.25547 93.76332
#
# Poissons Ratio (x) = -0.06220 0.45825
# Poissons Ratio (y) = -0.12879 0.09784
# Poissons Ratio (z) = 0.65022 0.06705
#
# Static dielectric constant tensor:
#      x y z
#    x 1.723700 0.000000 0.001290 
#    y 0.000000 1.766550 0.000000 
#    z 0.001290 0.000000 1.673300 
# 
# From -- ./inp_files/86114.got.cif
#   From: 2010.05.17/outbox.cif.g08.bks.cpg/sg10_44_cif.got.tgz:86114.got - 2010.06.03 11:33:40.
