data_PCOD9143094
_publ_section_title
;
Structure prediction by ZEFSAII (Michael W. Deem and Ramdas Pophale) SiO2 
 PCOD9143094
Probable space group: P 2/M
;
_chemical_formula_sum "Si O2"
_cell_formula_units_Z 26
_cell_length_a 20.292331
_cell_length_b 9.277646
_cell_length_c 14.369783
_cell_angle_alpha 90.000000
_cell_angle_beta 32.198426
_cell_angle_gamma 90.000000
_cell_volume 1441.542279
_symmetry_space_group_name_H-M "P 2/M"
_symmetry_group_IT_number 10
_symmetry_cell_setting 'monoclinic'
loop_
_space_group_symop_operation_xyz
x,y,z
-x,y,-z
-x,-y,-z
x,-y,z
loop_
_atom_site_type_symbol
_atom_site_label
_atom_site_fract_x
_atom_site_fract_y
_atom_site_fract_z
Si Si1 0.751090 0.339079 0.198793
Si Si2 0.188304 0.826057 0.217122
Si Si3 0.918919 0.824871 0.461022
Si Si4 0.600497 0.173524 0.526068
Si Si5 0.000000 0.257304 0.000000
Si Si6 0.169841 0.832467 0.630249
Si Si7 0.347164 0.329561 0.879789
O O1 0.698584 0.500000 0.275900
O O2 0.664021 0.224313 0.354263
O O3 0.886649 0.335342 0.083065
O O4 0.749089 0.310855 0.091154
O O5 0.171741 0.786636 0.345416
O O6 0.057841 0.785081 0.324452
O O7 0.202785 0.000000 0.193284
O O8 0.294798 0.745975 0.034139
O O9 0.878422 0.767918 0.408739
O O10 0.920931 0.000000 0.455900
O O11 0.701168 0.223980 0.483052
O O12 0.472318 0.252145 0.697562
O O13 0.587905 0.000000 0.542662
O O14 0.930385 0.176129 0.167115
O O15 0.192769 0.000000 0.584125
O O16 0.365711 0.500000 0.871192
#
# Coordination Sequence:
#
# PCOD9143094 Si02
#       7
#     4   4   4   4   2   4   4
#     4  10  21  35  51  73 103 136 164 198 249 302
#     4   9  17  31  54  79 100 127 166 206 246 297
#     4   8  15  30  52  77 104 131 159 201 255 299
#     4  10  21  35  52  74  99 132 173 210 244 288
#     4  10  18  30  52  78 103 132 165 198 239 302
#     4   9  17  30  49  76 107 132 161 206 253 292
#     4  11  22  35  51  72 101 135 168 205 250 295
#
# _framework density 18.036238999999998
#
# number of rings (size 3 to 8) (size 9 to 14) (size 15 to 20)
#    0.000    2.462    0.000    3.692    0.000    3.692 
#    0.000    2.308    0.000   11.077    0.000    0.000 
#    0.000    0.000    0.000    0.000    0.000    0.000 
#
# Total GULP energy -144830.668743 kJ/mol
# GULP energy per Si atom -5570.410336 kJ/mol
# Density = 1.799519 g / cm^3
# Si number density = 18.036239 Si / 1000 Ang^3
#
#
#
# Elastic Constant Matrix: (Units=GPa)
#
#
# Indices 1 2 3 4 5 6 
#
# 1 94.3901 12.8388 30.2333 0.0000 14.8027 0.0000
# 2 12.8388 43.1679 25.3496 0.0000 0.4491 0.0000
# 3 30.2333 25.3496 86.4992 0.0000 2.4109 0.0000
# 4 0.0000 0.0000 0.0000 1.6445 0.0000 -5.7447
# 5 14.8027 0.4491 2.4109 0.0000 21.5039 0.0000
# 6 0.0000 0.0000 0.0000 -5.7447 0.0000 12.0881
#
#
#
# Elastic Compliance Matrix: (Units=1/GPa)
#
#
# Indices 1 2 3 4 5 6 
#
# 1 0.013468 -0.001563 -0.004004 0.000000 -0.008789 0.000000
# 2 -0.001563 0.028164 -0.007746 0.000000 0.001356 0.000000
# 3 -0.004004 -0.007746 0.015196 0.000000 0.001215 0.000000
# 4 0.000000 0.000000 0.000000 -0.921153 0.000000 -0.437768
# 5 -0.008789 0.001356 0.001215 0.000000 0.052389 0.000000
# 6 0.000000 0.000000 0.000000 -0.437768 0.000000 -0.125319
#
#
# Mechanical properties :
#
#
# Convention : Reuss Voigt Hill
#
# Bulk Modulus (GPa) = 33.10848 40.10007 36.60427
# Shear Modulus (GPa) = -5.55210 17.42300 5.93545
#
# Velocity S-wave (km/s) = -1.75641 3.11143 1.81604
# Velocity P-wave (km/s) = 3.77931 5.93205 4.97355
#
# Compressibility (1/GPa) = 0.03020374
#
# Stress axis : x y z
#
# Youngs Moduli (GPa) = 74.25083 35.50578 65.80470
#
# Poissons Ratio (x) = 0.05548 0.26351
# Poissons Ratio (y) = 0.11602 0.50969
# Poissons Ratio (z) = 0.29733 0.27501
#
# Static dielectric constant tensor:
#      x y z
#    x 1.664630 0.000000 -0.000060 
#    y 0.000000 1.613500 0.000000 
#    z -0.000060 0.000000 1.595460 
# 
# From -- ./inp_files/66863.got.cif
#   From: 2010.05.17/outbox.cif.g08.bks.cpg/sg10_34_cif.got.tgz:66863.got - 2010.06.03 11:33:40.
