data_PCOD9143988
_publ_section_title
;
Structure prediction by ZEFSAII (Michael W. Deem and Ramdas Pophale) SiO2 
 PCOD9143988
Probable space group: P 2/M
;
_chemical_formula_sum "Si O2"
_cell_formula_units_Z 28
_cell_length_a 18.429412
_cell_length_b 8.740955
_cell_length_c 22.077466
_cell_angle_alpha 90.000000
_cell_angle_beta 153.649787
_cell_angle_gamma 90.000000
_cell_volume 1578.564579
_symmetry_space_group_name_H-M "P 2/M"
_symmetry_group_IT_number 10
_symmetry_cell_setting 'monoclinic'
loop_
_space_group_symop_operation_xyz
x,y,z
-x,y,-z
-x,-y,-z
x,-y,z
loop_
_atom_site_type_symbol
_atom_site_label
_atom_site_fract_x
_atom_site_fract_y
_atom_site_fract_z
Si Si1 0.631531 0.315709 0.549121
Si Si2 0.930198 0.816945 0.612435
Si Si3 0.332819 0.816000 0.095954
Si Si4 0.976767 0.184036 0.788362
Si Si5 0.480876 0.816700 0.076157
Si Si6 0.584352 0.317301 0.374449
Si Si7 0.246611 0.682460 0.796797
O O1 0.500000 0.262389 0.500000
O O2 0.638165 0.500000 0.556522
O O3 0.813271 0.252039 0.694795
O O4 0.581369 0.271950 0.443089
O O5 0.977081 0.774142 0.717125
O O6 0.745619 0.759438 0.466193
O O7 0.062830 0.741048 0.667971
O O8 0.938322 0.000000 0.613192
O O9 0.429183 0.781259 0.105774
O O10 0.425129 0.737453 0.220045
O O11 0.335377 0.000000 0.105625
O O12 0.145380 0.767216 0.945547
O O13 0.968972 0.000000 0.784780
O O14 0.656544 0.752655 0.187715
O O15 0.476245 0.000000 0.064604
O O16 0.349788 0.743418 0.931939
O O17 0.600879 0.500000 0.383608
O O18 0.253326 0.500000 0.799986
#
# Coordination Sequence:
#
# PCOD9143988 Si02
#       7
#     4   4   4   4   4   4   4
#     4   9  19  37  58  81 109 139 172 210 257 316
#     4  10  18  34  55  75 102 141 182 223 264 315
#     4  10  20  36  54  77 108 142 178 217 263 319
#     4   9  18  33  55  81 104 134 180 220 254 305
#     4  10  19  33  51  72 103 143 182 220 265 316
#     4  10  21  35  54  81 108 138 174 218 267 315
#     4  11  20  30  48  78 108 135 177 229 272 309
#
# _framework density 17.737634
#
# number of rings (size 3 to 8) (size 9 to 14) (size 15 to 20)
#    0.000    2.143    1.429    3.429    0.000    3.143 
#    0.000    1.429    0.000    8.571    0.000    0.000 
#    0.000    0.000    0.000    0.000    0.000    0.000 
#
# Total GULP energy -156285.392643 kJ/mol
# GULP energy per Si atom -5581.621166 kJ/mol
# Density = 1.769726 g / cm^3
# Si number density = 17.737634 Si / 1000 Ang^3
#
#
#
# Elastic Constant Matrix: (Units=GPa)
#
#
# Indices 1 2 3 4 5 6 
#
# 1 103.2419 33.9464 56.4604 0.0000 30.2927 0.0000
# 2 33.9464 49.6924 30.3908 0.0000 6.6944 0.0000
# 3 56.4604 30.3908 123.5059 0.0000 15.8678 0.0000
# 4 0.0000 0.0000 0.0000 26.8378 0.0000 3.7604
# 5 30.2927 6.6944 15.8678 0.0000 25.8831 0.0000
# 6 0.0000 0.0000 0.0000 3.7604 0.0000 21.3003
#
#
#
# Elastic Compliance Matrix: (Units=1/GPa)
#
#
# Indices 1 2 3 4 5 6 
#
# 1 0.020843 -0.008637 -0.004945 0.000000 -0.019128 0.000000
# 2 -0.008637 0.027452 -0.003466 0.000000 0.005133 0.000000
# 3 -0.004945 -0.003466 0.011237 0.000000 -0.000204 0.000000
# 4 0.000000 0.000000 0.000000 0.038206 0.000000 -0.006745
# 5 -0.019128 0.005133 -0.000204 0.000000 0.059820 0.000000
# 6 0.000000 0.000000 0.000000 -0.006745 0.000000 0.048138
#
#
# Mechanical properties :
#
#
# Convention : Reuss Voigt Hill
#
# Bulk Modulus (GPa) = 39.31649 57.55947 48.43798
# Shear Modulus (GPa) = 20.13922 25.18041 22.65982
#
# Velocity S-wave (km/s) = 3.37322 3.77185 3.57809
# Velocity P-wave (km/s) = 6.11434 7.17566 6.66615
#
# Compressibility (1/GPa) = 0.02543462
#
# Stress axis : x y z
#
# Youngs Moduli (GPa) = 47.97798 36.42676 88.99370
#
# Poissons Ratio (x) = 0.31462 0.44011
# Poissons Ratio (y) = 0.41439 0.30847
# Poissons Ratio (z) = 0.23727 0.12626
#
# Static dielectric constant tensor:
#      x y z
#    x 1.600240 0.000000 0.004690 
#    y 0.000000 1.593430 0.000000 
#    z 0.004690 0.000000 1.597480 
# 
# From -- ./inp_files/90356.got.cif
#   From: 2010.05.17/outbox.cif.g08.bks.cpg/sg10_46_cif.got.tgz:90356.got - 2010.06.03 11:33:40.
