data_PCOD9143980
_publ_section_title
;
Structure prediction by ZEFSAII (Michael W. Deem and Ramdas Pophale) SiO2 
 PCOD9143980
Probable space group: P 2/M
;
_chemical_formula_sum "Si O2"
_cell_formula_units_Z 24
_cell_length_a 7.691227
_cell_length_b 16.086275
_cell_length_c 14.573747
_cell_angle_alpha 90.000000
_cell_angle_beta 40.094559
_cell_angle_gamma 90.000000
_cell_volume 1161.295102
_symmetry_space_group_name_H-M "P 2/M"
_symmetry_group_IT_number 10
_symmetry_cell_setting 'monoclinic'
loop_
_space_group_symop_operation_xyz
x,y,z
-x,y,-z
-x,-y,-z
x,-y,z
loop_
_atom_site_type_symbol
_atom_site_label
_atom_site_fract_x
_atom_site_fract_y
_atom_site_fract_z
Si Si1 0.323661 0.500000 0.852946
Si Si2 0.754977 0.317413 0.329719
Si Si3 0.574910 0.000000 0.707851
Si Si4 0.320536 0.677778 0.853073
Si Si5 0.754931 0.500000 0.329805
Si Si6 0.603363 0.855975 0.099755
Si Si7 0.857897 0.000000 0.405647
Si Si8 0.944996 0.144874 0.791370
O O1 0.432027 0.588799 0.842695
O O2 0.350067 0.500000 0.732326
O O3 0.000000 0.500000 0.000000
O O4 0.500000 0.310872 0.500000
O O5 0.644972 0.315150 0.269973
O O6 0.889842 0.409235 0.287841
O O7 0.949289 0.238708 0.262846
O O8 0.418796 0.918922 0.806914
O O9 0.636663 0.000000 0.575210
O O10 0.862000 0.000000 0.647559
O O11 0.418211 0.760773 0.860889
O O12 0.000000 0.675581 0.000000
O O13 0.500000 0.500000 0.500000
O O14 0.338052 0.869735 0.145771
O O15 0.865974 0.868806 0.929832
O O16 0.860114 0.919955 0.338270
#
# Coordination Sequence:
#
# PCOD9143980 Si02
#       8
#     2   4   2   4   2   4   2   4
#     4   8  16  28  51  73 101 137 176 208 241 304
#     4  10  20  34  55  79 107 138 175 216 258 304
#     4   9  19  35  55  77  99 139 177 209 254 319
#     4  10  18  34  53  78 105 140 176 210 254 308
#     4   8  16  32  51  73 101 141 176 203 249 314
#     4  10  20  35  56  77 106 138 174 212 259 313
#     4   9  19  35  55  75 103 136 177 210 256 316
#     4  10  20  36  54  79 105 138 173 215 260 307
#
# _framework density 20.666581999999998
#
# number of rings (size 3 to 8) (size 9 to 14) (size 15 to 20)
#    0.000    2.500    1.667    0.500    2.333    2.000 
#    0.000    2.500    0.000    2.000    0.000    7.000 
#    0.000    0.000    0.000    0.000    0.000    0.000 
#
# Total GULP energy -133766.289866 kJ/mol
# GULP energy per Si atom -5573.595411 kJ/mol
# Density = 2.061954 g / cm^3
# Si number density = 20.666582 Si / 1000 Ang^3
#
#
#
# Elastic Constant Matrix: (Units=GPa)
#
#
# Indices 1 2 3 4 5 6 
#
# 1 28.1539 16.5619 23.6928 0.0000 0.6294 0.0000
# 2 16.5619 194.8686 69.5781 0.0000 17.6491 0.0000
# 3 23.6928 69.5781 156.9872 0.0000 37.5898 0.0000
# 4 0.0000 0.0000 0.0000 32.1445 0.0000 -1.3028
# 5 0.6294 17.6491 37.5898 0.0000 23.5699 0.0000
# 6 0.0000 0.0000 0.0000 -1.3028 0.0000 32.7300
#
#
#
# Elastic Compliance Matrix: (Units=1/GPa)
#
#
# Indices 1 2 3 4 5 6 
#
# 1 0.044283 -0.001729 -0.009616 0.000000 0.015448 0.000000
# 2 -0.001729 0.006166 -0.002228 0.000000 -0.001017 0.000000
# 3 -0.009616 -0.002228 0.013505 0.000000 -0.019613 0.000000
# 4 0.000000 0.000000 0.000000 0.031160 0.000000 0.001240
# 5 0.015448 -0.001017 -0.019613 0.000000 0.074055 0.000000
# 6 0.000000 0.000000 0.000000 0.001240 0.000000 0.030602
#
#
# Mechanical properties :
#
#
# Convention : Reuss Voigt Hill
#
# Bulk Modulus (GPa) = 27.16841 66.63057 46.89949
# Shear Modulus (GPa) = 20.90406 35.70066 28.30236
#
# Velocity S-wave (km/s) = 3.18384 4.16078 3.70466
# Velocity P-wave (km/s) = 5.16628 7.44268 6.40640
#
# Compressibility (1/GPa) = 0.03680745
#
# Stress axis : x y z
#
# Youngs Moduli (GPa) = 22.58200 162.16798 74.04677
#
# Poissons Ratio (x) = 0.28046 0.71201
# Poissons Ratio (y) = 0.03905 0.16501
# Poissons Ratio (z) = 0.21714 0.36138
#
# Static dielectric constant tensor:
#      x y z
#    x 1.707150 0.000000 -0.058630 
#    y 0.000000 1.788790 0.000000 
#    z -0.058630 0.000000 1.704040 
# 
# From -- ./inp_files/29385.got.cif
#   From: 2010.05.17/outbox.cif.g08.bks.cpg/sg10_15_cif.got.tgz:29385.got - 2010.06.03 11:33:40.
