data_PCOD9143121
_publ_section_title
;
Structure prediction by ZEFSAII (Michael W. Deem and Ramdas Pophale) SiO2 
 PCOD9143121
Probable space group: P 2/M
;
_chemical_formula_sum "Si O2"
_cell_formula_units_Z 28
_cell_length_a 12.048452
_cell_length_b 17.941954
_cell_length_c 16.488841
_cell_angle_alpha 90.000000
_cell_angle_beta 24.783133
_cell_angle_gamma 90.000000
_cell_volume 1494.158524
_symmetry_space_group_name_H-M "P 2/M"
_symmetry_group_IT_number 10
_symmetry_cell_setting 'monoclinic'
loop_
_space_group_symop_operation_xyz
x,y,z
-x,y,-z
-x,-y,-z
x,-y,z
loop_
_atom_site_type_symbol
_atom_site_label
_atom_site_fract_x
_atom_site_fract_y
_atom_site_fract_z
Si Si1 0.993742 0.301422 0.170101
Si Si2 0.192901 0.661348 0.538995
Si Si3 0.328233 0.585724 0.698765
Si Si4 0.307097 0.838650 0.461006
Si Si5 0.000000 0.311465 0.500000
Si Si6 0.500000 0.811464 0.500000
Si Si7 0.828234 0.914277 0.698765
Si Si8 0.506260 0.198579 0.829899
O O1 0.980977 0.345242 0.264424
O O2 0.928577 0.363040 0.145449
O O3 0.749024 0.243706 0.323746
O O4 0.250000 0.250000 0.000001
O O5 0.468137 0.619028 0.370832
O O6 0.249995 0.749999 0.500003
O O7 0.054132 0.643369 0.546293
O O8 0.500000 0.589802 0.500000
O O9 0.265131 0.500000 0.755807
O O10 0.445870 0.856629 0.453705
O O11 0.480975 0.845240 0.264425
O O12 0.031864 0.880972 0.629167
O O13 0.249023 0.256296 0.323745
O O14 0.571427 0.863040 0.854548
O O15 0.000000 0.910199 0.500000
O O16 0.765132 0.000000 0.755808
#
# Coordination Sequence:
#
# PCOD9143121 Si02
#       8
#     4   4   4   4   2   2   4   4
#     4  10  18  30  53  81 102 136 174 219 266 307
#     4   9  16  32  51  73 107 135 173 216 260 310
#     4   9  16  31  54  79 103 134 177 222 262 307
#     4   9  16  32  51  73 107 135 173 216 260 310
#     4  10  18  34  48  76 108 132 184 214 252 318
#     4  10  18  34  48  76 108 132 184 214 252 318
#     4   9  16  31  54  79 103 134 177 222 262 307
#     4  10  18  30  53  81 102 136 174 219 266 307
#
# _framework density 18.739644999999999
#
# number of rings (size 3 to 8) (size 9 to 14) (size 15 to 20)
#    0.000    2.571    7.143    0.000    0.000    1.143 
#    0.000    0.714    0.000   15.429    0.000    8.000 
#    0.000    0.000    0.000    0.000    0.000    0.000 
#
# Total GULP energy -155926.661514 kJ/mol
# GULP energy per Si atom -5568.809340 kJ/mol
# Density = 1.869699 g / cm^3
# Si number density = 18.739645 Si / 1000 Ang^3
#
#
#
# Elastic Constant Matrix: (Units=GPa)
#
#
# Indices 1 2 3 4 5 6 
#
# 1 176.4068 44.3402 34.8351 0.0000 -28.9578 0.0000
# 2 44.3402 98.6710 49.3527 0.0000 -27.0520 0.0000
# 3 34.8351 49.3527 94.6966 0.0000 -34.4280 0.0000
# 4 0.0000 0.0000 0.0000 18.0849 0.0000 -6.8673
# 5 -28.9578 -27.0520 -34.4280 0.0000 26.1775 0.0000
# 6 0.0000 0.0000 0.0000 -6.8673 0.0000 20.1734
#
#
#
# Elastic Compliance Matrix: (Units=1/GPa)
#
#
# Indices 1 2 3 4 5 6 
#
# 1 0.007110 -0.001629 0.000922 0.000000 0.007394 0.000000
# 2 -0.001629 0.015326 -0.004379 0.000000 0.008277 0.000000
# 3 0.000922 -0.004379 0.021517 0.000000 0.024792 0.000000
# 4 0.000000 0.000000 0.000000 0.063504 0.000000 0.021617
# 5 0.007394 0.008277 0.024792 0.000000 0.087540 0.000000
# 6 0.000000 0.000000 0.000000 0.021617 0.000000 0.056929
#
#
# Mechanical properties :
#
#
# Convention : Reuss Voigt Hill
#
# Bulk Modulus (GPa) = 29.60321 69.64783 49.62552
# Shear Modulus (GPa) = 18.29103 28.97025 23.63064
#
# Velocity S-wave (km/s) = 3.12759 3.93610 3.55490
# Velocity P-wave (km/s) = 5.37343 7.60946 6.58702
#
# Compressibility (1/GPa) = 0.03378012
#
# Stress axis : x y z
#
# Youngs Moduli (GPa) = 140.64987 65.24760 46.47523
#
# Poissons Ratio (x) = 0.10628 -0.04283
# Poissons Ratio (y) = 0.22909 0.20352
# Poissons Ratio (z) = -0.12961 0.28573
#
# Static dielectric constant tensor:
#      x y z
#    x 1.768720 0.000000 0.063810 
#    y 0.000000 1.645590 0.000000 
#    z 0.063810 0.000000 1.692320 
# 
# From -- ./inp_files/77216.got.cif
#   From: 2010.05.17/outbox.cif.g08.bks.cpg/sg10_39_cif.got.tgz:77216.got - 2010.06.03 11:33:40.
