data_PCOD9143757
_publ_section_title
;
Structure prediction by ZEFSAII (Michael W. Deem and Ramdas Pophale) SiO2 
 PCOD9143757
Probable space group: P 2/M
;
_chemical_formula_sum "Si O2"
_cell_formula_units_Z 26
_cell_length_a 13.915571
_cell_length_b 9.738178
_cell_length_c 12.576604
_cell_angle_alpha 90.000000
_cell_angle_beta 127.356217
_cell_angle_gamma 90.000000
_cell_volume 1354.699241
_symmetry_space_group_name_H-M "P 2/M"
_symmetry_group_IT_number 10
_symmetry_cell_setting 'monoclinic'
loop_
_space_group_symop_operation_xyz
x,y,z
-x,y,-z
-x,-y,-z
x,-y,z
loop_
_atom_site_type_symbol
_atom_site_label
_atom_site_fract_x
_atom_site_fract_y
_atom_site_fract_z
Si Si1 0.771332 0.662993 0.932856
Si Si2 0.118982 0.161594 0.419068
Si Si3 0.531047 0.159100 0.758016
Si Si4 0.849445 0.837842 0.172982
Si Si5 0.771480 0.345925 0.689401
Si Si6 0.289796 0.833811 0.721505
Si Si7 0.500000 0.250517 0.500000
O O1 0.763305 0.500000 0.948017
O O2 0.641959 0.739357 0.852619
O O3 0.811340 0.680396 0.837341
O O4 0.852771 0.742832 0.072076
O O5 0.173400 0.239152 0.354987
O O6 0.185923 0.212220 0.569824
O O7 0.974926 0.174774 0.321061
O O8 0.146894 0.000000 0.427502
O O9 0.417751 0.201296 0.755026
O O10 0.497175 0.168739 0.609828
O O11 0.562324 0.000000 0.802499
O O12 0.742447 0.791172 0.180640
O O13 0.834856 0.000000 0.135892
O O14 0.806994 0.500000 0.683236
O O15 0.625294 0.333979 0.588584
O O16 0.285183 0.000000 0.721970
#
# Coordination Sequence:
#
# PCOD9143757 Si02
#       7
#     4   4   4   4   4   4   2
#     4  10  23  40  55  78 115 154 190 227 276 331
#     4  10  20  36  59  88 113 141 184 235 281 327
#     4  10  19  33  58  87 114 142 182 230 280 332
#     4  10  21  38  60  80 110 151 192 230 271 328
#     4  10  21  36  56  81 112 150 185 225 278 336
#     4   9  18  35  58  87 114 143 180 229 285 332
#     4  10  18  32  56  86 114 144 178 228 278 330
#
# _framework density 19.192451999999999
#
# number of rings (size 3 to 8) (size 9 to 14) (size 15 to 20)
#    0.000    2.154    1.538    1.385    0.000    7.385 
#    0.000    7.692    0.000    1.846    0.000    0.000 
#    0.000    0.000    0.000    0.000    0.000    0.000 
#
# Total GULP energy -145047.393968 kJ/mol
# GULP energy per Si atom -5578.745922 kJ/mol
# Density = 1.914877 g / cm^3
# Si number density = 19.192452 Si / 1000 Ang^3
#
#
#
# Elastic Constant Matrix: (Units=GPa)
#
#
# Indices 1 2 3 4 5 6 
#
# 1 47.9726 14.5281 -12.5372 0.0000 -16.1835 0.0000
# 2 14.5281 54.9147 14.9097 0.0000 -10.2304 0.0000
# 3 -12.5372 14.9097 34.2967 0.0000 -6.1794 0.0000
# 4 0.0000 0.0000 0.0000 -5.4441 0.0000 6.9603
# 5 -16.1835 -10.2304 -6.1794 0.0000 18.2958 0.0000
# 6 0.0000 0.0000 0.0000 6.9603 0.0000 -1.3739
#
#
#
# Elastic Compliance Matrix: (Units=1/GPa)
#
#
# Indices 1 2 3 4 5 6 
#
# 1 0.048861 -0.012866 0.031885 0.000000 0.046795 0.000000
# 2 -0.012866 0.025551 -0.016277 0.000000 -0.002591 0.000000
# 3 0.031885 -0.016277 0.054657 0.000000 0.037563 0.000000
# 4 0.000000 0.000000 0.000000 0.033538 0.000000 0.169904
# 5 0.046795 -0.002591 0.037563 0.000000 0.107287 0.000000
# 6 0.000000 0.000000 0.000000 0.169904 0.000000 0.132893
#
#
# Mechanical properties :
#
#
# Convention : Reuss Voigt Hill
#
# Bulk Modulus (GPa) = 7.43206 18.99834 13.21520
# Shear Modulus (GPa) = 11.30833 10.31445 10.81139
#
# Velocity S-wave (km/s) = 2.42999 2.32075 2.37600
# Velocity P-wave (km/s) = 3.42840 4.13540 3.79839
#
# Compressibility (1/GPa) = 0.13455220
#
# Stress axis : x y z
#
# Youngs Moduli (GPa) = 20.46641 39.13816 18.29594
#
# Poissons Ratio (x) = 0.50354 -0.58337
# Poissons Ratio (y) = 0.26332 0.29781
# Poissons Ratio (z) = -0.65258 0.63707
#
# Static dielectric constant tensor:
#      x y z
#    x 1.667130 0.000000 0.016430 
#    y 0.000000 1.634410 0.000000 
#    z 0.016430 0.000000 1.690980 
# 
# From -- ./inp_files/49484.got.cif
#   From: 2010.05.17/outbox.cif.g08.bks.cpg/sg10_25_cif.got.tgz:49484.got - 2010.06.03 11:33:40.
