data_PCOD9143673
_publ_section_title
;
Structure prediction by ZEFSAII (Michael W. Deem and Ramdas Pophale) SiO2 
 PCOD9143673
Probable space group: P 2/M
;
_chemical_formula_sum "Si O2"
_cell_formula_units_Z 26
_cell_length_a 9.722770
_cell_length_b 7.667222
_cell_length_c 16.587102
_cell_angle_alpha 90.000000
_cell_angle_beta 64.813348
_cell_angle_gamma 90.000000
_cell_volume 1118.952724
_symmetry_space_group_name_H-M "P 2/M"
_symmetry_group_IT_number 10
_symmetry_cell_setting 'monoclinic'
loop_
_space_group_symop_operation_xyz
x,y,z
-x,y,-z
-x,-y,-z
x,-y,z
loop_
_atom_site_type_symbol
_atom_site_label
_atom_site_fract_x
_atom_site_fract_y
_atom_site_fract_z
Si Si1 0.070418 0.697274 0.164123
Si Si2 0.000000 0.754867 0.000000
Si Si3 0.168088 0.212832 0.556013
Si Si4 0.744883 0.197901 0.297411
Si Si5 0.365535 0.701746 0.169776
Si Si6 0.688069 0.706326 0.135468
Si Si7 0.186425 0.211430 0.371162
O O1 0.061403 0.500000 0.200248
O O2 0.232250 0.777125 0.147498
O O3 0.926692 0.799828 0.234144
O O4 0.052327 0.681041 0.073193
O O5 0.165805 0.815667 0.928102
O O6 0.261092 0.274345 0.610915
O O7 0.224231 0.264154 0.453304
O O8 0.989070 0.261557 0.603229
O O9 0.170823 0.000000 0.558401
O O10 0.674431 0.286132 0.236128
O O11 0.687224 0.000000 0.313164
O O12 0.383388 0.500000 0.140613
O O13 0.535254 0.772224 0.131753
O O14 0.296235 0.712953 0.276657
O O15 0.716116 0.500000 0.109078
O O16 0.193649 0.000000 0.365007
#
# Coordination Sequence:
#
# PCOD9143673 Si02
#       7
#     4   2   4   4   4   4   4
#     4  10  19  33  54  78 105 134 169 211 260 314
#     4  10  19  36  59  78  97 134 179 214 255 310
#     4   8  15  28  51  79 103 134 176 217 249 291
#     4  10  18  32  54  80 104 135 176 216 258 302
#     4  10  21  34  50  78 111 138 167 212 265 309
#     4  10  21  37  54  74 105 139 174 215 258 309
#     4   9  16  31  53  76 105 138 174 213 252 300
#
# _framework density 23.236014000000001
#
# number of rings (size 3 to 8) (size 9 to 14) (size 15 to 20)
#    0.000    2.462    1.538    3.692    0.000    1.231 
#    0.000   12.308    0.000    4.615    0.000    9.692 
#    0.000    0.000    0.000    0.000    0.000    0.000 
#
# Total GULP energy -144852.910287 kJ/mol
# GULP energy per Si atom -5571.265780 kJ/mol
# Density = 2.318313 g / cm^3
# Si number density = 23.236014 Si / 1000 Ang^3
#
#
#
# Elastic Constant Matrix: (Units=GPa)
#
#
# Indices 1 2 3 4 5 6 
#
# 1 125.4110 -0.2754 10.5120 0.0000 5.2716 0.0000
# 2 -0.2754 56.9244 -3.9651 0.0000 0.8576 0.0000
# 3 10.5120 -3.9651 69.9842 0.0000 18.0639 0.0000
# 4 0.0000 0.0000 0.0000 8.8324 0.0000 2.5271
# 5 5.2716 0.8576 18.0639 0.0000 22.7406 0.0000
# 6 0.0000 0.0000 0.0000 2.5271 0.0000 6.8986
#
#
#
# Elastic Compliance Matrix: (Units=1/GPa)
#
#
# Indices 1 2 3 4 5 6 
#
# 1 0.008099 -0.000008 -0.000921 0.000000 -0.001145 0.000000
# 2 -0.000008 0.017698 0.001479 0.000000 -0.001840 0.000000
# 3 -0.000921 0.001479 0.018202 0.000000 -0.014301 0.000000
# 4 0.000000 0.000000 0.000000 0.126476 0.000000 -0.046332
# 5 -0.001145 -0.001840 -0.014301 0.000000 0.055669 0.000000
# 6 0.000000 0.000000 0.000000 -0.046332 0.000000 0.161929
#
#
# Mechanical properties :
#
#
# Convention : Reuss Voigt Hill
#
# Bulk Modulus (GPa) = 22.17342 29.42919 25.80130
# Shear Modulus (GPa) = 12.43758 24.09752 18.26755
#
# Velocity S-wave (km/s) = 2.31610 3.22386 2.80692
# Velocity P-wave (km/s) = 4.08850 5.15272 4.65115
#
# Compressibility (1/GPa) = 0.04509904
#
# Stress axis : x y z
#
# Youngs Moduli (GPa) = 123.46996 56.50404 54.93766
#
# Poissons Ratio (x) = 0.00044 0.05062
# Poissons Ratio (y) = 0.00096 -0.08125
# Poissons Ratio (z) = 0.11376 -0.08356
#
# Static dielectric constant tensor:
#      x y z
#    x 1.884080 0.000000 0.019990 
#    y 0.000000 1.878030 0.000000 
#    z 0.019990 0.000000 1.867040 
# 
# From -- ./inp_files/74333.got.cif
#   From: 2010.05.17/outbox.cif.g08.bks.cpg/sg10_38_cif.got.tgz:74333.got - 2010.06.03 11:33:40.
