data_PCOD9143643
_publ_section_title
;
Structure prediction by ZEFSAII (Michael W. Deem and Ramdas Pophale) SiO2 
 PCOD9143643
Probable space group: P 2/M
;
_chemical_formula_sum "Si O2"
_cell_formula_units_Z 32
_cell_length_a 26.785306
_cell_length_b 9.388037
_cell_length_c 21.801502
_cell_angle_alpha 90.000000
_cell_angle_beta 160.138066
_cell_angle_gamma 90.000000
_cell_volume 1862.616225
_symmetry_space_group_name_H-M "P 2/M"
_symmetry_group_IT_number 10
_symmetry_cell_setting 'monoclinic'
loop_
_space_group_symop_operation_xyz
x,y,z
-x,y,-z
-x,-y,-z
x,-y,z
loop_
_atom_site_type_symbol
_atom_site_label
_atom_site_fract_x
_atom_site_fract_y
_atom_site_fract_z
Si Si1 0.667361 0.330578 0.494856
Si Si2 0.325658 0.337152 0.287774
Si Si3 0.332927 0.332057 0.154700
Si Si4 0.535185 0.669526 0.970298
Si Si5 0.569381 0.164555 0.265198
Si Si6 0.137409 0.330544 0.700891
Si Si7 0.767635 0.162936 0.074468
Si Si8 0.170639 0.834985 0.214311
O O1 0.690357 0.500000 0.515674
O O2 0.506454 0.309454 0.340725
O O3 0.658872 0.254173 0.419064
O O4 0.784812 0.257203 0.675028
O O5 0.500000 0.338891 0.500000
O O6 0.272596 0.500000 0.237174
O O7 0.300225 0.298659 0.187503
O O8 0.255654 0.230352 0.254760
O O9 0.306257 0.500000 0.113916
O O10 0.239941 0.241233 0.999291
O O11 0.508962 0.500000 0.931134
O O12 0.440491 0.758246 0.811863
O O13 0.500000 0.705036 0.000000
O O14 0.707165 0.695636 0.153696
O O15 0.616988 0.000000 0.316181
O O16 0.400980 0.164745 0.095617
O O17 0.129019 0.500000 0.703069
O O18 0.141156 0.247156 0.769120
O O19 0.000000 0.289704 0.500000
O O20 0.814848 0.000000 0.123528
O O21 0.210988 0.000000 0.271488
O O22 0.000000 0.826998 0.000000
#
# Coordination Sequence:
#
# PCOD9143643 Si02
#       8
#     4   4   4   4   4   4   4   4
#     4  10  18  32  54  77 101 132 171 214 256 300
#     4  10  19  35  56  81 105 130 172 218 258 303
#     4   9  17  30  51  77 104 128 160 213 259 295
#     4   9  17  30  49  73  99 127 163 205 245 290
#     4   9  17  29  47  74 103 129 163 206 252 300
#     4   9  17  30  49  71  96 128 163 200 242 289
#     4   9  17  28  45  72 102 130 163 201 243 296
#     4  11  24  38  52  75 108 142 173 209 257 313
#
# _framework density 17.180135
#
# number of rings (size 3 to 8) (size 9 to 14) (size 15 to 20)
#    0.000    2.500    1.250    1.500    0.000    5.750 
#    0.000    0.000    2.750    0.000    0.000    0.000 
#    0.000    0.000    0.000    0.000    0.000    0.000 
#
# Total GULP energy -178447.438781 kJ/mol
# GULP energy per Si atom -5576.482462 kJ/mol
# Density = 1.714103 g / cm^3
# Si number density = 17.180135 Si / 1000 Ang^3
#
#
#
# Elastic Constant Matrix: (Units=GPa)
#
#
# Indices 1 2 3 4 5 6 
#
# 1 87.7323 63.6042 43.2624 0.0000 -38.4569 0.0000
# 2 63.6042 104.2656 66.0927 0.0000 -33.9177 0.0000
# 3 43.2624 66.0927 84.0564 0.0000 -38.8669 0.0000
# 4 0.0000 0.0000 0.0000 30.2887 0.0000 -11.6213
# 5 -38.4569 -33.9177 -38.8669 0.0000 34.2230 0.0000
# 6 0.0000 0.0000 0.0000 -11.6213 0.0000 21.4575
#
#
#
# Elastic Compliance Matrix: (Units=1/GPa)
#
#
# Indices 1 2 3 4 5 6 
#
# 1 0.031607 -0.015787 0.011232 0.000000 0.032627 0.000000
# 2 -0.015787 0.027264 -0.018996 0.000000 -0.012294 0.000000
# 3 0.011232 -0.018996 0.038291 0.000000 0.037282 0.000000
# 4 0.000000 0.000000 0.000000 0.041676 0.000000 0.022572
# 5 0.032627 -0.012294 0.037282 0.000000 0.096041 0.000000
# 6 0.000000 0.000000 0.000000 0.022572 0.000000 0.058829
#
#
# Mechanical properties :
#
#
# Convention : Reuss Voigt Hill
#
# Bulk Modulus (GPa) = 19.97634 69.10810 44.54222
# Shear Modulus (GPa) = 13.98618 24.06684 19.02651
#
# Velocity S-wave (km/s) = 2.85632 3.74686 3.33148
# Velocity P-wave (km/s) = 4.74667 7.68320 6.38602
#
# Compressibility (1/GPa) = 0.05005921
#
# Stress axis : x y z
#
# Youngs Moduli (GPa) = 31.63894 36.67872 26.11554
#
# Poissons Ratio (x) = 0.57905 -0.29334
# Poissons Ratio (y) = 0.49949 0.49610
# Poissons Ratio (z) = -0.35538 0.69676
#
# Static dielectric constant tensor:
#      x y z
#    x 1.563600 0.000000 -0.001460 
#    y 0.000000 1.579460 0.000000 
#    z -0.001460 0.000000 1.568060 
# 
# From -- ./inp_files/86993.got.cif
#   From: 2010.05.17/outbox.cif.g08.bks.cpg/sg10_44_cif.got.tgz:86993.got - 2010.06.03 11:33:40.
