data_PCOD9143949
_publ_section_title
;
Structure prediction by ZEFSAII (Michael W. Deem and Ramdas Pophale) SiO2 
 PCOD9143949
Probable space group: P 2/M
;
_chemical_formula_sum "Si O2"
_cell_formula_units_Z 32
_cell_length_a 13.638002
_cell_length_b 14.863134
_cell_length_c 12.132560
_cell_angle_alpha 90.000000
_cell_angle_beta 135.679558
_cell_angle_gamma 90.000000
_cell_volume 1718.248805
_symmetry_space_group_name_H-M "P 2/M"
_symmetry_group_IT_number 10
_symmetry_cell_setting 'monoclinic'
loop_
_space_group_symop_operation_xyz
x,y,z
-x,y,-z
-x,-y,-z
x,-y,z
loop_
_atom_site_type_symbol
_atom_site_label
_atom_site_fract_x
_atom_site_fract_y
_atom_site_fract_z
Si Si1 0.841143 0.755774 0.413817
Si Si2 0.841269 0.600128 0.831385
Si Si3 0.659606 0.600916 0.907555
Si Si4 0.338944 0.898249 0.324200
Si Si5 0.332619 0.397469 0.844743
Si Si6 0.235941 0.241090 0.395067
Si Si7 0.610352 0.893085 0.186708
Si Si8 0.476526 0.778038 0.270221
O O1 0.746038 0.671933 0.296689
O O2 0.834651 0.760990 0.541720
O O3 0.758222 0.841576 0.296307
O O4 0.000000 0.749021 0.500000
O O5 0.813556 0.500000 0.761828
O O6 0.749740 0.608220 0.869056
O O7 0.814833 0.678626 0.723112
O O8 0.000000 0.603806 0.000000
O O9 0.594193 0.500000 0.853811
O O10 0.564335 0.688834 0.827007
O O11 0.734903 0.606715 0.086626
O O12 0.500000 0.902840 0.500000
O O13 0.235667 0.854220 0.330793
O O14 0.351844 0.827372 0.234783
O O15 0.300309 0.000000 0.262530
O O16 0.319827 0.500000 0.794290
O O17 0.500000 0.380714 0.000000
O O18 0.402229 0.253797 0.549615
O O19 0.542871 0.852143 0.243092
O O20 0.627893 0.000000 0.207739
O O21 0.500000 0.873063 0.000000
#
# Coordination Sequence:
#
# PCOD9143949 Si02
#       8
#     4   4   4   4   4   4   4   4
#     4  11  24  38  58  88 120 155 198 245 300 351
#     4  10  22  38  55  78 110 154 197 233 280 342
#     4  10  20  34  58  86 115 151 188 234 286 341
#     4   9  17  31  53  80 107 138 176 225 283 341
#     4  10  21  39  60  85 119 160 201 241 292 352
#     4  10  21  36  54  81 111 147 188 234 291 346
#     4  10  21  39  62  87 117 156 201 245 295 354
#     4  10  18  33  58  87 118 142 184 237 292 345
#
# _framework density 18.623612000000001
#
# number of rings (size 3 to 8) (size 9 to 14) (size 15 to 20)
#    0.000    2.000    1.250    3.000    1.750    4.500 
#    0.000    1.250    0.000    0.375    0.000    0.000 
#    0.000    0.000    0.000    0.000    0.000    0.000 
#
# Total GULP energy -178334.273404 kJ/mol
# GULP energy per Si atom -5572.946044 kJ/mol
# Density = 1.858122 g / cm^3
# Si number density = 18.623612 Si / 1000 Ang^3
#
#
#
# Elastic Constant Matrix: (Units=GPa)
#
#
# Indices 1 2 3 4 5 6 
#
# 1 98.6364 49.3908 35.9117 0.0000 -3.1431 0.0000
# 2 49.3908 133.8904 46.8571 0.0000 0.0012 0.0000
# 3 35.9117 46.8571 54.8224 0.0000 -3.3577 0.0000
# 4 0.0000 0.0000 0.0000 27.3960 0.0000 -6.4430
# 5 -3.1431 0.0012 -3.3577 0.0000 20.4310 0.0000
# 6 0.0000 0.0000 0.0000 -6.4430 0.0000 19.6004
#
#
#
# Elastic Compliance Matrix: (Units=1/GPa)
#
#
# Indices 1 2 3 4 5 6 
#
# 1 0.014031 -0.002828 -0.006709 0.000000 0.001056 0.000000
# 2 -0.002828 0.011273 -0.007889 0.000000 -0.001732 0.000000
# 3 -0.006709 -0.007889 0.029613 0.000000 0.003835 0.000000
# 4 0.000000 0.000000 0.000000 0.039560 0.000000 0.013004
# 5 0.001056 -0.001732 0.003835 0.000000 0.049738 0.000000
# 6 0.000000 0.000000 0.000000 0.013004 0.000000 0.055294
#
#
# Mechanical properties :
#
#
# Convention : Reuss Voigt Hill
#
# Bulk Modulus (GPa) = 49.83786 61.29648 55.56717
# Shear Modulus (GPa) = 20.74279 23.83146 22.28713
#
# Velocity S-wave (km/s) = 3.34097 3.58108 3.46311
# Velocity P-wave (km/s) = 6.45767 7.07698 6.77440
#
# Compressibility (1/GPa) = 0.02006507
#
# Stress axis : x y z
#
# Youngs Moduli (GPa) = 71.27313 88.71004 33.76900
#
# Poissons Ratio (x) = 0.25085 0.22656
# Poissons Ratio (y) = 0.20154 0.26639
# Poissons Ratio (z) = 0.47819 0.69980
#
# Static dielectric constant tensor:
#      x y z
#    x 1.703220 0.000000 -0.013040 
#    y 0.000000 1.652290 0.000000 
#    z -0.013040 0.000000 1.636810 
# 
# From -- ./inp_files/51657.got.cif
#   From: 2010.05.17/outbox.cif.g08.bks.cpg/sg10_26_cif.got.tgz:51657.got - 2010.06.03 11:33:40.
