data_PCOD9143777
_publ_section_title
;
Structure prediction by ZEFSAII (Michael W. Deem and Ramdas Pophale) SiO2 
 PCOD9143777
Probable space group: P 2/M
;
_chemical_formula_sum "Si O2"
_cell_formula_units_Z 32
_cell_length_a 10.616498
_cell_length_b 12.826365
_cell_length_c 22.292424
_cell_angle_alpha 90.000000
_cell_angle_beta 33.794352
_cell_angle_gamma 90.000000
_cell_volume 1688.433076
_symmetry_space_group_name_H-M "P 2/M"
_symmetry_group_IT_number 10
_symmetry_cell_setting 'monoclinic'
loop_
_space_group_symop_operation_xyz
x,y,z
-x,y,-z
-x,-y,-z
x,-y,z
loop_
_atom_site_type_symbol
_atom_site_label
_atom_site_fract_x
_atom_site_fract_y
_atom_site_fract_z
Si Si1 0.635794 0.619397 0.532250
Si Si2 0.124225 0.622261 0.309552
Si Si3 0.017102 0.249498 0.925545
Si Si4 0.443810 0.117210 0.774262
Si Si5 0.431254 0.879361 0.920106
Si Si6 0.307647 0.284977 0.121558
Si Si7 0.751826 0.298066 0.611645
Si Si8 0.142208 0.627282 0.759926
O O1 0.622380 0.500000 0.517481
O O2 0.691511 0.625898 0.581192
O O3 0.377652 0.659260 0.633729
O O4 0.863822 0.666513 0.411980
O O5 0.098725 0.500000 0.311041
O O6 0.292617 0.663211 0.192686
O O7 0.230161 0.644612 0.332284
O O8 0.184509 0.151502 0.868936
O O9 0.123266 0.330099 0.835784
O O10 0.782367 0.200405 0.993977
O O11 0.000000 0.295302 0.000000
O O12 0.504270 0.123399 0.821104
O O13 0.583473 0.202482 0.683255
O O14 0.481608 0.000000 0.738788
O O15 0.620900 0.833161 0.889671
O O16 0.373749 0.000000 0.956254
O O17 0.066680 0.315442 0.189419
O O18 0.500000 0.325023 0.000000
O O19 0.000000 0.254668 0.500000
O O20 0.124328 0.500000 0.765073
#
# Coordination Sequence:
#
# PCOD9143777 Si02
#       8
#     4   4   4   4   4   4   4   4
#     4   9  19  37  60  85 113 150 198 240 279 337
#     4  10  21  37  59  85 115 156 194 233 288 343
#     4  10  20  38  58  84 116 148 189 234 292 349
#     4  10  19  34  59  86 113 145 186 238 292 346
#     4  10  21  40  61  82 111 152 198 240 284 339
#     4  12  24  40  56  84 118 154 195 238 285 342
#     4  10  18  32  57  87 116 144 185 238 289 347
#     4  11  23  38  57  84 118 154 195 241 281 338
#
# _framework density 18.952483000000001
#
# number of rings (size 3 to 8) (size 9 to 14) (size 15 to 20)
#    0.000    1.750    3.750    1.125    0.000    5.250 
#    0.000    1.875    0.000    0.000    0.000    0.875 
#    0.000    0.000    0.000    0.000    0.000    0.000 
#
# Total GULP energy -178243.260854 kJ/mol
# GULP energy per Si atom -5570.101902 kJ/mol
# Density = 1.890935 g / cm^3
# Si number density = 18.952483 Si / 1000 Ang^3
#
#
#
# Elastic Constant Matrix: (Units=GPa)
#
#
# Indices 1 2 3 4 5 6 
#
# 1 63.8306 15.8231 20.5211 0.0000 -8.1205 0.0000
# 2 15.8231 62.2223 18.4695 0.0000 -0.7212 0.0000
# 3 20.5211 18.4695 78.6773 0.0000 1.6973 0.0000
# 4 0.0000 0.0000 0.0000 13.8841 0.0000 -4.1402
# 5 -8.1205 -0.7212 1.6973 0.0000 32.1101 0.0000
# 6 0.0000 0.0000 0.0000 -4.1402 0.0000 1.5298
#
#
#
# Elastic Compliance Matrix: (Units=1/GPa)
#
#
# Indices 1 2 3 4 5 6 
#
# 1 0.018447 -0.003414 -0.004114 0.000000 0.004806 0.000000
# 2 -0.003414 0.017919 -0.003310 0.000000 -0.000286 0.000000
# 3 -0.004114 -0.003310 0.014601 0.000000 -0.001886 0.000000
# 4 0.000000 0.000000 0.000000 0.373220 0.000000 1.010051
# 5 0.004806 -0.000286 -0.001886 0.000000 0.032452 0.000000
# 6 0.000000 0.000000 0.000000 1.010051 0.000000 3.387177
#
#
# Mechanical properties :
#
#
# Convention : Reuss Voigt Hill
#
# Bulk Modulus (GPa) = 34.14007 34.92863 34.53435
# Shear Modulus (GPa) = 1.29024 19.49923 10.39473
#
# Velocity S-wave (km/s) = 0.82599 3.21105 2.34447
# Velocity P-wave (km/s) = 4.35457 5.67603 5.05864
#
# Compressibility (1/GPa) = 0.02929109
#
# Stress axis : x y z
#
# Youngs Moduli (GPa) = 54.21021 55.80736 68.48975
#
# Poissons Ratio (x) = 0.19054 0.28174
# Poissons Ratio (y) = 0.18509 0.22668
# Poissons Ratio (z) = 0.22300 0.18471
#
# Static dielectric constant tensor:
#      x y z
#    x 1.724310 0.000000 -0.004610 
#    y 0.000000 1.618280 0.000000 
#    z -0.004610 0.000000 1.723750 
# 
# From -- ./inp_files/88907.got.cif
#   From: 2010.05.17/outbox.cif.g08.bks.cpg/sg10_45_cif.got.tgz:88907.got - 2010.06.03 11:33:40.
