data_PCOD9143578
_publ_section_title
;
Structure prediction by ZEFSAII (Michael W. Deem and Ramdas Pophale) SiO2 
 PCOD9143578
Probable space group: P 2/M
;
_chemical_formula_sum "Si O2"
_cell_formula_units_Z 28
_cell_length_a 9.692819
_cell_length_b 18.446518
_cell_length_c 16.529345
_cell_angle_alpha 90.000000
_cell_angle_beta 147.571623
_cell_angle_gamma 90.000000
_cell_volume 1584.832334
_symmetry_space_group_name_H-M "P 2/M"
_symmetry_group_IT_number 10
_symmetry_cell_setting 'monoclinic'
loop_
_space_group_symop_operation_xyz
x,y,z
-x,y,-z
-x,-y,-z
x,-y,z
loop_
_atom_site_type_symbol
_atom_site_label
_atom_site_fract_x
_atom_site_fract_y
_atom_site_fract_z
Si Si1 0.939655 0.416819 0.564748
Si Si2 0.681372 0.697345 0.164390
Si Si3 0.490252 0.677426 0.586465
Si Si4 0.177433 0.792840 0.203404
Si Si5 0.873636 0.808336 0.643777
Si Si6 0.596963 0.807978 0.858909
Si Si7 0.867456 0.084741 0.346754
O O1 0.944093 0.500000 0.594607
O O2 0.660621 0.380264 0.436511
O O3 0.000000 0.414577 0.500000
O O4 0.140947 0.367078 0.713711
O O5 0.533057 0.735923 0.166304
O O6 0.866870 0.760225 0.220412
O O7 0.500000 0.675088 0.000000
O O8 0.500000 0.649149 0.500000
O O9 0.763128 0.707261 0.751507
O O10 0.318176 0.751142 0.493986
O O11 0.222361 0.827773 0.313974
O O12 0.355122 0.810300 0.214032
O O13 0.884592 0.810708 0.036478
O O14 0.946730 0.876170 0.625522
O O15 0.403822 0.872716 0.786529
O O16 0.000000 0.093279 0.500000
O O17 0.833416 0.000000 0.313051
#
# Coordination Sequence:
#
# PCOD9143578 Si02
#       7
#     4   4   4   4   4   4   4
#     4  10  21  35  52  78 110 145 185 224 267 324
#     4  10  18  33  56  78 107 140 182 233 275 320
#     4   9  18  32  55  78 101 135 175 220 266 312
#     4  10  18  32  52  81 106 132 171 224 273 314
#     4   9  18  33  55  79 103 133 182 226 264 314
#     4  10  20  32  55  79 107 137 175 223 269 319
#     4  10  21  37  55  77 108 145 180 217 266 321
#
# _framework density 17.667483000000001
#
# number of rings (size 3 to 8) (size 9 to 14) (size 15 to 20)
#    0.000    2.286    1.429    1.714    0.000    4.571 
#    0.000    3.571    0.000    6.429    0.000    4.000 
#    0.000    0.000    0.000    0.000    0.000    0.000 
#
# Total GULP energy -155947.425567 kJ/mol
# GULP energy per Si atom -5569.550913 kJ/mol
# Density = 1.762727 g / cm^3
# Si number density = 17.667483 Si / 1000 Ang^3
#
#
#
# Elastic Constant Matrix: (Units=GPa)
#
#
# Indices 1 2 3 4 5 6 
#
# 1 120.0752 51.1464 12.4061 0.0000 -7.9140 0.0000
# 2 51.1464 93.8745 31.8651 0.0000 -11.2864 0.0000
# 3 12.4061 31.8651 65.6066 0.0000 -4.0719 0.0000
# 4 0.0000 0.0000 0.0000 8.5049 0.0000 -15.3994
# 5 -7.9140 -11.2864 -4.0719 0.0000 25.0483 0.0000
# 6 0.0000 0.0000 0.0000 -15.3994 0.0000 -9.6525
#
#
#
# Elastic Compliance Matrix: (Units=1/GPa)
#
#
# Indices 1 2 3 4 5 6 
#
# 1 0.010914 -0.006184 0.000991 0.000000 0.000823 0.000000
# 2 -0.006184 0.016854 -0.006735 0.000000 0.004546 0.000000
# 3 0.000991 -0.006735 0.018342 0.000000 0.000260 0.000000
# 4 0.000000 0.000000 0.000000 0.030237 0.000000 -0.048238
# 5 0.000823 0.004546 0.000260 0.000000 0.042273 0.000000
# 6 0.000000 0.000000 0.000000 -0.048238 0.000000 -0.026642
#
#
# Mechanical properties :
#
#
# Convention : Reuss Voigt Hill
#
# Bulk Modulus (GPa) = 44.93350 52.26570 48.59960
# Shear Modulus (GPa) = 40.56724 17.05606 28.81165
#
# Velocity S-wave (km/s) = 4.79702 3.11045 4.04266
# Velocity P-wave (km/s) = 7.49466 6.52281 7.02556
#
# Compressibility (1/GPa) = 0.02225511
#
# Stress axis : x y z
#
# Youngs Moduli (GPa) = 91.62585 59.33256 54.51914
#
# Poissons Ratio (x) = 0.36689 -0.05401
# Poissons Ratio (y) = 0.56658 0.36717
# Poissons Ratio (z) = -0.09077 0.39958
#
# Static dielectric constant tensor:
#      x y z
#    x 1.651110 0.000000 0.007680 
#    y 0.000000 1.565610 0.000000 
#    z 0.007680 0.000000 1.653290 
# 
# From -- ./inp_files/30086.got.cif
#   From: 2010.05.17/outbox.cif.g08.bks.cpg/sg10_16_cif.got.tgz:30086.got - 2010.06.03 11:33:40.
