data_PCOD9143204
_publ_section_title
;
Structure prediction by ZEFSAII (Michael W. Deem and Ramdas Pophale) SiO2 
 PCOD9143204
Probable space group: P 2/M
;
_chemical_formula_sum "Si O2"
_cell_formula_units_Z 32
_cell_length_a 12.671655
_cell_length_b 9.086802
_cell_length_c 24.191830
_cell_angle_alpha 90.000000
_cell_angle_beta 133.593346
_cell_angle_gamma 90.000000
_cell_volume 2017.450080
_symmetry_space_group_name_H-M "P 2/M"
_symmetry_group_IT_number 10
_symmetry_cell_setting 'monoclinic'
loop_
_space_group_symop_operation_xyz
x,y,z
-x,y,-z
-x,-y,-z
x,-y,z
loop_
_atom_site_type_symbol
_atom_site_label
_atom_site_fract_x
_atom_site_fract_y
_atom_site_fract_z
Si Si1 0.914843 0.824873 0.841040
Si Si2 0.229498 0.324707 0.312994
Si Si3 0.940098 0.676775 0.417877
Si Si4 0.456772 0.823727 0.590619
Si Si5 0.669704 0.175857 0.846004
Si Si6 0.365756 0.176558 0.683542
Si Si7 0.797540 0.324429 0.568573
Si Si8 0.874707 0.330615 0.002212
O O1 0.878005 0.746870 0.770379
O O2 0.778050 0.796312 0.833185
O O3 0.056574 0.759632 0.922466
O O4 0.926622 0.000000 0.838713
O O5 0.238662 0.500000 0.307469
O O6 0.387790 0.252213 0.361718
O O7 0.183095 0.297979 0.359478
O O8 0.924522 0.500000 0.412279
O O9 0.783626 0.748917 0.352342
O O10 0.000000 0.721190 0.500000
O O11 0.060534 0.716574 0.415775
O O12 0.398329 0.787975 0.631051
O O13 0.340773 0.762556 0.504981
O O14 0.471930 0.000000 0.591922
O O15 0.507530 0.221084 0.770006
O O16 0.672448 0.000000 0.856280
O O17 0.736003 0.257390 0.922819
O O18 0.352567 0.000000 0.682560
O O19 0.771837 0.500000 0.551399
O O20 0.848582 0.500000 0.007718
O O21 0.000000 0.327797 0.000000
#
# Coordination Sequence:
#
# PCOD9143204 Si02
#       8
#     4   4   4   4   4   4   4   4
#     4  10  18  31  49  70 100 135 167 198 242 295
#     4  11  22  34  50  71 101 135 168 207 249 296
#     4  10  20  35  54  72  93 127 170 212 253 298
#     4  11  21  34  51  73 100 131 168 207 248 298
#     4   9  17  31  47  68 100 133 162 198 245 293
#     4  10  20  33  50  74 101 130 165 206 251 294
#     4  10  22  38  51  70  98 131 170 212 255 295
#     4   9  17  28  44  71 101 130 165 199 237 290
#
# _framework density 15.861606999999999
#
# number of rings (size 3 to 8) (size 9 to 14) (size 15 to 20)
#    0.000    2.000    2.500    1.875    0.000    6.250 
#    0.000    0.000    0.000    0.000    0.000    0.875 
#    0.000    7.000    0.000    0.000    0.000    0.000 
#
# Total GULP energy -178579.855028 kJ/mol
# GULP energy per Si atom -5580.620470 kJ/mol
# Density = 1.582551 g / cm^3
# Si number density = 15.861607 Si / 1000 Ang^3
#
#
#
# Elastic Constant Matrix: (Units=GPa)
#
#
# Indices 1 2 3 4 5 6 
#
# 1 49.2946 30.3562 42.5122 0.0000 -10.4753 0.0000
# 2 30.3562 54.3697 64.4634 0.0000 -7.5107 0.0000
# 3 42.5122 64.4634 153.9745 0.0000 -0.6616 0.0000
# 4 0.0000 0.0000 0.0000 31.8051 0.0000 2.9703
# 5 -10.4753 -7.5107 -0.6616 0.0000 18.1056 0.0000
# 6 0.0000 0.0000 0.0000 2.9703 0.0000 19.6254
#
#
#
# Elastic Compliance Matrix: (Units=1/GPa)
#
#
# Indices 1 2 3 4 5 6 
#
# 1 0.034731 -0.011976 -0.004511 0.000000 0.014961 0.000000
# 2 -0.011976 0.044962 -0.015469 0.000000 0.011157 0.000000
# 3 -0.004511 -0.015469 0.014180 0.000000 -0.008509 0.000000
# 4 0.000000 0.000000 0.000000 0.031892 0.000000 -0.004827
# 5 0.014961 0.011157 -0.008509 0.000000 0.068205 0.000000
# 6 0.000000 0.000000 0.000000 -0.004827 0.000000 0.051685
#
#
# Mechanical properties :
#
#
# Convention : Reuss Voigt Hill
#
# Bulk Modulus (GPa) = 33.37817 59.14473 46.26145
# Shear Modulus (GPa) = 15.64684 21.92768 18.78726
#
# Velocity S-wave (km/s) = 3.14420 3.72215 3.44532
# Velocity P-wave (km/s) = 5.85409 7.47271 6.71237
#
# Compressibility (1/GPa) = 0.02995970
#
# Stress axis : x y z
#
# Youngs Moduli (GPa) = 28.79285 22.24123 70.52264
#
# Poissons Ratio (x) = 0.26637 0.31812
# Poissons Ratio (y) = 0.34483 1.09093
# Poissons Ratio (z) = 0.12988 0.34405
#
# Static dielectric constant tensor:
#      x y z
#    x 1.504230 0.000000 -0.005880 
#    y 0.000000 1.529790 0.000000 
#    z -0.005880 0.000000 1.520330 
# 
# From -- ./inp_files/55231.got.cif
#   From: 2010.05.17/outbox.cif.g08.bks.cpg/sg10_28_cif.got.tgz:55231.got - 2010.06.03 11:33:40.
