data_PCOD9143097
_publ_section_title
;
Structure prediction by ZEFSAII (Michael W. Deem and Ramdas Pophale) SiO2 
 PCOD9143097
Probable space group: P 2/M
;
_chemical_formula_sum "Si O2"
_cell_formula_units_Z 30
_cell_length_a 22.760523
_cell_length_b 14.924088
_cell_length_c 14.560167
_cell_angle_alpha 90.000000
_cell_angle_beta 160.817240
_cell_angle_gamma 90.000000
_cell_volume 1625.102617
_symmetry_space_group_name_H-M "P 2/M"
_symmetry_group_IT_number 10
_symmetry_cell_setting 'monoclinic'
loop_
_space_group_symop_operation_xyz
x,y,z
-x,y,-z
-x,-y,-z
x,-y,z
loop_
_atom_site_type_symbol
_atom_site_label
_atom_site_fract_x
_atom_site_fract_y
_atom_site_fract_z
Si Si1 0.709326 0.096435 0.515843
Si Si2 0.254831 0.697646 0.860485
Si Si3 0.283893 0.099897 0.880332
Si Si4 0.000000 0.237973 0.000000
Si Si5 0.290120 0.158498 0.684561
Si Si6 0.937756 0.605213 0.275654
Si Si7 0.456698 0.398911 0.827748
Si Si8 0.923938 0.328769 0.703963
O O1 0.826514 0.175455 0.730156
O O2 0.733146 0.100243 0.440918
O O3 0.768913 0.000000 0.640058
O O4 0.496591 0.103589 0.214732
O O5 0.218187 0.803465 0.819161
O O6 0.231576 0.648835 0.923501
O O7 0.106830 0.652794 0.575121
O O8 0.439620 0.673709 0.081290
O O9 0.252052 0.109175 0.723656
O O10 0.221488 0.000000 0.818150
O O11 0.020858 0.294418 0.938001
O O12 0.167640 0.244490 0.484487
O O13 0.500000 0.184275 0.000000
O O14 0.945230 0.500000 0.304954
O O15 0.956826 0.622826 0.195859
O O16 0.511847 0.500000 0.881673
O O17 0.244456 0.386702 0.510173
O O18 0.500000 0.389787 0.000000
#
# Coordination Sequence:
#
# PCOD9143097 Si02
#       8
#     4   4   4   2   4   4   4   4
#     4   9  17  29  49  76 107 143 187 226 262 316
#     4  11  20  34  53  81 115 144 173 214 267 338
#     4  10  18  30  52  79 107 142 178 218 270 325
#     4  10  21  32  51  76 110 150 184 226 278 308
#     4   9  15  27  46  76 109 141 169 214 269 321
#     4  11  22  36  54  78 110 148 180 214 270 333
#     4  11  19  31  55  84 108 135 175 227 276 322
#     4  11  20  34  54  78 111 144 181 224 271 316
#
# _framework density 18.460372
#
# number of rings (size 3 to 8) (size 9 to 14) (size 15 to 20)
#    0.000    1.733    2.667    5.400    0.000    1.600 
#    0.000    2.667    0.000    3.200    0.000    6.533 
#    0.000    0.000    0.000    0.000    0.000    0.000 
#
# Total GULP energy -167273.184199 kJ/mol
# GULP energy per Si atom -5575.772807 kJ/mol
# Density = 1.841836 g / cm^3
# Si number density = 18.460372 Si / 1000 Ang^3
#
#
#
# Elastic Constant Matrix: (Units=GPa)
#
#
# Indices 1 2 3 4 5 6 
#
# 1 93.0884 35.8504 27.1002 0.0000 0.7770 0.0000
# 2 35.8504 143.3611 15.2620 0.0000 -1.0476 0.0000
# 3 27.1002 15.2620 49.2128 0.0000 -12.7655 0.0000
# 4 0.0000 0.0000 0.0000 7.9793 0.0000 -2.2794
# 5 0.7770 -1.0476 -12.7655 0.0000 23.1325 0.0000
# 6 0.0000 0.0000 0.0000 -2.2794 0.0000 0.4343
#
#
#
# Elastic Compliance Matrix: (Units=1/GPa)
#
#
# Indices 1 2 3 4 5 6 
#
# 1 0.014268 -0.002715 -0.008369 0.000000 -0.005221 0.000000
# 2 -0.002715 0.007753 -0.000927 0.000000 -0.000069 0.000000
# 3 -0.008369 -0.000927 0.029501 0.000000 0.016519 0.000000
# 4 0.000000 0.000000 0.000000 -0.251052 0.000000 -1.317535
# 5 -0.005221 -0.000069 0.016519 0.000000 0.052517 0.000000
# 6 0.000000 0.000000 0.000000 -1.317535 0.000000 -4.612144
#
#
# Mechanical properties :
#
#
# Convention : Reuss Voigt Hill
#
# Bulk Modulus (GPa) = 36.36525 49.12081 42.74303
# Shear Modulus (GPa) = -1.05798 20.13921 9.54061
#
# Velocity S-wave (km/s) = -0.75786 3.30653 2.27582
# Velocity P-wave (km/s) = 4.35615 6.42215 5.48726
#
# Compressibility (1/GPa) = 0.02749878
#
# Stress axis : x y z
#
# Youngs Moduli (GPa) = 70.08569 128.98938 33.89710
#
# Poissons Ratio (x) = 0.35024 0.28370
# Poissons Ratio (y) = 0.19030 0.03142
# Poissons Ratio (z) = 0.58657 0.11957
#
# Static dielectric constant tensor:
#      x y z
#    x 1.660390 0.000000 0.034890 
#    y 0.000000 1.698290 0.000000 
#    z 0.034890 0.000000 1.633740 
# 
# From -- ./inp_files/71913.got.cif
#   From: 2010.05.17/outbox.cif.g08.bks.cpg/sg10_36_cif.got.tgz:71913.got - 2010.06.03 11:33:40.
