data_PCOD9143742
_publ_section_title
;
Structure prediction by ZEFSAII (Michael W. Deem and Ramdas Pophale) SiO2 
 PCOD9143742
Probable space group: P 2/M
;
_chemical_formula_sum "Si O2"
_cell_formula_units_Z 24
_cell_length_a 15.694501
_cell_length_b 7.556829
_cell_length_c 15.325008
_cell_angle_alpha 90.000000
_cell_angle_beta 140.186214
_cell_angle_gamma 90.000000
_cell_volume 1163.771224
_symmetry_space_group_name_H-M "P 2/M"
_symmetry_group_IT_number 10
_symmetry_cell_setting 'monoclinic'
loop_
_space_group_symop_operation_xyz
x,y,z
-x,y,-z
-x,-y,-z
x,-y,z
loop_
_atom_site_type_symbol
_atom_site_label
_atom_site_fract_x
_atom_site_fract_y
_atom_site_fract_z
Si Si1 0.915115 0.283895 0.848020
Si Si2 0.114172 0.210235 0.653551
Si Si3 0.888446 0.710623 0.145248
Si Si4 0.418710 0.711304 0.852200
Si Si5 0.382375 0.283513 0.343790
Si Si6 0.394859 0.716746 0.153511
O O1 0.912391 0.500000 0.845097
O O2 0.763131 0.225888 0.738267
O O3 0.992810 0.222494 0.822894
O O4 0.000000 0.232657 0.000000
O O5 0.094564 0.260457 0.738953
O O6 0.262613 0.258413 0.740095
O O7 0.000000 0.284066 0.500000
O O8 0.106181 0.000000 0.643881
O O9 0.884451 0.500000 0.128562
O O10 0.745118 0.776050 0.998741
O O11 0.438260 0.500000 0.867703
O O12 0.486115 0.776170 0.816029
O O13 0.500000 0.781473 0.000000
O O14 0.500000 0.225829 0.500000
O O15 0.382048 0.500000 0.343583
O O16 0.404089 0.227111 0.260949
O O17 0.394453 0.500000 0.154096
#
# Coordination Sequence:
#
# PCOD9143742 Si02
#       6
#     4   4   4   4   4   4
#     4   9  15  25  46  75 104 136 171 209 260 316
#     4  11  25  41  54  75 110 146 181 227 278 324
#     4  10  18  32  56  81 105 138 181 224 265 315
#     4  10  19  34  58  84 107 136 177 224 272 321
#     4   9  16  25  39  68 109 140 164 204 258 313
#     4   9  16  28  48  76 109 137 166 215 267 311
#
# _framework density 20.622610000000002
#
# number of rings (size 3 to 8) (size 9 to 14) (size 15 to 20)
#    0.000    2.333    3.333    0.500    0.000    3.000 
#    0.000    3.333    0.000    0.500    0.000    0.000 
#    0.000    4.667    0.000    0.000    0.000    0.000 
#
# Total GULP energy -134013.758600 kJ/mol
# GULP energy per Si atom -5583.906608 kJ/mol
# Density = 2.057567 g / cm^3
# Si number density = 20.622610 Si / 1000 Ang^3
#
#
#
# Elastic Constant Matrix: (Units=GPa)
#
#
# Indices 1 2 3 4 5 6 
#
# 1 260.5808 2.4474 138.5551 0.0000 0.4079 0.0000
# 2 2.4474 43.4162 -3.2304 0.0000 -0.1020 0.0000
# 3 138.5551 -3.2304 208.9905 0.0000 0.0736 0.0000
# 4 0.0000 0.0000 0.0000 7.6843 0.0000 5.8341
# 5 0.4079 -0.1020 0.0736 0.0000 35.5660 0.0000
# 6 0.0000 0.0000 0.0000 5.8341 0.0000 -36.8612
#
#
#
# Elastic Compliance Matrix: (Units=1/GPa)
#
#
# Indices 1 2 3 4 5 6 
#
# 1 0.005944 -0.000629 -0.003951 0.000000 -0.000062 0.000000
# 2 -0.000629 0.023126 0.000775 0.000000 0.000072 0.000000
# 3 -0.003951 0.000775 0.007416 0.000000 0.000032 0.000000
# 4 0.000000 0.000000 0.000000 0.116175 0.000000 0.018387
# 5 -0.000062 0.000072 0.000032 0.000000 0.028118 0.000000
# 6 0.000000 0.000000 0.000000 0.018387 0.000000 -0.024219
#
#
# Mechanical properties :
#
#
# Convention : Reuss Voigt Hill
#
# Bulk Modulus (GPa) = 34.63081 87.61462 61.12272
# Shear Modulus (GPa) = 28.76939 26.29218 27.53078
#
# Velocity S-wave (km/s) = 3.73908 3.57448 3.65770
# Velocity P-wave (km/s) = 5.95567 7.72093 6.89503
#
# Compressibility (1/GPa) = 0.02887602
#
# Stress axis : x y z
#
# Youngs Moduli (GPa) = 168.23303 43.24110 134.84453
#
# Poissons Ratio (x) = 0.02721 0.53270
# Poissons Ratio (y) = 0.10585 -0.10444
# Poissons Ratio (z) = 0.66461 -0.03349
#
# Static dielectric constant tensor:
#      x y z
#    x 2.220290 0.000000 -0.025830 
#    y 0.000000 1.772810 0.000000 
#    z -0.025830 0.000000 1.703280 
# 
# From -- ./inp_files/33956.got.cif
#   From: 2010.05.17/outbox.cif.g08.bks.cpg/sg10_17_cif.got.tgz:33956.got - 2010.06.03 11:33:40.
