data_PCOD9143561
_publ_section_title
;
Structure prediction by ZEFSAII (Michael W. Deem and Ramdas Pophale) SiO2 
 PCOD9143561
Probable space group: P 2/M
;
_chemical_formula_sum "Si O2"
_cell_formula_units_Z 32
_cell_length_a 24.855910
_cell_length_b 7.891874
_cell_length_c 18.112979
_cell_angle_alpha 90.000000
_cell_angle_beta 26.628875
_cell_angle_gamma 90.000000
_cell_volume 1592.505347
_symmetry_space_group_name_H-M "P 2/M"
_symmetry_group_IT_number 10
_symmetry_cell_setting 'monoclinic'
loop_
_space_group_symop_operation_xyz
x,y,z
-x,y,-z
-x,-y,-z
x,-y,z
loop_
_atom_site_type_symbol
_atom_site_label
_atom_site_fract_x
_atom_site_fract_y
_atom_site_fract_z
Si Si1 0.808141 0.791809 0.414584
Si Si2 0.139213 0.199847 0.489402
Si Si3 0.601936 0.803891 0.559254
Si Si4 0.647900 0.299592 0.188597
Si Si5 0.145381 0.801697 0.321625
Si Si6 0.038856 0.795922 0.036575
Si Si7 0.692033 0.696117 0.292250
Si Si8 0.135263 0.301806 0.173841
O O1 0.806972 0.732352 0.500529
O O2 0.695702 0.733100 0.503733
O O3 0.932151 0.742904 0.222128
O O4 0.807615 0.000000 0.414743
O O5 0.179681 0.270529 0.360006
O O6 0.994699 0.216484 0.672476
O O7 0.166356 0.000000 0.452999
O O8 0.471530 0.723154 0.712120
O O9 0.662198 0.789145 0.404593
O O10 0.583416 0.000000 0.599733
O O11 0.668568 0.500000 0.172386
O O12 0.631892 0.233066 0.291509
O O13 0.765259 0.229823 0.003684
O O14 0.182749 0.716094 0.199610
O O15 0.000000 0.793849 0.500000
O O16 0.178823 0.000000 0.276194
O O17 0.054633 0.000000 0.023410
O O18 0.165580 0.709344 0.896429
O O19 0.000000 0.759975 0.000000
O O20 0.655540 0.500000 0.348243
O O21 0.116165 0.500000 0.182203
#
# Coordination Sequence:
#
# PCOD9143561 Si02
#       8
#     4   4   4   4   4   4   4   4
#     4   9  18  33  52  74 102 132 163 206 253 292
#     4   9  17  31  52  77 105 134 161 196 246 301
#     4  11  22  37  55  74  96 129 175 215 251 296
#     4  10  23  39  51  70 101 134 169 212 254 293
#     4   8  15  28  48  75 104 131 161 196 241 299
#     4  10  18  32  52  74 103 131 162 207 251 293
#     4  11  22  36  53  73 101 133 168 209 254 302
#     4  10  19  32  51  75 105 133 162 203 248 294
#
# _framework density 20.094124999999998
#
# number of rings (size 3 to 8) (size 9 to 14) (size 15 to 20)
#    0.000    2.250    1.250    3.000    0.000    6.000 
#    0.000    1.250    0.000    0.750    0.000    5.250 
#    0.000    0.000    0.000    0.000    0.000    0.000 
#
# Total GULP energy -178566.093224 kJ/mol
# GULP energy per Si atom -5580.190413 kJ/mol
# Density = 2.004839 g / cm^3
# Si number density = 20.094125 Si / 1000 Ang^3
#
#
#
# Elastic Constant Matrix: (Units=GPa)
#
#
# Indices 1 2 3 4 5 6 
#
# 1 122.6290 -3.9455 22.3916 0.0000 14.3159 0.0000
# 2 -3.9455 17.6009 -9.1680 0.0000 6.0101 0.0000
# 3 22.3916 -9.1680 26.6974 0.0000 0.5142 0.0000
# 4 0.0000 0.0000 0.0000 18.2123 0.0000 -10.0188
# 5 14.3159 6.0101 0.5142 0.0000 24.9330 0.0000
# 6 0.0000 0.0000 0.0000 -10.0188 0.0000 -0.6959
#
#
#
# Elastic Compliance Matrix: (Units=1/GPa)
#
#
# Indices 1 2 3 4 5 6 
#
# 1 0.010405 -0.000239 -0.008699 0.000000 -0.005737 0.000000
# 2 -0.000239 0.077424 0.027156 0.000000 -0.019085 0.000000
# 3 -0.008699 0.027156 0.054129 0.000000 -0.002668 0.000000
# 4 0.000000 0.000000 0.000000 0.006156 0.000000 -0.088623
# 5 -0.005737 -0.019085 -0.002668 0.000000 0.048057 0.000000
# 6 0.000000 0.000000 0.000000 -0.088623 0.000000 -0.161100
#
#
# Mechanical properties :
#
#
# Convention : Reuss Voigt Hill
#
# Bulk Modulus (GPa) = 5.60558 20.60927 13.10742
# Shear Modulus (GPa) = 86.05922 18.99985 52.52954
#
# Velocity S-wave (km/s) = 6.55141 3.07830 5.11845
# Velocity P-wave (km/s) = 7.74750 4.78678 6.43960
#
# Compressibility (1/GPa) = 0.17839378
#
# Stress axis : x y z
#
# Youngs Moduli (GPa) = 96.10686 12.91597 18.47427
#
# Poissons Ratio (x) = 0.00309 0.16070
# Poissons Ratio (y) = 0.02301 -0.50169
# Poissons Ratio (z) = 0.83600 -0.35075
#
# Static dielectric constant tensor:
#      x y z
#    x 1.759000 0.000000 0.024510 
#    y 0.000000 1.728920 0.000000 
#    z 0.024510 0.000000 1.690910 
# 
# From -- ./inp_files/79942.got.cif
#   From: 2010.05.17/outbox.cif.g08.bks.cpg/sg10_40_cif.got.tgz:79942.got - 2010.06.03 11:33:40.
