data_PCOD9143655
_publ_section_title
;
Structure prediction by ZEFSAII (Michael W. Deem and Ramdas Pophale) SiO2 
 PCOD9143655
Probable space group: P 2/M
;
_chemical_formula_sum "Si O2"
_cell_formula_units_Z 32
_cell_length_a 25.526883
_cell_length_b 7.451822
_cell_length_c 15.761907
_cell_angle_alpha 90.000000
_cell_angle_beta 27.821153
_cell_angle_gamma 90.000000
_cell_volume 1399.326609
_symmetry_space_group_name_H-M "P 2/M"
_symmetry_group_IT_number 10
_symmetry_cell_setting 'monoclinic'
loop_
_space_group_symop_operation_xyz
x,y,z
-x,y,-z
-x,-y,-z
x,-y,z
loop_
_atom_site_type_symbol
_atom_site_label
_atom_site_fract_x
_atom_site_fract_y
_atom_site_fract_z
Si Si1 0.622201 0.719314 0.858628
Si Si2 0.026543 0.785831 0.368705
Si Si3 0.610346 0.704988 0.382552
Si Si4 0.666368 0.280968 0.487922
Si Si5 0.140050 0.715032 0.545274
Si Si6 0.261418 0.790108 0.963279
Si Si7 0.911162 0.719324 0.198248
Si Si8 0.422420 0.283725 0.889956
O O1 0.622015 0.500000 0.856153
O O2 0.731466 0.779625 0.649940
O O3 0.500000 0.775998 0.000000
O O4 0.631640 0.774280 0.943781
O O5 0.929240 0.755110 0.440076
O O6 0.000000 0.713778 0.500000
O O7 0.041226 0.000000 0.356430
O O8 0.144382 0.715145 0.164877
O O9 0.500000 0.792718 0.500000
O O10 0.577494 0.500000 0.451904
O O11 0.653492 0.780039 0.408967
O O12 0.699738 0.703125 0.179707
O O13 0.669489 0.500000 0.486984
O O14 0.785237 0.223954 0.354036
O O15 0.552291 0.225495 0.698366
O O16 0.147395 0.500000 0.542255
O O17 0.076511 0.777763 0.721420
O O18 0.353985 0.771898 0.904759
O O19 0.248550 0.000000 0.962745
O O20 0.916356 0.500000 0.189452
O O21 0.000000 0.780332 0.000000
O O22 0.422563 0.500000 0.889586
#
# Coordination Sequence:
#
# PCOD9143655 Si02
#       8
#     4   4   4   4   4   4   4   4
#     4   9  17  30  53  84 113 137 168 222 282 322
#     4  10  23  42  59  76 108 153 188 221 279 343
#     4  10  19  34  55  81 109 141 183 223 269 329
#     4   9  17  30  50  75 107 144 177 212 260 323
#     4  10  20  34  56  86 111 138 186 235 270 317
#     4  11  23  36  53  78 107 140 182 226 276 327
#     4   9  18  31  49  78 112 143 176 219 271 320
#     4  10  18  32  54  78 106 140 176 216 267 328
#
# _framework density 22.868141000000001
#
# number of rings (size 3 to 8) (size 9 to 14) (size 15 to 20)
#    0.000    2.250    1.250    1.875    1.750    4.500 
#    0.000    0.000    0.000    4.875    0.000    0.000 
#    0.000    0.000    0.000    0.000    0.000    0.000 
#
# Total GULP energy -178803.143013 kJ/mol
# GULP energy per Si atom -5587.598219 kJ/mol
# Density = 2.281609 g / cm^3
# Si number density = 22.868141 Si / 1000 Ang^3
#
#
#
# Elastic Constant Matrix: (Units=GPa)
#
#
# Indices 1 2 3 4 5 6 
#
# 1 98.1446 -10.0280 39.8848 0.0000 14.0328 0.0000
# 2 -10.0280 67.0551 -3.9137 0.0000 2.3718 0.0000
# 3 39.8848 -3.9137 158.2679 0.0000 12.1420 0.0000
# 4 0.0000 0.0000 0.0000 -6.9949 0.0000 -0.7772
# 5 14.0328 2.3718 12.1420 0.0000 44.3564 0.0000
# 6 0.0000 0.0000 0.0000 -0.7772 0.0000 40.1553
#
#
#
# Elastic Compliance Matrix: (Units=1/GPa)
#
#
# Indices 1 2 3 4 5 6 
#
# 1 0.011918 0.001734 -0.002721 0.000000 -0.003118 0.000000
# 2 0.001734 0.015224 0.000045 0.000000 -0.001375 0.000000
# 3 -0.002721 0.000045 0.007088 0.000000 -0.001082 0.000000
# 4 0.000000 0.000000 0.000000 -0.142655 0.000000 -0.002761
# 5 -0.003118 -0.001375 -0.001082 0.000000 0.023901 0.000000
# 6 0.000000 0.000000 0.000000 -0.002761 0.000000 0.024850
#
#
# Mechanical properties :
#
#
# Convention : Reuss Voigt Hill
#
# Bulk Modulus (GPa) = 30.91686 41.70599 36.31142
# Shear Modulus (GPa) = -106.36504 35.33833 -35.51335
#
# Velocity S-wave (km/s) = -6.82739 3.93531 -3.94504
# Velocity P-wave (km/s) = 6.97152 6.23907 2.19955
#
# Compressibility (1/GPa) = 0.03234482
#
# Stress axis : x y z
#
# Youngs Moduli (GPa) = 83.90701 65.68728 141.07743
#
# Poissons Ratio (x) = -0.11389 0.38392
# Poissons Ratio (y) = -0.14548 -0.00635
# Poissons Ratio (z) = 0.22834 -0.00296
#
# Static dielectric constant tensor:
#      x y z
#    x 1.819760 0.000000 0.018070 
#    y 0.000000 1.890760 0.000000 
#    z 0.018070 0.000000 1.853080 
# 
# From -- ./inp_files/71491.got.cif
#   From: 2010.05.17/outbox.cif.g08.bks.cpg/sg10_36_cif.got.tgz:71491.got - 2010.06.03 11:33:40.
