data_PCOD9143222
_publ_section_title
;
Structure prediction by ZEFSAII (Michael W. Deem and Ramdas Pophale) SiO2 
 PCOD9143222
Probable space group: P 2/M
;
_chemical_formula_sum "Si O2"
_cell_formula_units_Z 32
_cell_length_a 20.341594
_cell_length_b 8.885936
_cell_length_c 17.385420
_cell_angle_alpha 90.000000
_cell_angle_beta 143.261958
_cell_angle_gamma 90.000000
_cell_volume 1879.701124
_symmetry_space_group_name_H-M "P 2/M"
_symmetry_group_IT_number 10
_symmetry_cell_setting 'monoclinic'
loop_
_space_group_symop_operation_xyz
x,y,z
-x,y,-z
-x,-y,-z
x,-y,z
loop_
_atom_site_type_symbol
_atom_site_label
_atom_site_fract_x
_atom_site_fract_y
_atom_site_fract_z
Si Si1 0.878800 0.682554 0.106736
Si Si2 0.639268 0.317210 0.925568
Si Si3 0.601755 0.317121 0.342327
Si Si4 0.026840 0.820520 0.111991
Si Si5 0.749907 0.821231 0.345421
Si Si6 0.062811 0.673471 0.390137
Si Si7 0.786932 0.326569 0.623906
Si Si8 0.375876 0.318816 0.910537
O O1 0.884730 0.500000 0.108715
O O2 0.941998 0.748129 0.092859
O O3 0.945547 0.725733 0.247151
O O4 0.752760 0.731835 0.993562
O O5 0.639777 0.500000 0.924888
O O6 0.525065 0.270588 0.779453
O O7 0.637403 0.273322 0.013376
O O8 0.608678 0.500000 0.342219
O O9 0.665540 0.248709 0.329152
O O10 0.668582 0.274795 0.481894
O O11 0.147799 0.769146 0.252701
O O12 0.018785 0.000000 0.109348
O O13 0.000000 0.772855 0.000000
O O14 0.871094 0.768001 0.485292
O O15 0.711004 0.757670 0.227324
O O16 0.743000 0.000000 0.340976
O O17 0.054894 0.500000 0.408367
O O18 0.138603 0.675703 0.384012
O O19 0.780554 0.500000 0.643477
O O20 0.363815 0.500000 0.893653
O O21 0.500000 0.282190 0.000000
#
# Coordination Sequence:
#
# PCOD9143222 Si02
#       8
#     4   4   4   4   4   4   4   4
#     4   9  18  33  53  76  97 121 158 202 238 279
#     4   9  17  31  52  73  94 124 162 199 241 291
#     4   9  16  30  49  70  96 126 160 197 240 287
#     4  10  20  33  51  75 102 130 157 188 231 285
#     4  11  20  28  43  68  96 124 162 209 246 278
#     4   8  15  29  47  66  91 122 158 198 242 286
#     4   8  15  27  48  75  98 121 156 201 237 272
#     4  10  18  31  50  68  91 128 165 200 247 291
#
# _framework density 17.023983999999999
#
# number of rings (size 3 to 8) (size 9 to 14) (size 15 to 20)
#    0.000    2.750    1.250    3.000    0.000    5.750 
#    0.000    1.875    0.000    4.500    0.000    5.250 
#    0.000    0.000    0.000    0.000    0.000    0.000 
#
# Total GULP energy -178298.514650 kJ/mol
# GULP energy per Si atom -5571.828583 kJ/mol
# Density = 1.698524 g / cm^3
# Si number density = 17.023984 Si / 1000 Ang^3
#
#
#
# Elastic Constant Matrix: (Units=GPa)
#
#
# Indices 1 2 3 4 5 6 
#
# 1 53.2881 17.7437 58.6548 0.0000 6.4413 0.0000
# 2 17.7437 28.7615 39.0416 0.0000 -2.7645 0.0000
# 3 58.6548 39.0416 168.7258 0.0000 5.5600 0.0000
# 4 0.0000 0.0000 0.0000 -146.6097 0.0000 39.2926
# 5 6.4413 -2.7645 5.5600 0.0000 24.5543 0.0000
# 6 0.0000 0.0000 0.0000 39.2926 0.0000 -4.9406
#
#
#
# Elastic Compliance Matrix: (Units=1/GPa)
#
#
# Indices 1 2 3 4 5 6 
#
# 1 0.032475 -0.008387 -0.009105 0.000000 -0.007402 0.000000
# 2 -0.008387 0.054648 -0.010080 0.000000 0.010635 0.000000
# 3 -0.009105 -0.010080 0.011469 0.000000 -0.001343 0.000000
# 4 0.000000 0.000000 0.000000 0.006028 0.000000 0.047943
# 5 -0.007402 0.010635 -0.001343 0.000000 0.044169 0.000000
# 6 0.000000 0.000000 0.000000 0.047943 0.000000 0.178887
#
#
# Mechanical properties :
#
#
# Convention : Reuss Voigt Hill
#
# Bulk Modulus (GPa) = 23.01600 53.51726 38.26663
# Shear Modulus (GPa) = 12.58489 -16.37684 -1.89598
#
# Velocity S-wave (km/s) = 2.72185 -3.10496 -1.05647
# Velocity P-wave (km/s) = 4.84015 4.31860 4.58680
#
# Compressibility (1/GPa) = 0.04344803
#
# Stress axis : x y z
#
# Youngs Moduli (GPa) = 30.79281 18.29904 87.19479
#
# Poissons Ratio (x) = 0.15347 0.79390
# Poissons Ratio (y) = 0.25826 0.87891
# Poissons Ratio (z) = 0.28036 0.18445
#
# Static dielectric constant tensor:
#      x y z
#    x 1.553940 0.000000 0.023490 
#    y 0.000000 1.565350 0.000000 
#    z 0.023490 0.000000 1.612890 
# 
# From -- ./inp_files/79991.got.cif
#   From: 2010.05.17/outbox.cif.g08.bks.cpg/sg10_40_cif.got.tgz:79991.got - 2010.06.03 11:33:40.
