data_PCOD9143581
_publ_section_title
;
Structure prediction by ZEFSAII (Michael W. Deem and Ramdas Pophale) SiO2 
 PCOD9143581
Probable space group: P 2/M
;
_chemical_formula_sum "Si O2"
_cell_formula_units_Z 32
_cell_length_a 20.236018
_cell_length_b 7.317516
_cell_length_c 26.087137
_cell_angle_alpha 90.000000
_cell_angle_beta 158.640714
_cell_angle_gamma 90.000000
_cell_volume 1406.931950
_symmetry_space_group_name_H-M "P 2/M"
_symmetry_group_IT_number 10
_symmetry_cell_setting 'monoclinic'
loop_
_space_group_symop_operation_xyz
x,y,z
-x,y,-z
-x,-y,-z
x,-y,z
loop_
_atom_site_type_symbol
_atom_site_label
_atom_site_fract_x
_atom_site_fract_y
_atom_site_fract_z
Si Si1 0.291549 0.777093 0.352308
Si Si2 0.940064 0.222725 0.715820
Si Si3 0.644886 0.778851 0.965823
Si Si4 0.619856 0.222168 0.831690
Si Si5 0.761525 0.223448 0.480605
Si Si6 0.999520 0.222953 0.940845
Si Si7 0.012539 0.793184 0.452327
Si Si8 0.380414 0.709053 0.867269
O O1 0.500000 0.717528 0.500000
O O2 0.185760 0.720515 0.327442
O O3 0.172253 0.720394 0.217161
O O4 0.293187 0.000000 0.353881
O O5 0.860593 0.282402 0.603902
O O6 0.940336 0.000000 0.716469
O O7 0.148631 0.278746 0.873681
O O8 0.593724 0.721637 0.871563
O O9 0.504845 0.712768 0.906936
O O10 0.640507 0.000000 0.964379
O O11 0.448551 0.276977 0.673992
O O12 0.623531 0.000000 0.834276
O O13 0.814275 0.281744 0.951561
O O14 0.860232 0.286649 0.499917
O O15 0.770160 0.000000 0.486713
O O16 0.998452 0.000000 0.940003
O O17 0.000000 0.281634 0.000000
O O18 0.810931 0.799274 0.283329
O O19 0.000000 0.708272 0.500000
O O20 0.083089 0.000000 0.511908
O O21 0.336781 0.500000 0.849875
O O22 0.500000 0.788236 0.000000
#
# Coordination Sequence:
#
# PCOD9143581 Si02
#       8
#     4   4   4   4   4   4   4   4
#     4   9  16  24  34  53  86 127 163 193 233 292
#     4   9  16  26  40  62  90 123 164 203 243 293
#     4  10  18  32  53  71  94 131 172 213 254 303
#     4   9  16  27  42  64  92 124 165 205 243 291
#     4   9  17  26  41  64  88 117 156 205 250 289
#     4   9  16  24  35  55  87 129 166 194 235 293
#     4  10  20  36  56  79 104 133 176 220 262 316
#     4  11  24  38  53  77 107 137 172 216 270 325
#
# _framework density 22.744524999999999
#
# number of rings (size 3 to 8) (size 9 to 14) (size 15 to 20)
#    0.000    2.500    1.250    1.875    1.750    4.250 
#    0.000    0.000    0.000    0.000    0.000    0.000 
#    0.000    1.000    0.000    0.500    0.000    0.000 
#
# Total GULP energy -178898.648095 kJ/mol
# GULP energy per Si atom -5590.582753 kJ/mol
# Density = 2.269276 g / cm^3
# Si number density = 22.744525 Si / 1000 Ang^3
#
#
#
# Elastic Constant Matrix: (Units=GPa)
#
#
# Indices 1 2 3 4 5 6 
#
# 1 109.8218 -5.7567 32.7709 0.0000 -6.4570 0.0000
# 2 -5.7567 90.4095 -3.5784 0.0000 -3.4223 0.0000
# 3 32.7709 -3.5784 133.1780 0.0000 -2.1934 0.0000
# 4 0.0000 0.0000 0.0000 -7.4343 0.0000 17.8318
# 5 -6.4570 -3.4223 -2.1934 0.0000 46.6548 0.0000
# 6 0.0000 0.0000 0.0000 17.8318 0.0000 24.0077
#
#
#
# Elastic Compliance Matrix: (Units=1/GPa)
#
#
# Indices 1 2 3 4 5 6 
#
# 1 0.009931 0.000586 -0.002407 0.000000 0.001304 0.000000
# 2 0.000586 0.011139 0.000170 0.000000 0.000906 0.000000
# 3 -0.002407 0.000170 0.008106 0.000000 0.000061 0.000000
# 4 0.000000 0.000000 0.000000 -0.048358 0.000000 0.035918
# 5 0.001304 0.000906 0.000061 0.000000 0.021684 0.000000
# 6 0.000000 0.000000 0.000000 0.035918 0.000000 0.014975
#
#
# Mechanical properties :
#
#
# Convention : Reuss Voigt Hill
#
# Bulk Modulus (GPa) = 38.64497 42.25344 40.44920
# Shear Modulus (GPa) = 170.05128 33.31055 101.68091
#
# Velocity S-wave (km/s) = 8.65610 3.83110 6.69348
# Velocity P-wave (km/s) = 10.81351 6.17960 8.80680
#
# Compressibility (1/GPa) = 0.02587659
#
# Stress axis : x y z
#
# Youngs Moduli (GPa) = 100.69277 89.77339 123.35818
#
# Poissons Ratio (x) = -0.05265 0.29686
# Poissons Ratio (y) = -0.05905 -0.02096
# Poissons Ratio (z) = 0.24232 -0.01525
#
# Static dielectric constant tensor:
#      x y z
#    x 1.785250 0.000000 -0.014040 
#    y 0.000000 1.907460 0.000000 
#    z -0.014040 0.000000 1.794290 
# 
# From -- ./inp_files/93764.got.cif
#   From: 2010.05.17/outbox.cif.g08.bks.cpg/sg10_47_cif.got.tgz:93764.got - 2010.06.03 11:33:40.
