data_PCOD9143923
_publ_section_title
;
Structure prediction by ZEFSAII (Michael W. Deem and Ramdas Pophale) SiO2 
 PCOD9143923
Probable space group: P 2/M
;
_chemical_formula_sum "Si O2"
_cell_formula_units_Z 28
_cell_length_a 9.902857
_cell_length_b 8.616283
_cell_length_c 28.364940
_cell_angle_alpha 90.000000
_cell_angle_beta 141.260929
_cell_angle_gamma 90.000000
_cell_volume 1514.538552
_symmetry_space_group_name_H-M "P 2/M"
_symmetry_group_IT_number 10
_symmetry_cell_setting 'monoclinic'
loop_
_space_group_symop_operation_xyz
x,y,z
-x,y,-z
-x,-y,-z
x,-y,z
loop_
_atom_site_type_symbol
_atom_site_label
_atom_site_fract_x
_atom_site_fract_y
_atom_site_fract_z
Si Si1 0.152507 0.687838 0.634588
Si Si2 0.740570 0.816844 0.054681
Si Si3 0.553129 0.815505 0.368609
Si Si4 0.176649 0.314850 0.204421
Si Si5 0.467882 0.688206 0.195196
Si Si6 0.654873 0.687839 0.499254
Si Si7 0.764930 0.319121 0.959697
O O1 0.160309 0.500000 0.634182
O O2 0.263070 0.750217 0.616924
O O3 0.306322 0.736731 0.719996
O O4 0.905173 0.735511 0.573692
O O5 0.929258 0.734748 0.135367
O O6 0.752370 0.000000 0.067043
O O7 0.500000 0.760185 0.000000
O O8 0.773686 0.780455 0.008847
O O9 0.325088 0.762658 0.284378
O O10 0.580444 0.749520 0.428344
O O11 0.567981 0.000000 0.373244
O O12 0.195706 0.500000 0.213958
O O13 0.285484 0.268869 0.183891
O O14 0.466504 0.500000 0.192540
O O15 0.403104 0.740325 0.125494
O O16 0.500000 0.738429 0.500000
O O17 0.649728 0.500000 0.496668
O O18 0.716556 0.500000 0.958580
O O19 0.000000 0.318754 0.000000
#
# Coordination Sequence:
#
# PCOD9143923 Si02
#       7
#     4   4   4   4   4   4   4
#     4   9  18  35  59  83 111 148 192 239 278 324
#     4  11  24  39  53  78 120 158 189 229 281 335
#     4  11  22  36  58  87 116 146 183 229 288 345
#     4  10  19  37  62  84 109 144 191 237 279 329
#     4   8  15  30  54  83 109 134 178 242 288 317
#     4  10  21  38  58  82 115 152 194 235 278 331
#     4  10  18  33  57  83 109 142 190 239 282 329
#
# _framework density 18.487479
#
# number of rings (size 3 to 8) (size 9 to 14) (size 15 to 20)
#    0.000    2.143    1.429    3.429    0.000    4.000 
#    2.571    0.714    0.000    0.000    0.000    0.000 
#    0.000    0.000    0.000    0.000    0.000    0.000 
#
# Total GULP energy -156249.554553 kJ/mol
# GULP energy per Si atom -5580.341234 kJ/mol
# Density = 1.844540 g / cm^3
# Si number density = 18.487479 Si / 1000 Ang^3
#
#
#
# Elastic Constant Matrix: (Units=GPa)
#
#
# Indices 1 2 3 4 5 6 
#
# 1 79.6903 15.8972 69.1626 0.0000 13.7398 0.0000
# 2 15.8972 18.2378 21.3374 0.0000 6.1762 0.0000
# 3 69.1626 21.3374 148.3822 0.0000 10.2138 0.0000
# 4 0.0000 0.0000 0.0000 21.2057 0.0000 0.3437
# 5 13.7398 6.1762 10.2138 0.0000 27.5021 0.0000
# 6 0.0000 0.0000 0.0000 0.3437 0.0000 12.9986
#
#
#
# Elastic Compliance Matrix: (Units=1/GPa)
#
#
# Indices 1 2 3 4 5 6 
#
# 1 0.023196 -0.007075 -0.009345 0.000000 -0.006529 0.000000
# 2 -0.007075 0.071880 -0.006333 0.000000 -0.010256 0.000000
# 3 -0.009345 -0.006333 0.011891 0.000000 0.001675 0.000000
# 4 0.000000 0.000000 0.000000 0.047177 0.000000 -0.001247
# 5 -0.006529 -0.010256 0.001675 0.000000 0.041304 0.000000
# 6 0.000000 0.000000 0.000000 -0.001247 0.000000 0.076965
#
#
# Mechanical properties :
#
#
# Convention : Reuss Voigt Hill
#
# Bulk Modulus (GPa) = 16.27033 51.01163 33.64098
# Shear Modulus (GPa) = 14.77517 21.66883 18.22200
#
# Velocity S-wave (km/s) = 2.83008 3.42728 3.14290
# Velocity P-wave (km/s) = 4.41576 6.58135 5.60415
#
# Compressibility (1/GPa) = 0.06146156
#
# Stress axis : x y z
#
# Youngs Moduli (GPa) = 43.11030 13.91205 84.09964
#
# Poissons Ratio (x) = 0.09842 0.78594
# Poissons Ratio (y) = 0.30499 0.53259
# Poissons Ratio (z) = 0.40288 0.08810
#
# Static dielectric constant tensor:
#      x y z
#    x 1.620720 0.000000 0.014060 
#    y 0.000000 1.630160 0.000000 
#    z 0.014060 0.000000 1.649210 
# 
# From -- ./inp_files/92105.got.cif
#   From: 2010.05.17/outbox.cif.g08.bks.cpg/sg10_47_cif.got.tgz:92105.got - 2010.06.03 11:33:40.
