data_PCOD9143463
_publ_section_title
;
Structure prediction by ZEFSAII (Michael W. Deem and Ramdas Pophale) SiO2 
 PCOD9143463
Probable space group: P 2/M
;
_chemical_formula_sum "Si O2"
_cell_formula_units_Z 32
_cell_length_a 31.569842
_cell_length_b 7.601238
_cell_length_c 11.931182
_cell_angle_alpha 90.000000
_cell_angle_beta 30.268280
_cell_angle_gamma 90.000000
_cell_volume 1443.156551
_symmetry_space_group_name_H-M "P 2/M"
_symmetry_group_IT_number 10
_symmetry_cell_setting 'monoclinic'
loop_
_space_group_symop_operation_xyz
x,y,z
-x,y,-z
-x,-y,-z
x,-y,z
loop_
_atom_site_type_symbol
_atom_site_label
_atom_site_fract_x
_atom_site_fract_y
_atom_site_fract_z
Si Si1 0.562156 0.203249 0.763440
Si Si2 0.624466 0.715007 0.042768
Si Si3 0.685593 0.713373 0.661778
Si Si4 0.272249 0.710698 0.985779
Si Si5 0.975215 0.713581 0.242233
Si Si6 0.440404 0.298134 0.484045
Si Si7 0.124574 0.286055 0.750785
Si Si8 0.079084 0.198592 0.386572
O O1 0.649247 0.214488 0.629855
O O2 0.562970 0.296035 0.643121
O O3 0.538992 0.000000 0.796637
O O4 0.500000 0.280348 0.000000
O O5 0.622604 0.500000 0.045266
O O6 0.701494 0.767192 0.947713
O O7 0.533636 0.776032 0.296684
O O8 0.636872 0.770589 0.885803
O O9 0.682240 0.500000 0.665241
O O10 0.780817 0.771084 0.457125
O O11 0.276435 0.500000 0.975645
O O12 0.352298 0.778068 0.730244
O O13 0.177562 0.746396 0.161006
O O14 0.971427 0.500000 0.261219
O O15 0.915580 0.767262 0.275488
O O16 0.947911 0.790218 0.422146
O O17 0.066984 0.765653 0.987292
O O18 0.442434 0.500000 0.519456
O O19 0.122708 0.500000 0.753741
O O20 0.000000 0.285594 0.500000
O O21 0.082686 0.000000 0.335824
#
# Coordination Sequence:
#
# PCOD9143463 Si02
#       8
#     4   4   4   4   4   4   4   4
#     4  11  23  37  51  72 109 152 191 226 263 311
#     4   9  17  32  58  89 118 144 176 227 281 329
#     4  10  18  31  55  83 112 146 185 223 272 329
#     4  10  21  38  62  90 113 139 184 235 282 334
#     4   9  17  35  61  84 111 141 178 228 283 334
#     4  10  20  36  60  87 114 147 186 228 277 333
#     4   8  16  31  56  90 115 136 173 231 287 331
#     4  11  25  42  57  77 112 154 192 231 280 333
#
# _framework density 22.173615999999999
#
# number of rings (size 3 to 8) (size 9 to 14) (size 15 to 20)
#    0.000    2.250    1.250    2.625    0.000    6.500 
#    0.000    8.750    0.000    1.500    0.000    0.000 
#    0.000    0.000    0.000    0.000    0.000    0.000 
#
# Total GULP energy -178519.719167 kJ/mol
# GULP energy per Si atom -5578.741224 kJ/mol
# Density = 2.212315 g / cm^3
# Si number density = 22.173616 Si / 1000 Ang^3
#
#
#
# Elastic Constant Matrix: (Units=GPa)
#
#
# Indices 1 2 3 4 5 6 
#
# 1 93.1449 3.7232 53.8922 0.0000 -24.6948 0.0000
# 2 3.7232 49.4729 3.1851 0.0000 -6.6108 0.0000
# 3 53.8922 3.1851 124.8588 0.0000 -31.8153 0.0000
# 4 0.0000 0.0000 0.0000 1046.5901 0.0000 -346.5693
# 5 -24.6948 -6.6108 -31.8153 0.0000 38.4376 0.0000
# 6 0.0000 0.0000 0.0000 -346.5693 0.0000 134.4249
#
#
#
# Elastic Compliance Matrix: (Units=1/GPa)
#
#
# Indices 1 2 3 4 5 6 
#
# 1 0.015170 -0.000079 -0.005152 0.000000 0.005468 0.000000
# 2 -0.000079 0.020712 0.000508 0.000000 0.003931 0.000000
# 3 -0.005152 0.000508 0.011911 0.000000 0.006636 0.000000
# 4 0.000000 0.000000 0.000000 0.006533 0.000000 0.016842
# 5 0.005468 0.003931 0.006636 0.000000 0.035698 0.000000
# 6 0.000000 0.000000 0.000000 0.016842 0.000000 0.050861
#
#
# Mechanical properties :
#
#
# Convention : Reuss Voigt Hill
#
# Bulk Modulus (GPa) = 26.07949 43.23081 34.65515
# Shear Modulus (GPa) = 30.65352 257.66893 144.16123
#
# Velocity S-wave (km/s) = 3.72214 10.79155 8.07192
# Velocity P-wave (km/s) = 5.50086 13.22178 10.12608
#
# Compressibility (1/GPa) = 0.03834431
#
# Stress axis : x y z
#
# Youngs Moduli (GPa) = 65.92016 48.28184 83.95666
#
# Poissons Ratio (x) = 0.00383 0.43258
# Poissons Ratio (y) = 0.00523 -0.04262
# Poissons Ratio (z) = 0.33965 -0.02451
#
# Static dielectric constant tensor:
#      x y z
#    x 1.810260 0.000000 -0.040930 
#    y 0.000000 1.856790 0.000000 
#    z -0.040930 0.000000 1.841600 
# 
# From -- ./inp_files/58120.got.cif
#   From: 2010.05.17/outbox.cif.g08.bks.cpg/sg10_30_cif.got.tgz:58120.got - 2010.06.03 11:33:40.
