data_PCOD9143645
_publ_section_title
;
Structure prediction by ZEFSAII (Michael W. Deem and Ramdas Pophale) SiO2 
 PCOD9143645
Probable space group: P 2/M
;
_chemical_formula_sum "Si O2"
_cell_formula_units_Z 32
_cell_length_a 9.562209
_cell_length_b 13.784949
_cell_length_c 25.531398
_cell_angle_alpha 90.000000
_cell_angle_beta 28.555817
_cell_angle_gamma 90.000000
_cell_volume 1608.715385
_symmetry_space_group_name_H-M "P 2/M"
_symmetry_group_IT_number 10
_symmetry_cell_setting 'monoclinic'
loop_
_space_group_symop_operation_xyz
x,y,z
-x,y,-z
-x,-y,-z
x,-y,z
loop_
_atom_site_type_symbol
_atom_site_label
_atom_site_fract_x
_atom_site_fract_y
_atom_site_fract_z
Si Si1 0.642617 0.184092 0.226689
Si Si2 0.097142 0.392463 0.731496
Si Si3 0.873361 0.112453 0.665876
Si Si4 0.381624 0.889415 0.415586
Si Si5 0.246852 0.200226 0.625898
Si Si6 0.309043 0.109172 0.009273
Si Si7 0.840786 0.607235 0.162467
Si Si8 0.532352 0.317740 0.052934
O O1 0.454739 0.128148 0.245425
O O2 0.457138 0.175239 0.341061
O O3 0.670588 0.296574 0.201733
O O4 0.965702 0.138455 0.130293
O O5 0.181810 0.500000 0.685972
O O6 0.754650 0.372212 0.833923
O O7 0.251578 0.303396 0.652600
O O8 0.145130 0.387913 0.778468
O O9 0.098578 0.136652 0.543698
O O10 0.959948 0.175046 0.687647
O O11 0.930712 0.000000 0.659106
O O12 0.662976 0.878907 0.360754
O O13 0.346439 0.000000 0.408968
O O14 0.500000 0.197007 0.500000
O O15 0.324203 0.000000 0.981026
O O16 0.500000 0.104138 0.000000
O O17 0.434624 0.205815 0.939915
O O18 0.734094 0.500000 0.182830
O O19 0.171785 0.624002 0.033879
O O20 0.500000 0.313036 0.000000
#
# Coordination Sequence:
#
# PCOD9143645 Si02
#       8
#     4   4   4   4   4   4   4   4
#     4  11  19  32  54  82 109 140 178 222 272 321
#     4  10  18  32  54  77 103 138 184 227 266 310
#     4  10  21  36  53  76 110 145 176 220 271 322
#     4  10  19  33  55  80 103 135 184 227 266 320
#     4  10  21  36  52  77 108 142 179 222 267 320
#     4   9  17  27  43  75 115 140 163 208 262 317
#     4   9  17  30  51  79 109 137 171 224 277 313
#     4   8  15  27  46  76 107 131 165 217 271 314
#
# _framework density 19.891648
#
# number of rings (size 3 to 8) (size 9 to 14) (size 15 to 20)
#    0.000    2.375    1.250    3.000    0.000    4.250 
#    0.000    1.250    0.000    5.250    0.000    8.750 
#    0.000    0.000    0.000    0.000    0.000    0.000 
#
# Total GULP energy -178362.069007 kJ/mol
# GULP energy per Si atom -5573.814656 kJ/mol
# Density = 1.984637 g / cm^3
# Si number density = 19.891648 Si / 1000 Ang^3
#
#
#
# Elastic Constant Matrix: (Units=GPa)
#
#
# Indices 1 2 3 4 5 6 
#
# 1 43.4449 2.6372 17.8537 0.0000 -22.1094 0.0000
# 2 2.6372 87.4507 -2.9839 0.0000 -3.8610 0.0000
# 3 17.8537 -2.9839 15.2822 0.0000 -10.0950 0.0000
# 4 0.0000 0.0000 0.0000 19.4972 0.0000 0.3228
# 5 -22.1094 -3.8610 -10.0950 0.0000 17.5277 0.0000
# 6 0.0000 0.0000 0.0000 0.3228 0.0000 6.5162
#
#
#
# Elastic Compliance Matrix: (Units=1/GPa)
#
#
# Indices 1 2 3 4 5 6 
#
# 1 0.078226 -0.000545 -0.042600 0.000000 0.074019 0.000000
# 2 -0.000545 0.011946 0.006865 0.000000 0.005898 0.000000
# 3 -0.042600 0.006865 0.132430 0.000000 0.024048 0.000000
# 4 0.000000 0.000000 0.000000 0.051332 0.000000 -0.002543
# 5 0.074019 0.005898 0.024048 0.000000 0.165570 0.000000
# 6 0.000000 0.000000 0.000000 -0.002543 0.000000 0.153590
#
#
# Mechanical properties :
#
#
# Convention : Reuss Voigt Hill
#
# Bulk Modulus (GPa) = 6.66479 20.13243 13.39861
# Shear Modulus (GPa) = 6.98649 17.28628 12.13638
#
# Velocity S-wave (km/s) = 1.87614 2.95112 2.47275
# Velocity P-wave (km/s) = 2.83743 4.66424 3.86045
#
# Compressibility (1/GPa) = 0.15004222
#
# Stress axis : x y z
#
# Youngs Moduli (GPa) = 12.78346 83.70937 7.55115
#
# Poissons Ratio (x) = 0.04559 0.32168
# Poissons Ratio (y) = 0.00696 -0.05184
# Poissons Ratio (z) = 0.54458 -0.57467
#
# Static dielectric constant tensor:
#      x y z
#    x 1.733950 0.000000 -0.001210 
#    y 0.000000 1.708960 0.000000 
#    z -0.001210 0.000000 1.711830 
# 
# From -- ./inp_files/88252.got.cif
#   From: 2010.05.17/outbox.cif.g08.bks.cpg/sg10_45_cif.got.tgz:88252.got - 2010.06.03 11:33:40.
