data_PCOD9143354
_publ_section_title
;
Structure prediction by ZEFSAII (Michael W. Deem and Ramdas Pophale) SiO2 
 PCOD9143354
Probable space group: P 2/M
;
_chemical_formula_sum "Si O2"
_cell_formula_units_Z 24
_cell_length_a 8.622503
_cell_length_b 15.527022
_cell_length_c 10.030273
_cell_angle_alpha 90.000000
_cell_angle_beta 70.561538
_cell_angle_gamma 90.000000
_cell_volume 1266.326585
_symmetry_space_group_name_H-M "P 2/M"
_symmetry_group_IT_number 10
_symmetry_cell_setting 'monoclinic'
loop_
_space_group_symop_operation_xyz
x,y,z
-x,y,-z
-x,-y,-z
x,-y,z
loop_
_atom_site_type_symbol
_atom_site_label
_atom_site_fract_x
_atom_site_fract_y
_atom_site_fract_z
Si Si1 0.390317 0.782240 0.778947
Si Si2 0.335306 0.093232 0.330604
Si Si3 0.616693 0.594970 0.099338
Si Si4 0.000000 0.362648 0.000000
Si Si5 0.000000 0.164824 0.500000
Si Si6 0.046499 0.782815 0.770987
Si Si7 0.230928 0.098371 0.051563
O O1 0.548693 0.827217 0.674628
O O2 0.416421 0.682735 0.809847
O O3 0.240166 0.794371 0.721694
O O4 0.328702 0.836175 0.927660
O O5 0.161217 0.105936 0.451184
O O6 0.307871 0.095389 0.177871
O O7 0.407514 0.000000 0.343629
O O8 0.575384 0.500000 0.168673
O O9 0.818869 0.594954 0.030372
O O10 0.500000 0.602138 0.000000
O O11 0.012932 0.301195 0.867601
O O12 0.989454 0.220761 0.636075
O O13 0.948534 0.860991 0.869175
O O14 0.228214 0.000000 0.001317
#
# Coordination Sequence:
#
# PCOD9143354 Si02
#       7
#     4   4   4   2   2   4   4
#     4  11  20  33  55  83 114 141 193 236 282 342
#     4  10  21  35  53  77 112 155 192 231 282 340
#     4  10  20  33  56  92 123 148 182 241 305 345
#     4  10  19  38  61  86 118 150 199 236 287 344
#     4  10  23  38  54  74 113 158 191 230 284 342
#     4  10  20  36  53  82 112 149 192 230 282 338
#     4  10  18  31  52  80 113 148 183 230 282 333
#
# _framework density 18.952456999999999
#
# number of rings (size 3 to 8) (size 9 to 14) (size 15 to 20)
#    0.000    1.833    3.333    2.500    2.333    4.667 
#    0.000    0.833    0.000    0.000    0.000   25.667 
#    0.000    0.000    0.000    0.000    0.000    0.000 
#
# Total GULP energy -133706.882196 kJ/mol
# GULP energy per Si atom -5571.120091 kJ/mol
# Density = 1.890932 g / cm^3
# Si number density = 18.952457 Si / 1000 Ang^3
#
#
#
# Elastic Constant Matrix: (Units=GPa)
#
#
# Indices 1 2 3 4 5 6 
#
# 1 89.8893 47.9513 4.2489 0.0000 -17.2261 0.0000
# 2 47.9513 137.9395 22.2516 0.0000 -11.3432 0.0000
# 3 4.2489 22.2516 58.5081 0.0000 2.0362 0.0000
# 4 0.0000 0.0000 0.0000 -1.6635 0.0000 -17.9669
# 5 -17.2261 -11.3432 2.0362 0.0000 28.3491 0.0000
# 6 0.0000 0.0000 0.0000 -17.9669 0.0000 -42.8787
#
#
#
# Elastic Compliance Matrix: (Units=1/GPa)
#
#
# Indices 1 2 3 4 5 6 
#
# 1 0.014984 -0.004689 0.000445 0.000000 0.007197 0.000000
# 2 -0.004689 0.009513 -0.003319 0.000000 0.001196 0.000000
# 3 0.000445 -0.003319 0.018405 0.000000 -0.002380 0.000000
# 4 0.000000 0.000000 0.000000 0.170506 0.000000 -0.071445
# 5 0.007197 0.001196 -0.002380 0.000000 0.040297 0.000000
# 6 0.000000 0.000000 0.000000 -0.071445 0.000000 0.006615
#
#
# Mechanical properties :
#
#
# Convention : Reuss Voigt Hill
#
# Bulk Modulus (GPa) = 36.00322 48.36004 42.18163
# Shear Modulus (GPa) = 17.56204 10.88704 14.22454
#
# Velocity S-wave (km/s) = 3.04737 2.39935 2.74257
# Velocity P-wave (km/s) = 5.60534 5.76608 5.68628
#
# Compressibility (1/GPa) = 0.02777529
#
# Stress axis : x y z
#
# Youngs Moduli (GPa) = 66.73688 105.11638 54.33447
#
# Poissons Ratio (x) = 0.49287 -0.02416
# Poissons Ratio (y) = 0.31292 0.18035
# Poissons Ratio (z) = -0.02967 0.34890
#
# Static dielectric constant tensor:
#      x y z
#    x 1.732030 0.000000 0.000110 
#    y 0.000000 1.654410 0.000000 
#    z 0.000110 0.000000 1.648600 
# 
# From -- ./inp_files/42418.got.cif
#   From: 2010.05.17/outbox.cif.g08.bks.cpg/sg10_22_cif.got.tgz:42418.got - 2010.06.03 11:33:40.
