data_PCOD9143751
_publ_section_title
;
Structure prediction by ZEFSAII (Michael W. Deem and Ramdas Pophale) SiO2 
 PCOD9143751
Probable space group: P 2/M
;
_chemical_formula_sum "Si O2"
_cell_formula_units_Z 32
_cell_length_a 19.721937
_cell_length_b 7.534042
_cell_length_c 12.819325
_cell_angle_alpha 90.000000
_cell_angle_beta 50.163962
_cell_angle_gamma 90.000000
_cell_volume 1462.636965
_symmetry_space_group_name_H-M "P 2/M"
_symmetry_group_IT_number 10
_symmetry_cell_setting 'monoclinic'
loop_
_space_group_symop_operation_xyz
x,y,z
-x,y,-z
-x,-y,-z
x,-y,z
loop_
_atom_site_type_symbol
_atom_site_label
_atom_site_fract_x
_atom_site_fract_y
_atom_site_fract_z
Si Si1 0.968569 0.216985 0.914013
Si Si2 0.144602 0.788817 0.648611
Si Si3 0.675376 0.287974 0.928863
Si Si4 0.228520 0.786593 0.949270
Si Si5 0.487904 0.703906 0.173221
Si Si6 0.282224 0.783448 0.676089
Si Si7 0.710584 0.286529 0.668555
Si Si8 0.466324 0.214259 0.419554
O O1 0.044152 0.274731 0.757267
O O2 0.871449 0.276771 0.974245
O O3 0.964085 0.000000 0.920905
O O4 0.000000 0.269003 0.000000
O O5 0.195408 0.723325 0.701821
O O6 0.209173 0.760399 0.487187
O O7 0.138789 0.000000 0.665274
O O8 0.666265 0.500000 0.929976
O O9 0.728841 0.255602 0.981943
O O10 0.723342 0.228293 0.775913
O O11 0.574381 0.216456 0.033114
O O12 0.226772 0.000000 0.945761
O O13 0.284816 0.725338 0.793120
O O14 0.480335 0.500000 0.145444
O O15 0.388834 0.780961 0.261563
O O16 0.510383 0.708751 0.274018
O O17 0.364443 0.729385 0.524837
O O18 0.284228 0.000000 0.675029
O O19 0.707058 0.500000 0.667044
O O20 0.500000 0.265826 0.500000
O O21 0.474167 0.000000 0.404351
#
# Coordination Sequence:
#
# PCOD9143751 Si02
#       8
#     4   4   4   4   4   4   4   4
#     4   9  16  30  56  85 110 138 172 212 262 318
#     4  10  18  32  56  83 108 135 172 217 263 311
#     4  10  22  39  55  74 105 143 180 222 271 313
#     4  10  19  34  57  83 108 138 178 218 260 316
#     4  10  20  35  55  76  99 135 184 226 259 306
#     4   9  16  28  49  76 107 138 166 205 258 312
#     4  10  21  38  57  76 103 142 184 223 264 311
#     4  10  19  30  46  73 110 144 169 203 260 320
#
# _framework density 21.878294
#
# number of rings (size 3 to 8) (size 9 to 14) (size 15 to 20)
#    0.000    2.250    2.500    1.125    0.000    3.750 
#    0.000    2.500    0.000    6.750    0.000    0.000 
#    0.000    0.000    0.000    0.000    0.000    0.000 
#
# Total GULP energy -178534.828105 kJ/mol
# GULP energy per Si atom -5579.213378 kJ/mol
# Density = 2.182850 g / cm^3
# Si number density = 21.878294 Si / 1000 Ang^3
#
#
#
# Elastic Constant Matrix: (Units=GPa)
#
#
# Indices 1 2 3 4 5 6 
#
# 1 73.6221 -2.3890 50.1352 0.0000 3.5137 0.0000
# 2 -2.3890 50.3688 -3.4917 0.0000 -2.0066 0.0000
# 3 50.1352 -3.4917 154.2513 0.0000 7.2484 0.0000
# 4 0.0000 0.0000 0.0000 17.1631 0.0000 2.5962
# 5 3.5137 -2.0066 7.2484 0.0000 37.5411 0.0000
# 6 0.0000 0.0000 0.0000 2.5962 0.0000 13.4168
#
#
#
# Elastic Compliance Matrix: (Units=1/GPa)
#
#
# Indices 1 2 3 4 5 6 
#
# 1 0.017463 0.000416 -0.005642 0.000000 -0.000523 0.000000
# 2 0.000416 0.019931 0.000270 0.000000 0.000974 0.000000
# 3 -0.005642 0.000270 0.008373 0.000000 -0.001074 0.000000
# 4 0.000000 0.000000 0.000000 0.060021 0.000000 -0.011615
# 5 -0.000523 0.000974 -0.001074 0.000000 0.026946 0.000000
# 6 0.000000 0.000000 0.000000 -0.011615 0.000000 0.076781
#
#
# Mechanical properties :
#
#
# Convention : Reuss Voigt Hill
#
# Bulk Modulus (GPa) = 27.88906 40.75013 34.31959
# Shear Modulus (GPa) = 21.60954 29.22339 25.41647
#
# Velocity S-wave (km/s) = 3.14620 3.65872 3.41210
# Velocity P-wave (km/s) = 5.09639 6.04273 5.58962
#
# Compressibility (1/GPa) = 0.03585636
#
# Stress axis : x y z
#
# Youngs Moduli (GPa) = 57.26243 50.17350 119.42713
#
# Poissons Ratio (x) = -0.02089 0.67381
# Poissons Ratio (y) = -0.02384 -0.03225
# Poissons Ratio (z) = 0.32308 -0.01355
#
# Static dielectric constant tensor:
#      x y z
#    x 1.821400 0.000000 -0.017850 
#    y 0.000000 1.851820 0.000000 
#    z -0.017850 0.000000 1.811060 
# 
# From -- ./inp_files/55274.got.cif
#   From: 2010.05.17/outbox.cif.g08.bks.cpg/sg10_28_cif.got.tgz:55274.got - 2010.06.03 11:33:40.
