data_PCOD9143981
_publ_section_title
;
Structure prediction by ZEFSAII (Michael W. Deem and Ramdas Pophale) SiO2 
 PCOD9143981
Probable space group: P 2/M
;
_chemical_formula_sum "Si O2"
_cell_formula_units_Z 32
_cell_length_a 13.574409
_cell_length_b 21.251795
_cell_length_c 5.207932
_cell_angle_alpha 90.000000
_cell_angle_beta 102.478684
_cell_angle_gamma 90.000000
_cell_volume 1466.895427
_symmetry_space_group_name_H-M "P 2/M"
_symmetry_group_IT_number 10
_symmetry_cell_setting 'monoclinic'
loop_
_space_group_symop_operation_xyz
x,y,z
-x,y,-z
-x,-y,-z
x,-y,z
loop_
_atom_site_type_symbol
_atom_site_label
_atom_site_fract_x
_atom_site_fract_y
_atom_site_fract_z
Si Si1 0.787114 0.574307 0.787999
Si Si2 0.936482 0.217377 0.717386
Si Si3 0.744586 0.751094 0.343948
Si Si4 0.443337 0.406212 0.218823
Si Si5 0.466484 0.729976 0.732723
Si Si6 0.746868 0.169602 0.822501
Si Si7 0.890446 0.423004 0.341800
Si Si8 0.431435 0.074338 0.211190
O O1 0.809418 0.500000 0.791694
O O2 0.674013 0.581431 0.822167
O O3 0.809543 0.595468 0.512672
O O4 0.859729 0.602591 0.046717
O O5 0.000000 0.197886 0.500000
O O6 0.852378 0.263562 0.535973
O O7 0.134995 0.163048 0.195446
O O8 0.000000 0.241476 0.000000
O O9 0.648104 0.705990 0.304937
O O10 0.705938 0.802765 0.529589
O O11 0.751310 0.780229 0.062678
O O12 0.500000 0.430811 0.500000
O O13 0.461436 0.331134 0.230244
O O14 0.500000 0.430055 0.000000
O O15 0.500000 0.765194 0.500000
O O16 0.500000 0.767814 0.000000
O O17 0.672611 0.113891 0.855022
O O18 0.892329 0.500000 0.325191
O O19 0.000000 0.403239 0.500000
O O20 0.500000 0.087323 0.500000
O O21 0.405723 0.000000 0.203471
O O22 0.500000 0.085396 0.000000
#
# Coordination Sequence:
#
# PCOD9143981 Si02
#       8
#     4   4   4   4   4   4   4   4
#     4  10  19  31  51  78 107 139 180 216 255 314
#     4  10  18  34  53  78 109 138 169 222 279 316
#     4  10  20  32  53  84 103 135 175 218 269 318
#     4  10  21  36  51  73 105 147 174 208 257 314
#     4  10  21  35  52  76 109 138 169 212 264 321
#     4  10  20  32  53  82 108 142 176 229 258 318
#     4   9  17  30  49  76 108 135 168 223 273 300
#     4  10  21  35  51  74 111 156 186 217 268 316
#
# _framework density 21.814779999999999
#
# number of rings (size 3 to 8) (size 9 to 14) (size 15 to 20)
#    0.750    1.375    1.250    2.625    0.000    5.000 
#    0.000    0.000    0.000    0.750    0.000   35.000 
#    0.000    0.000    0.000    0.000    0.000    0.250 
#
# Total GULP energy -178245.165023 kJ/mol
# GULP energy per Si atom -5570.161407 kJ/mol
# Density = 2.176513 g / cm^3
# Si number density = 21.814780 Si / 1000 Ang^3
#
#
#
# Elastic Constant Matrix: (Units=GPa)
#
#
# Indices 1 2 3 4 5 6 
#
# 1 115.3297 9.4834 36.7464 0.0000 -7.0413 0.0000
# 2 9.4834 50.3829 2.0112 0.0000 -4.6584 0.0000
# 3 36.7464 2.0112 125.3640 0.0000 -19.4596 0.0000
# 4 0.0000 0.0000 0.0000 -19.5190 0.0000 15.8947
# 5 -7.0413 -4.6584 -19.4596 0.0000 46.0168 0.0000
# 6 0.0000 0.0000 0.0000 15.8947 0.0000 22.7817
#
#
#
# Elastic Compliance Matrix: (Units=1/GPa)
#
#
# Indices 1 2 3 4 5 6 
#
# 1 0.009711 -0.001704 -0.002799 0.000000 0.000130 0.000000
# 2 -0.001704 0.020335 0.000484 0.000000 0.002002 0.000000
# 3 -0.002799 0.000484 0.009344 0.000000 0.003572 0.000000
# 4 0.000000 0.000000 0.000000 -0.032671 0.000000 0.022794
# 5 0.000130 0.002002 0.003572 0.000000 0.023464 0.000000
# 6 0.000000 0.000000 0.000000 0.022794 0.000000 0.027992
#
#
# Mechanical properties :
#
#
# Convention : Reuss Voigt Hill
#
# Bulk Modulus (GPa) = 31.89651 43.06208 37.47929
# Shear Modulus (GPa) = 65.22086 26.04494 45.63290
#
# Velocity S-wave (km/s) = 5.47380 3.45905 4.57862
# Velocity P-wave (km/s) = 7.38940 5.97797 6.72084
#
# Compressibility (1/GPa) = 0.03135139
#
# Stress axis : x y z
#
# Youngs Moduli (GPa) = 102.98008 49.17734 107.02191
#
# Poissons Ratio (x) = 0.08380 0.29954
# Poissons Ratio (y) = 0.17548 -0.05181
# Poissons Ratio (z) = 0.28823 -0.02381
#
# Static dielectric constant tensor:
#      x y z
#    x 1.863120 0.000000 0.030330 
#    y 0.000000 1.810430 0.000000 
#    z 0.030330 0.000000 1.967290 
# 
# From -- ./inp_files/8103.got.cif
#   From: 2010.05.17/outbox.cif.g08.bks.cpg/sg10_5_cif.got.tgz:8103.got - 2010.06.03 11:33:40.
