data_PCOD9143030
_publ_section_title
;
Structure prediction by ZEFSAII (Michael W. Deem and Ramdas Pophale) SiO2 
 PCOD9143030
Probable space group: P 2/M
;
_chemical_formula_sum "Si O2"
_cell_formula_units_Z 28
_cell_length_a 21.654719
_cell_length_b 7.894301
_cell_length_c 24.158208
_cell_angle_alpha 90.000000
_cell_angle_beta 161.983814
_cell_angle_gamma 90.000000
_cell_volume 1277.293573
_symmetry_space_group_name_H-M "P 2/M"
_symmetry_group_IT_number 10
_symmetry_cell_setting 'monoclinic'
loop_
_space_group_symop_operation_xyz
x,y,z
-x,y,-z
-x,-y,-z
x,-y,z
loop_
_atom_site_type_symbol
_atom_site_label
_atom_site_fract_x
_atom_site_fract_y
_atom_site_fract_z
Si Si1 0.948397 0.295631 0.281870
Si Si2 0.990690 0.196214 0.056418
Si Si3 0.895370 0.707334 0.467077
Si Si4 0.730686 0.306281 0.926089
Si Si5 0.875184 0.196234 0.675761
Si Si6 0.370666 0.310161 0.438528
Si Si7 0.545527 0.707598 0.877062
O O1 0.947181 0.500000 0.281080
O O2 0.991722 0.238025 0.380851
O O3 0.118365 0.240028 0.383172
O O4 0.735513 0.237822 0.075637
O O5 0.153580 0.310106 0.225274
O O6 0.050934 0.000000 0.114179
O O7 0.784838 0.218883 0.914337
O O8 0.000000 0.236978 0.000000
O O9 0.897676 0.500000 0.468437
O O10 0.664845 0.759145 0.276847
O O11 0.000000 0.765006 0.500000
O O12 0.678917 0.500000 0.869853
O O13 0.576439 0.234750 0.839731
O O14 0.938382 0.298062 0.138703
O O15 0.676322 0.232794 0.541592
O O16 0.924087 0.000000 0.725201
O O17 0.500000 0.224195 0.500000
O O18 0.449744 0.500000 0.514213
O O19 0.549836 0.500000 0.878825
#
# Coordination Sequence:
#
# PCOD9143030 Si02
#       7
#     4   4   4   4   4   4   4
#     4   9  17  31  51  73 102 135 170 213 256 307
#     4  10  20  33  49  71 102 136 170 212 260 312
#     4   9  17  29  48  77 109 135 165 212 263 309
#     4   9  16  29  50  71  96 129 168 212 255 303
#     4  10  18  30  51  73  97 130 169 210 255 307
#     4  10  20  34  52  74 100 132 172 215 262 313
#     4   8  15  28  46  72 101 131 168 208 257 305
#
# _framework density 21.921351000000001
#
# number of rings (size 3 to 8) (size 9 to 14) (size 15 to 20)
#    0.000    2.714    0.000    5.143    0.000    2.857 
#    2.571    2.857    0.000    3.857    0.000    4.000 
#    0.000    0.000    0.000    0.000    0.000    0.000 
#
# Total GULP energy -156111.876878 kJ/mol
# GULP energy per Si atom -5575.424174 kJ/mol
# Density = 2.187146 g / cm^3
# Si number density = 21.921351 Si / 1000 Ang^3
#
#
#
# Elastic Constant Matrix: (Units=GPa)
#
#
# Indices 1 2 3 4 5 6 
#
# 1 255.7939 11.9682 73.2349 0.0000 25.3923 0.0000
# 2 11.9682 30.0449 3.1311 0.0000 0.4659 0.0000
# 3 73.2349 3.1311 74.9260 0.0000 14.9083 0.0000
# 4 0.0000 0.0000 0.0000 -8.4328 0.0000 -20.0786
# 5 25.3923 0.4659 14.9083 0.0000 35.4226 0.0000
# 6 0.0000 0.0000 0.0000 -20.0786 0.0000 -4.9087
#
#
#
# Elastic Compliance Matrix: (Units=1/GPa)
#
#
# Indices 1 2 3 4 5 6 
#
# 1 0.005620 -0.001684 -0.005049 0.000000 -0.001882 0.000000
# 2 -0.001684 0.033934 0.000083 0.000000 0.000725 0.000000
# 3 -0.005049 0.000083 0.019163 0.000000 -0.004447 0.000000
# 4 0.000000 0.000000 0.000000 0.013569 0.000000 -0.055503
# 5 -0.001882 0.000725 -0.004447 0.000000 0.031442 0.000000
# 6 0.000000 0.000000 0.000000 -0.055503 0.000000 0.023311
#
#
# Mechanical properties :
#
#
# Convention : Reuss Voigt Hill
#
# Bulk Modulus (GPa) = 22.01722 59.71478 40.86600
# Shear Modulus (GPa) = 32.15911 22.57827 27.36869
#
# Velocity S-wave (km/s) = 3.83433 3.21279 3.53724
# Velocity P-wave (km/s) = 5.44686 6.40799 5.94687
#
# Compressibility (1/GPa) = 0.04541899
#
# Stress axis : x y z
#
# Youngs Moduli (GPa) = 177.92071 29.46872 52.18472
#
# Poissons Ratio (x) = 0.04961 0.26347
# Poissons Ratio (y) = 0.29954 -0.00434
# Poissons Ratio (z) = 0.89829 -0.00245
#
# Static dielectric constant tensor:
#      x y z
#    x 1.851420 0.000000 0.021740 
#    y 0.000000 1.770990 0.000000 
#    z 0.021740 0.000000 1.815980 
# 
# From -- ./inp_files/90392.got.cif
#   From: 2010.05.17/outbox.cif.g08.bks.cpg/sg10_46_cif.got.tgz:90392.got - 2010.06.03 11:33:40.
