data_PCOD9143724
_publ_section_title
;
Structure prediction by ZEFSAII (Michael W. Deem and Ramdas Pophale) SiO2 
 PCOD9143724
Probable space group: P 2/M
;
_chemical_formula_sum "Si O2"
_cell_formula_units_Z 24
_cell_length_a 24.485037
_cell_length_b 7.550012
_cell_length_c 12.748967
_cell_angle_alpha 90.000000
_cell_angle_beta 150.252508
_cell_angle_gamma 90.000000
_cell_volume 1169.395303
_symmetry_space_group_name_H-M "P 2/M"
_symmetry_group_IT_number 10
_symmetry_cell_setting 'monoclinic'
loop_
_space_group_symop_operation_xyz
x,y,z
-x,y,-z
-x,-y,-z
x,-y,z
loop_
_atom_site_type_symbol
_atom_site_label
_atom_site_fract_x
_atom_site_fract_y
_atom_site_fract_z
Si Si1 0.398206 0.295383 0.265243
Si Si2 0.367933 0.714022 0.604299
Si Si3 0.220603 0.285523 0.554243
Si Si4 0.384308 0.283492 0.006208
Si Si5 0.759487 0.793081 0.818471
Si Si6 0.018820 0.208573 0.914339
O O1 0.500000 0.213388 0.500000
O O2 0.430399 0.500000 0.299044
O O3 0.375709 0.221758 0.112251
O O4 0.294139 0.290845 0.168357
O O5 0.366038 0.500000 0.600911
O O6 0.286285 0.774964 0.559750
O O7 0.494243 0.767880 0.831497
O O8 0.324204 0.773694 0.418517
O O9 0.221142 0.500000 0.554085
O O10 0.094717 0.227653 0.336903
O O11 0.288148 0.224075 0.768337
O O12 0.380109 0.500000 0.997419
O O13 0.773066 0.000000 0.865592
O O14 0.875502 0.717806 0.970390
O O15 0.043527 0.000000 0.969867
O O16 0.000000 0.284208 0.000000
#
# Coordination Sequence:
#
# PCOD9143724 Si02
#       6
#     4   4   4   4   4   4
#     4  10  19  35  58  80 107 144 178 215 266 321
#     4  10  18  32  55  82 112 140 171 216 272 326
#     4  10  20  33  56  85 109 138 179 224 264 317
#     4   9  18  34  54  81 114 142 171 214 274 324
#     4  11  22  35  54  80 108 139 181 226 264 308
#     4  10  21  38  55  73 107 148 179 218 271 317
#
# _framework density 20.523427000000002
#
# number of rings (size 3 to 8) (size 9 to 14) (size 15 to 20)
#    0.000    2.000    3.333    1.000    0.000    4.000 
#    0.000    2.500    0.000    7.000    0.000    0.000 
#    0.000    0.000    0.000    0.000    0.000    0.000 
#
# Total GULP energy -134040.013381 kJ/mol
# GULP energy per Si atom -5585.000558 kJ/mol
# Density = 2.047672 g / cm^3
# Si number density = 20.523427 Si / 1000 Ang^3
#
#
#
# Elastic Constant Matrix: (Units=GPa)
#
#
# Indices 1 2 3 4 5 6 
#
# 1 84.1392 -7.2415 27.2422 0.0000 10.8626 0.0000
# 2 -7.2415 45.8825 -16.4993 0.0000 -1.4224 0.0000
# 3 27.2422 -16.4993 106.0967 0.0000 14.7381 0.0000
# 4 0.0000 0.0000 0.0000 24.0202 0.0000 6.8325
# 5 10.8626 -1.4224 14.7381 0.0000 34.1261 0.0000
# 6 0.0000 0.0000 0.0000 6.8325 0.0000 3.3874
#
#
#
# Elastic Compliance Matrix: (Units=1/GPa)
#
#
# Indices 1 2 3 4 5 6 
#
# 1 0.013272 0.000980 -0.002845 0.000000 -0.002955 0.000000
# 2 0.000980 0.023171 0.003469 0.000000 -0.000844 0.000000
# 3 -0.002845 0.003469 0.011223 0.000000 -0.003797 0.000000
# 4 0.000000 0.000000 0.000000 0.097668 0.000000 -0.197000
# 5 -0.002955 -0.000844 -0.003797 0.000000 0.031848 0.000000
# 6 0.000000 0.000000 0.000000 -0.197000 0.000000 0.692571
#
#
# Mechanical properties :
#
#
# Convention : Reuss Voigt Hill
#
# Bulk Modulus (GPa) = 19.65654 27.01347 23.33500
# Shear Modulus (GPa) = 5.65929 27.81455 16.73692
#
# Velocity S-wave (km/s) = 1.66237 3.68538 2.85880
# Velocity P-wave (km/s) = 3.64459 5.59466 4.72140
#
# Compressibility (1/GPa) = 0.05087366
#
# Stress axis : x y z
#
# Youngs Moduli (GPa) = 75.34633 43.15792 89.10506
#
# Poissons Ratio (x) = -0.04230 0.25350
# Poissons Ratio (y) = -0.07384 -0.30910
# Poissons Ratio (z) = 0.21435 -0.14971
#
# Static dielectric constant tensor:
#      x y z
#    x 1.722780 0.000000 0.004260 
#    y 0.000000 1.790880 0.000000 
#    z 0.004260 0.000000 1.703390 
# 
# From -- ./inp_files/45029.got.cif
#   From: 2010.05.17/outbox.cif.g08.bks.cpg/sg10_23_cif.got.tgz:45029.got - 2010.06.03 11:33:40.
