data_PCOD9143017
_publ_section_title
;
Structure prediction by ZEFSAII (Michael W. Deem and Ramdas Pophale) SiO2 
 PCOD9143017
Probable space group: P 2/M
;
_chemical_formula_sum "Si O2"
_cell_formula_units_Z 24
_cell_length_a 21.995453
_cell_length_b 7.714781
_cell_length_c 12.822774
_cell_angle_alpha 90.000000
_cell_angle_beta 39.034912
_cell_angle_gamma 90.000000
_cell_volume 1370.366995
_symmetry_space_group_name_H-M "P 2/M"
_symmetry_group_IT_number 10
_symmetry_cell_setting 'monoclinic'
loop_
_space_group_symop_operation_xyz
x,y,z
-x,y,-z
-x,-y,-z
x,-y,z
loop_
_atom_site_type_symbol
_atom_site_label
_atom_site_fract_x
_atom_site_fract_y
_atom_site_fract_z
Si Si1 0.878400 0.000000 0.049162
Si Si2 0.389663 0.290495 0.872235
Si Si3 0.605398 0.289776 0.898480
Si Si4 0.247518 0.710174 0.482277
Si Si5 0.297846 0.809072 0.787044
Si Si6 0.603251 0.696634 0.542736
Si Si7 0.100972 0.000000 0.727837
O O1 0.986367 0.000000 0.862723
O O2 0.813653 0.836734 0.096595
O O3 0.883538 0.000000 0.167363
O O4 0.388530 0.500000 0.873157
O O5 0.314341 0.235460 0.884586
O O6 0.496517 0.227707 0.695116
O O7 0.373476 0.230752 0.012083
O O8 0.599524 0.500000 0.909460
O O9 0.688654 0.249969 0.704878
O O10 0.500000 0.228524 0.000000
O O11 0.229958 0.500000 0.510949
O O12 0.314836 0.769111 0.490222
O O13 0.152891 0.828332 0.614049
O O14 0.356071 0.694039 0.628113
O O15 0.340955 0.000000 0.710840
O O16 0.591968 0.500000 0.597008
#
# Coordination Sequence:
#
# PCOD9143017 Si02
#       7
#     2   4   4   4   4   4   2
#     4   9  22  38  57  72 106 140 168 239 285 315
#     4  10  19  31  51  76 111 150 177 210 257 320
#     4   9  16  31  52  77 111 147 178 215 259 306
#     4  10  19  34  58  83 111 143 177 219 271 322
#     4  10  20  35  48  72 104 142 178 216 270 316
#     4  10  18  30  50  79 110 144 178 208 258 324
#     4  11  20  42  59  79 108 135 184 231 288 323
#
# _framework density 17.513556999999999
#
# number of rings (size 3 to 8) (size 9 to 14) (size 15 to 20)
#    0.500    1.667    3.333    1.000    0.000    2.667 
#    1.500    3.750    0.000    2.000    0.000    3.500 
#    0.000    0.000    0.000    0.000    0.000    0.000 
#
# Total GULP energy -133659.876928 kJ/mol
# GULP energy per Si atom -5569.161539 kJ/mol
# Density = 1.747369 g / cm^3
# Si number density = 17.513557 Si / 1000 Ang^3
#
#
#
# Elastic Constant Matrix: (Units=GPa)
#
#
# Indices 1 2 3 4 5 6 
#
# 1 92.3637 9.4842 58.4326 0.0000 12.8544 0.0000
# 2 9.4842 51.0552 27.0982 0.0000 -8.3390 0.0000
# 3 58.4326 27.0982 118.2480 0.0000 -2.3153 0.0000
# 4 0.0000 0.0000 0.0000 12.5437 0.0000 1.9794
# 5 12.8544 -8.3390 -2.3153 0.0000 25.5594 0.0000
# 6 0.0000 0.0000 0.0000 1.9794 0.0000 25.5289
#
#
#
# Elastic Compliance Matrix: (Units=1/GPa)
#
#
# Indices 1 2 3 4 5 6 
#
# 1 0.017919 -0.000159 -0.009012 0.000000 -0.009880 0.000000
# 2 -0.000159 0.023555 -0.005176 0.000000 0.007296 0.000000
# 3 -0.009012 -0.005176 0.014177 0.000000 0.004128 0.000000
# 4 0.000000 0.000000 0.000000 0.080708 0.000000 -0.006258
# 5 -0.009880 0.007296 0.004128 0.000000 0.046848 0.000000
# 6 0.000000 0.000000 0.000000 -0.006258 0.000000 0.039657
#
#
# Mechanical properties :
#
#
# Convention : Reuss Voigt Hill
#
# Bulk Modulus (GPa) = 37.09670 50.18856 43.64263
# Shear Modulus (GPa) = 19.19046 23.83653 21.51350
#
# Velocity S-wave (km/s) = 3.31380 3.69322 3.50864
# Velocity P-wave (km/s) = 5.98911 6.84877 6.43332
#
# Compressibility (1/GPa) = 0.02695657
#
# Stress axis : x y z
#
# Youngs Moduli (GPa) = 55.80528 42.45303 70.53622
#
# Poissons Ratio (x) = 0.00677 0.63566
# Poissons Ratio (y) = 0.00890 0.36512
# Poissons Ratio (z) = 0.50291 0.21975
#
# Static dielectric constant tensor:
#      x y z
#    x 1.609450 0.000000 0.009380 
#    y 0.000000 1.696150 0.000000 
#    z 0.009380 0.000000 1.574890 
# 
# From -- ./inp_files/54603.got.cif
#   From: 2010.05.17/outbox.cif.g08.bks.cpg/sg10_28_cif.got.tgz:54603.got - 2010.06.03 11:33:40.
