data_PCOD9143192
_publ_section_title
;
Structure prediction by ZEFSAII (Michael W. Deem and Ramdas Pophale) SiO2 
 PCOD9143192
Probable space group: P 2/M
;
_chemical_formula_sum "Si O2"
_cell_formula_units_Z 20
_cell_length_a 14.650892
_cell_length_b 7.742056
_cell_length_c 14.687274
_cell_angle_alpha 90.000000
_cell_angle_beta 134.980810
_cell_angle_gamma 90.000000
_cell_volume 1178.397964
_symmetry_space_group_name_H-M "P 2/M"
_symmetry_group_IT_number 10
_symmetry_cell_setting 'monoclinic'
loop_
_space_group_symop_operation_xyz
x,y,z
-x,y,-z
-x,-y,-z
x,-y,z
loop_
_atom_site_type_symbol
_atom_site_label
_atom_site_fract_x
_atom_site_fract_y
_atom_site_fract_z
Si Si1 0.638221 0.702253 0.133318
Si Si2 0.694105 0.500000 0.701306
Si Si3 0.421244 0.801350 0.719666
Si Si4 0.599885 0.500000 0.433485
Si Si5 0.151522 0.795894 0.089388
Si Si6 0.292329 0.206324 0.007713
O O1 0.622864 0.500000 0.142184
O O2 0.663522 0.789568 0.247770
O O3 0.500000 0.772816 0.000000
O O4 0.727274 0.722458 0.107629
O O5 0.680576 0.500000 0.583071
O O6 0.550347 0.500000 0.642163
O O7 0.768066 0.669464 0.789353
O O8 0.376844 0.668913 0.611743
O O9 0.566024 0.743925 0.853329
O O10 0.427952 0.000000 0.693624
O O11 0.189807 0.747392 0.012737
O O12 0.184666 0.000000 0.125115
O O13 0.000000 0.775507 0.000000
O O14 0.293996 0.000000 0.999822
#
# Coordination Sequence:
#
# PCOD9143192 Si02
#       6
#     4   2   4   2   4   4
#     4   9  16  24  43  70 101 133 161 199 252 311
#     4  11  23  36  53  73 105 138 176 215 251 297
#     4  10  18  31  48  70 104 138 167 202 251 307
#     4  11  22  34  50  76 103 142 177 204 251 304
#     4  10  21  37  56  77 102 135 174 214 257 301
#     4   9  17  28  45  72 102 131 165 204 253 308
#
# _framework density 16.972196
#
# number of rings (size 3 to 8) (size 9 to 14) (size 15 to 20)
#    0.000    2.200    3.000    0.900    2.800    3.200 
#    0.000    2.000    0.000    0.000    0.000    2.800 
#    0.000    6.400    0.000    0.000    0.000    0.000 
#
# Total GULP energy -111454.326786 kJ/mol
# GULP energy per Si atom -5572.716339 kJ/mol
# Density = 1.693357 g / cm^3
# Si number density = 16.972196 Si / 1000 Ang^3
#
#
#
# Elastic Constant Matrix: (Units=GPa)
#
#
# Indices 1 2 3 4 5 6 
#
# 1 98.6622 36.0278 48.0516 0.0000 -28.3795 0.0000
# 2 36.0278 86.1591 49.8565 0.0000 -17.1647 0.0000
# 3 48.0516 49.8565 75.2342 0.0000 -30.3973 0.0000
# 4 0.0000 0.0000 0.0000 7.5592 0.0000 -7.6606
# 5 -28.3795 -17.1647 -30.3973 0.0000 29.6044 0.0000
# 6 0.0000 0.0000 0.0000 -7.6606 0.0000 21.6029
#
#
#
# Elastic Compliance Matrix: (Units=1/GPa)
#
#
# Indices 1 2 3 4 5 6 
#
# 1 0.015947 -0.001736 -0.005580 0.000000 0.008551 0.000000
# 2 -0.001736 0.019198 -0.013310 0.000000 -0.004200 0.000000
# 3 -0.005580 -0.013310 0.034858 0.000000 0.022725 0.000000
# 4 0.000000 0.000000 0.000000 0.206499 0.000000 0.073227
# 5 0.008551 -0.004200 0.022725 0.000000 0.062875 0.000000
# 6 0.000000 0.000000 0.000000 0.073227 0.000000 0.072257
#
#
# Mechanical properties :
#
#
# Convention : Reuss Voigt Hill
#
# Bulk Modulus (GPa) = 34.78178 58.65858 46.72018
# Shear Modulus (GPa) = 10.81155 20.16126 15.48641
#
# Velocity S-wave (km/s) = 2.52665 3.45033 3.02397
# Velocity P-wave (km/s) = 5.38979 7.10701 6.30712
#
# Compressibility (1/GPa) = 0.02875069
#
# Stress axis : x y z
#
# Youngs Moduli (GPa) = 62.70908 52.08988 28.68795
#
# Poissons Ratio (x) = 0.09042 0.16007
# Poissons Ratio (y) = 0.10885 0.38184
# Poissons Ratio (z) = 0.34990 0.69332
#
# Static dielectric constant tensor:
#      x y z
#    x 1.610650 0.000000 -0.035040 
#    y 0.000000 1.591200 0.000000 
#    z -0.035040 0.000000 1.546780 
# 
# From -- ./inp_files/33658.got.cif
#   From: 2010.05.17/outbox.cif.g08.bks.cpg/sg10_17_cif.got.tgz:33658.got - 2010.06.03 11:33:40.
