data_PCOD9143393
_publ_section_title
;
Structure prediction by ZEFSAII (Michael W. Deem and Ramdas Pophale) SiO2 
 PCOD9143393
Probable space group: P 2/M
;
_chemical_formula_sum "Si O2"
_cell_formula_units_Z 28
_cell_length_a 15.140377
_cell_length_b 7.430862
_cell_length_c 11.926205
_cell_angle_alpha 90.000000
_cell_angle_beta 69.461693
_cell_angle_gamma 90.000000
_cell_volume 1256.484423
_symmetry_space_group_name_H-M "P 2/M"
_symmetry_group_IT_number 10
_symmetry_cell_setting 'monoclinic'
loop_
_space_group_symop_operation_xyz
x,y,z
-x,y,-z
-x,-y,-z
x,-y,z
loop_
_atom_site_type_symbol
_atom_site_label
_atom_site_fract_x
_atom_site_fract_y
_atom_site_fract_z
Si Si1 0.608858 0.780248 0.948996
Si Si2 0.466177 0.706940 0.398068
Si Si3 0.088035 0.220152 0.386930
Si Si4 0.045651 0.780928 0.153213
Si Si5 0.856658 0.780732 0.121257
Si Si6 0.652215 0.782363 0.177500
Si Si7 0.294610 0.210298 0.319169
O O1 0.660762 0.713013 0.815029
O O2 0.608472 0.000000 0.945497
O O3 0.500000 0.723787 0.000000
O O4 0.655296 0.729179 0.045744
O O5 0.500000 0.791387 0.500000
O O6 0.443213 0.500000 0.430924
O O7 0.555630 0.718053 0.275724
O O8 0.372745 0.779702 0.380797
O O9 0.078340 0.276267 0.261256
O O10 0.189744 0.279936 0.388233
O O11 0.000000 0.282148 0.500000
O O12 0.084146 0.000000 0.390157
O O13 0.938729 0.725220 0.170130
O O14 0.047482 0.000000 0.152606
O O15 0.109856 0.726293 0.018742
O O16 0.749719 0.722711 0.191103
O O17 0.856231 0.000000 0.122050
O O18 0.648204 0.000000 0.183460
O O19 0.280673 0.000000 0.301831
#
# Coordination Sequence:
#
# PCOD9143393 Si02
#       7
#     4   4   4   4   4   4   4
#     4   9  15  26  48  77 105 129 160 207 255 294
#     4  11  25  41  52  67  99 138 171 209 259 308
#     4   9  17  27  43  70 103 133 162 201 248 293
#     4   8  13  24  39  65 105 137 160 194 248 297
#     4   8  14  23  42  70 100 132 162 199 244 293
#     4  10  18  31  53  80 104 131 172 212 248 300
#     4  10  19  34  56  79 103 135 171 210 253 300
#
# _framework density 22.284397999999999
#
# number of rings (size 3 to 8) (size 9 to 14) (size 15 to 20)
#    0.000    2.714    1.429    2.143    0.000    5.714 
#    0.000    4.286    0.000    0.429    0.000    3.000 
#    0.000    0.000    0.000    0.000    0.000    0.000 
#
# Total GULP energy -156317.566743 kJ/mol
# GULP energy per Si atom -5582.770241 kJ/mol
# Density = 2.223368 g / cm^3
# Si number density = 22.284398 Si / 1000 Ang^3
#
#
#
# Elastic Constant Matrix: (Units=GPa)
#
#
# Indices 1 2 3 4 5 6 
#
# 1 195.0611 -4.7607 68.0795 0.0000 -17.2920 0.0000
# 2 -4.7607 63.2074 -1.3929 0.0000 -3.0702 0.0000
# 3 68.0795 -1.3929 87.9012 0.0000 2.5561 0.0000
# 4 0.0000 0.0000 0.0000 -4.4015 0.0000 3.5883
# 5 -17.2920 -3.0702 2.5561 0.0000 32.7237 0.0000
# 6 0.0000 0.0000 0.0000 3.5883 0.0000 -36.6138
#
#
#
# Elastic Compliance Matrix: (Units=1/GPa)
#
#
# Indices 1 2 3 4 5 6 
#
# 1 0.007664 0.000666 -0.006058 0.000000 0.004586 0.000000
# 2 0.000666 0.015955 -0.000318 0.000000 0.001874 0.000000
# 3 -0.006058 -0.000318 0.016194 0.000000 -0.004496 0.000000
# 4 0.000000 0.000000 0.000000 -0.246924 0.000000 -0.024200
# 5 0.004586 0.001874 -0.004496 0.000000 0.033509 0.000000
# 6 0.000000 0.000000 0.000000 -0.024200 0.000000 -0.029684
#
#
# Mechanical properties :
#
#
# Convention : Reuss Voigt Hill
#
# Bulk Modulus (GPa) = 35.21902 52.22462 43.72182
# Shear Modulus (GPa) = -27.41218 17.29127 -5.06045
#
# Velocity S-wave (km/s) = -3.51109 2.78859 -1.50857
# Velocity P-wave (km/s) = 0.77355 5.81848 4.07776
#
# Compressibility (1/GPa) = 0.02839375
#
# Stress axis : x y z
#
# Youngs Moduli (GPa) = 130.48250 62.67569 61.74980
#
# Poissons Ratio (x) = -0.04177 0.37411
# Poissons Ratio (y) = -0.08696 0.01963
# Poissons Ratio (z) = 0.79052 0.01992
#
# Static dielectric constant tensor:
#      x y z
#    x 1.817600 0.000000 0.007630 
#    y 0.000000 1.867540 0.000000 
#    z 0.007630 0.000000 1.784440 
# 
# From -- ./inp_files/49138.got.cif
#   From: 2010.05.17/outbox.cif.g08.bks.cpg/sg10_25_cif.got.tgz:49138.got - 2010.06.03 11:33:40.
