data_PCOD9143379
_publ_section_title
;
Structure prediction by ZEFSAII (Michael W. Deem and Ramdas Pophale) SiO2 
 PCOD9143379
Probable space group: P 2/M
;
_chemical_formula_sum "Si O2"
_cell_formula_units_Z 28
_cell_length_a 20.350822
_cell_length_b 7.477427
_cell_length_c 17.675004
_cell_angle_alpha 90.000000
_cell_angle_beta 30.832198
_cell_angle_gamma 90.000000
_cell_volume 1378.507472
_symmetry_space_group_name_H-M "P 2/M"
_symmetry_group_IT_number 10
_symmetry_cell_setting 'monoclinic'
loop_
_space_group_symop_operation_xyz
x,y,z
-x,y,-z
-x,-y,-z
x,-y,z
loop_
_atom_site_type_symbol
_atom_site_label
_atom_site_fract_x
_atom_site_fract_y
_atom_site_fract_z
Si Si1 0.846536 0.218605 0.814758
Si Si2 0.478966 0.293864 0.604967
Si Si3 0.261125 0.216617 0.565443
Si Si4 0.764078 0.209544 0.054492
Si Si5 0.008129 0.781067 0.905572
Si Si6 0.155846 0.791887 0.347499
Si Si7 0.853748 0.781423 0.477914
O O1 0.804947 0.284554 0.772697
O O2 0.996105 0.267358 0.681093
O O3 0.844369 0.000000 0.811502
O O4 0.764163 0.278876 0.968312
O O5 0.500000 0.213679 0.500000
O O6 0.444622 0.500000 0.626750
O O7 0.608832 0.279621 0.524552
O O8 0.363235 0.221467 0.770033
O O9 0.231301 0.274952 0.509139
O O10 0.139644 0.272665 0.735811
O O11 0.265440 0.000000 0.560981
O O12 0.791936 0.000000 0.017827
O O13 0.885109 0.283464 0.980773
O O14 0.006824 0.000000 0.906882
O O15 0.000000 0.723083 0.000000
O O16 0.190941 0.716891 0.395101
O O17 0.000000 0.789002 0.500000
O O18 0.195786 0.000000 0.309098
O O19 0.852809 0.000000 0.480263
#
# Coordination Sequence:
#
# PCOD9143379 Si02
#       7
#     4   4   4   4   4   4   4
#     4   8  12  21  40  71 105 130 153 188 236 287
#     4  11  25  41  51  64  93 132 170 205 245 295
#     4  10  18  31  53  77  99 124 161 204 243 288
#     4  10  18  31  53  77  99 124 161 204 243 288
#     4   9  16  26  45  74 100 118 145 197 255 293
#     4   7  10  16  32  63 105 138 150 172 229 292
#     4   8  12  21  40  71 105 130 153 188 236 287
#
# _framework density 20.311823
#
# number of rings (size 3 to 8) (size 9 to 14) (size 15 to 20)
#    0.000    3.000    1.429    3.000    0.000    2.286 
#    0.000    0.714    0.000    3.429    0.000    7.000 
#    0.000    3.429    0.000    0.000    0.000    0.000 
#
# Total GULP energy -156076.167125 kJ/mol
# GULP energy per Si atom -5574.148826 kJ/mol
# Density = 2.026559 g / cm^3
# Si number density = 20.311823 Si / 1000 Ang^3
#
#
#
# Elastic Constant Matrix: (Units=GPa)
#
#
# Indices 1 2 3 4 5 6 
#
# 1 110.9702 -3.9943 57.2567 0.0000 39.9511 0.0000
# 2 -3.9943 52.0662 -4.8303 0.0000 7.2991 0.0000
# 3 57.2567 -4.8303 109.1215 0.0000 27.1041 0.0000
# 4 0.0000 0.0000 0.0000 17.7399 0.0000 -49.5742
# 5 39.9511 7.2991 27.1041 0.0000 44.1252 0.0000
# 6 0.0000 0.0000 0.0000 -49.5742 0.0000 12.8927
#
#
#
# Elastic Compliance Matrix: (Units=1/GPa)
#
#
# Indices 1 2 3 4 5 6 
#
# 1 0.016089 0.002355 -0.005455 0.000000 -0.011606 0.000000
# 2 0.002355 0.020377 0.001219 0.000000 -0.006252 0.000000
# 3 -0.005455 0.001219 0.012867 0.000000 -0.003166 0.000000
# 4 0.000000 0.000000 0.000000 -0.005784 0.000000 -0.022242
# 5 -0.011606 -0.006252 -0.003166 0.000000 0.036150 0.000000
# 6 0.000000 0.000000 0.000000 -0.022242 0.000000 -0.007959
#
#
# Mechanical properties :
#
#
# Convention : Reuss Voigt Hill
#
# Bulk Modulus (GPa) = 21.94387 41.00246 31.47316
# Shear Modulus (GPa) = 55.13249 29.86663 42.49956
#
# Velocity S-wave (km/s) = 5.21555 3.83875 4.57919
# Velocity P-wave (km/s) = 6.86267 6.31493 6.59449
#
# Compressibility (1/GPa) = 0.04557082
#
# Stress axis : x y z
#
# Youngs Moduli (GPa) = 62.15367 49.07611 77.71955
#
# Poissons Ratio (x) = -0.11559 0.42397
# Poissons Ratio (y) = -0.14639 -0.09474
# Poissons Ratio (z) = 0.33905 -0.05983
#
# Static dielectric constant tensor:
#      x y z
#    x 1.741040 0.000000 0.059840 
#    y 0.000000 1.843190 0.000000 
#    z 0.059840 0.000000 1.692660 
# 
# From -- ./inp_files/79254.got.cif
#   From: 2010.05.17/outbox.cif.g08.bks.cpg/sg10_40_cif.got.tgz:79254.got - 2010.06.03 11:33:40.
