data_PCOD9143114
_publ_section_title
;
Structure prediction by ZEFSAII (Michael W. Deem and Ramdas Pophale) SiO2 
 PCOD9143114
Probable space group: P 2/M
;
_chemical_formula_sum "Si O2"
_cell_formula_units_Z 24
_cell_length_a 8.955711
_cell_length_b 14.296004
_cell_length_c 14.928301
_cell_angle_alpha 90.000000
_cell_angle_beta 140.298618
_cell_angle_gamma 90.000000
_cell_volume 1220.901871
_symmetry_space_group_name_H-M "P 2/M"
_symmetry_group_IT_number 10
_symmetry_cell_setting 'monoclinic'
loop_
_space_group_symop_operation_xyz
x,y,z
-x,y,-z
-x,-y,-z
x,-y,z
loop_
_atom_site_type_symbol
_atom_site_label
_atom_site_fract_x
_atom_site_fract_y
_atom_site_fract_z
Si Si1 0.781806 0.397116 0.551921
Si Si2 0.848444 0.274445 0.348483
Si Si3 0.116869 0.893624 0.152022
Si Si4 0.015630 0.606581 0.156202
Si Si5 0.424034 0.284181 0.274793
Si Si6 0.227042 0.215525 0.882402
O O1 0.694924 0.500000 0.487365
O O2 0.836787 0.395045 0.682208
O O3 0.598958 0.321489 0.432317
O O4 0.025101 0.372980 0.614692
O O5 0.584640 0.283970 0.260853
O O6 0.864813 0.222500 0.261808
O O7 0.000000 0.231771 0.500000
O O8 0.323927 0.817989 0.249513
O O9 0.920896 0.859878 0.131424
O O10 0.191138 0.000000 0.202689
O O11 0.000000 0.888296 0.000000
O O12 0.939488 0.500000 0.102958
O O13 0.198940 0.647896 0.169044
O O14 0.821362 0.684909 0.089419
O O15 0.500000 0.196160 0.000000
#
# Coordination Sequence:
#
# PCOD9143114 Si02
#       6
#     4   4   4   4   4   4
#     4   9  17  30  51  80 113 152 194 227 261 318
#     4   9  19  33  53  80 116 153 185 223 273 327
#     4  10  22  40  61  83 105 135 183 239 292 345
#     4   9  18  31  50  79 115 153 189 224 269 325
#     4  10  18  30  53  77 106 140 181 228 272 317
#     4  10  20  36  59  83 110 144 188 238 282 327
#
# _framework density 19.657601
#
# number of rings (size 3 to 8) (size 9 to 14) (size 15 to 20)
#    0.000    2.500    0.000    2.000    0.000    7.000 
#    0.000    0.833    0.000   66.500    0.000    0.000 
#    0.000    0.000    0.000    0.000    0.000    0.000 
#
# Total GULP energy -133863.256147 kJ/mol
# GULP energy per Si atom -5577.635673 kJ/mol
# Density = 1.961286 g / cm^3
# Si number density = 19.657601 Si / 1000 Ang^3
#
#
#
# Elastic Constant Matrix: (Units=GPa)
#
#
# Indices 1 2 3 4 5 6 
#
# 1 152.4540 40.0554 25.2599 0.0000 13.7713 0.0000
# 2 40.0554 134.7823 31.3171 0.0000 15.2795 0.0000
# 3 25.2599 31.3171 60.1063 0.0000 -0.8719 0.0000
# 4 0.0000 0.0000 0.0000 17.7436 0.0000 -0.4376
# 5 13.7713 15.2795 -0.8719 0.0000 31.8961 0.0000
# 6 0.0000 0.0000 0.0000 -0.4376 0.0000 4.3913
#
#
#
# Elastic Compliance Matrix: (Units=1/GPa)
#
#
# Indices 1 2 3 4 5 6 
#
# 1 0.007577 -0.001363 -0.002513 0.000000 -0.002687 0.000000
# 2 -0.001363 0.009279 -0.004319 0.000000 -0.003974 0.000000
# 3 -0.002513 -0.004319 0.019997 0.000000 0.003701 0.000000
# 4 0.000000 0.000000 0.000000 0.056497 0.000000 0.005630
# 5 -0.002687 -0.003974 0.003701 0.000000 0.034517 0.000000
# 6 0.000000 0.000000 0.000000 0.005630 0.000000 0.228283
#
#
# Mechanical properties :
#
#
# Convention : Reuss Voigt Hill
#
# Bulk Modulus (GPa) = 48.87074 60.06747 54.46910
# Shear Modulus (GPa) = 13.18007 27.52022 20.35014
#
# Velocity S-wave (km/s) = 2.59218 3.74569 3.22099
# Velocity P-wave (km/s) = 5.82015 7.02354 6.44997
#
# Compressibility (1/GPa) = 0.02046214
#
# Stress axis : x y z
#
# Youngs Moduli (GPa) = 131.98581 107.77463 50.00670
#
# Poissons Ratio (x) = 0.14692 0.12566
# Poissons Ratio (y) = 0.17992 0.21599
# Poissons Ratio (z) = 0.33165 0.46550
#
# Static dielectric constant tensor:
#      x y z
#    x 1.724380 0.000000 -0.012360 
#    y 0.000000 1.670430 0.000000 
#    z -0.012360 0.000000 1.728060 
# 
# From -- ./inp_files/29687.got.cif
#   From: 2010.05.17/outbox.cif.g08.bks.cpg/sg10_15_cif.got.tgz:29687.got - 2010.06.03 11:33:40.
