data_PCOD9143194
_publ_section_title
;
Structure prediction by ZEFSAII (Michael W. Deem and Ramdas Pophale) SiO2 
 PCOD9143194
Probable space group: P 2/M
;
_chemical_formula_sum "Si O2"
_cell_formula_units_Z 32
_cell_length_a 11.676609
_cell_length_b 12.837184
_cell_length_c 12.598387
_cell_angle_alpha 90.000000
_cell_angle_beta 88.627954
_cell_angle_gamma 90.000000
_cell_volume 1887.890995
_symmetry_space_group_name_H-M "P 2/M"
_symmetry_group_IT_number 10
_symmetry_cell_setting 'monoclinic'
loop_
_space_group_symop_operation_xyz
x,y,z
-x,y,-z
-x,-y,-z
x,-y,z
loop_
_atom_site_type_symbol
_atom_site_label
_atom_site_fract_x
_atom_site_fract_y
_atom_site_fract_z
Si Si1 0.938026 0.377240 0.898950
Si Si2 0.554352 0.714455 0.745260
Si Si3 0.667147 0.377167 0.941262
Si Si4 0.426539 0.123553 0.609135
Si Si5 0.225348 0.723130 0.625036
Si Si6 0.332619 0.617481 0.811506
Si Si7 0.265313 0.380991 0.414486
Si Si8 0.993994 0.375023 0.659959
O O1 0.966424 0.500000 0.897534
O O2 0.801982 0.369762 0.914447
O O3 0.977374 0.342603 0.782795
O O4 0.000000 0.329609 0.000000
O O5 0.604802 0.700952 0.862300
O O6 0.491550 0.818224 0.704755
O O7 0.453072 0.629002 0.748613
O O8 0.655227 0.688515 0.661648
O O9 0.632744 0.500000 0.924361
O O10 0.650111 0.353678 0.065881
O O11 0.500000 0.145806 0.500000
O O12 0.297974 0.171690 0.605075
O O13 0.422896 0.000000 0.623505
O O14 0.248513 0.687986 0.745061
O O15 0.281798 0.645606 0.537282
O O16 0.090514 0.701924 0.612139
O O17 0.288555 0.500000 0.812084
O O18 0.294407 0.500000 0.390653
O O19 0.131500 0.367131 0.388726
O O20 0.027234 0.500000 0.649997
#
# Coordination Sequence:
#
# PCOD9143194 Si02
#       8
#     4   4   4   4   4   4   4   4
#     4   9  16  26  43  67 102 149 189 209 231 283
#     4  11  20  33  53  78 102 138 182 214 265 322
#     4  10  18  31  48  74 114 151 179 209 248 304
#     4  10  22  42  61  76  97 129 175 235 289 321
#     4  11  21  34  53  77 102 139 185 216 259 318
#     4  10  20  30  47  75 112 149 179 216 252 302
#     4  11  20  31  49  78 116 150 172 203 249 313
#     4  10  19  31  47  74 114 150 176 206 247 304
#
# _framework density 16.950130999999999
#
# number of rings (size 3 to 8) (size 9 to 14) (size 15 to 20)
#    0.000    1.750    2.500    3.750    0.000    4.000 
#    0.000    1.875    0.000    8.250    0.000    0.000 
#    0.000    5.000    0.000    0.000    0.000    0.000 
#
# Total GULP energy -178249.421814 kJ/mol
# GULP energy per Si atom -5570.294432 kJ/mol
# Density = 1.691155 g / cm^3
# Si number density = 16.950131 Si / 1000 Ang^3
#
#
#
# Elastic Constant Matrix: (Units=GPa)
#
#
# Indices 1 2 3 4 5 6 
#
# 1 63.2246 33.7219 22.6551 0.0000 -8.8968 0.0000
# 2 33.7219 62.1239 25.0800 0.0000 -0.0389 0.0000
# 3 22.6551 25.0800 88.7854 0.0000 -1.3044 0.0000
# 4 0.0000 0.0000 0.0000 13.6721 0.0000 -0.7985
# 5 -8.8968 -0.0389 -1.3044 0.0000 26.8134 0.0000
# 6 0.0000 0.0000 0.0000 -0.7985 0.0000 18.2607
#
#
#
# Elastic Compliance Matrix: (Units=1/GPa)
#
#
# Indices 1 2 3 4 5 6 
#
# 1 0.024368 -0.012144 -0.002671 0.000000 0.007938 0.000000
# 2 -0.012144 0.024222 -0.003805 0.000000 -0.004179 0.000000
# 3 -0.002671 -0.003805 0.013016 0.000000 -0.000259 0.000000
# 4 0.000000 0.000000 0.000000 0.073329 0.000000 0.003207
# 5 0.007938 -0.004179 -0.000259 0.000000 0.039910 0.000000
# 6 0.000000 0.000000 0.000000 0.003207 0.000000 0.054903
#
#
# Mechanical properties :
#
#
# Convention : Reuss Voigt Hill
#
# Bulk Modulus (GPa) = 41.04050 41.89424 41.46737
# Shear Modulus (GPa) = 18.17460 20.59436 19.38448
#
# Velocity S-wave (km/s) = 3.27806 3.48946 3.38541
# Velocity P-wave (km/s) = 6.21230 6.40351 6.30863
#
# Compressibility (1/GPa) = 0.02436617
#
# Stress axis : x y z
#
# Youngs Moduli (GPa) = 41.03762 41.28418 76.83068
#
# Poissons Ratio (x) = 0.50136 0.20520
# Poissons Ratio (y) = 0.49837 0.29234
# Poissons Ratio (z) = 0.10960 0.15708
#
# Static dielectric constant tensor:
#      x y z
#    x 1.625240 0.000000 0.014470 
#    y 0.000000 1.531260 0.000000 
#    z 0.014470 0.000000 1.623500 
# 
# From -- ./inp_files/46714.got.cif
#   From: 2010.05.17/outbox.cif.g08.bks.cpg/sg10_24_cif.got.tgz:46714.got - 2010.06.03 11:33:40.
