data_PCOD9143604
_publ_section_title
;
Structure prediction by ZEFSAII (Michael W. Deem and Ramdas Pophale) SiO2 
 PCOD9143604
Probable space group: P 2/M
;
_chemical_formula_sum "Si O2"
_cell_formula_units_Z 28
_cell_length_a 9.617990
_cell_length_b 7.783754
_cell_length_c 27.839068
_cell_angle_alpha 90.000000
_cell_angle_beta 42.684222
_cell_angle_gamma 90.000000
_cell_volume 1412.961843
_symmetry_space_group_name_H-M "P 2/M"
_symmetry_group_IT_number 10
_symmetry_cell_setting 'monoclinic'
loop_
_space_group_symop_operation_xyz
x,y,z
-x,y,-z
-x,-y,-z
x,-y,z
loop_
_atom_site_type_symbol
_atom_site_label
_atom_site_fract_x
_atom_site_fract_y
_atom_site_fract_z
Si Si1 0.156502 0.208703 0.920035
Si Si2 0.368376 0.306223 0.299648
Si Si3 0.765935 0.290142 0.564720
Si Si4 0.942676 0.698769 0.265330
Si Si5 0.185309 0.199841 0.806540
Si Si6 0.569425 0.290285 0.428542
Si Si7 0.373891 0.195719 0.193972
O O1 0.083867 0.246303 0.883758
O O2 0.392839 0.267051 0.868677
O O3 0.163734 0.000000 0.921845
O O4 0.000000 0.272648 0.000000
O O5 0.285200 0.500000 0.314312
O O6 0.293256 0.226917 0.367847
O O7 0.611122 0.311883 0.245328
O O8 0.326525 0.202031 0.262621
O O9 0.753266 0.500000 0.568876
O O10 0.610096 0.237034 0.562808
O O11 0.000000 0.241494 0.500000
O O12 0.886573 0.500000 0.273195
O O13 0.918380 0.781589 0.218820
O O14 0.784341 0.763897 0.347472
O O15 0.180329 0.713226 0.219374
O O16 0.246384 0.000000 0.796070
O O17 0.500000 0.233464 0.500000
O O18 0.577549 0.500000 0.429061
O O19 0.376777 0.000000 0.175635
#
# Coordination Sequence:
#
# PCOD9143604 Si02
#       7
#     4   4   4   4   4   4   4
#     4   8  16  34  59  83 105 134 177 219 255 309
#     4  10  18  32  53  77 103 136 179 221 264 316
#     4   9  17  28  46  73 101 130 174 227 266 303
#     4  11  21  35  55  79 108 144 183 223 266 319
#     4  10  19  33  56  81 107 140 173 216 268 313
#     4   9  18  31  48  73 103 136 180 229 268 303
#     4  10  21  35  54  81 109 138 175 219 269 317
#
# _framework density 19.816531000000001
#
# number of rings (size 3 to 8) (size 9 to 14) (size 15 to 20)
#    0.000    2.429    1.429    2.571    2.000    0.000 
#    0.000    0.714    0.000   24.857    0.000    0.000 
#    0.000    0.000    0.000    0.000    0.000    0.000 
#
# Total GULP energy -155907.332306 kJ/mol
# GULP energy per Si atom -5568.119011 kJ/mol
# Density = 1.977143 g / cm^3
# Si number density = 19.816531 Si / 1000 Ang^3
#
#
#
# Elastic Constant Matrix: (Units=GPa)
#
#
# Indices 1 2 3 4 5 6 
#
# 1 99.4835 2.2915 64.8873 0.0000 5.1149 0.0000
# 2 2.2915 36.2099 7.7588 0.0000 2.4453 0.0000
# 3 64.8873 7.7588 157.6742 0.0000 24.3179 0.0000
# 4 0.0000 0.0000 0.0000 21.5360 0.0000 2.7554
# 5 5.1149 2.4453 24.3179 0.0000 24.4905 0.0000
# 6 0.0000 0.0000 0.0000 2.7554 0.0000 27.5839
#
#
#
# Elastic Compliance Matrix: (Units=1/GPa)
#
#
# Indices 1 2 3 4 5 6 
#
# 1 0.013963 0.000237 -0.006264 0.000000 0.003280 0.000000
# 2 0.000237 0.027974 -0.001223 0.000000 -0.001628 0.000000
# 3 -0.006264 -0.001223 0.010344 0.000000 -0.008840 0.000000
# 4 0.000000 0.000000 0.000000 0.047035 0.000000 -0.004698
# 5 0.003280 -0.001628 -0.008840 0.000000 0.049088 0.000000
# 6 0.000000 0.000000 0.000000 -0.004698 0.000000 0.036722
#
#
# Mechanical properties :
#
#
# Convention : Reuss Voigt Hill
#
# Bulk Modulus (GPa) = 26.46819 49.24920 37.85869
# Shear Modulus (GPa) = 23.56058 29.28408 26.42233
#
# Velocity S-wave (km/s) = 3.45184 3.84834 3.65547
# Velocity P-wave (km/s) = 5.41041 6.68227 6.07969
#
# Compressibility (1/GPa) = 0.03778121
#
# Stress axis : x y z
#
# Youngs Moduli (GPa) = 71.61613 35.74775 96.67889
#
# Poissons Ratio (x) = -0.00847 0.60558
# Poissons Ratio (y) = -0.01697 0.11823
# Poissons Ratio (z) = 0.44859 0.04372
#
# Static dielectric constant tensor:
#      x y z
#    x 1.692210 0.000000 0.049970 
#    y 0.000000 1.730340 0.000000 
#    z 0.049970 0.000000 1.891380 
# 
# From -- ./inp_files/86700.got.cif
#   From: 2010.05.17/outbox.cif.g08.bks.cpg/sg10_44_cif.got.tgz:86700.got - 2010.06.03 11:33:40.
