data_PCOD9143024
_publ_section_title
;
Structure prediction by ZEFSAII (Michael W. Deem and Ramdas Pophale) SiO2 
 PCOD9143024
Probable space group: P 2/M
;
_chemical_formula_sum "Si O2"
_cell_formula_units_Z 32
_cell_length_a 16.880695
_cell_length_b 7.391333
_cell_length_c 21.855870
_cell_angle_alpha 90.000000
_cell_angle_beta 28.434825
_cell_angle_gamma 90.000000
_cell_volume 1298.473195
_symmetry_space_group_name_H-M "P 2/M"
_symmetry_group_IT_number 10
_symmetry_cell_setting 'monoclinic'
loop_
_space_group_symop_operation_xyz
x,y,z
-x,y,-z
-x,-y,-z
x,-y,z
loop_
_atom_site_type_symbol
_atom_site_label
_atom_site_fract_x
_atom_site_fract_y
_atom_site_fract_z
Si Si1 0.180476 0.220103 0.090010
Si Si2 0.006150 0.780344 0.079292
Si Si3 0.323448 0.781662 0.491331
Si Si4 0.856699 0.291913 0.637822
Si Si5 0.310226 0.219248 0.636786
Si Si6 0.009753 0.211376 0.326428
Si Si7 0.346604 0.779638 0.792500
Si Si8 0.511931 0.782482 0.810363
O O1 0.090187 0.264078 0.087787
O O2 0.098162 0.290870 0.207080
O O3 0.178487 0.000000 0.092817
O O4 0.370884 0.275570 0.953756
O O5 0.816034 0.719769 0.223864
O O6 0.997150 0.000000 0.078533
O O7 0.151696 0.721147 0.932130
O O8 0.249031 0.742285 0.609101
O O9 0.181812 0.720615 0.539367
O O10 0.512546 0.717202 0.351470
O O11 0.342340 0.000000 0.475416
O O12 0.900597 0.500000 0.617490
O O13 0.687847 0.280773 0.715024
O O14 0.000000 0.203738 0.500000
O O15 0.871949 0.218987 0.695625
O O16 0.500000 0.282597 0.500000
O O17 0.317257 0.000000 0.639056
O O18 0.985264 0.000000 0.330228
O O19 0.441040 0.731881 0.791968
O O20 0.334673 0.000000 0.796348
O O21 0.520714 0.000000 0.802631
#
# Coordination Sequence:
#
# PCOD9143024 Si02
#       8
#     4   4   4   4   4   4   4   4
#     4   8  14  26  46  70  88 108 145 195 234 264
#     4   8  12  22  36  54  83 115 144 178 225 268
#     4   9  15  24  39  62  84 106 148 194 222 256
#     4  11  24  37  45  60  92 126 150 184 239 287
#     4   9  15  22  34  54  85 121 147 173 220 278
#     4  10  18  30  51  70  86 114 156 197 228 264
#     4   8  14  23  40  61  80 106 147 196 227 250
#     4   9  17  31  50  69  88 113 154 196 231 270
#
# _framework density 24.644328999999999
#
# number of rings (size 3 to 8) (size 9 to 14) (size 15 to 20)
#    0.000    3.000    1.250    2.625    0.000    2.500 
#    0.000    3.750    0.000    3.750    0.000    0.000 
#    0.000    0.500    0.000    0.250    0.000   23.000 
#
# Total GULP energy -178427.240106 kJ/mol
# GULP energy per Si atom -5575.851253 kJ/mol
# Density = 2.458824 g / cm^3
# Si number density = 24.644329 Si / 1000 Ang^3
#
#
#
# Elastic Constant Matrix: (Units=GPa)
#
#
# Indices 1 2 3 4 5 6 
#
# 1 66.4390 -7.1872 49.1795 0.0000 -1.7359 0.0000
# 2 -7.1872 73.1603 2.4321 0.0000 5.4377 0.0000
# 3 49.1795 2.4321 210.9968 0.0000 9.1823 0.0000
# 4 0.0000 0.0000 0.0000 -10.4672 0.0000 9.4318
# 5 -1.7359 5.4377 9.1823 0.0000 47.8966 0.0000
# 6 0.0000 0.0000 0.0000 9.4318 0.0000 -12.7037
#
#
#
# Elastic Compliance Matrix: (Units=1/GPa)
#
#
# Indices 1 2 3 4 5 6 
#
# 1 0.018546 0.001871 -0.004401 0.000000 0.001303 0.000000
# 2 0.001871 0.013976 -0.000536 0.000000 -0.001416 0.000000
# 3 -0.004401 -0.000536 0.005824 0.000000 -0.001215 0.000000
# 4 0.000000 0.000000 0.000000 -0.288628 0.000000 -0.214290
# 5 0.001303 -0.001416 -0.001215 0.000000 0.021319 0.000000
# 6 0.000000 0.000000 0.000000 -0.214290 0.000000 -0.237815
#
#
# Mechanical properties :
#
#
# Convention : Reuss Voigt Hill
#
# Bulk Modulus (GPa) = 31.04159 48.82721 39.93440
# Shear Modulus (GPa) = -11.11336 25.35657 7.12161
#
# Velocity S-wave (km/s) = -2.12586 3.21113 1.70177
# Velocity P-wave (km/s) = 2.56855 5.79692 4.48340
#
# Compressibility (1/GPa) = 0.03221485
#
# Stress axis : x y z
#
# Youngs Moduli (GPa) = 53.92127 71.55374 171.69605
#
# Poissons Ratio (x) = -0.13390 0.75562
# Poissons Ratio (y) = -0.10090 0.09197
# Poissons Ratio (z) = 0.23730 0.03833
#
# Static dielectric constant tensor:
#      x y z
#    x 1.998240 0.000000 0.003810 
#    y 0.000000 1.943780 0.000000 
#    z 0.003810 0.000000 1.987500 
# 
# From -- ./inp_files/93829.got.cif
#   From: 2010.05.17/outbox.cif.g08.bks.cpg/sg10_47_cif.got.tgz:93829.got - 2010.06.03 11:33:40.
