data_PCOD9143625
_publ_section_title
;
Structure prediction by ZEFSAII (Michael W. Deem and Ramdas Pophale) SiO2 
 PCOD9143625
Probable space group: P 2/M
;
_chemical_formula_sum "Si O2"
_cell_formula_units_Z 30
_cell_length_a 12.213862
_cell_length_b 18.149041
_cell_length_c 10.068698
_cell_angle_alpha 90.000000
_cell_angle_beta 142.035323
_cell_angle_gamma 90.000000
_cell_volume 1373.026976
_symmetry_space_group_name_H-M "P 2/M"
_symmetry_group_IT_number 10
_symmetry_cell_setting 'monoclinic'
loop_
_space_group_symop_operation_xyz
x,y,z
-x,y,-z
-x,-y,-z
x,-y,z
loop_
_atom_site_type_symbol
_atom_site_label
_atom_site_fract_x
_atom_site_fract_y
_atom_site_fract_z
Si Si1 0.564284 0.083441 0.409903
Si Si2 0.721683 0.815779 0.009521
Si Si3 0.921894 0.415321 0.772777
Si Si4 0.714204 0.361000 0.966664
Si Si5 0.500000 0.362459 0.000000
Si Si6 0.111675 0.181701 0.280553
Si Si7 0.196774 0.753383 0.646599
Si Si8 0.687476 0.692350 0.659938
O O1 0.500000 0.085350 0.500000
O O2 0.767743 0.109995 0.614496
O O3 0.549099 0.000000 0.344661
O O4 0.441562 0.137893 0.203900
O O5 0.751474 0.817587 0.197527
O O6 0.904054 0.834066 0.105603
O O7 0.698487 0.727430 0.970229
O O8 0.883003 0.500000 0.710037
O O9 0.750430 0.363184 0.605070
O O10 0.000000 0.408616 0.000000
O O11 0.081091 0.386510 0.832174
O O12 0.591836 0.399495 0.959505
O O13 0.669770 0.363704 0.768553
O O14 0.342607 0.310128 0.795141
O O15 0.178316 0.217984 0.481406
O O16 0.170654 0.241717 0.225230
O O17 0.000000 0.726891 0.500000
O O18 0.500000 0.732569 0.500000
#
# Coordination Sequence:
#
# PCOD9143625 Si02
#       8
#     4   4   4   4   2   4   4   4
#     4  11  25  40  55  83 119 153 193 247 308 357
#     4  10  20  37  60  82 115 154 198 241 293 363
#     4   9  19  35  53  79 118 153 189 242 301 359
#     4  10  19  34  54  85 109 150 201 240 296 352
#     4  10  18  32  53  80 119 154 196 250 294 354
#     4  11  20  36  59  87 115 149 197 251 291 348
#     4   9  19  33  55  88 117 146 193 247 301 348
#     4  11  20  31  56  87 114 146 195 248 294 352
#
# _framework density 21.849533999999998
#
# number of rings (size 3 to 8) (size 9 to 14) (size 15 to 20)
#    0.000    1.867    1.333    4.400    0.000    2.400 
#    0.000    3.000    0.000    2.400    0.000    8.400 
#    0.000    0.000    0.000    0.000    0.000    0.000 
#
# Total GULP energy -167183.203229 kJ/mol
# GULP energy per Si atom -5572.773441 kJ/mol
# Density = 2.179980 g / cm^3
# Si number density = 21.849534 Si / 1000 Ang^3
#
#
#
# Elastic Constant Matrix: (Units=GPa)
#
#
# Indices 1 2 3 4 5 6 
#
# 1 142.5904 17.0827 31.7298 0.0000 16.6940 0.0000
# 2 17.0827 91.6264 16.2301 0.0000 12.5393 0.0000
# 3 31.7298 16.2301 62.9184 0.0000 7.4820 0.0000
# 4 0.0000 0.0000 0.0000 17.7605 0.0000 7.6810
# 5 16.6940 12.5393 7.4820 0.0000 40.8462 0.0000
# 6 0.0000 0.0000 0.0000 7.6810 0.0000 4.2704
#
#
#
# Elastic Compliance Matrix: (Units=1/GPa)
#
#
# Indices 1 2 3 4 5 6 
#
# 1 0.008193 -0.000529 -0.003697 0.000000 -0.002509 0.000000
# 2 -0.000529 0.011851 -0.002436 0.000000 -0.002976 0.000000
# 3 -0.003697 -0.002436 0.018521 0.000000 -0.001134 0.000000
# 4 0.000000 0.000000 0.000000 0.253477 0.000000 -0.455915
# 5 -0.002509 -0.002976 -0.001134 0.000000 0.026629 0.000000
# 6 0.000000 0.000000 0.000000 -0.455915 0.000000 1.054196
#
#
# Mechanical properties :
#
#
# Convention : Reuss Voigt Hill
#
# Bulk Modulus (GPa) = 39.61883 47.46895 43.54389
# Shear Modulus (GPa) = 3.58524 28.04826 15.81675
#
# Velocity S-wave (km/s) = 1.28236 3.58676 2.69345
# Velocity P-wave (km/s) = 4.51271 6.23905 5.44473
#
# Compressibility (1/GPa) = 0.02524052
#
# Stress axis : x y z
#
# Youngs Moduli (GPa) = 122.05761 84.37863 53.99216
#
# Poissons Ratio (x) = 0.04466 0.19960
# Poissons Ratio (y) = 0.06461 0.13154
# Poissons Ratio (z) = 0.45122 0.20558
#
# Static dielectric constant tensor:
#      x y z
#    x 1.911000 0.000000 -0.048210 
#    y 0.000000 1.761280 0.000000 
#    z -0.048210 0.000000 1.947240 
# 
# From -- ./inp_files/47920.got.cif
#   From: 2010.05.17/outbox.cif.g08.bks.cpg/sg10_24_cif.got.tgz:47920.got - 2010.06.03 11:33:40.
