data_PCOD9143109
_publ_section_title
;
Structure prediction by ZEFSAII (Michael W. Deem and Ramdas Pophale) SiO2 
 PCOD9143109
Probable space group: P 2/M
;
_chemical_formula_sum "Si O2"
_cell_formula_units_Z 32
_cell_length_a 20.148511
_cell_length_b 13.628308
_cell_length_c 12.916309
_cell_angle_alpha 90.000000
_cell_angle_beta 27.018700
_cell_angle_gamma 90.000000
_cell_volume 1611.195214
_symmetry_space_group_name_H-M "P 2/M"
_symmetry_group_IT_number 10
_symmetry_cell_setting 'monoclinic'
loop_
_space_group_symop_operation_xyz
x,y,z
-x,y,-z
-x,-y,-z
x,-y,z
loop_
_atom_site_type_symbol
_atom_site_label
_atom_site_fract_x
_atom_site_fract_y
_atom_site_fract_z
Si Si1 0.218858 0.387421 0.420268
Si Si2 0.109724 0.882911 0.486734
Si Si3 0.787245 0.881345 0.888090
Si Si4 0.901324 0.618145 0.860250
Si Si5 0.640474 0.387933 0.378765
Si Si6 0.631324 0.195396 0.741691
Si Si7 0.505069 0.235733 0.270326
Si Si8 0.261745 0.387073 0.119467
O O1 0.247746 0.500000 0.410671
O O2 0.340779 0.312184 0.286451
O O3 0.203998 0.384674 0.316028
O O4 0.060420 0.349765 0.676101
O O5 0.178712 0.851703 0.279544
O O6 0.219838 0.850780 0.422618
O O7 0.939478 0.853522 0.733349
O O8 0.106534 0.000000 0.485744
O O9 0.771966 0.000000 0.913031
O O10 0.636809 0.830705 0.133808
O O11 0.915845 0.500000 0.834598
O O12 0.848777 0.645644 0.817624
O O13 0.776305 0.638764 0.116910
O O14 0.500000 0.395042 0.500000
O O15 0.662922 0.500000 0.390743
O O16 0.601291 0.299127 0.509639
O O17 0.584217 0.174460 0.690318
O O18 0.500000 0.165341 0.000000
O O19 0.598234 0.319127 0.081884
O O20 0.301243 0.500000 0.040591
#
# Coordination Sequence:
#
# PCOD9143109 Si02
#       8
#     4   4   4   4   4   4   4   4
#     4  10  21  34  50  76 118 157 187 224 276 343
#     4   9  19  37  59  82 116 155 186 229 286 346
#     4   9  19  36  59  86 113 148 191 232 284 345
#     4   9  18  34  54  77 103 144 200 246 278 316
#     4  10  20  36  57  81 110 150 204 251 284 323
#     4  12  23  35  48  85 123 156 186 220 286 354
#     4  12  22  34  54  86 118 152 187 233 288 337
#     4  10  18  30  52  82 113 146 184 229 284 336
#
# _framework density 19.861032000000002
#
# number of rings (size 3 to 8) (size 9 to 14) (size 15 to 20)
#    0.000    1.875    3.750    1.500    1.750    3.500 
#    0.000    0.625    0.000    2.625    0.000    0.875 
#    0.000    4.000    0.000    0.000    0.000    0.000 
#
# Total GULP energy -178531.319626 kJ/mol
# GULP energy per Si atom -5579.103738 kJ/mol
# Density = 1.981583 g / cm^3
# Si number density = 19.861032 Si / 1000 Ang^3
#
#
#
# Elastic Constant Matrix: (Units=GPa)
#
#
# Indices 1 2 3 4 5 6 
#
# 1 53.9572 5.3088 6.0637 0.0000 -21.1845 0.0000
# 2 5.3088 52.5403 6.6925 0.0000 -6.9968 0.0000
# 3 6.0637 6.6925 49.7078 0.0000 -10.4642 0.0000
# 4 0.0000 0.0000 0.0000 7.8945 0.0000 -6.1310
# 5 -21.1845 -6.9968 -10.4642 0.0000 22.6943 0.0000
# 6 0.0000 0.0000 0.0000 -6.1310 0.0000 22.4982
#
#
#
# Elastic Compliance Matrix: (Units=1/GPa)
#
#
# Indices 1 2 3 4 5 6 
#
# 1 0.029534 0.000552 0.002395 0.000000 0.028844 0.000000
# 2 0.000552 0.019964 -0.001496 0.000000 0.005980 0.000000
# 3 0.002395 -0.001496 0.022593 0.000000 0.012192 0.000000
# 4 0.000000 0.000000 0.000000 0.160675 0.000000 0.043786
# 5 0.028844 0.005980 0.012192 0.000000 0.078455 0.000000
# 6 0.000000 0.000000 0.000000 0.043786 0.000000 0.056380
#
#
# Mechanical properties :
#
#
# Convention : Reuss Voigt Hill
#
# Bulk Modulus (GPa) = 13.33451 21.37058 17.35254
# Shear Modulus (GPa) = 12.83045 19.82677 16.32861
#
# Velocity S-wave (km/s) = 2.54443 3.16298 2.87041
# Velocity P-wave (km/s) = 3.91927 4.91148 4.44316
#
# Compressibility (1/GPa) = 0.07499339
#
# Stress axis : x y z
#
# Youngs Moduli (GPa) = 33.85873 50.08957 44.26056
#
# Poissons Ratio (x) = -0.02764 -0.10600
# Poissons Ratio (y) = -0.01869 0.06623
# Poissons Ratio (z) = -0.08109 0.07495
#
# Static dielectric constant tensor:
#      x y z
#    x 1.833250 0.000000 -0.104150 
#    y 0.000000 1.763150 0.000000 
#    z -0.104150 0.000000 1.788860 
# 
# From -- ./inp_files/53999.got.cif
#   From: 2010.05.17/outbox.cif.g08.bks.cpg/sg10_27_cif.got.tgz:53999.got - 2010.06.03 11:33:40.
