data_PCOD9143606
_publ_section_title
;
Structure prediction by ZEFSAII (Michael W. Deem and Ramdas Pophale) SiO2 
 PCOD9143606
Probable space group: P 2/M
;
_chemical_formula_sum "Si O2"
_cell_formula_units_Z 32
_cell_length_a 21.898153
_cell_length_b 8.675092
_cell_length_c 12.058167
_cell_angle_alpha 90.000000
_cell_angle_beta 127.605171
_cell_angle_gamma 90.000000
_cell_volume 1814.749398
_symmetry_space_group_name_H-M "P 2/M"
_symmetry_group_IT_number 10
_symmetry_cell_setting 'monoclinic'
loop_
_space_group_symop_operation_xyz
x,y,z
-x,y,-z
-x,-y,-z
x,-y,z
loop_
_atom_site_type_symbol
_atom_site_label
_atom_site_fract_x
_atom_site_fract_y
_atom_site_fract_z
Si Si1 0.851606 0.813959 0.768006
Si Si2 0.965913 0.185556 0.694921
Si Si3 0.428139 0.183636 0.783235
Si Si4 0.757607 0.685950 0.090513
Si Si5 0.722374 0.684317 0.477346
Si Si6 0.409541 0.685396 0.010208
Si Si7 0.130283 0.186006 0.958403
Si Si8 0.161805 0.314720 0.594551
O O1 0.917290 0.770720 0.751443
O O2 0.772290 0.741629 0.636356
O O3 0.845443 0.000000 0.758502
O O4 0.871634 0.766714 0.915008
O O5 0.919010 0.249847 0.538542
O O6 0.053191 0.239420 0.809035
O O7 0.965766 0.000000 0.688017
O O8 0.360783 0.239478 0.627612
O O9 0.408079 0.250565 0.883061
O O10 0.431115 0.000000 0.792338
O O11 0.512568 0.249744 0.849500
O O12 0.760322 0.500000 0.090148
O O13 0.669199 0.730128 0.015748
O O14 0.795244 0.752917 0.022335
O O15 0.808753 0.737765 0.253080
O O16 0.714938 0.500000 0.469759
O O17 0.773756 0.728533 0.426045
O O18 0.413391 0.500000 0.008433
O O19 0.130172 0.000000 0.956363
O O20 0.157589 0.500000 0.590710
#
# Coordination Sequence:
#
# PCOD9143606 Si02
#       8
#     4   4   4   4   4   4   4   4
#     4   9  18  34  54  76 101 132 172 219 263 302
#     4   9  18  33  53  76 100 131 170 216 263 308
#     4  11  20  30  50  82 110 133 166 208 254 305
#     4  10  21  36  52  71 103 142 176 208 249 306
#     4  10  18  32  53  77 105 136 170 210 257 306
#     4  10  19  34  52  73 105 142 172 207 250 300
#     4  10  21  35  52  74 102 136 174 215 261 309
#     4   9  18  33  50  72 101 135 171 210 255 302
#
# _framework density 17.633289999999999
#
# number of rings (size 3 to 8) (size 9 to 14) (size 15 to 20)
#    0.000    2.250    1.250    3.000    0.000    5.000 
#    0.000    2.500    0.000    4.500    0.000    5.250 
#    0.000    0.000    0.000    0.000    0.000    0.000 
#
# Total GULP energy -178572.821459 kJ/mol
# GULP energy per Si atom -5580.400671 kJ/mol
# Density = 1.759316 g / cm^3
# Si number density = 17.633290 Si / 1000 Ang^3
#
#
#
# Elastic Constant Matrix: (Units=GPa)
#
#
# Indices 1 2 3 4 5 6 
#
# 1 64.9572 14.9693 14.4804 0.0000 22.3814 0.0000
# 2 14.9693 31.7873 12.1186 0.0000 11.3994 0.0000
# 3 14.4804 12.1186 41.0632 0.0000 27.6314 0.0000
# 4 0.0000 0.0000 0.0000 45.6047 0.0000 15.5391
# 5 22.3814 11.3994 27.6314 0.0000 27.8705 0.0000
# 6 0.0000 0.0000 0.0000 15.5391 0.0000 31.7355
#
#
#
# Elastic Compliance Matrix: (Units=1/GPa)
#
#
# Indices 1 2 3 4 5 6 
#
# 1 0.024283 -0.005628 0.014031 0.000000 -0.031109 0.000000
# 2 -0.005628 0.038238 -0.005460 0.000000 -0.005707 0.000000
# 3 0.014031 -0.005460 0.081399 0.000000 -0.089735 0.000000
# 4 0.000000 0.000000 0.000000 0.026318 0.000000 -0.012887
# 5 -0.031109 -0.005707 -0.089735 0.000000 0.152162 0.000000
# 6 0.000000 0.000000 0.000000 -0.012887 0.000000 0.037820
#
#
# Mechanical properties :
#
#
# Convention : Reuss Voigt Hill
#
# Bulk Modulus (GPa) = 6.67533 24.54939 15.61236
# Shear Modulus (GPa) = 12.36803 27.45811 19.91307
#
# Velocity S-wave (km/s) = 2.65127 3.95039 3.36413
# Velocity P-wave (km/s) = 3.62852 5.89574 4.89520
#
# Compressibility (1/GPa) = 0.14980535
#
# Stress axis : x y z
#
# Youngs Moduli (GPa) = 41.18160 26.15224 12.28522
#
# Poissons Ratio (x) = 0.14719 -0.17238
# Poissons Ratio (y) = 0.23179 0.06707
# Poissons Ratio (z) = -0.57783 0.14278
#
# Static dielectric constant tensor:
#      x y z
#    x 1.588400 0.000000 0.015260 
#    y 0.000000 1.595110 0.000000 
#    z 0.015260 0.000000 1.601030 
# 
# From -- ./inp_files/54929.got.cif
#   From: 2010.05.17/outbox.cif.g08.bks.cpg/sg10_28_cif.got.tgz:54929.got - 2010.06.03 11:33:40.
