data_PCOD9143279
_publ_section_title
;
Structure prediction by ZEFSAII (Michael W. Deem and Ramdas Pophale) SiO2 
 PCOD9143279
Probable space group: P 2/M
;
_chemical_formula_sum "Si O2"
_cell_formula_units_Z 32
_cell_length_a 12.258303
_cell_length_b 8.174104
_cell_length_c 22.169584
_cell_angle_alpha 90.000000
_cell_angle_beta 130.008208
_cell_angle_gamma 90.000000
_cell_volume 1701.491598
_symmetry_space_group_name_H-M "P 2/M"
_symmetry_group_IT_number 10
_symmetry_cell_setting 'monoclinic'
loop_
_space_group_symop_operation_xyz
x,y,z
-x,y,-z
-x,-y,-z
x,-y,z
loop_
_atom_site_type_symbol
_atom_site_label
_atom_site_fract_x
_atom_site_fract_y
_atom_site_fract_z
Si Si1 0.635656 0.810790 0.776401
Si Si2 0.283178 0.309726 0.838437
Si Si3 0.020045 0.804823 0.317033
Si Si4 0.858636 0.801470 0.761516
Si Si5 0.829032 0.806629 0.079615
Si Si6 0.166386 0.308894 0.050280
Si Si7 0.950739 0.698106 0.416718
Si Si8 0.356452 0.305064 0.738630
O O1 0.725754 0.739008 0.752586
O O2 0.740239 0.794785 0.870734
O O3 0.489399 0.728778 0.743734
O O4 0.604968 0.000000 0.753036
O O5 0.315809 0.500000 0.860289
O O6 0.123411 0.288511 0.754466
O O7 0.274458 0.225675 0.900432
O O8 0.374826 0.242526 0.814404
O O9 0.047550 0.758696 0.395664
O O10 0.135705 0.761838 0.307306
O O11 0.992477 0.000000 0.302466
O O12 0.011140 0.750002 0.844008
O O13 0.856919 0.000000 0.765962
O O14 0.835647 0.000000 0.071061
O O15 0.791309 0.720096 0.003926
O O16 0.185134 0.500000 0.072161
O O17 0.000000 0.266923 0.000000
O O18 0.951714 0.500000 0.416911
O O19 0.790711 0.756013 0.343229
O O20 0.000000 0.753702 0.500000
O O21 0.340862 0.500000 0.739835
#
# Coordination Sequence:
#
# PCOD9143279 Si02
#       8
#     4   4   4   4   4   4   4   4
#     4  11  21  34  52  72 100 138 174 208 254 308
#     4   9  17  31  50  71  99 133 168 210 259 305
#     4   9  16  28  48  76 104 129 164 208 251 295
#     4   8  16  29  46  70  99 131 164 206 252 292
#     4  10  18  31  51  73  99 129 169 219 263 302
#     4  11  22  34  49  73 102 133 173 217 259 305
#     4   9  18  34  56  80 106 135 164 202 255 305
#     4   9  19  35  52  74 104 133 165 208 253 303
#
# _framework density 18.807027999999999
#
# number of rings (size 3 to 8) (size 9 to 14) (size 15 to 20)
#    0.000    2.500    1.250    3.375    0.000    3.250 
#    0.000    2.500    0.000    4.500    0.000    5.250 
#    0.000    0.000    0.000    0.000    0.000    0.000 
#
# Total GULP energy -178355.175648 kJ/mol
# GULP energy per Si atom -5573.599239 kJ/mol
# Density = 1.876422 g / cm^3
# Si number density = 18.807028 Si / 1000 Ang^3
#
#
#
# Elastic Constant Matrix: (Units=GPa)
#
#
# Indices 1 2 3 4 5 6 
#
# 1 130.9596 0.7490 35.4751 0.0000 -27.8726 0.0000
# 2 0.7490 13.7411 -1.9116 0.0000 2.9350 0.0000
# 3 35.4751 -1.9116 43.1520 0.0000 -25.2925 0.0000
# 4 0.0000 0.0000 0.0000 2.0444 0.0000 -0.3079
# 5 -27.8726 2.9350 -25.2925 0.0000 29.6327 0.0000
# 6 0.0000 0.0000 0.0000 -0.3079 0.0000 22.9815
#
#
#
# Elastic Compliance Matrix: (Units=1/GPa)
#
#
# Indices 1 2 3 4 5 6 
#
# 1 0.010240 -0.002430 -0.005482 0.000000 0.005194 0.000000
# 2 -0.002430 0.075014 -0.000748 0.000000 -0.010354 0.000000
# 3 -0.005482 -0.000748 0.049365 0.000000 0.037052 0.000000
# 4 0.000000 0.000000 0.000000 0.490123 0.000000 0.006566
# 5 0.005194 -0.010354 0.037052 0.000000 0.071282 0.000000
# 6 0.000000 0.000000 0.000000 0.006566 0.000000 0.043601
#
#
# Mechanical properties :
#
#
# Convention : Reuss Voigt Hill
#
# Bulk Modulus (GPa) = 8.52522 28.49752 18.51137
# Shear Modulus (GPa) = 6.28105 21.16775 13.72440
#
# Velocity S-wave (km/s) = 1.82948 3.35852 2.70432
# Velocity P-wave (km/s) = 3.00091 5.49773 4.42891
#
# Compressibility (1/GPa) = 0.11729899
#
# Stress axis : x y z
#
# Youngs Moduli (GPa) = 97.65426 13.33082 20.25747
#
# Poissons Ratio (x) = 0.03239 0.11105
# Poissons Ratio (y) = 0.23731 0.01515
# Poissons Ratio (z) = 0.53534 0.00997
#
# Static dielectric constant tensor:
#      x y z
#    x 1.700170 0.000000 -0.025400 
#    y 0.000000 1.652820 0.000000 
#    z -0.025400 0.000000 1.638490 
# 
# From -- ./inp_files/54785.got.cif
#   From: 2010.05.17/outbox.cif.g08.bks.cpg/sg10_28_cif.got.tgz:54785.got - 2010.06.03 11:33:40.
