data_PCOD9143311
_publ_section_title
;
Structure prediction by ZEFSAII (Michael W. Deem and Ramdas Pophale) SiO2 
 PCOD9143311
Probable space group: P 2/M
;
_chemical_formula_sum "Si O2"
_cell_formula_units_Z 30
_cell_length_a 22.704518
_cell_length_b 9.539388
_cell_length_c 11.634897
_cell_angle_alpha 90.000000
_cell_angle_beta 135.456538
_cell_angle_gamma 90.000000
_cell_volume 1767.633102
_symmetry_space_group_name_H-M "P 2/M"
_symmetry_group_IT_number 10
_symmetry_cell_setting 'monoclinic'
loop_
_space_group_symop_operation_xyz
x,y,z
-x,y,-z
-x,-y,-z
x,-y,z
loop_
_atom_site_type_symbol
_atom_site_label
_atom_site_fract_x
_atom_site_fract_y
_atom_site_fract_z
Si Si1 0.000000 0.753275 0.000000
Si Si2 0.866570 0.838887 0.630644
Si Si3 0.083834 0.170157 0.553121
Si Si4 0.576612 0.831040 0.447171
Si Si5 0.728796 0.664709 0.567781
Si Si6 0.392701 0.168931 0.240482
Si Si7 0.853451 0.343972 0.954801
Si Si8 0.792337 0.830877 0.076848
O O1 0.937111 0.835146 0.828260
O O2 0.938469 0.669177 0.999280
O O3 0.905306 0.788208 0.563883
O O4 0.790311 0.740741 0.563694
O O5 0.837945 0.000000 0.577622
O O6 0.162968 0.208610 0.742312
O O7 0.000000 0.221891 0.500000
O O8 0.078801 0.000000 0.544915
O O9 0.641676 0.746818 0.460159
O O10 0.599722 0.801486 0.613015
O O11 0.479200 0.786483 0.300095
O O12 0.583848 0.000000 0.440648
O O13 0.718156 0.500000 0.528611
O O14 0.778507 0.676290 0.758622
O O15 0.392486 0.000000 0.231341
O O16 0.303855 0.219271 0.068582
O O17 0.847059 0.500000 0.995140
O O18 0.844319 0.231386 0.042444
O O19 0.793302 0.000000 0.069411
#
# Coordination Sequence:
#
# PCOD9143311 Si02
#       8
#     2   4   4   4   4   4   4   4
#     4  10  20  32  50  70  96 126 164 204 244 290
#     4  10  20  34  52  74  96 126 166 204 247 293
#     4   9  18  32  50  74 101 125 158 207 248 282
#     4   9  15  28  48  72 102 129 160 199 243 292
#     4  10  20  32  47  71 103 133 161 198 245 293
#     4   8  15  26  46  75 101 127 159 200 244 288
#     4  10  20  32  46  68  99 131 161 198 244 289
#     4  10  18  31  52  73  97 129 163 199 242 293
#
# _framework density 16.971848999999999
#
# number of rings (size 3 to 8) (size 9 to 14) (size 15 to 20)
#    0.000    2.533    1.333    2.400    0.000    4.267 
#    0.000    2.667    0.000    2.400    0.000    5.600 
#    0.000    0.000    0.000    0.000    0.000    0.000 
#
# Total GULP energy -167124.145333 kJ/mol
# GULP energy per Si atom -5570.804844 kJ/mol
# Density = 1.693322 g / cm^3
# Si number density = 16.971849 Si / 1000 Ang^3
#
#
#
# Elastic Constant Matrix: (Units=GPa)
#
#
# Indices 1 2 3 4 5 6 
#
# 1 134.7590 41.9667 55.5950 0.0000 12.7806 0.0000
# 2 41.9667 47.7230 18.2544 0.0000 1.6634 0.0000
# 3 55.5950 18.2544 81.0821 0.0000 8.5034 0.0000
# 4 0.0000 0.0000 0.0000 6.3889 0.0000 0.4801
# 5 12.7806 1.6634 8.5034 0.0000 29.7482 0.0000
# 6 0.0000 0.0000 0.0000 0.4801 0.0000 3.7727
#
#
#
# Elastic Compliance Matrix: (Units=1/GPa)
#
#
# Indices 1 2 3 4 5 6 
#
# 1 0.013334 -0.009023 -0.006766 0.000000 -0.003290 0.000000
# 2 -0.009023 0.029036 -0.000605 0.000000 0.002426 0.000000
# 3 -0.006766 -0.000605 0.017319 0.000000 -0.002010 0.000000
# 4 0.000000 0.000000 0.000000 0.158033 0.000000 -0.020111
# 5 -0.003290 0.002426 -0.002010 0.000000 0.035468 0.000000
# 6 0.000000 0.000000 0.000000 -0.020111 0.000000 0.267625
#
#
# Mechanical properties :
#
#
# Convention : Reuss Voigt Hill
#
# Bulk Modulus (GPa) = 37.17267 55.02182 46.09724
# Shear Modulus (GPa) = 8.88780 17.83182 13.35981
#
# Velocity S-wave (km/s) = 2.29089 3.24492 2.80871
# Velocity P-wave (km/s) = 5.38030 6.82123 6.14316
#
# Compressibility (1/GPa) = 0.02690148
#
# Stress axis : x y z
#
# Youngs Moduli (GPa) = 74.99609 34.44050 57.73848
#
# Poissons Ratio (x) = 0.31075 0.39067
# Poissons Ratio (y) = 0.67668 0.03491
# Poissons Ratio (z) = 0.50744 0.02082
#
# Static dielectric constant tensor:
#      x y z
#    x 1.571500 0.000000 0.021930 
#    y 0.000000 1.567100 0.000000 
#    z 0.021930 0.000000 1.580190 
# 
# From -- ./inp_files/56641.got.cif
#   From: 2010.05.17/outbox.cif.g08.bks.cpg/sg10_29_cif.got.tgz:56641.got - 2010.06.03 11:33:40.
