data_PCOD9143853
_publ_section_title
;
Structure prediction by ZEFSAII (Michael W. Deem and Ramdas Pophale) SiO2 
 PCOD9143853
Probable space group: P 2/M
;
_chemical_formula_sum "Si O2"
_cell_formula_units_Z 24
_cell_length_a 7.799936
_cell_length_b 17.186589
_cell_length_c 10.897392
_cell_angle_alpha 90.000000
_cell_angle_beta 125.108235
_cell_angle_gamma 90.000000
_cell_volume 1195.066885
_symmetry_space_group_name_H-M "P 2/M"
_symmetry_group_IT_number 10
_symmetry_cell_setting 'monoclinic'
loop_
_space_group_symop_operation_xyz
x,y,z
-x,y,-z
-x,-y,-z
x,-y,z
loop_
_atom_site_type_symbol
_atom_site_label
_atom_site_fract_x
_atom_site_fract_y
_atom_site_fract_z
Si Si1 0.053888 0.589519 0.718692
Si Si2 0.272572 0.341286 0.565517
Si Si3 0.259690 0.724779 0.930233
Si Si4 0.936101 0.802913 0.653323
Si Si5 0.366539 0.086569 0.572193
Si Si6 0.362890 0.228305 0.238817
O O1 0.097658 0.500000 0.762095
O O2 0.194642 0.620193 0.660619
O O3 0.117627 0.648196 0.852764
O O4 0.813301 0.600312 0.574384
O O5 0.146553 0.264109 0.471005
O O6 0.504575 0.306419 0.673257
O O7 0.170439 0.785756 0.792858
O O8 0.500000 0.705580 0.000000
O O9 0.256456 0.758861 0.064593
O O10 0.862390 0.882866 0.562864
O O11 0.800956 0.789561 0.721413
O O12 0.500000 0.084294 0.500000
O O13 0.480415 0.153979 0.696958
O O14 0.365565 0.000000 0.624664
#
# Coordination Sequence:
#
# PCOD9143853 Si02
#       6
#     4   4   4   4   4   4
#     4  10  20  34  53  78 102 132 180 223 256 301
#     4   9  16  31  53  77  98 129 172 217 254 302
#     4  11  21  35  52  78 103 143 177 214 248 318
#     4   9  19  32  56  80 105 135 173 217 259 304
#     4   8  15  31  56  83 106 132 173 217 253 297
#     4  10  18  33  54  83 106 135 173 214 261 305
#
# _framework density 20.082559
#
# number of rings (size 3 to 8) (size 9 to 14) (size 15 to 20)
#    0.000    2.500    1.667    3.000    0.000    0.333 
#    0.000    0.833    0.000   35.000    0.000    0.000 
#    0.000    0.000    0.000    0.000    0.000    0.000 
#
# Total GULP energy -133740.706335 kJ/mol
# GULP energy per Si atom -5572.529431 kJ/mol
# Density = 2.003685 g / cm^3
# Si number density = 20.082559 Si / 1000 Ang^3
#
#
#
# Elastic Constant Matrix: (Units=GPa)
#
#
# Indices 1 2 3 4 5 6 
#
# 1 28.3660 17.4341 18.5667 0.0000 -5.8291 0.0000
# 2 17.4341 130.1618 49.3460 0.0000 -0.7167 0.0000
# 3 18.5667 49.3460 118.3881 0.0000 2.3792 0.0000
# 4 0.0000 0.0000 0.0000 -59.6043 0.0000 16.7057
# 5 -5.8291 -0.7167 2.3792 0.0000 32.8381 0.0000
# 6 0.0000 0.0000 0.0000 16.7057 0.0000 15.5595
#
#
#
# Elastic Compliance Matrix: (Units=1/GPa)
#
#
# Indices 1 2 3 4 5 6 
#
# 1 0.042591 -0.003645 -0.005318 0.000000 0.007866 0.000000
# 2 -0.003645 0.009444 -0.003361 0.000000 -0.000197 0.000000
# 3 -0.005318 -0.003361 0.010718 0.000000 -0.001794 0.000000
# 4 0.000000 0.000000 0.000000 -0.012896 0.000000 0.013846
# 5 0.007866 -0.000197 -0.001794 0.000000 0.031974 0.000000
# 6 0.000000 0.000000 0.000000 0.013846 0.000000 0.049403
#
#
# Mechanical properties :
#
#
# Convention : Reuss Voigt Hill
#
# Bulk Modulus (GPa) = 26.24359 49.73441 37.98900
# Shear Modulus (GPa) = 29.65882 10.52993 20.09437
#
# Velocity S-wave (km/s) = 3.84714 2.29231 3.16664
# Velocity P-wave (km/s) = 5.72977 5.64137 5.68574
#
# Compressibility (1/GPa) = 0.03810454
#
# Stress axis : x y z
#
# Youngs Moduli (GPa) = 23.47896 105.88713 93.30334
#
# Poissons Ratio (x) = 0.38598 0.49621
# Poissons Ratio (y) = 0.08559 0.31357
# Poissons Ratio (z) = 0.12487 0.35586
#
# Static dielectric constant tensor:
#      x y z
#    x 1.814520 0.000000 0.012320 
#    y 0.000000 1.720450 0.000000 
#    z 0.012320 0.000000 1.741590 
# 
# From -- ./inp_files/25731.got.cif
#   From: 2010.05.17/outbox.cif.g08.bks.cpg/sg10_13_cif.got.tgz:25731.got - 2010.06.03 11:33:40.
