data_PCOD9143155
_publ_section_title
;
Structure prediction by ZEFSAII (Michael W. Deem and Ramdas Pophale) SiO2 
 PCOD9143155
Probable space group: P 2/M
;
_chemical_formula_sum "Si O2"
_cell_formula_units_Z 30
_cell_length_a 14.888049
_cell_length_b 9.178954
_cell_length_c 12.594124
_cell_angle_alpha 90.000000
_cell_angle_beta 106.099494
_cell_angle_gamma 90.000000
_cell_volume 1653.573968
_symmetry_space_group_name_H-M "P 2/M"
_symmetry_group_IT_number 10
_symmetry_cell_setting 'monoclinic'
loop_
_space_group_symop_operation_xyz
x,y,z
-x,y,-z
-x,-y,-z
x,-y,z
loop_
_atom_site_type_symbol
_atom_site_label
_atom_site_fract_x
_atom_site_fract_y
_atom_site_fract_z
Si Si1 0.702412 0.671044 0.300509
Si Si2 0.202571 0.824708 0.859945
Si Si3 0.490513 0.832846 0.738678
Si Si4 0.826012 0.173861 0.759285
Si Si5 0.500000 0.248252 0.500000
Si Si6 0.288798 0.337898 0.449018
Si Si7 0.314086 0.176151 0.100647
Si Si8 0.986113 0.326968 0.121851
O O1 0.703415 0.500000 0.274468
O O2 0.767869 0.760150 0.243045
O O3 0.597891 0.735575 0.260541
O O4 0.730812 0.686007 0.433207
O O5 0.106571 0.754584 0.869377
O O6 0.195064 0.000000 0.854846
O O7 0.282734 0.783746 0.972397
O O8 0.502229 0.832801 0.614324
O O9 0.585196 0.775042 0.824127
O O10 0.474043 0.000000 0.767229
O O11 0.762163 0.219294 0.639175
O O12 0.766711 0.220503 0.843664
O O13 0.923761 0.257375 0.792159
O O14 0.840380 0.000000 0.767625
O O15 0.401110 0.331392 0.471313
O O16 0.256713 0.500000 0.407439
O O17 0.317381 0.000000 0.106511
O O18 0.979389 0.500000 0.139169
O O19 0.000000 0.304434 0.000000
#
# Coordination Sequence:
#
# PCOD9143155 Si02
#       8
#     4   4   4   4   2   4   4   4
#     4  10  23  41  57  81 119 160 199 242 291 347
#     4  11  22  40  64  85 113 155 199 243 291 346
#     4  10  19  34  55  84 117 155 200 240 286 343
#     4  11  21  37  60  90 122 151 190 242 293 345
#     4  10  18  30  56  86 116 154 196 242 288 338
#     4  10  21  37  57  83 119 158 194 238 294 349
#     4   9  19  34  55  86 120 151 186 239 295 338
#     4  11  23  39  61  91 121 152 189 235 293 354
#
# _framework density 18.142520000000001
#
# number of rings (size 3 to 8) (size 9 to 14) (size 15 to 20)
#    0.000    1.733    2.667    2.000    0.000    4.267 
#    0.000    4.667    0.000    4.000    0.000    0.000 
#    0.000    0.000    0.000    0.000    0.000    0.000 
#
# Total GULP energy -167416.835090 kJ/mol
# GULP energy per Si atom -5580.561170 kJ/mol
# Density = 1.810123 g / cm^3
# Si number density = 18.142520 Si / 1000 Ang^3
#
#
#
# Elastic Constant Matrix: (Units=GPa)
#
#
# Indices 1 2 3 4 5 6 
#
# 1 83.8753 43.2640 37.0503 0.0000 -7.0248 0.0000
# 2 43.2640 87.0230 38.4775 0.0000 -7.8139 0.0000
# 3 37.0503 38.4775 59.4870 0.0000 -0.8031 0.0000
# 4 0.0000 0.0000 0.0000 14.8552 0.0000 -12.5435
# 5 -7.0248 -7.8139 -0.8031 0.0000 32.2804 0.0000
# 6 0.0000 0.0000 0.0000 -12.5435 0.0000 -4.4116
#
#
#
# Elastic Compliance Matrix: (Units=1/GPa)
#
#
# Indices 1 2 3 4 5 6 
#
# 1 0.018441 -0.005434 -0.007937 0.000000 0.002500 0.000000
# 2 -0.005434 0.018134 -0.008304 0.000000 0.003000 0.000000
# 3 -0.007937 -0.008304 0.027084 0.000000 -0.003064 0.000000
# 4 0.000000 0.000000 0.000000 0.019794 0.000000 -0.056280
# 5 0.002500 0.003000 -0.003064 0.000000 0.032173 0.000000
# 6 0.000000 0.000000 0.000000 -0.056280 0.000000 -0.066653
#
#
# Mechanical properties :
#
#
# Convention : Reuss Voigt Hill
#
# Bulk Modulus (GPa) = 49.24196 51.99651 50.61924
# Shear Modulus (GPa) = 50.45751 15.98436 33.22093
#
# Velocity S-wave (km/s) = 5.27941 2.97146 4.28379
# Velocity P-wave (km/s) = 8.02269 6.36357 7.24080
#
# Compressibility (1/GPa) = 0.02030788
#
# Stress axis : x y z
#
# Youngs Moduli (GPa) = 54.22757 55.14475 36.92241
#
# Poissons Ratio (x) = 0.29967 0.29305
# Poissons Ratio (y) = 0.29468 0.30662
# Poissons Ratio (z) = 0.43039 0.45795
#
# Static dielectric constant tensor:
#      x y z
#    x 1.601050 0.000000 0.004600 
#    y 0.000000 1.615980 0.000000 
#    z 0.004600 0.000000 1.620830 
# 
# From -- ./inp_files/50017.got.cif
#   From: 2010.05.17/outbox.cif.g08.bks.cpg/sg10_26_cif.got.tgz:50017.got - 2010.06.03 11:33:40.
