data_PCOD9143803
_publ_section_title
;
Structure prediction by ZEFSAII (Michael W. Deem and Ramdas Pophale) SiO2 
 PCOD9143803
Probable space group: P 2/M
;
_chemical_formula_sum "Si O2"
_cell_formula_units_Z 30
_cell_length_a 5.446649
_cell_length_b 13.558234
_cell_length_c 21.583804
_cell_angle_alpha 90.000000
_cell_angle_beta 67.757739
_cell_angle_gamma 90.000000
_cell_volume 1475.298585
_symmetry_space_group_name_H-M "P 2/M"
_symmetry_group_IT_number 10
_symmetry_cell_setting 'monoclinic'
loop_
_space_group_symop_operation_xyz
x,y,z
-x,y,-z
-x,-y,-z
x,-y,z
loop_
_atom_site_type_symbol
_atom_site_label
_atom_site_fract_x
_atom_site_fract_y
_atom_site_fract_z
Si Si1 0.429228 0.330018 0.213848
Si Si2 0.616694 0.285850 0.422204
Si Si3 0.812748 0.273138 0.958168
Si Si4 0.187903 0.500000 0.041398
Si Si5 0.013025 0.682429 0.824650
Si Si6 0.195279 0.617593 0.369814
Si Si7 0.192363 0.161235 0.705092
Si Si8 0.596865 0.894940 0.768757
O O1 0.234077 0.373974 0.181683
O O2 0.309838 0.342441 0.293441
O O3 0.457070 0.212414 0.195286
O O4 0.720874 0.373974 0.181683
O O5 0.500000 0.260023 0.500000
O O6 0.392505 0.345236 0.404867
O O7 0.692927 0.194160 0.371382
O O8 0.892895 0.345236 0.404867
O O9 0.851909 0.387889 0.932061
O O10 0.925801 0.232503 0.882800
O O11 0.500000 0.255505 0.000000
O O12 0.000000 0.255505 0.000000
O O13 0.500000 0.500000 0.000000
O O14 0.000000 0.500000 0.000000
O O15 0.120596 0.741606 0.752936
O O16 0.198683 0.500000 0.367545
O O17 0.414892 0.108529 0.724918
O O18 0.910355 0.108529 0.724918
O O19 0.539627 0.000000 0.806915
#
# Coordination Sequence:
#
# PCOD9143803 Si02
#       8
#     4   4   4   2   4   4   4   4
#     4  10  19  37  53  81 114 137 180 231 279 318
#     4  12  23  40  61  80 111 153 188 234 286 327
#     4  10  19  32  48  73 102 135 184 222 265 319
#     4   8  16  30  44  60  96 130 165 226 259 296
#     4  10  18  33  57  71 107 149 170 226 273 319
#     4  12  23  40  58  81 114 147 193 239 276 328
#     4  10  19  37  55  82 116 137 181 226 283 329
#     4  10  18  32  61  84 107 141 176 227 282 330
#
# _framework density 20.334866999999999
#
# number of rings (size 3 to 8) (size 9 to 14) (size 15 to 20)
#    0.000    1.600    5.333    2.000    0.000    1.600 
#    2.400    0.000    0.000    2.400    0.000    0.000 
#    0.000  170.667    0.000    0.000    0.000    0.000 
#
# Total GULP energy -167007.154413 kJ/mol
# GULP energy per Si atom -5566.905147 kJ/mol
# Density = 2.028858 g / cm^3
# Si number density = 20.334867 Si / 1000 Ang^3
#
#
#
# Elastic Constant Matrix: (Units=GPa)
#
#
# Indices 1 2 3 4 5 6 
#
# 1 210.3452 -5.4705 39.5575 0.0000 8.0438 0.0000
# 2 -5.4705 36.8515 -37.6642 0.0000 2.3647 0.0000
# 3 39.5575 -37.6642 104.0584 0.0000 -0.2367 0.0000
# 4 0.0000 0.0000 0.0000 -9.7456 0.0000 2.6218
# 5 8.0438 2.3647 -0.2367 0.0000 31.2471 0.0000
# 6 0.0000 0.0000 0.0000 2.6218 0.0000 25.9485
#
#
#
# Elastic Compliance Matrix: (Units=1/GPa)
#
#
# Indices 1 2 3 4 5 6 
#
# 1 0.005257 -0.001882 -0.002682 0.000000 -0.001231 0.000000
# 2 -0.001882 0.044053 0.016654 0.000000 -0.002723 0.000000
# 3 -0.002682 0.016654 0.016657 0.000000 -0.000444 0.000000
# 4 0.000000 0.000000 0.000000 -0.099895 0.000000 0.010093
# 5 -0.001231 -0.002723 -0.000444 0.000000 0.032523 0.000000
# 6 0.000000 0.000000 0.000000 0.010093 0.000000 0.037518
#
#
# Mechanical properties :
#
#
# Convention : Reuss Voigt Hill
#
# Bulk Modulus (GPa) = 11.09310 38.23342 24.66326
# Shear Modulus (GPa) = 119.10152 33.14549 76.12350
#
# Velocity S-wave (km/s) = 7.66141 4.04168 6.12505
# Velocity P-wave (km/s) = 9.15041 6.37362 7.88521
#
# Compressibility (1/GPa) = 0.09014614
#
# Stress axis : x y z
#
# Youngs Moduli (GPa) = 190.23478 22.69992 60.03562
#
# Poissons Ratio (x) = 0.04273 0.16104
# Poissons Ratio (y) = 0.35806 -0.99986
# Poissons Ratio (z) = 0.51028 -0.37805
#
# Static dielectric constant tensor:
#      x y z
#    x 1.854120 0.000000 -0.018860 
#    y 0.000000 2.572020 0.000000 
#    z -0.018860 0.000000 2.110850 
# 
# From -- ./inp_files/73516.got.cif
#   From: 2010.05.17/outbox.cif.g08.bks.cpg/sg10_37_cif.got.tgz:73516.got - 2010.06.03 11:33:40.
