data_PCOD9143956
_publ_section_title
;
Structure prediction by ZEFSAII (Michael W. Deem and Ramdas Pophale) SiO2 
 PCOD9143956
Probable space group: P 2/M
;
_chemical_formula_sum "Si O2"
_cell_formula_units_Z 32
_cell_length_a 29.981178
_cell_length_b 8.674534
_cell_length_c 12.611892
_cell_angle_alpha 90.000000
_cell_angle_beta 146.350502
_cell_angle_gamma 90.000000
_cell_volume 1817.488985
_symmetry_space_group_name_H-M "P 2/M"
_symmetry_group_IT_number 10
_symmetry_cell_setting 'monoclinic'
loop_
_space_group_symop_operation_xyz
x,y,z
-x,y,-z
-x,-y,-z
x,-y,z
loop_
_atom_site_type_symbol
_atom_site_label
_atom_site_fract_x
_atom_site_fract_y
_atom_site_fract_z
Si Si1 0.467330 0.184054 0.818744
Si Si2 0.765541 0.687324 0.452136
Si Si3 0.879200 0.312358 0.494950
Si Si4 0.213907 0.182743 0.067621
Si Si5 0.618546 0.685760 0.006238
Si Si6 0.964225 0.685813 0.312767
Si Si7 0.709714 0.315104 0.568118
Si Si8 0.735245 0.314300 0.051045
O O1 0.535059 0.235389 0.869232
O O2 0.382276 0.262394 0.627579
O O3 0.457600 0.000000 0.798277
O O4 0.500000 0.230220 0.000000
O O5 0.767844 0.500000 0.457312
O O6 0.841493 0.739595 0.532044
O O7 0.757233 0.739090 0.556367
O O8 0.685108 0.729023 0.227085
O O9 0.880135 0.500000 0.497800
O O10 0.814819 0.269432 0.276238
O O11 0.968137 0.262930 0.637901
O O12 0.252429 0.250002 0.250253
O O13 0.216192 0.000000 0.075700
O O14 0.122092 0.239858 0.874720
O O15 0.260730 0.241287 0.056027
O O16 0.609486 0.500000 0.992176
O O17 0.659019 0.726021 0.973763
O O18 0.954986 0.500000 0.288141
O O19 0.000000 0.719860 0.500000
O O20 0.712794 0.500000 0.577158
O O21 0.737248 0.500000 0.044990
#
# Coordination Sequence:
#
# PCOD9143956 Si02
#       8
#     4   4   4   4   4   4   4   4
#     4  11  22  35  54  84 121 151 180 221 275 334
#     4   8  15  29  53  84 109 135 177 232 279 314
#     4   8  14  28  54  85 111 133 173 233 280 316
#     4  12  25  38  53  78 118 153 183 224 281 343
#     4   9  17  32  58  87 111 138 183 235 273 318
#     4  10  18  33  59  85 109 142 187 231 272 323
#     4  11  22  38  60  80 107 147 195 235 272 324
#     4   9  17  34  58  83 110 142 184 230 276 324
#
# _framework density 17.606708999999999
#
# number of rings (size 3 to 8) (size 9 to 14) (size 15 to 20)
#    0.000    2.250    2.500    3.375    0.000    1.250 
#    0.000    1.250    0.000    9.000    0.000    0.000 
#    0.000    0.000    0.000    0.000    0.000    0.000 
#
# Total GULP energy -178524.096297 kJ/mol
# GULP energy per Si atom -5578.878009 kJ/mol
# Density = 1.756664 g / cm^3
# Si number density = 17.606709 Si / 1000 Ang^3
#
#
#
# Elastic Constant Matrix: (Units=GPa)
#
#
# Indices 1 2 3 4 5 6 
#
# 1 179.7539 48.0230 79.6481 0.0000 -11.3094 0.0000
# 2 48.0230 40.3620 41.5441 0.0000 -4.8573 0.0000
# 3 79.6481 41.5441 98.2633 0.0000 -13.6057 0.0000
# 4 0.0000 0.0000 0.0000 -7.4127 0.0000 -32.0580
# 5 -11.3094 -4.8573 -13.6057 0.0000 25.8245 0.0000
# 6 0.0000 0.0000 0.0000 -32.0580 0.0000 -33.0109
#
#
#
# Elastic Compliance Matrix: (Units=1/GPa)
#
#
# Indices 1 2 3 4 5 6 
#
# 1 0.009422 -0.005943 -0.005078 0.000000 0.000333 0.000000
# 2 -0.005943 0.047677 -0.015596 0.000000 -0.001852 0.000000
# 3 -0.005078 -0.015596 0.021760 0.000000 0.006307 0.000000
# 4 0.000000 0.000000 0.000000 0.042159 0.000000 -0.040942
# 5 0.000333 -0.001852 0.006307 0.000000 0.041843 0.000000
# 6 0.000000 0.000000 0.000000 -0.040942 0.000000 0.009467
#
#
# Mechanical properties :
#
#
# Convention : Reuss Voigt Hill
#
# Bulk Modulus (GPa) = 39.02627 72.97883 56.00255
# Shear Modulus (GPa) = 21.35794 7.02446 14.19120
#
# Velocity S-wave (km/s) = 3.48668 1.99958 2.84211
# Velocity P-wave (km/s) = 6.19862 6.84620 6.53044
#
# Compressibility (1/GPa) = 0.02562377
#
# Stress axis : x y z
#
# Youngs Moduli (GPa) = 106.13324 20.97435 45.95575
#
# Poissons Ratio (x) = 0.12466 0.23338
# Poissons Ratio (y) = 0.63079 0.71673
# Poissons Ratio (z) = 0.53898 0.32712
#
# Static dielectric constant tensor:
#      x y z
#    x 1.625110 0.000000 0.000780 
#    y 0.000000 1.587880 0.000000 
#    z 0.000780 0.000000 1.562280 
# 
# From -- ./inp_files/58259.got.cif
#   From: 2010.05.17/outbox.cif.g08.bks.cpg/sg10_30_cif.got.tgz:58259.got - 2010.06.03 11:33:40.
