data_PCOD9143889
_publ_section_title
;
Structure prediction by ZEFSAII (Michael W. Deem and Ramdas Pophale) SiO2 
 PCOD9143889
Probable space group: P 2/M
;
_chemical_formula_sum "Si O2"
_cell_formula_units_Z 32
_cell_length_a 24.700268
_cell_length_b 9.058591
_cell_length_c 11.980933
_cell_angle_alpha 90.000000
_cell_angle_beta 43.198291
_cell_angle_gamma 90.000000
_cell_volume 1835.027175
_symmetry_space_group_name_H-M "P 2/M"
_symmetry_group_IT_number 10
_symmetry_cell_setting 'monoclinic'
loop_
_space_group_symop_operation_xyz
x,y,z
-x,y,-z
-x,-y,-z
x,-y,z
loop_
_atom_site_type_symbol
_atom_site_label
_atom_site_fract_x
_atom_site_fract_y
_atom_site_fract_z
Si Si1 0.420288 0.673421 0.546308
Si Si2 0.341550 0.323914 0.302418
Si Si3 0.472461 0.175372 0.244133
Si Si4 0.130447 0.322192 0.994606
Si Si5 0.026637 0.830229 0.829644
Si Si6 0.818120 0.677110 0.334405
Si Si7 0.643954 0.323156 0.973885
Si Si8 0.274532 0.679201 0.924285
O O1 0.500000 0.684002 0.500000
O O2 0.410031 0.500000 0.530816
O O3 0.430862 0.768712 0.420126
O O4 0.345968 0.719420 0.733333
O O5 0.354475 0.500000 0.297598
O O6 0.419629 0.239223 0.223388
O O7 0.267095 0.279102 0.490254
O O8 0.324327 0.297140 0.198130
O O9 0.559674 0.244691 0.112065
O O10 0.476407 0.000000 0.233717
O O11 0.122588 0.500000 0.010463
O O12 0.169031 0.285884 0.815461
O O13 0.191298 0.271429 0.998334
O O14 0.044096 0.250477 0.128581
O O15 0.110756 0.749446 0.702888
O O16 0.033781 0.000000 0.785003
O O17 0.000000 0.826132 0.000000
O O18 0.824251 0.500000 0.334597
O O19 0.631058 0.500000 0.005841
O O20 0.701623 0.274486 0.987098
O O21 0.272215 0.500000 0.927651
#
# Coordination Sequence:
#
# PCOD9143889 Si02
#       8
#     4   4   4   4   4   4   4   4
#     4  10  18  33  56  75  98 132 170 210 254 304
#     4  10  21  36  56  76  97 130 176 221 255 300
#     4  12  24  35  50  74 106 136 170 214 260 309
#     4   9  16  28  49  75 103 129 158 198 247 305
#     4   9  17  29  47  73 104 132 158 192 243 303
#     4   9  17  31  51  76 101 126 161 205 254 301
#     4  10  20  37  56  73  96 133 179 219 256 298
#     4   9  17  31  53  78 100 129 169 212 256 300
#
# _framework density 17.438434000000001
#
# number of rings (size 3 to 8) (size 9 to 14) (size 15 to 20)
#    0.000    2.250    1.250    2.625    0.000    6.250 
#    0.000    3.750    0.000    0.750    0.000    5.250 
#    0.000    0.000    0.000    0.000    0.000    0.000 
#
# Total GULP energy -178548.931390 kJ/mol
# GULP energy per Si atom -5579.654106 kJ/mol
# Density = 1.739874 g / cm^3
# Si number density = 17.438434 Si / 1000 Ang^3
#
#
#
# Elastic Constant Matrix: (Units=GPa)
#
#
# Indices 1 2 3 4 5 6 
#
# 1 144.1101 41.4896 38.4654 0.0000 -14.7846 0.0000
# 2 41.4896 30.5593 20.0722 0.0000 -0.7240 0.0000
# 3 38.4654 20.0722 29.7265 0.0000 0.3387 0.0000
# 4 0.0000 0.0000 0.0000 4.8804 0.0000 1.7842
# 5 -14.7846 -0.7240 0.3387 0.0000 24.0787 0.0000
# 6 0.0000 0.0000 0.0000 1.7842 0.0000 -5.7179
#
#
#
# Elastic Compliance Matrix: (Units=1/GPa)
#
#
# Indices 1 2 3 4 5 6 
#
# 1 0.013966 -0.012275 -0.009878 0.000000 0.008345 0.000000
# 2 -0.012275 0.069723 -0.031138 0.000000 -0.005003 0.000000
# 3 -0.009878 -0.031138 0.067538 0.000000 -0.007951 0.000000
# 4 0.000000 0.000000 0.000000 0.183921 0.000000 0.057391
# 5 0.008345 -0.005003 -0.007951 0.000000 0.046616 0.000000
# 6 0.000000 0.000000 0.000000 0.057391 0.000000 -0.156982
#
#
# Mechanical properties :
#
#
# Convention : Reuss Voigt Hill
#
# Bulk Modulus (GPa) = 22.39942 44.93891 33.66916
# Shear Modulus (GPa) = 14.44058 11.60615 13.02337
#
# Velocity S-wave (km/s) = 2.88078 2.58262 2.73576
# Velocity P-wave (km/s) = 4.89264 5.89230 5.41559
#
# Compressibility (1/GPa) = 0.04464402
#
# Stress axis : x y z
#
# Youngs Moduli (GPa) = 71.60236 14.34245 14.80648
#
# Poissons Ratio (x) = 0.17606 0.14626
# Poissons Ratio (y) = 0.87895 0.46105
# Poissons Ratio (z) = 0.70729 0.44660
#
# Static dielectric constant tensor:
#      x y z
#    x 1.601960 0.000000 0.010910 
#    y 0.000000 1.578290 0.000000 
#    z 0.010910 0.000000 1.576890 
# 
# From -- ./inp_files/55203.got.cif
#   From: 2010.05.17/outbox.cif.g08.bks.cpg/sg10_28_cif.got.tgz:55203.got - 2010.06.03 11:33:40.
