data_PCOD9143183
_publ_section_title
;
Structure prediction by ZEFSAII (Michael W. Deem and Ramdas Pophale) SiO2 
 PCOD9143183
Probable space group: P 2/M
;
_chemical_formula_sum "Si O2"
_cell_formula_units_Z 32
_cell_length_a 18.435434
_cell_length_b 7.530345
_cell_length_c 24.959635
_cell_angle_alpha 90.000000
_cell_angle_beta 30.164348
_cell_angle_gamma 90.000000
_cell_volume 1741.113287
_symmetry_space_group_name_H-M "P 2/M"
_symmetry_group_IT_number 10
_symmetry_cell_setting 'monoclinic'
loop_
_space_group_symop_operation_xyz
x,y,z
-x,y,-z
-x,-y,-z
x,-y,z
loop_
_atom_site_type_symbol
_atom_site_label
_atom_site_fract_x
_atom_site_fract_y
_atom_site_fract_z
Si Si1 0.948638 0.714743 0.146109
Si Si2 0.692326 0.717099 0.232015
Si Si3 0.160364 0.218290 0.173689
Si Si4 0.268503 0.287558 0.912963
Si Si5 0.532172 0.294813 0.537908
Si Si6 0.592703 0.213017 0.066631
Si Si7 0.371033 0.793562 0.126573
Si Si8 0.856486 0.792676 0.325607
O O1 0.950535 0.500000 0.146276
O O2 0.839715 0.767113 0.168397
O O3 0.888659 0.773898 0.241789
O O4 0.110815 0.779957 0.031966
O O5 0.688759 0.500000 0.232128
O O6 0.690275 0.779826 0.172157
O O7 0.561122 0.779341 0.353559
O O8 0.233526 0.279829 0.182477
O O9 0.998469 0.277764 0.265116
O O10 0.160537 0.000000 0.173499
O O11 0.267868 0.274370 0.056861
O O12 0.254321 0.500000 0.917880
O O13 0.381324 0.251942 0.888167
O O14 0.500000 0.212714 0.500000
O O15 0.483495 0.500000 0.564981
O O16 0.703006 0.290552 0.437372
O O17 0.447563 0.282885 0.130500
O O18 0.589140 0.000000 0.062551
O O19 0.336705 0.000000 0.159536
O O20 0.500000 0.790761 0.000000
O O21 0.843329 0.000000 0.346645
#
# Coordination Sequence:
#
# PCOD9143183 Si02
#       8
#     4   4   4   4   4   4   4   4
#     4  10  18  31  48  65  88 120 157 184 214 267
#     4   9  18  33  49  64  84 118 160 192 219 258
#     4   8  14  25  41  64  92 119 147 178 216 265
#     4  10  19  29  46  69  92 118 150 188 224 264
#     4  10  19  34  52  65  83 117 159 194 222 263
#     4   9  15  26  44  65  91 120 148 177 216 269
#     4   7  11  21  40  62  84 117 153 175 201 261
#     4  11  20  29  46  71  96 117 144 187 234 267
#
# _framework density 18.379044
#
# number of rings (size 3 to 8) (size 9 to 14) (size 15 to 20)
#    0.000    2.750    2.500    2.250    0.000    1.750 
#    0.000    1.250    0.000    6.375    0.000    0.875 
#    0.000    7.000    0.000    0.000    0.000    0.000 
#
# Total GULP energy -178382.278770 kJ/mol
# GULP energy per Si atom -5574.446212 kJ/mol
# Density = 1.833721 g / cm^3
# Si number density = 18.379044 Si / 1000 Ang^3
#
#
#
# Elastic Constant Matrix: (Units=GPa)
#
#
# Indices 1 2 3 4 5 6 
#
# 1 166.3161 -5.1997 57.1851 0.0000 -6.4373 0.0000
# 2 -5.1997 43.3891 -1.4058 0.0000 1.6115 0.0000
# 3 57.1851 -1.4058 58.8414 0.0000 7.7760 0.0000
# 4 0.0000 0.0000 0.0000 0.8495 0.0000 -1.3354
# 5 -6.4373 1.6115 7.7760 0.0000 22.4687 0.0000
# 6 0.0000 0.0000 0.0000 -1.3354 0.0000 15.7842
#
#
#
# Elastic Compliance Matrix: (Units=1/GPa)
#
#
# Indices 1 2 3 4 5 6 
#
# 1 0.009858 0.000607 -0.010409 0.000000 0.006383 0.000000
# 2 0.000607 0.023183 0.000168 0.000000 -0.001547 0.000000
# 3 -0.010409 0.000168 0.028829 0.000000 -0.012972 0.000000
# 4 0.000000 0.000000 0.000000 1.357726 0.000000 0.114871
# 5 0.006383 -0.001547 -0.012972 0.000000 0.050935 0.000000
# 6 0.000000 0.000000 0.000000 0.114871 0.000000 0.073073
#
#
# Mechanical properties :
#
#
# Convention : Reuss Voigt Hill
#
# Bulk Modulus (GPa) = 23.47294 41.07842 32.27568
# Shear Modulus (GPa) = 3.17043 22.35161 12.76102
#
# Velocity S-wave (km/s) = 1.31483 3.49111 2.63786
# Velocity P-wave (km/s) = 3.88643 6.21689 5.18430
#
# Compressibility (1/GPa) = 0.04260225
#
# Stress axis : x y z
#
# Youngs Moduli (GPa) = 101.44279 43.13520 34.68679
#
# Poissons Ratio (x) = -0.02618 0.36107
# Poissons Ratio (y) = -0.06158 -0.00584
# Poissons Ratio (z) = 1.05595 -0.00726
#
# Static dielectric constant tensor:
#      x y z
#    x 1.667800 0.000000 -0.013700 
#    y 0.000000 1.703660 0.000000 
#    z -0.013700 0.000000 1.604020 
# 
# From -- ./inp_files/56411.got.cif
#   From: 2010.05.17/outbox.cif.g08.bks.cpg/sg10_29_cif.got.tgz:56411.got - 2010.06.03 11:33:40.
