data_PCOD9143163
_publ_section_title
;
Structure prediction by ZEFSAII (Michael W. Deem and Ramdas Pophale) SiO2 
 PCOD9143163
Probable space group: P 2/M
;
_chemical_formula_sum "Si O2"
_cell_formula_units_Z 28
_cell_length_a 5.280369
_cell_length_b 20.643827
_cell_length_c 20.795417
_cell_angle_alpha 90.000000
_cell_angle_beta 60.632862
_cell_angle_gamma 90.000000
_cell_volume 1975.545922
_symmetry_space_group_name_H-M "P 2/M"
_symmetry_group_IT_number 10
_symmetry_cell_setting 'monoclinic'
loop_
_space_group_symop_operation_xyz
x,y,z
-x,y,-z
-x,-y,-z
x,-y,z
loop_
_atom_site_type_symbol
_atom_site_label
_atom_site_fract_x
_atom_site_fract_y
_atom_site_fract_z
Si Si1 0.314596 0.380472 0.213780
Si Si2 0.882589 0.253458 0.704144
Si Si3 0.653530 0.074856 0.549634
Si Si4 0.663490 0.421730 0.044984
Si Si5 0.522710 0.196644 0.348607
Si Si6 0.352334 0.575280 0.699007
Si Si7 0.409919 0.319636 0.583089
O O1 0.272124 0.303726 0.229788
O O2 0.500491 0.395625 0.127845
O O3 0.477086 0.407705 0.256803
O O4 0.991738 0.410893 0.248423
O O5 0.663420 0.210488 0.691116
O O6 0.137281 0.211611 0.704875
O O7 0.070006 0.299388 0.631922
O O8 0.500000 0.085691 0.500000
O O9 0.533498 0.127210 0.614175
O O10 0.000000 0.083702 0.500000
O O11 0.600127 0.000000 0.574955
O O12 0.655214 0.500000 0.050065
O O13 0.500000 0.402548 0.000000
O O14 0.000000 0.401941 0.000000
O O15 0.438541 0.253284 0.410799
O O16 0.395505 0.500000 0.677728
O O17 0.453878 0.623250 0.629225
O O18 0.500000 0.335945 0.500000
#
# Coordination Sequence:
#
# PCOD9143163 Si02
#       7
#     4   4   4   4   4   4   4
#     4  11  19  37  49  65  91 115 148 190 225 280
#     4   9  19  31  47  66  82 115 155 182 225 273
#     4  10  20  31  45  68  93 119 149 186 237 278
#     4  10  20  31  47  71  90 112 144 179 227 278
#     4  10  18  31  46  64  85 113 153 188 223 263
#     4  11  21  33  48  64  83 118 152 189 242 278
#     4   9  20  31  45  64  82 111 151 201 228 268
#
# _framework density 14.173298000000001
#
# number of rings (size 3 to 8) (size 9 to 14) (size 15 to 20)
#    0.857    1.143    1.429    3.429    2.000    1.429 
#    0.000    0.000    0.000    2.571    0.000    0.000 
#    0.000    0.000    0.000    0.000    0.000   14.286 
#
# Total GULP energy -155989.523394 kJ/mol
# GULP energy per Si atom -5571.054407 kJ/mol
# Density = 1.414104 g / cm^3
# Si number density = 14.173298 Si / 1000 Ang^3
#
#
#
# Elastic Constant Matrix: (Units=GPa)
#
#
# Indices 1 2 3 4 5 6 
#
# 1 110.2779 24.6598 17.5150 0.0000 1.2297 0.0000
# 2 24.6598 70.6127 10.1553 0.0000 0.2243 0.0000
# 3 17.5150 10.1553 61.1217 0.0000 3.1910 0.0000
# 4 0.0000 0.0000 0.0000 23.1248 0.0000 -12.9095
# 5 1.2297 0.2243 3.1910 0.0000 14.4187 0.0000
# 6 0.0000 0.0000 0.0000 -12.9095 0.0000 41.6756
#
#
#
# Elastic Compliance Matrix: (Units=1/GPa)
#
#
# Indices 1 2 3 4 5 6 
#
# 1 0.010164 -0.003209 -0.002364 0.000000 -0.000294 0.000000
# 2 -0.003209 0.015523 -0.001681 0.000000 0.000404 0.000000
# 3 -0.002364 -0.001681 0.017508 0.000000 -0.003647 0.000000
# 4 0.000000 0.000000 0.000000 0.052285 0.000000 0.016196
# 5 -0.000294 0.000404 -0.003647 0.000000 0.070180 0.000000
# 6 0.000000 0.000000 0.000000 0.016196 0.000000 0.029012
#
#
# Mechanical properties :
#
#
# Convention : Reuss Voigt Hill
#
# Bulk Modulus (GPa) = 34.85809 38.51916 36.68862
# Shear Modulus (GPa) = 22.85798 28.48929 25.67364
#
# Velocity S-wave (km/s) = 4.02026 4.48824 4.26068
# Velocity P-wave (km/s) = 6.79688 7.35495 7.08142
#
# Compressibility (1/GPa) = 0.02868774
#
# Stress axis : x y z
#
# Youngs Moduli (GPa) = 98.38368 64.42158 57.11697
#
# Poissons Ratio (x) = 0.20671 0.13504
# Poissons Ratio (y) = 0.31568 0.09600
# Poissons Ratio (z) = 0.23260 0.10827
#
# Static dielectric constant tensor:
#      x y z
#    x 1.492400 0.000000 -0.012970 
#    y 0.000000 1.460660 0.000000 
#    z -0.012970 0.000000 1.441980 
# 
# From -- ./inp_files/81430.got.cif
#   From: 2010.05.17/outbox.cif.g08.bks.cpg/sg10_41_cif.got.tgz:81430.got - 2010.06.03 11:33:40.
