data_PCOD9143558
_publ_section_title
;
Structure prediction by ZEFSAII (Michael W. Deem and Ramdas Pophale) SiO2 
 PCOD9143558
Probable space group: P 2/M
;
_chemical_formula_sum "Si O2"
_cell_formula_units_Z 30
_cell_length_a 18.710536
_cell_length_b 9.180537
_cell_length_c 31.640763
_cell_angle_alpha 90.000000
_cell_angle_beta 18.469947
_cell_angle_gamma 90.000000
_cell_volume 1721.853895
_symmetry_space_group_name_H-M "P 2/M"
_symmetry_group_IT_number 10
_symmetry_cell_setting 'monoclinic'
loop_
_space_group_symop_operation_xyz
x,y,z
-x,y,-z
-x,-y,-z
x,-y,z
loop_
_atom_site_type_symbol
_atom_site_label
_atom_site_fract_x
_atom_site_fract_y
_atom_site_fract_z
Si Si1 0.185003 0.676493 0.954433
Si Si2 0.317414 0.676377 0.785097
Si Si3 0.811680 0.332089 0.748068
Si Si4 0.500000 0.246882 0.000000
Si Si5 0.289899 0.175564 0.487327
Si Si6 0.402561 0.675292 0.918987
Si Si7 0.673655 0.177100 0.437704
Si Si8 0.861879 0.163783 0.862376
O O1 0.184174 0.500000 0.955708
O O2 0.284221 0.716571 0.853054
O O3 0.334524 0.726023 0.910277
O O4 0.920308 0.719005 0.104028
O O5 0.339479 0.500000 0.769980
O O6 0.533055 0.753486 0.644099
O O7 0.877192 0.500000 0.703886
O O8 0.642844 0.282496 0.805003
O O9 0.034736 0.234442 0.625341
O O10 0.663679 0.327435 0.874487
O O11 0.335205 0.159977 0.061727
O O12 0.366920 0.220626 0.491478
O O13 0.290986 0.000000 0.483562
O O14 0.399059 0.500000 0.921571
O O15 0.216886 0.736239 0.055322
O O16 0.500000 0.229496 0.500000
O O17 0.919927 0.221805 0.283980
O O18 0.669382 0.000000 0.440180
O O19 0.907162 0.000000 0.852451
#
# Coordination Sequence:
#
# PCOD9143558 Si02
#       8
#     4   4   4   2   4   4   4   4
#     4   8  16  35  60  82 106 134 170 214 265 318
#     4   9  18  35  60  83 103 136 174 213 261 317
#     4  10  20  34  53  76 103 138 178 218 260 306
#     4  10  18  32  52  74 100 134 178 222 256 294
#     4  11  22  36  54  77 108 142 175 217 260 307
#     4   9  19  34  53  78 106 133 169 219 264 305
#     4   9  19  34  48  67 101 141 175 204 248 307
#     4  10  19  31  50  74 100 138 176 210 252 305
#
# _framework density 17.423082000000001
#
# number of rings (size 3 to 8) (size 9 to 14) (size 15 to 20)
#    0.000    2.533    1.333    1.600    1.867    2.667 
#    0.000    2.667    0.000    6.000    0.000    0.000 
#    0.000    0.000    0.000    0.000    0.000    0.000 
#
# Total GULP energy -167079.099080 kJ/mol
# GULP energy per Si atom -5569.303303 kJ/mol
# Density = 1.738343 g / cm^3
# Si number density = 17.423082 Si / 1000 Ang^3
#
#
#
# Elastic Constant Matrix: (Units=GPa)
#
#
# Indices 1 2 3 4 5 6 
#
# 1 133.1472 22.1023 57.4987 0.0000 -2.0313 0.0000
# 2 22.1023 31.0515 32.7710 0.0000 -0.1981 0.0000
# 3 57.4987 32.7710 125.1922 0.0000 5.0021 0.0000
# 4 0.0000 0.0000 0.0000 22.3099 0.0000 -2.4349
# 5 -2.0313 -0.1981 5.0021 0.0000 14.3426 0.0000
# 6 0.0000 0.0000 0.0000 -2.4349 0.0000 14.4140
#
#
#
# Elastic Compliance Matrix: (Units=1/GPa)
#
#
# Indices 1 2 3 4 5 6 
#
# 1 0.009665 -0.002854 -0.003798 0.000000 0.002654 0.000000
# 2 -0.002854 0.045661 -0.010801 0.000000 0.003993 0.000000
# 3 -0.003798 -0.010801 0.012765 0.000000 -0.005139 0.000000
# 4 0.000000 0.000000 0.000000 0.045665 0.000000 0.007714
# 5 0.002654 0.003993 -0.005139 0.000000 0.071945 0.000000
# 6 0.000000 0.000000 0.000000 0.007714 0.000000 0.070680
#
#
# Mechanical properties :
#
#
# Convention : Reuss Voigt Hill
#
# Bulk Modulus (GPa) = 30.13501 57.12609 43.63055
# Shear Modulus (GPa) = 16.53720 22.01456 19.27588
#
# Velocity S-wave (km/s) = 3.08418 3.55847 3.32978
# Velocity P-wave (km/s) = 5.47873 7.05283 6.31502
#
# Compressibility (1/GPa) = 0.03318399
#
# Stress axis : x y z
#
# Youngs Moduli (GPa) = 103.46792 21.90060 78.34166
#
# Poissons Ratio (x) = 0.06251 0.29752
# Poissons Ratio (y) = 0.29534 0.84617
# Poissons Ratio (z) = 0.39294 0.23655
#
# Static dielectric constant tensor:
#      x y z
#    x 1.612250 0.000000 -0.016570 
#    y 0.000000 1.594840 0.000000 
#    z -0.016570 0.000000 1.577030 
# 
# From -- ./inp_files/95498.got.cif
#   From: 2010.05.17/outbox.cif.g08.bks.cpg/sg10_48_cif.got.tgz:95498.got - 2010.06.03 11:33:40.
