data_PCOD9143508
_publ_section_title
;
Structure prediction by ZEFSAII (Michael W. Deem and Ramdas Pophale) SiO2 
 PCOD9143508
Probable space group: P 2/M
;
_chemical_formula_sum "Si O2"
_cell_formula_units_Z 32
_cell_length_a 12.340383
_cell_length_b 7.976894
_cell_length_c 19.687140
_cell_angle_alpha 90.000000
_cell_angle_beta 110.027186
_cell_angle_gamma 90.000000
_cell_volume 1820.773184
_symmetry_space_group_name_H-M "P 2/M"
_symmetry_group_IT_number 10
_symmetry_cell_setting 'monoclinic'
loop_
_space_group_symop_operation_xyz
x,y,z
-x,y,-z
-x,-y,-z
x,-y,z
loop_
_atom_site_type_symbol
_atom_site_label
_atom_site_fract_x
_atom_site_fract_y
_atom_site_fract_z
Si Si1 0.372421 0.692352 0.362941
Si Si2 0.009269 0.796215 0.078246
Si Si3 0.219656 0.195273 0.710722
Si Si4 0.839859 0.201098 0.769420
Si Si5 0.624848 0.202671 0.374155
Si Si6 0.093549 0.203754 0.810161
Si Si7 0.994503 0.304829 0.420236
Si Si8 0.243238 0.194749 0.463734
O O1 0.383171 0.500000 0.385404
O O2 0.269749 0.714010 0.286617
O O3 0.492984 0.751266 0.358142
O O4 0.333487 0.790246 0.421883
O O5 0.910519 0.743500 0.111506
O O6 0.126570 0.756489 0.145221
O O7 0.004533 0.000000 0.074210
O O8 0.000000 0.731499 0.000000
O O9 0.318986 0.267466 0.683698
O O10 0.186336 0.270239 0.776943
O O11 0.101727 0.206141 0.641926
O O12 0.248650 0.000000 0.728097
O O13 0.961779 0.243368 0.758786
O O14 0.823989 0.000000 0.760924
O O15 0.700521 0.261753 0.454788
O O16 0.633151 0.000000 0.375685
O O17 0.100958 0.000000 0.811351
O O18 0.960641 0.500000 0.411865
O O19 0.124119 0.285410 0.420851
O O20 0.000000 0.248371 0.500000
O O21 0.214106 0.000000 0.467239
#
# Coordination Sequence:
#
# PCOD9143508 Si02
#       8
#     4   4   4   4   4   4   4   4
#     4  12  24  35  49  68  93 124 160 207 254 292
#     4   7  11  22  44  77 108 127 147 180 228 280
#     4  10  18  32  50  69  92 124 165 200 235 286
#     4   8  15  29  49  73  99 128 156 185 228 284
#     4  10  22  36  50  66  87 123 169 211 246 285
#     4   7  13  24  45  73  97 120 146 183 227 273
#     4  11  22  33  48  71  99 125 154 197 247 290
#     4  11  22  37  54  69  88 121 166 209 247 293
#
# _framework density 17.574950999999999
#
# number of rings (size 3 to 8) (size 9 to 14) (size 15 to 20)
#    0.750    1.750    1.250    3.000    0.000    4.500 
#    0.000    0.000    0.000    0.375    0.000    0.875 
#    0.000    7.000    0.000    0.000    0.000    0.000 
#
# Total GULP energy -178158.176997 kJ/mol
# GULP energy per Si atom -5567.443031 kJ/mol
# Density = 1.753495 g / cm^3
# Si number density = 17.574951 Si / 1000 Ang^3
#
#
#
# Elastic Constant Matrix: (Units=GPa)
#
#
# Indices 1 2 3 4 5 6 
#
# 1 91.0920 -2.7488 27.6316 0.0000 -24.5320 0.0000
# 2 -2.7488 18.9845 -2.3131 0.0000 0.7261 0.0000
# 3 27.6316 -2.3131 85.5784 0.0000 -29.7621 0.0000
# 4 0.0000 0.0000 0.0000 19.0558 0.0000 24.3597
# 5 -24.5320 0.7261 -29.7621 0.0000 21.7218 0.0000
# 6 0.0000 0.0000 0.0000 24.3597 0.0000 40.8067
#
#
#
# Elastic Compliance Matrix: (Units=1/GPa)
#
#
# Indices 1 2 3 4 5 6 
#
# 1 0.016038 0.001784 0.002194 0.000000 0.021058 0.000000
# 2 0.001784 0.053049 0.001799 0.000000 0.002707 0.000000
# 3 0.002194 0.001799 0.022667 0.000000 0.033475 0.000000
# 4 0.000000 0.000000 0.000000 0.221523 0.000000 -0.132239
# 5 0.021058 0.002707 0.033475 0.000000 0.115594 0.000000
# 6 0.000000 0.000000 0.000000 -0.132239 0.000000 0.103446
#
#
# Mechanical properties :
#
#
# Convention : Reuss Voigt Hill
#
# Bulk Modulus (GPa) = 9.67992 26.75491 18.21741
# Shear Modulus (GPa) = 9.00579 27.85587 18.43083
#
# Velocity S-wave (km/s) = 2.26613 3.98549 3.24188
# Velocity P-wave (km/s) = 3.51666 6.03616 4.93974
#
# Compressibility (1/GPa) = 0.10330663
#
# Stress axis : x y z
#
# Youngs Moduli (GPa) = 62.35371 18.85063 44.11652
#
# Poissons Ratio (x) = -0.03363 -0.09677
# Poissons Ratio (y) = -0.11124 -0.07937
# Poissons Ratio (z) = -0.13677 -0.03391
#
# Static dielectric constant tensor:
#      x y z
#    x 1.606250 0.000000 -0.043710 
#    y 0.000000 1.618400 0.000000 
#    z -0.043710 0.000000 1.623310 
# 
# From -- ./inp_files/83233.got.cif
#   From: 2010.05.17/outbox.cif.g08.bks.cpg/sg10_42_cif.got.tgz:83233.got - 2010.06.03 11:33:40.
