data_PCOD9143453
_publ_section_title
;
Structure prediction by ZEFSAII (Michael W. Deem and Ramdas Pophale) SiO2 
 PCOD9143453
Probable space group: P 2/M
;
_chemical_formula_sum "Si O2"
_cell_formula_units_Z 32
_cell_length_a 11.982553
_cell_length_b 14.265986
_cell_length_c 11.979914
_cell_angle_alpha 90.000000
_cell_angle_beta 104.091930
_cell_angle_gamma 90.000000
_cell_volume 1986.253342
_symmetry_space_group_name_H-M "P 2/M"
_symmetry_group_IT_number 10
_symmetry_cell_setting 'monoclinic'
loop_
_space_group_symop_operation_xyz
x,y,z
-x,y,-z
-x,-y,-z
x,-y,z
loop_
_atom_site_type_symbol
_atom_site_label
_atom_site_fract_x
_atom_site_fract_y
_atom_site_fract_z
Si Si1 0.619921 0.390893 0.462818
Si Si2 0.042362 0.730013 0.133135
Si Si3 0.469705 0.107558 0.124254
Si Si4 0.411846 0.285553 0.775443
Si Si5 0.210306 0.263499 0.894975
Si Si6 0.631671 0.390489 0.903342
Si Si7 0.197837 0.890874 0.067127
Si Si8 0.237016 0.390882 0.293122
O O1 0.500000 0.388361 0.500000
O O2 0.642441 0.500000 0.439673
O O3 0.608917 0.332071 0.348348
O O4 0.713861 0.358281 0.576359
O O5 0.110405 0.827863 0.120776
O O6 0.132818 0.667278 0.218923
O O7 0.922057 0.720957 0.168206
O O8 0.000000 0.696314 0.000000
O O9 0.534364 0.182317 0.215049
O O10 0.334876 0.114250 0.124836
O O11 0.505782 0.000000 0.147387
O O12 0.500000 0.130643 0.000000
O O13 0.293495 0.274933 0.812132
O O14 0.504307 0.345973 0.870714
O O15 0.273836 0.329943 0.004182
O O16 0.199731 0.160543 0.947743
O O17 0.632624 0.500000 0.937753
O O18 0.667499 0.385772 0.781525
O O19 0.164576 0.000000 0.057595
O O20 0.206386 0.500000 0.296858
#
# Coordination Sequence:
#
# PCOD9143453 Si02
#       8
#     4   4   4   4   4   4   4   4
#     4  10  21  36  56  79 103 143 194 229 263 321
#     4  10  20  35  53  79 109 142 185 224 269 331
#     4  10  18  31  54  84 117 145 170 214 281 339
#     4  12  20  34  54  78 111 145 178 223 274 324
#     4  11  22  33  49  83 113 140 177 224 279 329
#     4  11  20  32  52  78 110 141 172 221 281 331
#     4  10  19  34  54  80 114 147 178 217 268 331
#     4  10  19  35  56  77 105 143 185 229 270 315
#
# _framework density 16.110734000000001
#
# number of rings (size 3 to 8) (size 9 to 14) (size 15 to 20)
#    0.000    1.500    6.250    0.750    0.000    4.500 
#    0.000    0.625    0.000    2.625    0.000    0.000 
#    0.000    6.000    0.000    0.000    0.000    0.000 
#
# Total GULP energy -178147.392972 kJ/mol
# GULP energy per Si atom -5567.106030 kJ/mol
# Density = 1.607407 g / cm^3
# Si number density = 16.110734 Si / 1000 Ang^3
#
#
#
# Elastic Constant Matrix: (Units=GPa)
#
#
# Indices 1 2 3 4 5 6 
#
# 1 113.4696 43.9136 25.1617 0.0000 13.0495 0.0000
# 2 43.9136 80.5670 56.1658 0.0000 11.4396 0.0000
# 3 25.1617 56.1658 81.8305 0.0000 14.8601 0.0000
# 4 0.0000 0.0000 0.0000 20.9161 0.0000 -2.3229
# 5 13.0495 11.4396 14.8601 0.0000 19.7031 0.0000
# 6 0.0000 0.0000 0.0000 -2.3229 0.0000 12.1870
#
#
#
# Elastic Compliance Matrix: (Units=1/GPa)
#
#
# Indices 1 2 3 4 5 6 
#
# 1 0.011717 -0.007273 0.002354 0.000000 -0.005313 0.000000
# 2 -0.007273 0.028366 -0.017516 0.000000 0.001558 0.000000
# 3 0.002354 -0.017516 0.025440 0.000000 -0.010576 0.000000
# 4 0.000000 0.000000 0.000000 0.048844 0.000000 0.009310
# 5 -0.005313 0.001558 -0.010576 0.000000 0.061344 0.000000
# 6 0.000000 0.000000 0.000000 0.009310 0.000000 0.083829
#
#
# Mechanical properties :
#
#
# Convention : Reuss Voigt Hill
#
# Bulk Modulus (GPa) = 48.42144 58.48324 53.45234
# Shear Modulus (GPa) = 16.06203 20.60296 18.33250
#
# Velocity S-wave (km/s) = 3.16092 3.57996 3.37695
# Velocity P-wave (km/s) = 6.59109 7.31216 6.96097
#
# Compressibility (1/GPa) = 0.02065201
#
# Stress axis : x y z
#
# Youngs Moduli (GPa) = 85.34909 35.25354 39.30879
#
# Poissons Ratio (x) = 0.25639 -0.09253
# Poissons Ratio (y) = 0.62073 0.68854
# Poissons Ratio (z) = -0.20091 0.61751
#
# Static dielectric constant tensor:
#      x y z
#    x 1.613820 0.000000 0.007520 
#    y 0.000000 1.564600 0.000000 
#    z 0.007520 0.000000 1.528800 
# 
# From -- ./inp_files/47433.got.cif
#   From: 2010.05.17/outbox.cif.g08.bks.cpg/sg10_24_cif.got.tgz:47433.got - 2010.06.03 11:33:40.
