data_PCOD9143974
_publ_section_title
;
Structure prediction by ZEFSAII (Michael W. Deem and Ramdas Pophale) SiO2 
 PCOD9143974
Probable space group: P 2/M
;
_chemical_formula_sum "Si O2"
_cell_formula_units_Z 30
_cell_length_a 15.994345
_cell_length_b 19.400597
_cell_length_c 16.223998
_cell_angle_alpha 90.000000
_cell_angle_beta 162.113061
_cell_angle_gamma 90.000000
_cell_volume 1546.234557
_symmetry_space_group_name_H-M "P 2/M"
_symmetry_group_IT_number 10
_symmetry_cell_setting 'monoclinic'
loop_
_space_group_symop_operation_xyz
x,y,z
-x,y,-z
-x,-y,-z
x,-y,z
loop_
_atom_site_type_symbol
_atom_site_label
_atom_site_fract_x
_atom_site_fract_y
_atom_site_fract_z
Si Si1 0.701051 0.079688 0.258305
Si Si2 0.645149 0.278280 0.735658
Si Si3 0.174387 0.919693 0.006545
Si Si4 0.926879 0.278455 0.717951
Si Si5 0.254117 0.425738 0.159053
Si Si6 0.000000 0.837413 0.000000
Si Si7 0.170104 0.425404 0.382714
Si Si8 0.748873 0.865155 0.484819
O O1 0.702252 0.117864 0.346053
O O2 0.000000 0.079720 0.500000
O O3 0.618775 0.000000 0.197633
O O4 0.500000 0.108189 0.000000
O O5 0.328873 0.278626 0.459506
O O6 0.722394 0.353576 0.772597
O O7 0.752383 0.215469 0.782287
O O8 0.806797 0.272794 0.975038
O O9 0.980720 0.911948 0.745204
O O10 0.229231 0.000000 0.074521
O O11 0.010970 0.884701 0.929064
O O12 0.461117 0.880664 0.260260
O O13 0.918668 0.351999 0.663672
O O14 0.865946 0.211674 0.606719
O O15 0.271667 0.500000 0.219110
O O16 0.509338 0.423832 0.335400
O O17 0.984886 0.425182 0.850766
O O18 0.104455 0.500000 0.360317
#
# Coordination Sequence:
#
# PCOD9143974 Si02
#       8
#     4   4   4   4   4   2   4   4
#     4  10  21  37  59  85 111 136 164 206 265 333
#     4  10  20  32  50  68 100 135 178 225 269 305
#     4  12  26  40  57  77 105 143 186 234 272 312
#     4  10  18  34  50  76 100 136 174 216 262 311
#     4   8  14  26  43  65  89 124 167 214 265 314
#     4  12  23  40  53  74 104 142 192 232 273 306
#     4   8  14  24  44  68  97 127 164 208 253 303
#     4  12  22  41  61  84 109 139 178 219 271 323
#
# _framework density 19.401972000000001
#
# number of rings (size 3 to 8) (size 9 to 14) (size 15 to 20)
#    0.000    1.867    2.667    2.200    0.000    3.200 
#    0.000    1.667    0.000    0.000    0.000    9.333 
#    0.000    1.067    0.000    0.000    0.000    1.333 
#
# Total GULP energy -167464.065087 kJ/mol
# GULP energy per Si atom -5582.135503 kJ/mol
# Density = 1.935781 g / cm^3
# Si number density = 19.401972 Si / 1000 Ang^3
#
#
#
# Elastic Constant Matrix: (Units=GPa)
#
#
# Indices 1 2 3 4 5 6 
#
# 1 53.9431 34.4811 9.7955 0.0000 -19.3195 0.0000
# 2 34.4811 161.3488 7.0688 0.0000 -20.5240 0.0000
# 3 9.7955 7.0688 82.1148 0.0000 -14.3869 0.0000
# 4 0.0000 0.0000 0.0000 13.4810 0.0000 32.5285
# 5 -19.3195 -20.5240 -14.3869 0.0000 25.1661 0.0000
# 6 0.0000 0.0000 0.0000 32.5285 0.0000 -32.7285
#
#
#
# Elastic Compliance Matrix: (Units=1/GPa)
#
#
# Indices 1 2 3 4 5 6 
#
# 1 0.027262 -0.003522 0.000238 0.000000 0.018192 0.000000
# 2 -0.003522 0.007384 0.000407 0.000000 0.003551 0.000000
# 3 0.000238 0.000407 0.013563 0.000000 0.008268 0.000000
# 4 0.000000 0.000000 0.000000 0.021829 0.000000 0.021696
# 5 0.018192 0.003551 0.008268 0.000000 0.061324 0.000000
# 6 0.000000 0.000000 0.000000 0.021696 0.000000 -0.008991
#
#
# Mechanical properties :
#
#
# Convention : Reuss Voigt Hill
#
# Bulk Modulus (GPa) = 23.55457 44.45528 34.00492
# Shear Modulus (GPa) = 35.14274 17.58780 26.36527
#
# Velocity S-wave (km/s) = 4.26055 3.01407 3.69032
# Velocity P-wave (km/s) = 6.03073 5.92244 5.97683
#
# Compressibility (1/GPa) = 0.04245462
#
# Stress axis : x y z
#
# Youngs Moduli (GPa) = 36.68164 135.42175 73.72844
#
# Poissons Ratio (x) = 0.47700 -0.01758
# Poissons Ratio (y) = 0.12921 -0.02998
# Poissons Ratio (z) = -0.00875 -0.05506
#
# Static dielectric constant tensor:
#      x y z
#    x 1.639100 0.000000 0.008210 
#    y 0.000000 1.780200 0.000000 
#    z 0.008210 0.000000 1.704630 
# 
# From -- ./inp_files/67910.got.cif
#   From: 2010.05.17/outbox.cif.g08.bks.cpg/sg10_34_cif.got.tgz:67910.got - 2010.06.03 11:33:40.
