data_PCOD9143762
_publ_section_title
;
Structure prediction by ZEFSAII (Michael W. Deem and Ramdas Pophale) SiO2 
 PCOD9143762
Probable space group: P 2/M
;
_chemical_formula_sum "Si O2"
_cell_formula_units_Z 32
_cell_length_a 21.979009
_cell_length_b 15.361744
_cell_length_c 7.418303
_cell_angle_alpha 90.000000
_cell_angle_beta 147.379461
_cell_angle_gamma 90.000000
_cell_volume 1350.207683
_symmetry_space_group_name_H-M "P 2/M"
_symmetry_group_IT_number 10
_symmetry_cell_setting 'monoclinic'
loop_
_space_group_symop_operation_xyz
x,y,z
-x,y,-z
-x,-y,-z
x,-y,z
loop_
_atom_site_type_symbol
_atom_site_label
_atom_site_fract_x
_atom_site_fract_y
_atom_site_fract_z
Si Si1 0.089632 0.778280 0.575689
Si Si2 0.267405 0.593614 0.750626
Si Si3 0.509350 0.898907 0.803054
Si Si4 0.288794 0.222716 0.632240
Si Si5 0.947849 0.406294 0.570626
Si Si6 0.477799 0.405031 0.726010
Si Si7 0.130825 0.905222 0.362686
Si Si8 0.334808 0.242200 0.341165
O O1 0.031610 0.695288 0.328144
O O2 0.133508 0.851784 0.552334
O O3 0.000000 0.809208 0.500000
O O4 0.205610 0.750798 0.962156
O O5 0.239609 0.500000 0.585290
O O6 0.243907 0.688529 0.607402
O O7 0.186745 0.589550 0.724002
O O8 0.402542 0.594138 0.077739
O O9 0.399435 0.847540 0.455661
O O10 0.519657 0.000000 0.770857
O O11 0.500000 0.901762 0.000000
O O12 0.614899 0.834022 0.025533
O O13 0.189012 0.153926 0.358711
O O14 0.338578 0.247024 0.566225
O O15 0.989745 0.500000 0.754560
O O16 0.000000 0.407143 0.500000
O O17 0.423140 0.500000 0.565230
O O18 0.406266 0.326479 0.467411
O O19 0.500000 0.396538 0.000000
O O20 0.184578 0.000000 0.505199
O O21 0.000000 0.913806 0.000000
#
# Coordination Sequence:
#
# PCOD9143762 Si02
#       8
#     4   4   4   4   4   4   4   4
#     4  11  24  42  63  92 124 167 212 273 336 396
#     4  10  18  32  61  95 129 168 216 267 313 379
#     4   9  18  33  55  85 121 163 209 254 313 384
#     4  11  19  37  63  93 128 167 211 265 320 396
#     4   9  19  38  62  85 120 168 211 256 314 379
#     4  10  18  32  56  94 141 179 217 264 320 390
#     4  11  25  45  67  89 116 160 219 280 338 393
#     4  11  21  35  60  93 132 168 213 262 331 394
#
# _framework density 23.700057000000001
#
# number of rings (size 3 to 8) (size 9 to 14) (size 15 to 20)
#    0.000    1.750    3.750    1.500    0.000    1.750 
#    0.000    2.500    0.000    6.750    0.000    0.000 
#    0.000    0.000    0.000    0.000    0.000    0.000 
#
# Total GULP energy -178270.526568 kJ/mol
# GULP energy per Si atom -5570.953955 kJ/mol
# Density = 2.364611 g / cm^3
# Si number density = 23.700057 Si / 1000 Ang^3
#
#
#
# Elastic Constant Matrix: (Units=GPa)
#
#
# Indices 1 2 3 4 5 6 
#
# 1 97.8564 28.7376 21.6490 0.0000 18.3796 0.0000
# 2 28.7376 201.7571 23.9928 0.0000 -0.1164 0.0000
# 3 21.6490 23.9928 60.3427 0.0000 15.3806 0.0000
# 4 0.0000 0.0000 0.0000 15.0149 0.0000 9.7999
# 5 18.3796 -0.1164 15.3806 0.0000 28.1837 0.0000
# 6 0.0000 0.0000 0.0000 9.7999 0.0000 28.6884
#
#
#
# Elastic Compliance Matrix: (Units=1/GPa)
#
#
# Indices 1 2 3 4 5 6 
#
# 1 0.012439 -0.001529 -0.002074 0.000000 -0.006987 0.000000
# 2 -0.001529 0.005434 -0.002174 0.000000 0.002206 0.000000
# 3 -0.002074 -0.002174 0.020720 0.000000 -0.009964 0.000000
# 4 0.000000 0.000000 0.000000 0.085710 0.000000 -0.029278
# 5 -0.006987 0.002206 -0.009964 0.000000 0.045484 0.000000
# 6 0.000000 0.000000 0.000000 -0.029278 0.000000 0.044859
#
#
# Mechanical properties :
#
#
# Convention : Reuss Voigt Hill
#
# Bulk Modulus (GPa) = 36.98423 56.52390 46.75406
# Shear Modulus (GPa) = 21.25722 33.41586 27.33654
#
# Velocity S-wave (km/s) = 2.99812 3.75900 3.39991
# Velocity P-wave (km/s) = 5.25585 6.53771 5.93151
#
# Compressibility (1/GPa) = 0.02703855
#
# Stress axis : x y z
#
# Youngs Moduli (GPa) = 80.39096 184.02252 48.26168
#
# Poissons Ratio (x) = 0.28141 0.10009
# Poissons Ratio (y) = 0.12293 0.10494
# Poissons Ratio (z) = 0.16673 0.40014
#
# Static dielectric constant tensor:
#      x y z
#    x 1.912040 0.000000 -0.053400 
#    y 0.000000 1.992930 0.000000 
#    z -0.053400 0.000000 1.987210 
# 
# From -- ./inp_files/36394.got.cif
#   From: 2010.05.17/outbox.cif.g08.bks.cpg/sg10_19_cif.got.tgz:36394.got - 2010.06.03 11:33:40.
