data_PCOD9143521
_publ_section_title
;
Structure prediction by ZEFSAII (Michael W. Deem and Ramdas Pophale) SiO2 
 PCOD9143521
Probable space group: P 2/M
;
_chemical_formula_sum "Si O2"
_cell_formula_units_Z 30
_cell_length_a 30.537795
_cell_length_b 9.021473
_cell_length_c 12.556451
_cell_angle_alpha 90.000000
_cell_angle_beta 29.338482
_cell_angle_gamma 90.000000
_cell_volume 1694.922331
_symmetry_space_group_name_H-M "P 2/M"
_symmetry_group_IT_number 10
_symmetry_cell_setting 'monoclinic'
loop_
_space_group_symop_operation_xyz
x,y,z
-x,y,-z
-x,-y,-z
x,-y,z
loop_
_atom_site_type_symbol
_atom_site_label
_atom_site_fract_x
_atom_site_fract_y
_atom_site_fract_z
Si Si1 0.590808 0.179698 0.687286
Si Si2 0.261668 0.822415 0.796131
Si Si3 0.000000 0.253660 0.500000
Si Si4 0.048994 0.680691 0.790500
Si Si5 0.234073 0.321554 0.305891
Si Si6 0.195344 0.829315 0.163028
Si Si7 0.396117 0.320463 0.116316
Si Si8 0.913588 0.333903 0.898683
O O1 0.651978 0.218923 0.455916
O O2 0.492464 0.250247 0.885456
O O3 0.585837 0.000000 0.707070
O O4 0.629346 0.249722 0.715095
O O5 0.258690 0.000000 0.806859
O O6 0.249298 0.770327 0.944736
O O7 0.173942 0.764499 0.922264
O O8 0.089450 0.174570 0.356424
O O9 0.040233 0.339054 0.314474
O O10 0.050655 0.500000 0.789693
O O11 0.149948 0.728689 0.556142
O O12 0.987593 0.725512 0.821942
O O13 0.000000 0.733182 0.000000
O O14 0.231288 0.500000 0.303986
O O15 0.218457 0.258341 0.221036
O O16 0.324643 0.282935 0.176180
O O17 0.220068 0.000000 0.127822
O O18 0.401933 0.500000 0.113612
O O19 0.888203 0.500000 0.985869
#
# Coordination Sequence:
#
# PCOD9143521 Si02
#       8
#     4   4   2   4   4   4   4   4
#     4  10  20  38  61  82 109 142 179 223 271 327
#     4   9  21  37  53  77 110 141 176 225 274 317
#     4  10  18  32  50  76 108 140 180 228 268 306
#     4   9  18  32  49  72 105 142 177 211 258 316
#     4  10  21  37  55  79 112 143 178 225 270 319
#     4  10  20  35  55  77 105 144 186 224 268 319
#     4  10  21  36  59  86 112 140 176 224 275 323
#     4  10  19  30  52  78 102 140 183 220 261 314
#
# _framework density 17.699926000000001
#
# number of rings (size 3 to 8) (size 9 to 14) (size 15 to 20)
#    0.000    2.267    1.333    2.000    1.867    4.800 
#    0.000    0.667    0.000    4.800    0.000    0.000 
#    0.000    0.000    0.000    0.000    0.000    0.000 
#
# Total GULP energy -167125.040974 kJ/mol
# GULP energy per Si atom -5570.834699 kJ/mol
# Density = 1.765964 g / cm^3
# Si number density = 17.699926 Si / 1000 Ang^3
#
#
#
# Elastic Constant Matrix: (Units=GPa)
#
#
# Indices 1 2 3 4 5 6 
#
# 1 133.0501 31.8517 60.8615 0.0000 -4.6663 0.0000
# 2 31.8517 32.6878 28.2863 0.0000 1.2105 0.0000
# 3 60.8615 28.2863 124.7764 0.0000 11.7720 0.0000
# 4 0.0000 0.0000 0.0000 17.2412 0.0000 7.9238
# 5 -4.6663 1.2105 11.7720 0.0000 17.1881 0.0000
# 6 0.0000 0.0000 0.0000 7.9238 0.0000 11.4792
#
#
#
# Elastic Compliance Matrix: (Units=1/GPa)
#
#
# Indices 1 2 3 4 5 6 
#
# 1 0.011706 -0.007662 -0.004622 0.000000 0.006883 0.000000
# 2 -0.007662 0.043265 -0.005973 0.000000 -0.001036 0.000000
# 3 -0.004622 -0.005973 0.012510 0.000000 -0.009402 0.000000
# 4 0.000000 0.000000 0.000000 0.084951 0.000000 -0.058639
# 5 0.006883 -0.001036 -0.009402 0.000000 0.066561 0.000000
# 6 0.000000 0.000000 0.000000 -0.058639 0.000000 0.127592
#
#
# Mechanical properties :
#
#
# Convention : Reuss Voigt Hill
#
# Bulk Modulus (GPa) = 32.29233 59.16813 45.73023
# Shear Modulus (GPa) = 12.70902 20.48267 16.59585
#
# Velocity S-wave (km/s) = 2.68251 3.40548 3.06538
# Velocity P-wave (km/s) = 5.28000 6.99744 6.19849
#
# Compressibility (1/GPa) = 0.03096711
#
# Stress axis : x y z
#
# Youngs Moduli (GPa) = 85.42702 23.11320 79.93539
#
# Poissons Ratio (x) = 0.17708 0.36948
# Poissons Ratio (y) = 0.65450 0.47748
# Poissons Ratio (z) = 0.39487 0.13806
#
# Static dielectric constant tensor:
#      x y z
#    x 1.595720 0.000000 0.014460 
#    y 0.000000 1.610630 0.000000 
#    z 0.014460 0.000000 1.612340 
# 
# From -- ./inp_files/57991.got.cif
#   From: 2010.05.17/outbox.cif.g08.bks.cpg/sg10_29_cif.got.tgz:57991.got - 2010.06.03 11:33:40.
