data_PCOD9143501
_publ_section_title
;
Structure prediction by ZEFSAII (Michael W. Deem and Ramdas Pophale) SiO2 
 PCOD9143501
Probable space group: P 2/M
;
_chemical_formula_sum "Si O2"
_cell_formula_units_Z 32
_cell_length_a 19.385020
_cell_length_b 21.725295
_cell_length_c 10.561360
_cell_angle_alpha 90.000000
_cell_angle_beta 20.848476
_cell_angle_gamma 90.000000
_cell_volume 1582.985861
_symmetry_space_group_name_H-M "P 2/M"
_symmetry_group_IT_number 10
_symmetry_cell_setting 'monoclinic'
loop_
_space_group_symop_operation_xyz
x,y,z
-x,y,-z
-x,-y,-z
x,-y,z
loop_
_atom_site_type_symbol
_atom_site_label
_atom_site_fract_x
_atom_site_fract_y
_atom_site_fract_z
Si Si1 0.030171 0.327541 0.737916
Si Si2 0.512605 0.197088 0.826004
Si Si3 0.063196 0.798315 0.537257
Si Si4 0.525331 0.430138 0.247056
Si Si5 0.057908 0.066619 0.548088
Si Si6 0.688692 0.328142 0.524383
Si Si7 0.827442 0.569821 0.942479
Si Si8 0.513801 0.065562 0.823516
O O1 0.002570 0.260653 0.722674
O O2 0.232198 0.330031 0.467830
O O3 0.868966 0.338353 0.121681
O O4 0.985558 0.380603 0.713078
O O5 0.619476 0.259548 0.610827
O O6 0.500000 0.195921 0.000000
O O7 0.296311 0.200567 0.143094
O O8 0.602924 0.131118 0.631776
O O9 0.995012 0.865793 0.704910
O O10 0.000000 0.791699 0.500000
O O11 0.540680 0.500000 0.170862
O O12 0.469032 0.379313 0.241076
O O13 0.346360 0.430145 0.654998
O O14 0.715738 0.416041 0.003552
O O15 0.291200 0.066108 0.158976
O O16 0.000000 0.066678 0.500000
O O17 0.990837 0.000000 0.717353
O O18 0.904226 0.500000 0.806375
O O19 0.603606 0.000000 0.629996
O O20 0.500000 0.065201 0.000000
#
# Coordination Sequence:
#
# PCOD9143501 Si02
#       8
#     4   4   4   4   4   4   4   4
#     4  10  20  33  48  73 102 127 160 199 240 284
#     4  10  18  32  49  69  98 131 163 194 239 289
#     4  10  20  32  49  74 100 127 161 201 242 285
#     4   8  15  29  49  72  94 121 160 200 236 278
#     4   8  14  26  44  66  91 119 155 198 238 275
#     4  10  20  32  50  72  99 132 160 195 239 287
#     4   8  15  29  49  71  95 122 157 201 239 276
#     4   8  14  24  42  66  88 116 159 203 231 264
#
# _framework density 20.214963000000001
#
# number of rings (size 3 to 8) (size 9 to 14) (size 15 to 20)
#    0.000    3.000    1.250    0.750    1.750    0.500 
#    0.000    2.500    0.000    2.250    0.000    1.750 
#    0.000   10.000    0.000    0.000    0.000    0.000 
#
# Total GULP energy -178203.747767 kJ/mol
# GULP energy per Si atom -5568.867118 kJ/mol
# Density = 2.016895 g / cm^3
# Si number density = 20.214963 Si / 1000 Ang^3
#
#
#
# Elastic Constant Matrix: (Units=GPa)
#
#
# Indices 1 2 3 4 5 6 
#
# 1 103.3469 78.9399 29.8792 0.0000 -36.4596 0.0000
# 2 78.9399 212.4709 28.9156 0.0000 -27.4051 0.0000
# 3 29.8792 28.9156 24.5269 0.0000 -3.5130 0.0000
# 4 0.0000 0.0000 0.0000 30.0941 0.0000 -3.3088
# 5 -36.4596 -27.4051 -3.5130 0.0000 32.0059 0.0000
# 6 0.0000 0.0000 0.0000 -3.3088 0.0000 34.2936
#
#
#
# Elastic Compliance Matrix: (Units=1/GPa)
#
#
# Indices 1 2 3 4 5 6 
#
# 1 0.031639 -0.003916 -0.029712 0.000000 0.029428 0.000000
# 2 -0.003916 0.006688 -0.002980 0.000000 0.000939 0.000000
# 3 -0.029712 -0.002980 0.076470 0.000000 -0.028005 0.000000
# 4 0.000000 0.000000 0.000000 0.033585 0.000000 0.003240
# 5 0.029428 0.000939 -0.028005 0.000000 0.062497 0.000000
# 6 0.000000 0.000000 0.000000 0.003240 0.000000 0.029473
#
#
# Mechanical properties :
#
#
# Convention : Reuss Voigt Hill
#
# Bulk Modulus (GPa) = 24.04944 68.42379 46.23662
# Shear Modulus (GPa) = 15.27051 32.78604 24.02828
#
# Velocity S-wave (km/s) = 2.75145 4.03161 3.45140
# Velocity P-wave (km/s) = 4.69219 7.45610 6.22937
#
# Compressibility (1/GPa) = 0.04158101
#
# Stress axis : x y z
#
# Youngs Moduli (GPa) = 31.60643 149.52150 13.07703
#
# Poissons Ratio (x) = 0.58548 0.38855
# Poissons Ratio (y) = 0.12376 0.03897
# Poissons Ratio (z) = 0.93910 0.44558
#
# Static dielectric constant tensor:
#      x y z
#    x 1.721790 0.000000 0.007360 
#    y 0.000000 1.781780 0.000000 
#    z 0.007360 0.000000 1.729610 
# 
# From -- ./inp_files/25984.got.cif
#   From: 2010.05.17/outbox.cif.g08.bks.cpg/sg10_13_cif.got.tgz:25984.got - 2010.06.03 11:33:40.
