data_PCOD9143128
_publ_section_title
;
Structure prediction by ZEFSAII (Michael W. Deem and Ramdas Pophale) SiO2 
 PCOD9143128
Probable space group: P 2/M
;
_chemical_formula_sum "Si O2"
_cell_formula_units_Z 32
_cell_length_a 13.081494
_cell_length_b 7.451749
_cell_length_c 31.022803
_cell_angle_alpha 90.000000
_cell_angle_beta 151.531901
_cell_angle_gamma 90.000000
_cell_volume 1441.497372
_symmetry_space_group_name_H-M "P 2/M"
_symmetry_group_IT_number 10
_symmetry_cell_setting 'monoclinic'
loop_
_space_group_symop_operation_xyz
x,y,z
-x,y,-z
-x,-y,-z
x,-y,z
loop_
_atom_site_type_symbol
_atom_site_label
_atom_site_fract_x
_atom_site_fract_y
_atom_site_fract_z
Si Si1 0.998524 0.782828 0.397896
Si Si2 0.567833 0.288923 0.290806
Si Si3 0.285265 0.781168 0.945930
Si Si4 0.135554 0.780058 0.261812
Si Si5 0.542829 0.782814 0.900343
Si Si6 0.592269 0.208318 0.398547
Si Si7 0.221515 0.293303 0.098786
Si Si8 0.049937 0.218161 0.717459
O O1 0.773563 0.734535 0.336519
O O2 0.011363 0.721251 0.353143
O O3 0.198158 0.715669 0.500264
O O4 0.001429 0.000000 0.398451
O O5 0.533842 0.500000 0.283875
O O6 0.611223 0.214406 0.354128
O O7 0.356914 0.213573 0.188496
O O8 0.067569 0.722126 0.842237
O O9 0.285480 0.000000 0.945217
O O10 0.500000 0.725502 0.000000
O O11 0.311754 0.726769 0.005425
O O12 0.362908 0.716197 0.328030
O O13 0.094174 0.724693 0.295810
O O14 0.133368 0.000000 0.259795
O O15 0.623376 0.709576 0.884987
O O16 0.296926 0.731347 0.817596
O O17 0.549073 0.000000 0.899753
O O18 0.586499 0.000000 0.409518
O O19 0.172496 0.500000 0.092392
O O20 0.000000 0.209094 0.000000
O O21 0.044099 0.000000 0.714896
#
# Coordination Sequence:
#
# PCOD9143128 Si02
#       8
#     4   4   4   4   4   4   4   4
#     4  10  20  36  57  82 109 138 178 228 275 314
#     4  11  23  39  59  79 103 141 184 222 265 325
#     4   9  15  25  45  76 109 136 166 208 256 304
#     4   9  17  30  48  78 115 144 173 213 266 322
#     4  10  18  30  53  82 105 134 177 220 259 308
#     4  10  22  36  54  81 112 143 176 224 276 316
#     4  10  23  40  54  74 107 142 172 213 272 324
#     4   9  16  29  52  80 111 141 173 217 264 315
#
# _framework density 22.199137
#
# number of rings (size 3 to 8) (size 9 to 14) (size 15 to 20)
#    0.000    2.250    2.500    0.750    1.750    3.250 
#    0.000    2.500    0.000    1.875    0.000    1.750 
#    0.000    0.000    0.000    0.000    0.000    0.000 
#
# Total GULP energy -178777.497665 kJ/mol
# GULP energy per Si atom -5586.796802 kJ/mol
# Density = 2.214861 g / cm^3
# Si number density = 22.199137 Si / 1000 Ang^3
#
#
#
# Elastic Constant Matrix: (Units=GPa)
#
#
# Indices 1 2 3 4 5 6 
#
# 1 82.5214 -11.8356 52.5200 0.0000 -23.2328 0.0000
# 2 -11.8356 65.3737 0.8408 0.0000 4.6317 0.0000
# 3 52.5200 0.8408 175.2587 0.0000 -14.7431 0.0000
# 4 0.0000 0.0000 0.0000 1.2798 0.0000 11.5697
# 5 -23.2328 4.6317 -14.7431 0.0000 30.8279 0.0000
# 6 0.0000 0.0000 0.0000 11.5697 0.0000 25.2562
#
#
#
# Elastic Compliance Matrix: (Units=1/GPa)
#
#
# Indices 1 2 3 4 5 6 
#
# 1 0.018678 0.002629 -0.004646 0.000000 0.011460 0.000000
# 2 0.002629 0.015845 -0.000935 0.000000 -0.000846 0.000000
# 3 -0.004646 -0.000935 0.007106 0.000000 0.000037 0.000000
# 4 0.000000 0.000000 0.000000 -0.248739 0.000000 0.113946
# 5 0.011460 -0.000846 0.000037 0.000000 0.041220 0.000000
# 6 0.000000 0.000000 0.000000 0.113946 0.000000 -0.012604
#
#
# Mechanical properties :
#
#
# Convention : Reuss Voigt Hill
#
# Bulk Modulus (GPa) = 27.99119 45.13379 36.56249
# Shear Modulus (GPa) = -31.11711 30.24801 -0.43455
#
# Velocity S-wave (km/s) = -3.74803 3.69531 -0.44292
# Velocity P-wave (km/s) = 2.46855 6.21149 4.03044
#
# Compressibility (1/GPa) = 0.03572553
#
# Stress axis : x y z
#
# Youngs Moduli (GPa) = 53.53774 63.11253 140.73102
#
# Poissons Ratio (x) = -0.16595 0.65384
# Poissons Ratio (y) = -0.14078 0.13161
# Poissons Ratio (z) = 0.24874 0.05902
#
# Static dielectric constant tensor:
#      x y z
#    x 1.762810 0.000000 -0.010360 
#    y 0.000000 1.892000 0.000000 
#    z -0.010360 0.000000 1.810660 
# 
# From -- ./inp_files/95024.got.cif
#   From: 2010.05.17/outbox.cif.g08.bks.cpg/sg10_48_cif.got.tgz:95024.got - 2010.06.03 11:33:40.
