data_PCOD9143761
_publ_section_title
;
Structure prediction by ZEFSAII (Michael W. Deem and Ramdas Pophale) SiO2 
 PCOD9143761
Probable space group: P 2/M
;
_chemical_formula_sum "Si O2"
_cell_formula_units_Z 32
_cell_length_a 7.959189
_cell_length_b 12.473261
_cell_length_c 20.476629
_cell_angle_alpha 90.000000
_cell_angle_beta 50.253532
_cell_angle_gamma 90.000000
_cell_volume 1563.027284
_symmetry_space_group_name_H-M "P 2/M"
_symmetry_group_IT_number 10
_symmetry_cell_setting 'monoclinic'
loop_
_space_group_symop_operation_xyz
x,y,z
-x,y,-z
-x,-y,-z
x,-y,z
loop_
_atom_site_type_symbol
_atom_site_label
_atom_site_fract_x
_atom_site_fract_y
_atom_site_fract_z
Si Si1 0.919057 0.720750 0.585925
Si Si2 0.397379 0.114088 0.954126
Si Si3 0.775404 0.697934 0.076818
Si Si4 0.155949 0.165472 0.204065
Si Si5 0.296908 0.377606 0.231309
Si Si6 0.833578 0.877507 0.171818
Si Si7 0.544090 0.875114 0.627006
Si Si8 0.796008 0.877312 0.400572
O O1 0.791633 0.655857 0.674464
O O2 0.747729 0.805966 0.599112
O O3 0.000000 0.660358 0.500000
O O4 0.116836 0.787722 0.570943
O O5 0.281414 0.225810 0.970390
O O6 0.602160 0.117957 0.853177
O O7 0.278744 0.000000 0.975276
O O8 0.500000 0.114683 0.000000
O O9 0.558848 0.635741 0.154464
O O10 0.818968 0.787726 0.121063
O O11 0.000000 0.639589 0.000000
O O12 0.184240 0.291876 0.210836
O O13 0.050167 0.137313 0.161294
O O14 0.993767 0.120861 0.298731
O O15 0.236408 0.500000 0.233598
O O16 0.637825 0.860816 0.271772
O O17 0.819509 0.000000 0.151806
O O18 0.419367 0.850565 0.589401
O O19 0.603051 0.000000 0.611245
O O20 0.775718 0.000000 0.430692
#
# Coordination Sequence:
#
# PCOD9143761 Si02
#       8
#     4   4   4   4   4   4   4   4
#     4  11  22  37  60  86 114 152 196 245 298 352
#     4  10  19  30  47  79 121 158 189 223 271 341
#     4  11  22  35  57  86 117 151 190 235 287 346
#     4   9  18  33  55  78 106 151 195 239 285 340
#     4  10  23  44  62  79 107 146 199 256 300 339
#     4  10  18  32  56  88 125 157 187 224 280 350
#     4   9  18  33  54  85 125 163 194 229 281 355
#     4   9  18  32  53  84 121 160 192 227 282 353
#
# _framework density 20.473092000000001
#
# number of rings (size 3 to 8) (size 9 to 14) (size 15 to 20)
#    0.000    2.125    1.250    3.375    0.000    4.000 
#    0.000    1.875    0.000   12.750    0.000    3.500 
#    0.000    0.000    0.000    0.000    0.000    0.000 
#
# Total GULP energy -178517.413720 kJ/mol
# GULP energy per Si atom -5578.669179 kJ/mol
# Density = 2.042649 g / cm^3
# Si number density = 20.473092 Si / 1000 Ang^3
#
#
#
# Elastic Constant Matrix: (Units=GPa)
#
#
# Indices 1 2 3 4 5 6 
#
# 1 52.2877 17.1001 13.7237 0.0000 -4.0596 0.0000
# 2 17.1001 91.3470 15.2586 0.0000 1.1857 0.0000
# 3 13.7237 15.2586 85.5740 0.0000 -2.4614 0.0000
# 4 0.0000 0.0000 0.0000 5.3434 0.0000 -2.8751
# 5 -4.0596 1.1857 -2.4614 0.0000 37.2705 0.0000
# 6 0.0000 0.0000 0.0000 -2.8751 0.0000 14.2852
#
#
#
# Elastic Compliance Matrix: (Units=1/GPa)
#
#
# Indices 1 2 3 4 5 6 
#
# 1 0.021165 -0.003540 -0.002699 0.000000 0.002240 0.000000
# 2 -0.003540 0.011885 -0.001576 0.000000 -0.000868 0.000000
# 3 -0.002699 -0.001576 0.012416 0.000000 0.000576 0.000000
# 4 0.000000 0.000000 0.000000 0.209874 0.000000 0.042240
# 5 0.002240 -0.000868 0.000576 0.000000 0.027141 0.000000
# 6 0.000000 0.000000 0.000000 0.042240 0.000000 0.078504
#
#
# Mechanical properties :
#
#
# Convention : Reuss Voigt Hill
#
# Bulk Modulus (GPa) = 33.51737 35.70817 34.61277
# Shear Modulus (GPa) = 12.93462 23.58824 18.26143
#
# Velocity S-wave (km/s) = 2.51626 3.39803 2.98983
# Velocity P-wave (km/s) = 4.98488 5.73366 5.37233
#
# Compressibility (1/GPa) = 0.02983528
#
# Stress axis : x y z
#
# Youngs Moduli (GPa) = 47.24784 84.14258 80.53983
#
# Poissons Ratio (x) = 0.29790 0.21734
# Poissons Ratio (y) = 0.16727 0.12696
# Poissons Ratio (z) = 0.12750 0.13264
#
# Static dielectric constant tensor:
#      x y z
#    x 1.758180 0.000000 -0.017520 
#    y 0.000000 1.671140 0.000000 
#    z -0.017520 0.000000 1.831900 
# 
# From -- ./inp_files/82607.got.cif
#   From: 2010.05.17/outbox.cif.g08.bks.cpg/sg10_42_cif.got.tgz:82607.got - 2010.06.03 11:33:40.
