data_PCOD9143788
_publ_section_title
;
Structure prediction by ZEFSAII (Michael W. Deem and Ramdas Pophale) SiO2 
 PCOD9143788
Probable space group: P 2/M
;
_chemical_formula_sum "Si O2"
_cell_formula_units_Z 32
_cell_length_a 15.118004
_cell_length_b 8.917064
_cell_length_c 23.499342
_cell_angle_alpha 90.000000
_cell_angle_beta 28.159308
_cell_angle_gamma 90.000000
_cell_volume 1495.012359
_symmetry_space_group_name_H-M "P 2/M"
_symmetry_group_IT_number 10
_symmetry_cell_setting 'monoclinic'
loop_
_space_group_symop_operation_xyz
x,y,z
-x,y,-z
-x,-y,-z
x,-y,z
loop_
_atom_site_type_symbol
_atom_site_label
_atom_site_fract_x
_atom_site_fract_y
_atom_site_fract_z
Si Si1 0.480514 0.678370 0.210647
Si Si2 0.996566 0.177791 0.800619
Si Si3 0.218356 0.820837 0.886941
Si Si4 0.828933 0.321830 0.517868
Si Si5 0.705151 0.822413 0.470296
Si Si6 0.210870 0.177454 0.279364
Si Si7 0.294681 0.818550 0.718165
Si Si8 0.723749 0.325932 0.875720
O O1 0.485940 0.500000 0.200572
O O2 0.678926 0.739829 0.119721
O O3 0.329615 0.716871 0.346040
O O4 0.396379 0.753762 0.202338
O O5 0.815360 0.265046 0.881616
O O6 0.152463 0.195774 0.662344
O O7 0.106175 0.234739 0.794215
O O8 0.954346 0.000000 0.830239
O O9 0.311132 0.773498 0.774437
O O10 0.240060 0.000000 0.882338
O O11 0.000000 0.790797 0.000000
O O12 0.856945 0.500000 0.503780
O O13 0.763677 0.269979 0.492432
O O14 0.028333 0.243037 0.414237
O O15 0.490572 0.781918 0.577012
O O16 0.707116 0.000000 0.484446
O O17 0.199438 0.229364 0.220471
O O18 0.212710 0.000000 0.282010
O O19 0.277795 0.000000 0.726915
O O20 0.775169 0.500000 0.838582
O O21 0.500000 0.313542 0.000000
#
# Coordination Sequence:
#
# PCOD9143788 Si02
#       8
#     4   4   4   4   4   4   4   4
#     4  11  24  41  62  90 125 163 200 247 308 369
#     4  10  20  35  59  90 118 154 201 246 297 353
#     4  10  21  38  60  87 119 159 208 254 295 348
#     4  11  22  37  60  90 126 160 195 243 305 369
#     4  10  18  32  58  87 117 155 196 240 298 359
#     4  12  25  41  65  93 120 157 203 251 303 362
#     4   9  18  34  57  86 122 155 192 244 296 352
#     4  11  25  44  63  86 121 162 202 249 305 358
#
# _framework density 21.404502999999998
#
# number of rings (size 3 to 8) (size 9 to 14) (size 15 to 20)
#    0.000    1.500    2.500    3.000    0.000    6.750 
#    0.000    2.500    0.000    1.500    0.000    0.000 
#    0.000    0.000    0.000    0.000    0.000    0.000 
#
# Total GULP energy -178928.345853 kJ/mol
# GULP energy per Si atom -5591.510808 kJ/mol
# Density = 2.135579 g / cm^3
# Si number density = 21.404503 Si / 1000 Ang^3
#
#
#
# Elastic Constant Matrix: (Units=GPa)
#
#
# Indices 1 2 3 4 5 6 
#
# 1 119.7256 24.4865 3.1282 0.0000 -36.3105 0.0000
# 2 24.4865 44.9141 21.8216 0.0000 -15.7420 0.0000
# 3 3.1282 21.8216 40.7369 0.0000 -17.7911 0.0000
# 4 0.0000 0.0000 0.0000 18.8671 0.0000 -5.2474
# 5 -36.3105 -15.7420 -17.7911 0.0000 30.6917 0.0000
# 6 0.0000 0.0000 0.0000 -5.2474 0.0000 82.5873
#
#
#
# Elastic Compliance Matrix: (Units=1/GPa)
#
#
# Indices 1 2 3 4 5 6 
#
# 1 0.016510 -0.006983 0.012638 0.000000 0.023277 0.000000
# 2 -0.006983 0.034658 -0.018576 0.000000 -0.001253 0.000000
# 3 0.012638 -0.018576 0.048065 0.000000 0.033286 0.000000
# 4 0.000000 0.000000 0.000000 0.053956 0.000000 0.003428
# 5 0.023277 -0.001253 0.033286 0.000000 0.078772 0.000000
# 6 0.000000 0.000000 0.000000 0.003428 0.000000 0.012326
#
#
# Mechanical properties :
#
#
# Convention : Reuss Voigt Hill
#
# Bulk Modulus (GPa) = 13.62563 33.80550 23.71557
# Shear Modulus (GPa) = 16.97258 36.82523 26.89891
#
# Velocity S-wave (km/s) = 2.81898 4.15232 3.54883
# Velocity P-wave (km/s) = 4.12009 6.23033 5.28167
#
# Compressibility (1/GPa) = 0.07339108
#
# Stress axis : x y z
#
# Youngs Moduli (GPa) = 60.57009 28.85349 20.80509
#
# Poissons Ratio (x) = 0.20148 -0.26294
# Poissons Ratio (y) = 0.42296 0.38648
# Poissons Ratio (z) = -0.76551 0.53599
#
# Static dielectric constant tensor:
#      x y z
#    x 1.784810 0.000000 0.001560 
#    y 0.000000 1.712910 0.000000 
#    z 0.001560 0.000000 1.818250 
# 
# From -- ./inp_files/71511.got.cif
#   From: 2010.05.17/outbox.cif.g08.bks.cpg/sg10_36_cif.got.tgz:71511.got - 2010.06.03 11:33:40.
