data_PCOD9143436
_publ_section_title
;
Structure prediction by ZEFSAII (Michael W. Deem and Ramdas Pophale) SiO2 
 PCOD9143436
Probable space group: P 2/M
;
_chemical_formula_sum "Si O2"
_cell_formula_units_Z 32
_cell_length_a 11.216289
_cell_length_b 8.793562
_cell_length_c 21.251626
_cell_angle_alpha 90.000000
_cell_angle_beta 53.366240
_cell_angle_gamma 90.000000
_cell_volume 1682.026524
_symmetry_space_group_name_H-M "P 2/M"
_symmetry_group_IT_number 10
_symmetry_cell_setting 'monoclinic'
loop_
_space_group_symop_operation_xyz
x,y,z
-x,y,-z
-x,-y,-z
x,-y,z
loop_
_atom_site_type_symbol
_atom_site_label
_atom_site_fract_x
_atom_site_fract_y
_atom_site_fract_z
Si Si1 0.382014 0.319493 0.671300
Si Si2 0.774739 0.319710 0.078080
Si Si3 0.026358 0.180905 0.088008
Si Si4 0.045425 0.819917 0.628098
Si Si5 0.480197 0.177180 0.771201
Si Si6 0.317719 0.321043 0.480333
Si Si7 0.211621 0.180037 0.384209
Si Si8 0.965763 0.320864 0.238742
O O1 0.400724 0.500000 0.679854
O O2 0.417914 0.224554 0.722322
O O3 0.507495 0.282520 0.579937
O O4 0.212597 0.295366 0.706258
O O5 0.791976 0.500000 0.067634
O O6 0.608926 0.274594 0.150020
O O7 0.883944 0.258878 0.099065
O O8 0.834126 0.239518 0.996480
O O9 0.031357 0.232922 0.158439
O O10 0.012210 0.000000 0.087171
O O11 0.212938 0.768781 0.560675
O O12 0.984417 0.738185 0.709238
O O13 0.943199 0.782162 0.599993
O O14 0.038464 0.000000 0.639332
O O15 0.656548 0.199001 0.708397
O O16 0.449691 0.000000 0.792285
O O17 0.303550 0.500000 0.498095
O O18 0.254249 0.279785 0.430900
O O19 0.210560 0.000000 0.403068
O O20 0.992749 0.500000 0.222965
#
# Coordination Sequence:
#
# PCOD9143436 Si02
#       8
#     4   4   4   4   4   4   4   4
#     4   9  19  34  52  75 107 141 172 215 273 323
#     4  11  20  32  52  81 114 144 173 212 263 313
#     4  11  21  34  53  80 110 143 179 216 256 310
#     4  11  23  38  54  75 105 144 184 222 268 320
#     4  10  18  31  54  81 107 137 176 222 267 315
#     4  10  20  35  56  81 105 134 176 227 276 321
#     4   9  20  37  56  78 106 139 178 226 274 315
#     4  11  22  37  55  76 108 145 179 219 267 320
#
# _framework density 19.024668999999999
#
# number of rings (size 3 to 8) (size 9 to 14) (size 15 to 20)
#    0.000    1.750    1.250    4.875    0.000    4.500 
#    0.000    2.500    0.000    0.750    0.000    5.250 
#    0.000    0.000    0.000    0.000    0.000    0.000 
#
# Total GULP energy -178757.085555 kJ/mol
# GULP energy per Si atom -5586.158924 kJ/mol
# Density = 1.898137 g / cm^3
# Si number density = 19.024669 Si / 1000 Ang^3
#
#
#
# Elastic Constant Matrix: (Units=GPa)
#
#
# Indices 1 2 3 4 5 6 
#
# 1 11.2997 7.2831 -4.9092 0.0000 -1.3317 0.0000
# 2 7.2831 64.4677 20.7650 0.0000 -0.2242 0.0000
# 3 -4.9092 20.7650 80.3074 0.0000 2.6658 0.0000
# 4 0.0000 0.0000 0.0000 37.2762 0.0000 -0.9347
# 5 -1.3317 -0.2242 2.6658 0.0000 22.4863 0.0000
# 6 0.0000 0.0000 0.0000 -0.9347 0.0000 19.0089
#
#
#
# Elastic Compliance Matrix: (Units=1/GPa)
#
#
# Indices 1 2 3 4 5 6 
#
# 1 0.102945 -0.014824 0.009968 0.000000 0.004767 0.000000
# 2 -0.014824 0.019066 -0.005836 0.000000 0.000004 0.000000
# 3 0.009968 -0.005836 0.014610 0.000000 -0.001200 0.000000
# 4 0.000000 0.000000 0.000000 0.026860 0.000000 0.001321
# 5 0.004767 0.000004 -0.001200 0.000000 0.044896 0.000000
# 6 0.000000 0.000000 0.000000 0.001321 0.000000 0.052672
#
#
# Mechanical properties :
#
#
# Convention : Reuss Voigt Hill
#
# Bulk Modulus (GPa) = 8.67780 22.48364 15.58072
# Shear Modulus (GPa) = 15.58374 24.61664 20.10019
#
# Velocity S-wave (km/s) = 2.86516 3.60103 3.25396
# Velocity P-wave (km/s) = 3.93913 5.39756 4.72496
#
# Compressibility (1/GPa) = 0.11523659
#
# Stress axis : x y z
#
# Youngs Moduli (GPa) = 9.71391 52.44866 68.44439
#
# Poissons Ratio (x) = 0.77751 -0.68224
# Poissons Ratio (y) = 0.14400 0.39946
# Poissons Ratio (z) = -0.09683 0.30611
#
# Static dielectric constant tensor:
#      x y z
#    x 1.654210 0.000000 -0.012940 
#    y 0.000000 1.635140 0.000000 
#    z -0.012940 0.000000 1.683870 
# 
# From -- ./inp_files/83561.got.cif
#   From: 2010.05.17/outbox.cif.g08.bks.cpg/sg10_42_cif.got.tgz:83561.got - 2010.06.03 11:33:40.
