data_PCOD9143935
_publ_section_title
;
Structure prediction by ZEFSAII (Michael W. Deem and Ramdas Pophale) SiO2 
 PCOD9143935
Probable space group: P 2/M
;
_chemical_formula_sum "Si O2"
_cell_formula_units_Z 28
_cell_length_a 15.080982
_cell_length_b 7.601903
_cell_length_c 11.958935
_cell_angle_alpha 90.000000
_cell_angle_beta 68.351846
_cell_angle_gamma 90.000000
_cell_volume 1274.319467
_symmetry_space_group_name_H-M "P 2/M"
_symmetry_group_IT_number 10
_symmetry_cell_setting 'monoclinic'
loop_
_space_group_symop_operation_xyz
x,y,z
-x,y,-z
-x,-y,-z
x,-y,z
loop_
_atom_site_type_symbol
_atom_site_label
_atom_site_fract_x
_atom_site_fract_y
_atom_site_fract_z
Si Si1 0.390112 0.787624 0.045203
Si Si2 0.463803 0.799691 0.402055
Si Si3 0.087869 0.215131 0.383061
Si Si4 0.044134 0.785216 0.152265
Si Si5 0.853594 0.787987 0.122028
Si Si6 0.643116 0.698873 0.188791
Si Si7 0.299203 0.215679 0.320431
O O1 0.335027 0.728645 0.181068
O O2 0.389522 0.000000 0.045738
O O3 0.500000 0.728877 0.000000
O O4 0.346430 0.730688 0.948199
O O5 0.500000 0.715083 0.500000
O O6 0.554551 0.807301 0.277449
O O7 0.374173 0.721160 0.378095
O O8 0.434383 0.000000 0.444714
O O9 0.075921 0.272632 0.259908
O O10 0.189945 0.268825 0.384537
O O11 0.000000 0.272887 0.500000
O O12 0.087017 0.000000 0.382037
O O13 0.936139 0.732561 0.169862
O O14 0.046386 0.000000 0.151349
O O15 0.111100 0.729049 0.017785
O O16 0.745908 0.732155 0.195297
O O17 0.853758 0.000000 0.120542
O O18 0.614240 0.500000 0.221971
O O19 0.302844 0.000000 0.319256
#
# Coordination Sequence:
#
# PCOD9143935 Si02
#       7
#     4   4   4   4   4   4   4
#     4  10  18  33  58  79 103 140 184 230 271 312
#     4  10  21  38  58  78 104 143 190 229 263 315
#     4   9  16  25  42  72 109 136 160 207 272 328
#     4   8  15  29  50  76 101 132 176 228 272 313
#     4   9  17  32  55  77 101 135 179 224 270 320
#     4  12  24  35  51  80 116 146 177 219 276 337
#     4   9  17  31  52  80 108 137 175 222 274 320
#
# _framework density 21.972511999999998
#
# number of rings (size 3 to 8) (size 9 to 14) (size 15 to 20)
#    0.000    2.429    1.429    3.000    0.000    4.000 
#    0.000    5.714    0.000    0.000    0.000    0.000 
#    0.000    5.714    0.000    0.000    0.000    0.000 
#
# Total GULP energy -156382.017143 kJ/mol
# GULP energy per Si atom -5585.072041 kJ/mol
# Density = 2.192250 g / cm^3
# Si number density = 21.972512 Si / 1000 Ang^3
#
#
#
# Elastic Constant Matrix: (Units=GPa)
#
#
# Indices 1 2 3 4 5 6 
#
# 1 189.9574 2.8237 71.4344 0.0000 -1.1516 0.0000
# 2 2.8237 50.5855 1.1555 0.0000 0.8935 0.0000
# 3 71.4344 1.1555 88.2651 0.0000 11.9565 0.0000
# 4 0.0000 0.0000 0.0000 3.6550 0.0000 19.1524
# 5 -1.1516 0.8935 11.9565 0.0000 36.7556 0.0000
# 6 0.0000 0.0000 0.0000 19.1524 0.0000 -30.4056
#
#
#
# Elastic Compliance Matrix: (Units=1/GPa)
#
#
# Indices 1 2 3 4 5 6 
#
# 1 0.007769 -0.000325 -0.006608 0.000000 0.002401 0.000000
# 2 -0.000325 0.019794 0.000074 0.000000 -0.000515 0.000000
# 3 -0.006608 0.000074 0.017475 0.000000 -0.005893 0.000000
# 4 0.000000 0.000000 0.000000 0.063617 0.000000 0.040072
# 5 0.002401 -0.000515 -0.005893 0.000000 0.029212 0.000000
# 6 0.000000 0.000000 0.000000 0.040072 0.000000 -0.007647
#
#
# Mechanical properties :
#
#
# Convention : Reuss Voigt Hill
#
# Bulk Modulus (GPa) = 31.92990 53.29280 42.61135
# Shear Modulus (GPa) = 32.38787 18.89397 25.64092
#
# Velocity S-wave (km/s) = 3.84346 2.93557 3.41978
# Velocity P-wave (km/s) = 5.85316 5.98306 5.91847
#
# Compressibility (1/GPa) = 0.03131860
#
# Stress axis : x y z
#
# Youngs Moduli (GPa) = 128.71877 50.52020 57.22386
#
# Poissons Ratio (x) = 0.01642 0.37816
# Poissons Ratio (y) = 0.04185 -0.00422
# Poissons Ratio (z) = 0.85063 -0.00373
#
# Static dielectric constant tensor:
#      x y z
#    x 1.794170 0.000000 0.009300 
#    y 0.000000 1.827110 0.000000 
#    z 0.009300 0.000000 1.769780 
# 
# From -- ./inp_files/49141.got.cif
#   From: 2010.05.17/outbox.cif.g08.bks.cpg/sg10_25_cif.got.tgz:49141.got - 2010.06.03 11:33:40.
