data_PCOD9143442
_publ_section_title
;
Structure prediction by ZEFSAII (Michael W. Deem and Ramdas Pophale) SiO2 
 PCOD9143442
Probable space group: P 2/M
;
_chemical_formula_sum "Si O2"
_cell_formula_units_Z 32
_cell_length_a 21.237887
_cell_length_b 8.466556
_cell_length_c 20.884287
_cell_angle_alpha 90.000000
_cell_angle_beta 151.420090
_cell_angle_gamma 90.000000
_cell_volume 1796.446829
_symmetry_space_group_name_H-M "P 2/M"
_symmetry_group_IT_number 10
_symmetry_cell_setting 'monoclinic'
loop_
_space_group_symop_operation_xyz
x,y,z
-x,y,-z
-x,-y,-z
x,-y,z
loop_
_atom_site_type_symbol
_atom_site_label
_atom_site_fract_x
_atom_site_fract_y
_atom_site_fract_z
Si Si1 0.549415 0.686984 0.853489
Si Si2 0.765828 0.808959 0.588723
Si Si3 0.265448 0.809012 0.587751
Si Si4 0.995887 0.192925 0.569641
Si Si5 0.800140 0.190757 0.142811
Si Si6 0.678193 0.189025 0.837917
Si Si7 0.058985 0.191778 0.864483
Si Si8 0.486575 0.688673 0.560768
O O1 0.551934 0.500000 0.847528
O O2 0.402505 0.744127 0.736645
O O3 0.595854 0.765410 0.827954
O O4 0.657125 0.738032 0.002083
O O5 0.747958 0.760299 0.498616
O O6 0.646244 0.749470 0.524519
O O7 0.909899 0.754012 0.740647
O O8 0.764388 0.000000 0.588312
O O9 0.137717 0.758213 0.513629
O O10 0.269652 0.000000 0.592647
O O11 0.000000 0.245823 0.500000
O O12 0.121751 0.241449 0.724263
O O13 0.996146 0.000000 0.570006
O O14 0.889410 0.233099 0.160568
O O15 0.788407 0.000000 0.132529
O O16 0.607905 0.258852 0.713448
O O17 0.677663 0.000000 0.832466
O O18 0.827645 0.244297 0.985239
O O19 0.057061 0.000000 0.864953
O O20 0.500000 0.747495 0.500000
O O21 0.482255 0.500000 0.555898
#
# Coordination Sequence:
#
# PCOD9143442 Si02
#       8
#     4   4   4   4   4   4   4   4
#     4  11  21  32  50  78 109 139 177 223 266 312
#     4  10  18  32  56  81 104 135 178 223 265 314
#     4  10  18  31  54  82 108 138 177 223 268 313
#     4   9  17  31  55  85 112 139 177 226 275 318
#     4   9  16  31  53  77 107 140 175 217 267 318
#     4  10  19  34  57  81 106 137 174 217 268 319
#     4   8  15  29  52  81 105 129 168 220 266 306
#     4  11  24  39  53  75 111 148 179 216 261 312
#
# _framework density 17.812940999999999
#
# number of rings (size 3 to 8) (size 9 to 14) (size 15 to 20)
#    0.000    2.250    2.500    2.625    0.000    1.000 
#    0.000    5.000    0.000    9.000    0.000    0.000 
#    0.000    0.000    0.000    0.000    0.000    0.000 
#
# Total GULP energy -178516.508957 kJ/mol
# GULP energy per Si atom -5578.640905 kJ/mol
# Density = 1.777240 g / cm^3
# Si number density = 17.812941 Si / 1000 Ang^3
#
#
#
# Elastic Constant Matrix: (Units=GPa)
#
#
# Indices 1 2 3 4 5 6 
#
# 1 109.2390 14.7095 81.2187 0.0000 -4.3686 0.0000
# 2 14.7095 11.7497 16.0383 0.0000 4.3516 0.0000
# 3 81.2187 16.0383 182.2124 0.0000 -0.2974 0.0000
# 4 0.0000 0.0000 0.0000 -14.3590 0.0000 -33.4609
# 5 -4.3686 4.3516 -0.2974 0.0000 24.4365 0.0000
# 6 0.0000 0.0000 0.0000 -33.4609 0.0000 -57.7176
#
#
#
# Elastic Compliance Matrix: (Units=1/GPa)
#
#
# Indices 1 2 3 4 5 6 
#
# 1 0.015371 -0.013385 -0.005665 0.000000 0.005063 0.000000
# 2 -0.013385 0.116328 -0.004311 0.000000 -0.023161 0.000000
# 3 -0.005665 -0.004311 0.008392 0.000000 -0.000143 0.000000
# 4 0.000000 0.000000 0.000000 0.198435 0.000000 -0.115040
# 5 0.005063 -0.023161 -0.000143 0.000000 0.045950 0.000000
# 6 0.000000 0.000000 0.000000 -0.115040 0.000000 0.049367
#
#
# Mechanical properties :
#
#
# Convention : Reuss Voigt Hill
#
# Bulk Modulus (GPa) = 10.71014 58.57045 34.64030
# Shear Modulus (GPa) = 9.77156 3.22094 6.49625
#
# Velocity S-wave (km/s) = 2.34469 1.34615 1.91176
# Velocity P-wave (km/s) = 3.65454 5.94713 4.93579
#
# Compressibility (1/GPa) = 0.09336942
#
# Stress axis : x y z
#
# Youngs Moduli (GPa) = 65.05769 8.59638 119.15592
#
# Poissons Ratio (x) = 0.11507 0.67501
# Poissons Ratio (y) = 0.87082 0.51364
# Poissons Ratio (z) = 0.36855 0.03706
#
# Static dielectric constant tensor:
#      x y z
#    x 1.581260 0.000000 -0.001600 
#    y 0.000000 1.602200 0.000000 
#    z -0.001600 0.000000 1.625710 
# 
# From -- ./inp_files/86163.got.cif
#   From: 2010.05.17/outbox.cif.g08.bks.cpg/sg10_44_cif.got.tgz:86163.got - 2010.06.03 11:33:40.
