data_PCOD9143382
_publ_section_title
;
Structure prediction by ZEFSAII (Michael W. Deem and Ramdas Pophale) SiO2 
 PCOD9143382
Probable space group: P 2/M
;
_chemical_formula_sum "Si O2"
_cell_formula_units_Z 32
_cell_length_a 22.520237
_cell_length_b 8.560175
_cell_length_c 29.024696
_cell_angle_alpha 90.000000
_cell_angle_beta 161.170402
_cell_angle_gamma 90.000000
_cell_volume 1805.908827
_symmetry_space_group_name_H-M "P 2/M"
_symmetry_group_IT_number 10
_symmetry_cell_setting 'monoclinic'
loop_
_space_group_symop_operation_xyz
x,y,z
-x,y,-z
-x,-y,-z
x,-y,z
loop_
_atom_site_type_symbol
_atom_site_label
_atom_site_fract_x
_atom_site_fract_y
_atom_site_fract_z
Si Si1 0.535587 0.311390 0.578951
Si Si2 0.703651 0.313952 0.165155
Si Si3 0.838000 0.186728 0.662189
Si Si4 0.198892 0.188582 0.663050
Si Si5 0.133512 0.812269 0.805737
Si Si6 0.419099 0.811759 0.095951
Si Si7 0.875255 0.686970 0.052574
Si Si8 0.944364 0.690761 0.908298
O O1 0.500000 0.262383 0.500000
O O2 0.529589 0.500000 0.575735
O O3 0.368723 0.246511 0.486512
O O4 0.736968 0.261094 0.743217
O O5 0.698158 0.500000 0.166722
O O6 0.761339 0.238665 0.255571
O O7 0.837159 0.267616 0.221468
O O8 0.500000 0.259400 0.000000
O O9 0.946396 0.228950 0.695095
O O10 0.957410 0.257425 0.791796
O O11 0.844091 0.000000 0.670947
O O12 0.372196 0.241291 0.759175
O O13 0.000000 0.245291 0.500000
O O14 0.197720 0.000000 0.660469
O O15 0.140890 0.000000 0.805391
O O16 0.297686 0.767379 0.961763
O O17 0.415336 0.000000 0.095572
O O18 0.311031 0.748414 0.060823
O O19 0.872297 0.500000 0.051024
O O20 0.920307 0.739907 0.033728
O O21 0.946082 0.500000 0.909839
O O22 0.000000 0.744087 0.000000
#
# Coordination Sequence:
#
# PCOD9143382 Si02
#       8
#     4   4   4   4   4   4   4   4
#     4  10  18  32  53  78 103 133 175 218 260 311
#     4  11  22  34  53  83 112 138 175 226 276 316
#     4  10  20  33  51  79 109 138 175 221 271 313
#     4  10  21  38  59  80 107 149 189 219 266 329
#     4   9  18  33  53  76 105 141 177 219 267 322
#     4   9  18  33  53  79 107 136 176 222 266 316
#     4  10  18  31  53  78 104 137 177 217 263 317
#     4   9  18  33  52  75 105 139 175 213 258 317
#
# _framework density 17.719608999999998
#
# number of rings (size 3 to 8) (size 9 to 14) (size 15 to 20)
#    0.000    2.250    2.500    1.875    0.000    4.000 
#    0.000    1.250    0.000    6.375    0.000    0.000 
#    0.000    0.000    0.000    0.000    0.000    0.000 
#
# Total GULP energy -178518.807097 kJ/mol
# GULP energy per Si atom -5578.712722 kJ/mol
# Density = 1.767928 g / cm^3
# Si number density = 17.719609 Si / 1000 Ang^3
#
#
#
# Elastic Constant Matrix: (Units=GPa)
#
#
# Indices 1 2 3 4 5 6 
#
# 1 155.7907 18.3051 86.8126 0.0000 17.3226 0.0000
# 2 18.3051 6.8237 20.2408 0.0000 5.2451 0.0000
# 3 86.8126 20.2408 129.5236 0.0000 15.1215 0.0000
# 4 0.0000 0.0000 0.0000 18.9899 0.0000 6.5082
# 5 17.3226 5.2451 15.1215 0.0000 30.5694 0.0000
# 6 0.0000 0.0000 0.0000 6.5082 0.0000 25.9471
#
#
#
# Elastic Compliance Matrix: (Units=1/GPa)
#
#
# Indices 1 2 3 4 5 6 
#
# 1 0.010987 -0.013095 -0.005150 0.000000 -0.001431 0.000000
# 2 -0.013095 0.312143 -0.036737 0.000000 -0.027964 0.000000
# 3 -0.005150 -0.036737 0.016807 0.000000 0.000908 0.000000
# 4 0.000000 0.000000 0.000000 0.057612 0.000000 -0.014451
# 5 -0.001431 -0.027964 0.000908 0.000000 0.037872 0.000000
# 6 0.000000 0.000000 0.000000 -0.014451 0.000000 0.042164
#
#
# Mechanical properties :
#
#
# Convention : Reuss Voigt Hill
#
# Bulk Modulus (GPa) = 4.34836 60.31721 32.33278
# Shear Modulus (GPa) = 7.52775 26.21993 16.87384
#
# Velocity S-wave (km/s) = 2.06337 3.85088 3.08923
# Velocity P-wave (km/s) = 2.85236 7.34071 5.56875
#
# Compressibility (1/GPa) = 0.22997196
#
# Stress axis : x y z
#
# Youngs Moduli (GPa) = 91.02020 3.20366 59.49748
#
# Poissons Ratio (x) = 0.04195 0.30642
# Poissons Ratio (y) = 1.19195 2.18576
# Poissons Ratio (z) = 0.46877 0.11769
#
# Static dielectric constant tensor:
#      x y z
#    x 1.602090 0.000000 0.022200 
#    y 0.000000 1.604760 0.000000 
#    z 0.022200 0.000000 1.596450 
# 
# From -- ./inp_files/93791.got.cif
#   From: 2010.05.17/outbox.cif.g08.bks.cpg/sg10_47_cif.got.tgz:93791.got - 2010.06.03 11:33:40.
