data_PCOD9143015
_publ_section_title
;
Structure prediction by ZEFSAII (Michael W. Deem and Ramdas Pophale) SiO2 
 PCOD9143015
Probable space group: P 2/M
;
_chemical_formula_sum "Si O2"
_cell_formula_units_Z 32
_cell_length_a 14.729939
_cell_length_b 7.401239
_cell_length_c 25.460029
_cell_angle_alpha 90.000000
_cell_angle_beta 150.029844
_cell_angle_gamma 90.000000
_cell_volume 1386.571362
_symmetry_space_group_name_H-M "P 2/M"
_symmetry_group_IT_number 10
_symmetry_cell_setting 'monoclinic'
loop_
_space_group_symop_operation_xyz
x,y,z
-x,y,-z
-x,-y,-z
x,-y,z
loop_
_atom_site_type_symbol
_atom_site_label
_atom_site_fract_x
_atom_site_fract_y
_atom_site_fract_z
Si Si1 0.028250 0.210969 0.851604
Si Si2 0.361908 0.781436 0.474149
Si Si3 0.851350 0.719299 0.969200
Si Si4 0.292876 0.778998 0.892044
Si Si5 0.994113 0.779262 0.333090
Si Si6 0.109670 0.210721 0.506011
Si Si7 0.347190 0.218059 0.297806
Si Si8 0.485624 0.296984 0.258444
O O1 0.168506 0.282802 0.878873
O O2 0.822401 0.283064 0.752638
O O3 0.006834 0.000000 0.827133
O O4 0.098751 0.226064 0.946745
O O5 0.500000 0.711872 0.500000
O O6 0.156298 0.720759 0.375259
O O7 0.463250 0.741887 0.579296
O O8 0.355878 0.000000 0.464888
O O9 0.849091 0.500000 0.966179
O O10 0.648287 0.784514 0.852164
O O11 0.000000 0.779587 0.000000
O O12 0.193781 0.725941 0.788116
O O13 0.296106 0.000000 0.894898
O O14 0.500000 0.717962 0.000000
O O15 0.047878 0.715457 0.418346
O O16 0.997780 0.000000 0.335856
O O17 0.323705 0.215791 0.627253
O O18 0.000000 0.290790 0.500000
O O19 0.059179 0.000000 0.477535
O O20 0.355542 0.297834 0.244365
O O21 0.333720 0.000000 0.286111
O O22 0.531087 0.500000 0.265063
#
# Coordination Sequence:
#
# PCOD9143015 Si02
#       8
#     4   4   4   4   4   4   4   4
#     4  10  20  32  53  84 109 138 186 238 277 317
#     4   9  15  24  44  73 102 133 170 213 263 320
#     4  10  21  37  54  75 109 153 189 219 275 347
#     4   9  18  32  50  77 114 147 178 220 272 326
#     4   9  16  29  49  74 105 143 177 208 260 324
#     4  10  21  37  58  84 112 144 183 227 274 322
#     4  10  18  30  50  78 109 136 175 228 278 321
#     4  11  22  36  55  77 106 146 186 222 271 330
#
# _framework density 23.078507999999999
#
# number of rings (size 3 to 8) (size 9 to 14) (size 15 to 20)
#    0.000    2.250    2.500    1.125    0.000    5.500 
#    0.000    2.500    0.000    1.500    0.000    0.000 
#    0.000    0.000    0.000    0.000    0.000    0.000 
#
# Total GULP energy -178635.702158 kJ/mol
# GULP energy per Si atom -5582.365692 kJ/mol
# Density = 2.302598 g / cm^3
# Si number density = 23.078508 Si / 1000 Ang^3
#
#
#
# Elastic Constant Matrix: (Units=GPa)
#
#
# Indices 1 2 3 4 5 6 
#
# 1 104.9384 -3.0878 58.6759 0.0000 14.2737 0.0000
# 2 -3.0878 69.8262 1.1922 0.0000 0.6222 0.0000
# 3 58.6759 1.1922 168.2216 0.0000 16.0897 0.0000
# 4 0.0000 0.0000 0.0000 332.5068 0.0000 52.2875
# 5 14.2737 0.6222 16.0897 0.0000 29.1156 0.0000
# 6 0.0000 0.0000 0.0000 52.2875 0.0000 35.3753
#
#
#
# Elastic Compliance Matrix: (Units=1/GPa)
#
#
# Indices 1 2 3 4 5 6 
#
# 1 0.012261 0.000643 -0.003912 0.000000 -0.003863 0.000000
# 2 0.000643 0.014359 -0.000282 0.000000 -0.000467 0.000000
# 3 -0.003912 -0.000282 0.007525 0.000000 -0.002235 0.000000
# 4 0.000000 0.000000 0.000000 0.003918 0.000000 -0.005791
# 5 -0.003863 -0.000467 -0.002235 0.000000 0.037484 0.000000
# 6 0.000000 0.000000 0.000000 -0.005791 0.000000 0.036828
#
#
# Mechanical properties :
#
#
# Convention : Reuss Voigt Hill
#
# Bulk Modulus (GPa) = 36.97593 50.72743 43.85168
# Shear Modulus (GPa) = 38.91354 98.47994 68.69674
#
# Velocity S-wave (km/s) = 4.11072 6.53945 5.46179
# Velocity P-wave (km/s) = 6.21186 8.89085 7.66924
#
# Compressibility (1/GPa) = 0.02704462
#
# Stress axis : x y z
#
# Youngs Moduli (GPa) = 81.55944 69.64420 132.89601
#
# Poissons Ratio (x) = -0.04481 0.51985
# Poissons Ratio (y) = -0.05248 0.03742
# Poissons Ratio (z) = 0.31904 0.01961
#
# Static dielectric constant tensor:
#      x y z
#    x 1.856750 0.000000 -0.012660 
#    y 0.000000 1.892750 0.000000 
#    z -0.012660 0.000000 1.858920 
# 
# From -- ./inp_files/66619.got.cif
#   From: 2010.05.17/outbox.cif.g08.bks.cpg/sg10_34_cif.got.tgz:66619.got - 2010.06.03 11:33:40.
