data_PCOD9143641
_publ_section_title
;
Structure prediction by ZEFSAII (Michael W. Deem and Ramdas Pophale) SiO2 
 PCOD9143641
Probable space group: P 2/M
;
_chemical_formula_sum "Si O2"
_cell_formula_units_Z 28
_cell_length_a 21.820023
_cell_length_b 8.983891
_cell_length_c 18.457387
_cell_angle_alpha 90.000000
_cell_angle_beta 26.770738
_cell_angle_gamma 90.000000
_cell_volume 1629.705483
_symmetry_space_group_name_H-M "P 2/M"
_symmetry_group_IT_number 10
_symmetry_cell_setting 'monoclinic'
loop_
_space_group_symop_operation_xyz
x,y,z
-x,y,-z
-x,-y,-z
x,-y,z
loop_
_atom_site_type_symbol
_atom_site_label
_atom_site_fract_x
_atom_site_fract_y
_atom_site_fract_z
Si Si1 0.990387 0.822754 0.423595
Si Si2 0.903207 0.829223 0.173607
Si Si3 0.339232 0.180268 0.669786
Si Si4 0.588326 0.820423 0.018015
Si Si5 0.305963 0.180514 0.250130
Si Si6 0.214567 0.677222 0.086221
Si Si7 0.855958 0.321749 0.003424
O O1 0.837501 0.773528 0.566759
O O2 0.000000 0.801733 0.500000
O O3 0.098032 0.735304 0.263032
O O4 0.008706 0.000000 0.391404
O O5 0.754022 0.779578 0.302490
O O6 0.892725 0.000000 0.210385
O O7 0.000000 0.829796 0.000000
O O8 0.992561 0.733732 0.134894
O O9 0.500000 0.221513 0.500000
O O10 0.255819 0.250488 0.824655
O O11 0.332117 0.000000 0.682650
O O12 0.671295 0.774612 0.857642
O O13 0.649330 0.748764 0.024843
O O14 0.596140 0.000000 0.014704
O O15 0.434677 0.775452 0.161756
O O16 0.305573 0.000000 0.248080
O O17 0.223585 0.500000 0.079645
O O18 0.180451 0.721264 0.040213
O O19 0.851009 0.500000 0.015864
#
# Coordination Sequence:
#
# PCOD9143641 Si02
#       7
#     4   4   4   4   4   4   4
#     4  10  18  32  54  76  95 124 169 216 259 304
#     4   8  15  30  53  78 102 129 164 205 246 291
#     4   9  18  34  57  84 108 129 161 209 255 296
#     4   9  16  31  53  72  94 127 164 209 259 305
#     4   8  15  29  51  76  95 115 160 218 260 301
#     4  11  23  35  47  71 106 139 172 210 253 301
#     4  10  21  35  50  72 105 142 175 205 243 299
#
# _framework density 17.181018999999999
#
# number of rings (size 3 to 8) (size 9 to 14) (size 15 to 20)
#    0.000    2.714    1.429    2.571    0.000    5.429 
#    0.000    3.571    0.000    8.571    0.000    0.000 
#    0.000    0.000    0.000    0.000    0.000    0.000 
#
# Total GULP energy -155942.357689 kJ/mol
# GULP energy per Si atom -5569.369917 kJ/mol
# Density = 1.714191 g / cm^3
# Si number density = 17.181019 Si / 1000 Ang^3
#
#
#
# Elastic Constant Matrix: (Units=GPa)
#
#
# Indices 1 2 3 4 5 6 
#
# 1 149.6660 46.8393 50.9748 0.0000 -21.4468 0.0000
# 2 46.8393 27.9831 20.5924 0.0000 -2.4797 0.0000
# 3 50.9748 20.5924 68.7539 0.0000 -25.4952 0.0000
# 4 0.0000 0.0000 0.0000 7.6109 0.0000 3.9143
# 5 -21.4468 -2.4797 -25.4952 0.0000 27.6989 0.0000
# 6 0.0000 0.0000 0.0000 3.9143 0.0000 26.5625
#
#
#
# Elastic Compliance Matrix: (Units=1/GPa)
#
#
# Indices 1 2 3 4 5 6 
#
# 1 0.016584 -0.026304 -0.000803 0.000000 0.009747 0.000000
# 2 -0.026304 0.090843 -0.018587 0.000000 -0.029342 0.000000
# 3 -0.000803 -0.018587 0.030150 0.000000 0.025466 0.000000
# 4 0.000000 0.000000 0.000000 0.142165 0.000000 -0.020950
# 5 0.009747 -0.029342 0.025466 0.000000 0.064462 0.000000
# 6 0.000000 0.000000 0.000000 -0.020950 0.000000 0.040734
#
#
# Mechanical properties :
#
#
# Convention : Reuss Voigt Hill
#
# Bulk Modulus (GPa) = 21.65012 53.69067 37.67040
# Shear Modulus (GPa) = 10.16835 20.90754 15.53795
#
# Velocity S-wave (km/s) = 2.43541 3.49219 3.01053
# Velocity P-wave (km/s) = 4.53176 6.89771 5.83589
#
# Compressibility (1/GPa) = 0.04618911
#
# Stress axis : x y z
#
# Youngs Moduli (GPa) = 60.29960 11.00802 33.16782
#
# Poissons Ratio (x) = 0.28956 0.02662
# Poissons Ratio (y) = 1.58614 0.61647
# Poissons Ratio (z) = 0.04840 0.20460
#
# Static dielectric constant tensor:
#      x y z
#    x 1.604980 0.000000 -0.038880 
#    y 0.000000 1.577500 0.000000 
#    z -0.038880 0.000000 1.589040 
# 
# From -- ./inp_files/79235.got.cif
#   From: 2010.05.17/outbox.cif.g08.bks.cpg/sg10_40_cif.got.tgz:79235.got - 2010.06.03 11:33:40.
