data_PCOD9143891
_publ_section_title
;
Structure prediction by ZEFSAII (Michael W. Deem and Ramdas Pophale) SiO2 
 PCOD9143891
Probable space group: P 2/M
;
_chemical_formula_sum "Si O2"
_cell_formula_units_Z 32
_cell_length_a 18.951725
_cell_length_b 14.676177
_cell_length_c 17.619192
_cell_angle_alpha 90.000000
_cell_angle_beta 159.096217
_cell_angle_gamma 90.000000
_cell_volume 1748.526148
_symmetry_space_group_name_H-M "P 2/M"
_symmetry_group_IT_number 10
_symmetry_cell_setting 'monoclinic'
loop_
_space_group_symop_operation_xyz
x,y,z
-x,y,-z
-x,-y,-z
x,-y,z
loop_
_atom_site_type_symbol
_atom_site_label
_atom_site_fract_x
_atom_site_fract_y
_atom_site_fract_z
Si Si1 0.122273 0.900974 0.383729
Si Si2 0.588384 0.608626 0.171718
Si Si3 0.117692 0.301427 0.436194
Si Si4 0.325326 0.667747 0.048941
Si Si5 0.348199 0.395283 0.529448
Si Si6 0.108915 0.265722 0.185055
Si Si7 0.770937 0.174722 0.946197
Si Si8 0.377141 0.896300 0.487506
O O1 0.125418 0.808329 0.435998
O O2 0.285540 0.893927 0.480996
O O3 0.145642 0.000000 0.445141
O O4 0.912156 0.897879 0.128534
O O5 0.616177 0.500000 0.210062
O O6 0.790856 0.661296 0.394102
O O7 0.438720 0.644570 0.085698
O O8 0.500000 0.624639 0.000000
O O9 0.249196 0.343906 0.501037
O O10 0.902702 0.340582 0.201865
O O11 0.420917 0.610473 0.214466
O O12 0.338397 0.769145 0.097108
O O13 0.289499 0.500000 0.465458
O O14 0.264176 0.338366 0.374597
O O15 0.238436 0.174007 0.303132
O O16 0.000000 0.296310 0.000000
O O17 0.931795 0.240049 0.065919
O O18 0.603366 0.136165 0.722629
O O19 0.364111 0.000000 0.446900
#
# Coordination Sequence:
#
# PCOD9143891 Si02
#       8
#     4   4   4   4   4   4   4   4
#     4   9  17  30  54  85 111 138 177 226 267 316
#     4  10  22  36  52  83 121 148 176 218 270 327
#     4  10  18  35  57  83 110 142 182 221 267 321
#     4  10  18  34  59  79 104 141 179 224 265 315
#     4  11  21  36  55  77 104 137 185 232 272 322
#     4  11  23  39  53  74 111 145 179 231 282 328
#     4  10  18  35  55  81 105 140 184 221 272 328
#     4  10  18  33  56  78 107 141 179 223 276 333
#
# _framework density 18.301127999999999
#
# number of rings (size 3 to 8) (size 9 to 14) (size 15 to 20)
#    0.000    1.875    5.000    2.625    0.000    4.000 
#    0.000    1.875    0.000    1.125    0.000    3.500 
#    0.000    0.000    0.000    0.000    0.000    0.000 
#
# Total GULP energy -178210.512212 kJ/mol
# GULP energy per Si atom -5569.078507 kJ/mol
# Density = 1.825947 g / cm^3
# Si number density = 18.301128 Si / 1000 Ang^3
#
#
#
# Elastic Constant Matrix: (Units=GPa)
#
#
# Indices 1 2 3 4 5 6 
#
# 1 37.9406 32.5464 31.6561 0.0000 -14.2704 0.0000
# 2 32.5464 115.4766 54.2129 0.0000 -8.1507 0.0000
# 3 31.6561 54.2129 127.1479 0.0000 -9.3277 0.0000
# 4 0.0000 0.0000 0.0000 24.1083 0.0000 -16.3818
# 5 -14.2704 -8.1507 -9.3277 0.0000 25.4646 0.0000
# 6 0.0000 0.0000 0.0000 -16.3818 0.0000 25.3953
#
#
#
# Elastic Compliance Matrix: (Units=1/GPa)
#
#
# Indices 1 2 3 4 5 6 
#
# 1 0.047322 -0.008796 -0.006466 0.000000 0.021336 0.000000
# 2 -0.008796 0.012545 -0.003315 0.000000 -0.002128 0.000000
# 3 -0.006466 -0.003315 0.010836 0.000000 -0.000716 0.000000
# 4 0.000000 0.000000 0.000000 0.073851 0.000000 0.047639
# 5 0.021336 -0.002128 -0.000716 0.000000 0.050283 0.000000
# 6 0.000000 0.000000 0.000000 0.047639 0.000000 0.070108
#
#
# Mechanical properties :
#
#
# Convention : Reuss Voigt Hill
#
# Bulk Modulus (GPa) = 29.80754 57.48843 43.64799
# Shear Modulus (GPa) = 15.96004 25.80362 20.88183
#
# Velocity S-wave (km/s) = 2.95630 3.75900 3.38155
# Velocity P-wave (km/s) = 5.28920 7.09372 6.25685
#
# Compressibility (1/GPa) = 0.03354856
#
# Stress axis : x y z
#
# Youngs Moduli (GPa) = 21.13163 79.71337 92.28707
#
# Poissons Ratio (x) = 0.70115 0.59676
# Poissons Ratio (y) = 0.18587 0.30594
# Poissons Ratio (z) = 0.13664 0.26426
#
# Static dielectric constant tensor:
#      x y z
#    x 1.641260 0.000000 0.022620 
#    y 0.000000 1.647740 0.000000 
#    z 0.022620 0.000000 1.702870 
# 
# From -- ./inp_files/79742.got.cif
#   From: 2010.05.17/outbox.cif.g08.bks.cpg/sg10_40_cif.got.tgz:79742.got - 2010.06.03 11:33:40.
