data_PCOD9143458
_publ_section_title
;
Structure prediction by ZEFSAII (Michael W. Deem and Ramdas Pophale) SiO2 
 PCOD9143458
Probable space group: P 2/M
;
_chemical_formula_sum "Si O2"
_cell_formula_units_Z 32
_cell_length_a 22.097021
_cell_length_b 7.549782
_cell_length_c 28.292298
_cell_angle_alpha 90.000000
_cell_angle_beta 161.083030
_cell_angle_gamma 90.000000
_cell_volume 1530.192902
_symmetry_space_group_name_H-M "P 2/M"
_symmetry_group_IT_number 10
_symmetry_cell_setting 'monoclinic'
loop_
_space_group_symop_operation_xyz
x,y,z
-x,y,-z
-x,-y,-z
x,-y,z
loop_
_atom_site_type_symbol
_atom_site_label
_atom_site_fract_x
_atom_site_fract_y
_atom_site_fract_z
Si Si1 0.977953 0.785143 0.688343
Si Si2 0.287082 0.216686 0.845437
Si Si3 0.305627 0.705972 0.604911
Si Si4 0.441404 0.285154 0.368434
Si Si5 0.937768 0.702965 0.865252
Si Si6 0.987276 0.795152 0.438550
Si Si7 0.141417 0.794403 0.297459
Si Si8 0.345001 0.282979 0.190691
O O1 0.817611 0.722308 0.533930
O O2 0.941635 0.722992 0.714639
O O3 0.173183 0.732631 0.808390
O O4 0.967824 0.000000 0.681149
O O5 0.164154 0.280307 0.710025
O O6 0.286278 0.000000 0.844128
O O7 0.500000 0.275257 0.000000
O O8 0.322852 0.500000 0.629867
O O9 0.508928 0.777160 0.741285
O O10 0.184282 0.791188 0.556701
O O11 0.449510 0.500000 0.377494
O O12 0.255451 0.220481 0.257704
O O13 0.634777 0.219051 0.532728
O O14 0.420414 0.234369 0.298089
O O15 0.939230 0.500000 0.883853
O O16 0.927189 0.704530 0.800923
O O17 0.134109 0.780680 0.027266
O O18 0.000000 0.714314 0.500000
O O19 0.931188 0.000000 0.403582
O O20 0.088871 0.000000 0.254718
O O21 0.344473 0.500000 0.188560
#
# Coordination Sequence:
#
# PCOD9143458 Si02
#       8
#     4   4   4   4   4   4   4   4
#     4   9  18  33  52  74 101 135 173 208 249 303
#     4   8  14  28  51  73  93 122 165 208 240 280
#     4  10  18  31  55  80 102 132 171 213 256 302
#     4  10  19  35  59  79  96 132 182 220 256 311
#     4  10  21  36  54  76 104 136 173 219 264 309
#     4   9  18  33  51  75 104 135 170 206 246 297
#     4  11  22  35  51  76 110 140 170 213 263 314
#     4   9  18  34  55  79 103 131 174 221 263 306
#
# _framework density 20.912398
#
# number of rings (size 3 to 8) (size 9 to 14) (size 15 to 20)
#    0.000    2.500    1.250    2.250    0.000    4.250 
#    2.250    1.875    0.000    7.500    0.000    0.000 
#    0.000    0.000    0.000    0.000    0.000    0.000 
#
# Total GULP energy -178602.893094 kJ/mol
# GULP energy per Si atom -5581.340409 kJ/mol
# Density = 2.086480 g / cm^3
# Si number density = 20.912398 Si / 1000 Ang^3
#
#
#
# Elastic Constant Matrix: (Units=GPa)
#
#
# Indices 1 2 3 4 5 6 
#
# 1 81.8086 -5.8167 -0.4082 0.0000 13.2623 0.0000
# 2 -5.8167 50.0286 -3.5558 0.0000 0.6712 0.0000
# 3 -0.4082 -3.5558 48.3552 0.0000 18.1161 0.0000
# 4 0.0000 0.0000 0.0000 37.1303 0.0000 -14.6809
# 5 13.2623 0.6712 18.1161 0.0000 32.7317 0.0000
# 6 0.0000 0.0000 0.0000 -14.6809 0.0000 26.2118
#
#
#
# Elastic Compliance Matrix: (Units=1/GPa)
#
#
# Indices 1 2 3 4 5 6 
#
# 1 0.013529 0.001877 0.002927 0.000000 -0.007141 0.000000
# 2 0.001877 0.020417 0.002471 0.000000 -0.002547 0.000000
# 3 0.002927 0.002471 0.026935 0.000000 -0.016145 0.000000
# 4 0.000000 0.000000 0.000000 0.034593 0.000000 0.019375
# 5 -0.007141 -0.002547 -0.016145 0.000000 0.042432 0.000000
# 6 0.000000 0.000000 0.000000 0.019375 0.000000 0.049003
#
#
# Mechanical properties :
#
#
# Convention : Reuss Voigt Hill
#
# Bulk Modulus (GPa) = 13.25688 17.84790 15.55239
# Shear Modulus (GPa) = 25.31620 31.87963 28.59792
#
# Velocity S-wave (km/s) = 3.48312 3.90864 3.70200
# Velocity P-wave (km/s) = 4.74649 5.37802 5.07209
#
# Compressibility (1/GPa) = 0.07543253
#
# Stress axis : x y z
#
# Youngs Moduli (GPa) = 73.91372 48.97972 37.12602
#
# Poissons Ratio (x) = -0.09193 -0.10868
# Poissons Ratio (y) = -0.13873 -0.09175
# Poissons Ratio (z) = -0.21637 -0.12105
#
# Static dielectric constant tensor:
#      x y z
#    x 1.744490 0.000000 0.021200 
#    y 0.000000 1.844870 0.000000 
#    z 0.021200 0.000000 1.720930 
# 
# From -- ./inp_files/86879.got.cif
#   From: 2010.05.17/outbox.cif.g08.bks.cpg/sg10_44_cif.got.tgz:86879.got - 2010.06.03 11:33:40.
