data_PCOD9143095
_publ_section_title
;
Structure prediction by ZEFSAII (Michael W. Deem and Ramdas Pophale) SiO2 
 PCOD9143095
Probable space group: P 2/M
;
_chemical_formula_sum "Si O2"
_cell_formula_units_Z 24
_cell_length_a 27.698697
_cell_length_b 7.786328
_cell_length_c 12.127529
_cell_angle_alpha 90.000000
_cell_angle_beta 27.838511
_cell_angle_gamma 90.000000
_cell_volume 1221.416156
_symmetry_space_group_name_H-M "P 2/M"
_symmetry_group_IT_number 10
_symmetry_cell_setting 'monoclinic'
loop_
_space_group_symop_operation_xyz
x,y,z
-x,y,-z
-x,-y,-z
x,-y,z
loop_
_atom_site_type_symbol
_atom_site_label
_atom_site_fract_x
_atom_site_fract_y
_atom_site_fract_z
Si Si1 0.134748 0.193926 0.137043
Si Si2 0.091279 0.303139 0.461239
Si Si3 0.712626 0.289534 0.806301
Si Si4 0.683742 0.292954 0.392697
Si Si5 0.484550 0.709916 0.656270
Si Si6 0.379289 0.290055 0.241253
O O1 0.139435 0.301423 0.240472
O O2 0.018297 0.210204 0.326511
O O3 0.153748 0.000000 0.133993
O O4 0.216824 0.242121 0.878495
O O5 0.068188 0.500000 0.537591
O O6 0.176085 0.232346 0.374266
O O7 0.714846 0.500000 0.802862
O O8 0.678102 0.234823 0.754168
O O9 0.622902 0.235998 0.072246
O O10 0.680912 0.500000 0.400720
O O11 0.580685 0.234692 0.537038
O O12 0.676411 0.233744 0.533863
O O13 0.500000 0.767310 0.500000
O O14 0.484515 0.500000 0.656041
O O15 0.380022 0.500000 0.238188
O O16 0.500000 0.237784 0.000000
#
# Coordination Sequence:
#
# PCOD9143095 Si02
#       6
#     4   4   4   4   4   4
#     4  11  22  36  53  73 104 139 174 214 261 308
#     4  10  19  34  57  80 103 131 171 215 261 311
#     4   9  16  27  47  79 110 132 162 211 264 308
#     4  10  18  30  52  78 105 137 173 210 252 305
#     4   9  15  23  41  74 108 131 158 203 256 304
#     4   9  15  27  48  79 111 136 166 210 260 303
#
# _framework density 19.649322000000002
#
# number of rings (size 3 to 8) (size 9 to 14) (size 15 to 20)
#    0.000    2.333    1.667    4.000    0.000    2.667 
#    0.000    0.833    0.000   13.000    0.000    0.000 
#    0.000    0.000    0.000    0.000    0.000    0.000 
#
# Total GULP energy -133972.821826 kJ/mol
# GULP energy per Si atom -5582.200909 kJ/mol
# Density = 1.960460 g / cm^3
# Si number density = 19.649322 Si / 1000 Ang^3
#
#
#
# Elastic Constant Matrix: (Units=GPa)
#
#
# Indices 1 2 3 4 5 6 
#
# 1 120.8614 -3.8688 10.2699 0.0000 -15.0899 0.0000
# 2 -3.8688 30.2378 -6.4700 0.0000 -0.7119 0.0000
# 3 10.2699 -6.4700 43.9224 0.0000 -8.7872 0.0000
# 4 0.0000 0.0000 0.0000 -80.4047 0.0000 32.3678
# 5 -15.0899 -0.7119 -8.7872 0.0000 24.6028 0.0000
# 6 0.0000 0.0000 0.0000 32.3678 0.0000 -34.6518
#
#
#
# Elastic Compliance Matrix: (Units=1/GPa)
#
#
# Indices 1 2 3 4 5 6 
#
# 1 0.009042 0.001087 -0.000903 0.000000 0.005255 0.000000
# 2 0.001087 0.034485 0.005556 0.000000 0.003649 0.000000
# 3 -0.000903 0.005556 0.025543 0.000000 0.008730 0.000000
# 4 0.000000 0.000000 0.000000 -0.019932 0.000000 -0.018618
# 5 0.005255 0.003649 0.008730 0.000000 0.047092 0.000000
# 6 0.000000 0.000000 0.000000 -0.018618 0.000000 -0.046250
#
#
# Mechanical properties :
#
#
# Convention : Reuss Voigt Hill
#
# Bulk Modulus (GPa) = 12.41457 21.65377 17.03417
# Shear Modulus (GPa) = 76.51107 -5.08470 35.71318
#
# Velocity S-wave (km/s) = 6.24682 -1.61039 4.26787
# Velocity P-wave (km/s) = 7.63952 2.75431 5.74232
#
# Compressibility (1/GPa) = 0.08055048
#
# Stress axis : x y z
#
# Youngs Moduli (GPa) = 110.60106 28.99820 39.14895
#
# Poissons Ratio (x) = -0.03153 0.03534
# Poissons Ratio (y) = -0.12026 -0.21750
# Poissons Ratio (z) = 0.09984 -0.16110
#
# Static dielectric constant tensor:
#      x y z
#    x 1.677290 0.000000 0.002250 
#    y 0.000000 1.704150 0.000000 
#    z 0.002250 0.000000 1.659280 
# 
# From -- ./inp_files/57221.got.cif
#   From: 2010.05.17/outbox.cif.g08.bks.cpg/sg10_29_cif.got.tgz:57221.got - 2010.06.03 11:33:40.
