data_PCOD9143134
_publ_section_title
;
Structure prediction by ZEFSAII (Michael W. Deem and Ramdas Pophale) SiO2 
 PCOD9143134
Probable space group: P 2/M
;
_chemical_formula_sum "Si O2"
_cell_formula_units_Z 20
_cell_length_a 11.707481
_cell_length_b 10.377433
_cell_length_c 28.455855
_cell_angle_alpha 90.000000
_cell_angle_beta 160.832155
_cell_angle_gamma 90.000000
_cell_volume 1135.126694
_symmetry_space_group_name_H-M "P 2/M"
_symmetry_group_IT_number 10
_symmetry_cell_setting 'monoclinic'
loop_
_space_group_symop_operation_xyz
x,y,z
-x,y,-z
-x,-y,-z
x,-y,z
loop_
_atom_site_type_symbol
_atom_site_label
_atom_site_fract_x
_atom_site_fract_y
_atom_site_fract_z
Si Si1 0.201184 0.245967 0.206073
Si Si2 0.123236 0.150889 0.827448
Si Si3 0.435032 0.265016 0.861655
Si Si4 0.512636 0.000000 0.844430
Si Si5 0.419080 0.500000 0.151473
Si Si6 0.318653 0.000000 0.193389
Si Si7 0.397809 0.500000 0.668582
O O1 0.369347 0.126759 0.243687
O O2 0.412360 0.374690 0.278627
O O3 0.142857 0.203644 0.237134
O O4 0.817632 0.264586 0.034237
O O5 0.169238 0.250503 0.802117
O O6 0.051667 0.000000 0.786597
O O7 0.500000 0.146503 0.000000
O O8 0.370778 0.131540 0.809873
O O9 0.459332 0.378568 0.832950
O O10 0.471624 0.000000 0.772960
O O11 0.916654 0.000000 0.018881
O O12 0.574759 0.500000 0.264131
O O13 0.000000 0.500000 0.000000
O O14 0.000000 0.500000 0.500000
#
# Coordination Sequence:
#
# PCOD9143134 Si02
#       7
#     4   4   4   2   2   2   2
#     4  10  18  33  54  79 114 151 182 226 279 328
#     4   9  16  29  51  86 121 143 176 226 281 339
#     4  10  18  30  53  85 117 146 174 227 284 335
#     4   9  16  23  43  79 116 139 175 213 282 334
#     4  12  22  37  55  81 117 144 186 240 279 326
#     4   9  16  25  48  77 104 146 181 220 271 328
#     4  12  26  41  55  77 113 156 194 231 279 332
#
# _framework density 17.619178000000002
#
# number of rings (size 3 to 8) (size 9 to 14) (size 15 to 20)
#    0.000    2.000    4.000    1.200    2.800    0.800 
#    0.000    3.500    0.000    2.400    0.000    1.400 
#    0.000    0.000    0.000    0.000    0.000    0.000 
#
# Total GULP energy -111387.054105 kJ/mol
# GULP energy per Si atom -5569.352705 kJ/mol
# Density = 1.757908 g / cm^3
# Si number density = 17.619178 Si / 1000 Ang^3
#
#
#
# Elastic Constant Matrix: (Units=GPa)
#
#
# Indices 1 2 3 4 5 6 
#
# 1 171.2206 87.3538 37.1076 0.0000 5.1053 0.0000
# 2 87.3538 158.4532 29.5684 0.0000 8.1235 0.0000
# 3 37.1076 29.5684 32.4662 0.0000 -4.2626 0.0000
# 4 0.0000 0.0000 0.0000 -18.8727 0.0000 -3.3537
# 5 5.1053 8.1235 -4.2626 0.0000 9.2668 0.0000
# 6 0.0000 0.0000 0.0000 -3.3537 0.0000 38.8527
#
#
#
# Elastic Compliance Matrix: (Units=1/GPa)
#
#
# Indices 1 2 3 4 5 6 
#
# 1 0.009653 -0.003342 -0.008837 0.000000 -0.006453 0.000000
# 2 -0.003342 0.009855 -0.006437 0.000000 -0.009759 0.000000
# 3 -0.008837 -0.006437 0.051238 0.000000 0.034080 0.000000
# 4 0.000000 0.000000 0.000000 -0.052186 0.000000 -0.004505
# 5 -0.006453 -0.009759 0.034080 0.000000 0.135699 0.000000
# 6 0.000000 0.000000 0.000000 -0.004505 0.000000 0.025349
#
#
# Mechanical properties :
#
#
# Convention : Reuss Voigt Hill
#
# Bulk Modulus (GPa) = 29.83730 74.46661 52.15195
# Shear Modulus (GPa) = 21.92880 19.72337 20.82609
#
# Velocity S-wave (km/s) = 3.53171 3.34941 3.44177
# Velocity P-wave (km/s) = 5.79672 7.57062 6.74227
#
# Compressibility (1/GPa) = 0.03351510
#
# Stress axis : x y z
#
# Youngs Moduli (GPa) = 103.59649 101.47395 19.51666
#
# Poissons Ratio (x) = 0.33909 0.17246
# Poissons Ratio (y) = 0.34619 0.12563
# Poissons Ratio (z) = 0.91545 0.65319
#
# Static dielectric constant tensor:
#      x y z
#    x 1.622710 0.000000 -0.005390 
#    y 0.000000 1.591760 0.000000 
#    z -0.005390 0.000000 1.575260 
# 
# From -- ./inp_files/94912.got.cif
#   From: 2010.05.17/outbox.cif.g08.bks.cpg/sg10_48_cif.got.tgz:94912.got - 2010.06.03 11:33:40.
