data_PCOD9143256
_publ_section_title
;
Structure prediction by ZEFSAII (Michael W. Deem and Ramdas Pophale) SiO2 
 PCOD9143256
Probable space group: P 2/M
;
_chemical_formula_sum "Si O2"
_cell_formula_units_Z 32
_cell_length_a 24.166080
_cell_length_b 8.046429
_cell_length_c 14.939219
_cell_angle_alpha 90.000000
_cell_angle_beta 150.329593
_cell_angle_gamma 90.000000
_cell_volume 1437.974624
_symmetry_space_group_name_H-M "P 2/M"
_symmetry_group_IT_number 10
_symmetry_cell_setting 'monoclinic'
loop_
_space_group_symop_operation_xyz
x,y,z
-x,y,-z
-x,-y,-z
x,-y,z
loop_
_atom_site_type_symbol
_atom_site_label
_atom_site_fract_x
_atom_site_fract_y
_atom_site_fract_z
Si Si1 0.292870 0.184714 0.778564
Si Si2 0.064577 0.311276 0.498620
Si Si3 0.190810 0.804068 0.453367
Si Si4 0.354999 0.300449 0.057063
Si Si5 0.057350 0.194940 0.946034
Si Si6 0.542000 0.297023 0.461178
Si Si7 0.761850 0.696490 0.671087
Si Si8 0.157692 0.299610 0.912537
O O1 0.167053 0.189244 0.640942
O O2 0.264684 0.264101 0.640890
O O3 0.336595 0.000000 0.824163
O O4 0.358883 0.254924 0.957472
O O5 0.106066 0.500000 0.539230
O O6 0.000000 0.317259 0.500000
O O7 0.967046 0.263139 0.295481
O O8 0.250246 0.780818 0.442194
O O9 0.064220 0.735928 0.256798
O O10 0.177203 0.000000 0.454977
O O11 0.349219 0.500000 0.050250
O O12 0.458434 0.246807 0.263886
O O13 0.246200 0.243206 0.962044
O O14 0.151442 0.222774 0.001504
O O15 0.041130 0.000000 0.939107
O O16 0.116449 0.270051 0.116093
O O17 0.500000 0.239762 0.500000
O O18 0.540527 0.500000 0.463180
O O19 0.665096 0.246200 0.603079
O O20 0.748511 0.500000 0.639482
O O21 0.170761 0.500000 0.939751
#
# Coordination Sequence:
#
# PCOD9143256 Si02
#       8
#     4   4   4   4   4   4   4   4
#     4  11  22  36  54  81 118 158 196 233 282 344
#     4  10  18  31  50  77 113 153 194 234 282 334
#     4  10  23  41  57  79 116 160 194 228 285 347
#     4  10  20  37  60  86 117 154 193 240 292 340
#     4  11  22  37  57  83 118 159 194 230 287 350
#     4   9  19  39  66  90 115 145 182 234 294 345
#     4  11  23  39  62  90 111 142 194 245 291 340
#     4  10  19  31  53  84 116 150 192 236 280 334
#
# _framework density 22.253522
#
# number of rings (size 3 to 8) (size 9 to 14) (size 15 to 20)
#    0.000    1.750    2.500    2.250    0.000    6.250 
#    0.000    1.875    0.000    6.375    0.000    0.000 
#    0.000    0.000    0.000    0.000    0.000    0.000 
#
# Total GULP energy -178372.385346 kJ/mol
# GULP energy per Si atom -5574.137042 kJ/mol
# Density = 2.220287 g / cm^3
# Si number density = 22.253522 Si / 1000 Ang^3
#
#
#
# Elastic Constant Matrix: (Units=GPa)
#
#
# Indices 1 2 3 4 5 6 
#
# 1 131.4705 7.6295 51.2519 0.0000 -30.2205 0.0000
# 2 7.6295 29.8593 -6.6226 0.0000 -2.7705 0.0000
# 3 51.2519 -6.6226 138.5525 0.0000 -34.4113 0.0000
# 4 0.0000 0.0000 0.0000 22.6286 0.0000 -5.0099
# 5 -30.2205 -2.7705 -34.4113 0.0000 42.1115 0.0000
# 6 0.0000 0.0000 0.0000 -5.0099 0.0000 34.4542
#
#
#
# Elastic Compliance Matrix: (Units=1/GPa)
#
#
# Indices 1 2 3 4 5 6 
#
# 1 0.009871 -0.002651 -0.002587 0.000000 0.004795 0.000000
# 2 -0.002651 0.035240 0.003473 0.000000 0.003254 0.000000
# 3 -0.002587 0.003473 0.009957 0.000000 0.006508 0.000000
# 4 0.000000 0.000000 0.000000 0.045662 0.000000 0.006640
# 5 0.004795 0.003254 0.006508 0.000000 0.032720 0.000000
# 6 0.000000 0.000000 0.000000 0.006640 0.000000 0.029989
#
#
# Mechanical properties :
#
#
# Convention : Reuss Voigt Hill
#
# Bulk Modulus (GPa) = 19.40312 44.93332 32.16822
# Shear Modulus (GPa) = 27.15205 36.34710 31.74957
#
# Velocity S-wave (km/s) = 3.49682 4.04582 3.78129
# Velocity P-wave (km/s) = 5.00417 6.48539 5.79232
#
# Compressibility (1/GPa) = 0.05153810
#
# Stress axis : x y z
#
# Youngs Moduli (GPa) = 101.30771 28.37681 100.43307
#
# Poissons Ratio (x) = 0.07523 0.25983
# Poissons Ratio (y) = 0.26857 -0.34883
# Poissons Ratio (z) = 0.26209 -0.09856
#
# Static dielectric constant tensor:
#      x y z
#    x 1.896190 0.000000 -0.035710 
#    y 0.000000 1.835820 0.000000 
#    z -0.035710 0.000000 1.835610 
# 
# From -- ./inp_files/71665.got.cif
#   From: 2010.05.17/outbox.cif.g08.bks.cpg/sg10_36_cif.got.tgz:71665.got - 2010.06.03 11:33:40.
