data_PCOD9143566
_publ_section_title
;
Structure prediction by ZEFSAII (Michael W. Deem and Ramdas Pophale) SiO2 
 PCOD9143566
Probable space group: P 2/M
;
_chemical_formula_sum "Si O2"
_cell_formula_units_Z 28
_cell_length_a 12.329996
_cell_length_b 7.484432
_cell_length_c 16.097399
_cell_angle_alpha 90.000000
_cell_angle_beta 56.073200
_cell_angle_gamma 90.000000
_cell_volume 1232.609295
_symmetry_space_group_name_H-M "P 2/M"
_symmetry_group_IT_number 10
_symmetry_cell_setting 'monoclinic'
loop_
_space_group_symop_operation_xyz
x,y,z
-x,y,-z
-x,-y,-z
x,-y,z
loop_
_atom_site_type_symbol
_atom_site_label
_atom_site_fract_x
_atom_site_fract_y
_atom_site_fract_z
Si Si1 0.630459 0.294471 0.662602
Si Si2 0.344640 0.794538 0.836905
Si Si3 0.900022 0.286314 0.612346
Si Si4 0.644689 0.215916 0.467665
Si Si5 0.365251 0.780637 0.015687
Si Si6 0.169785 0.219145 0.762533
Si Si7 0.091654 0.786451 0.202662
O O1 0.611130 0.500000 0.695407
O O2 0.490135 0.206085 0.736072
O O3 0.752521 0.216724 0.661394
O O4 0.669379 0.285419 0.549295
O O5 0.243797 0.716416 0.813264
O O6 0.303248 0.000000 0.865861
O O7 0.353307 0.718846 0.925589
O O8 0.891513 0.500000 0.604109
O O9 0.944726 0.251842 0.686647
O O10 0.000000 0.217089 0.500000
O O11 0.500000 0.269368 0.500000
O O12 0.746978 0.272446 0.354054
O O13 0.647346 0.000000 0.471345
O O14 0.236466 0.720730 0.119916
O O15 0.368422 0.000000 0.014614
O O16 0.500000 0.721942 0.000000
O O17 0.021498 0.277709 0.810890
O O18 0.172491 0.000000 0.762977
O O19 0.095614 0.000000 0.192186
#
# Coordination Sequence:
#
# PCOD9143566 Si02
#       7
#     4   4   4   4   4   4   4
#     4  11  22  34  52  80 108 137 181 227 263 310
#     4  10  19  35  56  76 107 145 175 214 271 320
#     4  10  22  39  55  75 108 145 179 215 265 324
#     4  10  18  32  52  75 108 145 177 211 260 320
#     4   9  18  32  53  81 107 135 176 223 268 314
#     4   9  18  32  52  80 108 138 178 218 260 315
#     4  10  20  35  56  82 108 135 179 227 262 312
#
# _framework density 22.71604
#
# number of rings (size 3 to 8) (size 9 to 14) (size 15 to 20)
#    0.000    2.143    1.429    2.143    0.000    3.429 
#    0.000    4.286    0.000    2.571    0.000    2.000 
#    0.000    0.000    0.000    0.000    0.000    0.000 
#
# Total GULP energy -156506.782710 kJ/mol
# GULP energy per Si atom -5589.527954 kJ/mol
# Density = 2.266434 g / cm^3
# Si number density = 22.716040 Si / 1000 Ang^3
#
#
#
# Elastic Constant Matrix: (Units=GPa)
#
#
# Indices 1 2 3 4 5 6 
#
# 1 190.8468 1.3726 71.4371 0.0000 0.6556 0.0000
# 2 1.3726 61.8481 -4.6665 0.0000 -4.6496 0.0000
# 3 71.4371 -4.6665 128.3589 0.0000 7.9226 0.0000
# 4 0.0000 0.0000 0.0000 -16.1201 0.0000 9.5567
# 5 0.6556 -4.6496 7.9226 0.0000 39.2578 0.0000
# 6 0.0000 0.0000 0.0000 9.5567 0.0000 1.0245
#
#
#
# Elastic Compliance Matrix: (Units=1/GPa)
#
#
# Indices 1 2 3 4 5 6 
#
# 1 0.006644 -0.000385 -0.003748 0.000000 0.000600 0.000000
# 2 -0.000385 0.016365 0.000698 0.000000 0.001804 0.000000
# 3 -0.003748 0.000698 0.010018 0.000000 -0.001876 0.000000
# 4 0.000000 0.000000 0.000000 -0.009500 0.000000 0.088614
# 5 0.000600 0.001804 -0.001876 0.000000 0.026055 0.000000
# 6 0.000000 0.000000 0.000000 0.088614 0.000000 0.149473
#
#
# Mechanical properties :
#
#
# Convention : Reuss Voigt Hill
#
# Bulk Modulus (GPa) = 38.23242 57.48225 47.85734
# Shear Modulus (GPa) = 23.29424 25.69315 24.49369
#
# Velocity S-wave (km/s) = 3.20574 3.36677 3.28724
# Velocity P-wave (km/s) = 5.52897 6.36185 5.95998
#
# Compressibility (1/GPa) = 0.02615581
#
# Stress axis : x y z
#
# Youngs Moduli (GPa) = 150.51992 61.10429 99.81991
#
# Poissons Ratio (x) = 0.02354 0.37417
# Poissons Ratio (y) = 0.05798 -0.06967
# Poissons Ratio (z) = 0.56422 -0.04265
#
# Static dielectric constant tensor:
#      x y z
#    x 1.831040 0.000000 -0.004820 
#    y 0.000000 1.885790 0.000000 
#    z -0.004820 0.000000 1.798230 
# 
# From -- ./inp_files/49124.got.cif
#   From: 2010.05.17/outbox.cif.g08.bks.cpg/sg10_25_cif.got.tgz:49124.got - 2010.06.03 11:33:40.
