data_PCOD9143906
_publ_section_title
;
Structure prediction by ZEFSAII (Michael W. Deem and Ramdas Pophale) SiO2 
 PCOD9143906
Probable space group: P 2/M
;
_chemical_formula_sum "Si O2"
_cell_formula_units_Z 28
_cell_length_a 11.490960
_cell_length_b 15.251364
_cell_length_c 15.102131
_cell_angle_alpha 90.000000
_cell_angle_beta 142.604729
_cell_angle_gamma 90.000000
_cell_volume 1607.362594
_symmetry_space_group_name_H-M "P 2/M"
_symmetry_group_IT_number 10
_symmetry_cell_setting 'monoclinic'
loop_
_space_group_symop_operation_xyz
x,y,z
-x,y,-z
-x,-y,-z
x,-y,z
loop_
_atom_site_type_symbol
_atom_site_label
_atom_site_fract_x
_atom_site_fract_y
_atom_site_fract_z
Si Si1 0.014813 0.764775 0.254482
Si Si2 0.610219 0.150847 0.988391
Si Si3 0.209660 0.599398 0.889919
Si Si4 0.600208 0.336077 0.177752
Si Si5 0.179244 0.759997 0.547568
Si Si6 0.515970 0.098573 0.741332
Si Si7 0.705643 0.898811 0.673423
O O1 0.941851 0.672314 0.170617
O O2 0.103615 0.742891 0.403663
O O3 0.158183 0.825108 0.285309
O O4 0.820115 0.820996 0.145856
O O5 0.483274 0.239318 0.895832
O O6 0.614449 0.104646 0.896514
O O7 0.500000 0.101984 0.000000
O O8 0.140566 0.500000 0.848351
O O9 0.277079 0.627358 0.830736
O O10 0.406414 0.607416 0.065211
O O11 0.724168 0.321004 0.340677
O O12 0.339281 0.834905 0.635008
O O13 0.000000 0.788659 0.500000
O O14 0.662083 0.118525 0.750307
O O15 0.444977 0.000000 0.682250
O O16 0.500000 0.894703 0.500000
O O17 0.776553 0.000000 0.706119
#
# Coordination Sequence:
#
# PCOD9143906 Si02
#       7
#     4   4   4   4   4   4   4
#     4  11  20  34  58  84 112 150 192 236 294 328
#     4  10  18  35  55  79 117 150 182 228 288 349
#     4  10  18  33  56  83 114 150 189 232 285 348
#     4   9  16  31  51  77 112 149 182 213 280 348
#     4  11  19  32  54  80 115 151 183 235 287 357
#     4  10  22  37  54  79 112 152 198 242 283 337
#     4  10  21  39  58  80 111 152 203 245 278 330
#
# _framework density 17.419840000000001
#
# number of rings (size 3 to 8) (size 9 to 14) (size 15 to 20)
#    0.000    1.857    5.714    1.714    0.000    1.714 
#    0.000    5.000    0.000    0.429    0.000   14.000 
#    0.000    0.000    0.000    0.000    0.000    0.000 
#
# Total GULP energy -156022.984242 kJ/mol
# GULP energy per Si atom -5572.249437 kJ/mol
# Density = 1.738019 g / cm^3
# Si number density = 17.419840 Si / 1000 Ang^3
#
#
#
# Elastic Constant Matrix: (Units=GPa)
#
#
# Indices 1 2 3 4 5 6 
#
# 1 96.6985 53.5669 40.0035 0.0000 -7.2436 0.0000
# 2 53.5669 100.6545 22.6099 0.0000 13.1980 0.0000
# 3 40.0035 22.6099 101.2785 0.0000 -6.7250 0.0000
# 4 0.0000 0.0000 0.0000 16.8504 0.0000 0.4880
# 5 -7.2436 13.1980 -6.7250 0.0000 26.5032 0.0000
# 6 0.0000 0.0000 0.0000 0.4880 0.0000 15.8581
#
#
#
# Elastic Compliance Matrix: (Units=1/GPa)
#
#
# Indices 1 2 3 4 5 6 
#
# 1 0.018332 -0.009915 -0.004442 0.000000 0.008821 0.000000
# 2 -0.009915 0.016815 -0.000583 0.000000 -0.011232 0.000000
# 3 -0.004442 -0.000583 0.011898 0.000000 0.002095 0.000000
# 4 0.000000 0.000000 0.000000 0.059399 0.000000 -0.001828
# 5 0.008821 -0.011232 0.002095 0.000000 0.046267 0.000000
# 6 0.000000 0.000000 0.000000 -0.001828 0.000000 0.063116
#
#
# Mechanical properties :
#
#
# Convention : Reuss Voigt Hill
#
# Bulk Modulus (GPa) = 58.25900 58.99912 58.62906
# Shear Modulus (GPa) = 19.88637 24.00575 21.94606
#
# Velocity S-wave (km/s) = 3.38241 3.71626 3.55326
# Velocity P-wave (km/s) = 6.98362 7.23579 7.11082
#
# Compressibility (1/GPa) = 0.01716473
#
# Stress axis : x y z
#
# Youngs Moduli (GPa) = 54.54890 59.46943 84.05060
#
# Poissons Ratio (x) = 0.58964 0.37333
# Poissons Ratio (y) = 0.54085 0.04904
# Poissons Ratio (z) = 0.24229 0.03470
#
# Static dielectric constant tensor:
#      x y z
#    x 1.594220 0.000000 -0.014760 
#    y 0.000000 1.604850 0.000000 
#    z -0.014760 0.000000 1.634300 
# 
# From -- ./inp_files/29413.got.cif
#   From: 2010.05.17/outbox.cif.g08.bks.cpg/sg10_15_cif.got.tgz:29413.got - 2010.06.03 11:33:40.
