data_PCOD9143124
_publ_section_title
;
Structure prediction by ZEFSAII (Michael W. Deem and Ramdas Pophale) SiO2 
 PCOD9143124
Probable space group: P 2/M
;
_chemical_formula_sum "Si O2"
_cell_formula_units_Z 32
_cell_length_a 10.907570
_cell_length_b 8.449877
_cell_length_c 19.867000
_cell_angle_alpha 90.000000
_cell_angle_beta 60.622622
_cell_angle_gamma 90.000000
_cell_volume 1595.629343
_symmetry_space_group_name_H-M "P 2/M"
_symmetry_group_IT_number 10
_symmetry_cell_setting 'monoclinic'
loop_
_space_group_symop_operation_xyz
x,y,z
-x,y,-z
-x,-y,-z
x,-y,z
loop_
_atom_site_type_symbol
_atom_site_label
_atom_site_fract_x
_atom_site_fract_y
_atom_site_fract_z
Si Si1 0.701490 0.686357 0.477613
Si Si2 0.974631 0.315767 0.756298
Si Si3 0.009643 0.182131 0.388417
Si Si4 0.059930 0.310467 0.085101
Si Si5 0.314503 0.685994 0.665682
Si Si6 0.279851 0.312352 0.381574
Si Si7 0.461486 0.813613 0.756908
Si Si8 0.215278 0.189685 0.917925
O O1 0.670697 0.500000 0.483091
O O2 0.649421 0.748125 0.419291
O O3 0.657568 0.744376 0.563187
O O4 0.870309 0.712112 0.433035
O O5 0.936043 0.500000 0.754970
O O6 0.935077 0.214436 0.702107
O O7 0.917164 0.261370 0.843930
O O8 0.144850 0.310548 0.715924
O O9 0.133031 0.228830 0.405628
O O10 0.969005 0.000000 0.407573
O O11 0.045344 0.500000 0.088643
O O12 0.914367 0.240330 0.095225
O O13 0.179516 0.259726 0.000430
O O14 0.357872 0.500000 0.660059
O O15 0.375501 0.781330 0.711352
O O16 0.256574 0.500000 0.392189
O O17 0.391899 0.274182 0.293727
O O18 0.360764 0.758059 0.844482
O O19 0.487485 0.000000 0.757409
O O20 0.215246 0.000000 0.921956
#
# Coordination Sequence:
#
# PCOD9143124 Si02
#       8
#     4   4   4   4   4   4   4   4
#     4   9  20  38  58  80 104 135 178 224 267 313
#     4   9  18  33  54  80 109 140 176 219 262 310
#     4  11  22  35  56  83 109 136 172 221 271 317
#     4  10  18  30  53  81 107 137 179 220 253 303
#     4   9  17  33  54  76 105 139 177 215 260 315
#     4  11  23  39  58  75 100 142 185 223 264 313
#     4  11  23  36  51  75 111 146 178 216 262 321
#     4  10  20  32  48  75 113 146 171 210 265 319
#
# _framework density 20.054783
#
# number of rings (size 3 to 8) (size 9 to 14) (size 15 to 20)
#    0.000    2.000    1.250    4.500    0.000    7.500 
#    0.000    2.500    0.000    0.750    0.000    5.250 
#    0.000    0.000    0.000    0.000    0.000    0.000 
#
# Total GULP energy -178697.416238 kJ/mol
# GULP energy per Si atom -5584.294257 kJ/mol
# Density = 2.000914 g / cm^3
# Si number density = 20.054783 Si / 1000 Ang^3
#
#
#
# Elastic Constant Matrix: (Units=GPa)
#
#
# Indices 1 2 3 4 5 6 
#
# 1 35.3123 -1.2734 3.1257 0.0000 1.1943 0.0000
# 2 -1.2734 18.5206 3.7964 0.0000 5.1885 0.0000
# 3 3.1257 3.7964 122.3308 0.0000 -0.2641 0.0000
# 4 0.0000 0.0000 0.0000 37.9278 0.0000 6.2025
# 5 1.1943 5.1885 -0.2641 0.0000 24.2429 0.0000
# 6 0.0000 0.0000 0.0000 6.2025 0.0000 21.6531
#
#
#
# Elastic Compliance Matrix: (Units=1/GPa)
#
#
# Indices 1 2 3 4 5 6 
#
# 1 0.028555 0.002689 -0.000817 0.000000 -0.001991 0.000000
# 2 0.002689 0.058094 -0.001899 0.000000 -0.012586 0.000000
# 3 -0.000817 -0.001899 0.008256 0.000000 0.000537 0.000000
# 4 0.000000 0.000000 0.000000 0.027662 0.000000 -0.007924
# 5 -0.001991 -0.012586 0.000537 0.000000 0.044047 0.000000
# 6 0.000000 0.000000 0.000000 -0.007924 0.000000 0.048453
#
#
# Mechanical properties :
#
#
# Convention : Reuss Voigt Hill
#
# Bulk Modulus (GPa) = 10.54296 20.82903 15.68599
# Shear Modulus (GPa) = 20.26442 28.13242 24.19842
#
# Velocity S-wave (km/s) = 3.18221 3.74943 3.47741
# Velocity P-wave (km/s) = 4.33249 5.39935 4.89507
#
# Compressibility (1/GPa) = 0.09485002
#
# Stress axis : x y z
#
# Youngs Moduli (GPa) = 35.01964 17.21345 121.13105
#
# Poissons Ratio (x) = -0.04628 0.09901
# Poissons Ratio (y) = -0.09415 0.23000
# Poissons Ratio (z) = 0.02862 0.03268
#
# Static dielectric constant tensor:
#      x y z
#    x 1.694510 0.000000 -0.002110 
#    y 0.000000 1.688440 0.000000 
#    z -0.002110 0.000000 1.768440 
# 
# From -- ./inp_files/83341.got.cif
#   From: 2010.05.17/outbox.cif.g08.bks.cpg/sg10_42_cif.got.tgz:83341.got - 2010.06.03 11:33:40.
