data_PCOD9143522
_publ_section_title
;
Structure prediction by ZEFSAII (Michael W. Deem and Ramdas Pophale) SiO2 
 PCOD9143522
Probable space group: P 2/M
;
_chemical_formula_sum "Si O2"
_cell_formula_units_Z 18
_cell_length_a 11.563462
_cell_length_b 10.486509
_cell_length_c 8.963668
_cell_angle_alpha 90.000000
_cell_angle_beta 89.077410
_cell_angle_gamma 90.000000
_cell_volume 1086.796595
_symmetry_space_group_name_H-M "P 2/M"
_symmetry_group_IT_number 10
_symmetry_cell_setting 'monoclinic'
loop_
_space_group_symop_operation_xyz
x,y,z
-x,y,-z
-x,-y,-z
x,-y,z
loop_
_atom_site_type_symbol
_atom_site_label
_atom_site_fract_x
_atom_site_fract_y
_atom_site_fract_z
Si Si1 0.638094 0.144412 0.477574
Si Si2 0.677108 0.356311 0.232291
Si Si3 0.716175 0.854556 0.814963
Si Si4 0.864967 0.646163 0.975699
Si Si5 0.500000 0.752172 0.000000
O O1 0.500000 0.153320 0.500000
O O2 0.675782 0.250446 0.359668
O O3 0.692115 0.161360 0.640013
O O4 0.664401 0.000000 0.424087
O O5 0.666547 0.500000 0.292023
O O6 0.792913 0.346693 0.131052
O O7 0.571854 0.329270 0.119247
O O8 0.806618 0.750088 0.870352
O O9 0.754505 0.000000 0.841373
O O10 0.596099 0.831900 0.907488
O O11 0.850550 0.500000 0.919988
O O12 0.000000 0.669002 0.000000
#
# Coordination Sequence:
#
# PCOD9143522 Si02
#       5
#     4   4   4   4   2
#     4  10  20  35  50  75 113 146 170 205 259 317
#     4  10  20  33  53  79 104 136 178 217 258 310
#     4  10  20  33  54  79 105 138 177 214 257 311
#     4   9  20  39  58  76 103 137 176 223 267 305
#     4  10  18  32  50  78 108 138 168 216 264 314
#
# _framework density 16.562436999999999
#
# number of rings (size 3 to 8) (size 9 to 14) (size 15 to 20)
#    0.000    2.222    2.222    0.667    0.000    6.222 
#    0.000    1.111    0.000    6.667    0.000    0.000 
#    0.000    0.000    0.000    0.000    0.000    0.000 
#
# Total GULP energy -100378.977085 kJ/mol
# GULP energy per Si atom -5576.609838 kJ/mol
# Density = 1.652474 g / cm^3
# Si number density = 16.562437 Si / 1000 Ang^3
#
#
#
# Elastic Constant Matrix: (Units=GPa)
#
#
# Indices 1 2 3 4 5 6 
#
# 1 101.4943 76.8837 35.7970 0.0000 4.3484 0.0000
# 2 76.8837 180.0047 89.0376 0.0000 12.1085 0.0000
# 3 35.7970 89.0376 78.5653 0.0000 9.8612 0.0000
# 4 0.0000 0.0000 0.0000 36.6433 0.0000 -7.9904
# 5 4.3484 12.1085 9.8612 0.0000 9.2674 0.0000
# 6 0.0000 0.0000 0.0000 -7.9904 0.0000 28.6698
#
#
#
# Elastic Compliance Matrix: (Units=1/GPa)
#
#
# Indices 1 2 3 4 5 6 
#
# 1 0.014605 -0.006718 0.000828 0.000000 0.001044 0.000000
# 2 -0.006718 0.015750 -0.014543 0.000000 -0.001951 0.000000
# 3 0.000828 -0.014543 0.030581 0.000000 -0.013927 0.000000
# 4 0.000000 0.000000 0.000000 0.029056 0.000000 0.008098
# 5 0.001044 -0.001951 -0.013927 0.000000 0.124784 0.000000
# 6 0.000000 0.000000 0.000000 0.008098 0.000000 0.037137
#
#
# Mechanical properties :
#
#
# Convention : Reuss Voigt Hill
#
# Bulk Modulus (GPa) = 49.82840 84.83343 67.33091
# Shear Modulus (GPa) = 16.69627 25.47251 21.08439
#
# Velocity S-wave (km/s) = 3.17847 3.92595 3.57182
# Velocity P-wave (km/s) = 6.60460 8.47835 7.59944
#
# Compressibility (1/GPa) = 0.02006888
#
# Stress axis : x y z
#
# Youngs Moduli (GPa) = 68.47042 63.49404 32.70000
#
# Poissons Ratio (x) = 0.42652 -0.02706
# Poissons Ratio (y) = 0.45995 0.47556
# Poissons Ratio (z) = -0.05666 0.92341
#
# Static dielectric constant tensor:
#      x y z
#    x 1.531690 0.000000 -0.003300 
#    y 0.000000 1.566680 0.000000 
#    z -0.003300 0.000000 1.542930 
# 
# From -- ./inp_files/21570.got.cif
#   From: 2010.05.17/outbox.cif.g08.bks.cpg/sg10_11_cif.got.tgz:21570.got - 2010.06.03 11:33:40.
