data_PCOD9143667
_publ_section_title
;
Structure prediction by ZEFSAII (Michael W. Deem and Ramdas Pophale) SiO2 
 PCOD9143667
Probable space group: P 2/M
;
_chemical_formula_sum "Si O2"
_cell_formula_units_Z 24
_cell_length_a 7.510516
_cell_length_b 7.600274
_cell_length_c 19.891114
_cell_angle_alpha 90.000000
_cell_angle_beta 67.467382
_cell_angle_gamma 90.000000
_cell_volume 1048.747612
_symmetry_space_group_name_H-M "P 2/M"
_symmetry_group_IT_number 10
_symmetry_cell_setting 'monoclinic'
loop_
_space_group_symop_operation_xyz
x,y,z
-x,y,-z
-x,-y,-z
x,-y,z
loop_
_atom_site_type_symbol
_atom_site_label
_atom_site_fract_x
_atom_site_fract_y
_atom_site_fract_z
Si Si1 0.469706 0.711468 0.928851
Si Si2 0.346283 0.784476 0.577631
Si Si3 0.499323 0.784916 0.298615
Si Si4 0.932216 0.201363 0.657935
Si Si5 0.805487 0.791605 0.143202
Si Si6 0.137776 0.295975 0.187417
O O1 0.486145 0.500000 0.928482
O O2 0.271548 0.754539 0.920134
O O3 0.650479 0.777542 0.858616
O O4 0.500000 0.777210 0.000000
O O5 0.500000 0.727897 0.500000
O O6 0.416837 0.733658 0.641490
O O7 0.127073 0.721106 0.599013
O O8 0.340788 0.000000 0.577313
O O9 0.279311 0.721298 0.323590
O O10 0.640224 0.724317 0.218644
O O11 0.496133 0.000000 0.295374
O O12 0.957720 0.201954 0.735217
O O13 0.921384 0.000000 0.635326
O O14 0.006774 0.716273 0.140043
O O15 0.821127 0.000000 0.148828
O O16 0.153046 0.500000 0.204086
#
# Coordination Sequence:
#
# PCOD9143667 Si02
#       6
#     4   4   4   4   4   4
#     4  10  23  42  60  82 115 150 186 232 282 333
#     4   9  17  29  48  79 115 145 177 224 281 331
#     4   9  17  29  50  79 107 140 179 224 273 319
#     4  10  18  32  54  79 109 143 184 232 276 325
#     4  11  21  36  60  86 114 146 187 234 280 334
#     4  11  22  36  58  85 111 145 189 231 278 338
#
# _framework density 22.884440000000001
#
# number of rings (size 3 to 8) (size 9 to 14) (size 15 to 20)
#    0.000    2.000    3.333    1.000    0.000    2.333 
#    0.000    6.667    0.000    0.500    0.000    1.167 
#    0.000    0.000    0.000    0.000    0.000    0.000 
#
# Total GULP energy -134104.827318 kJ/mol
# GULP energy per Si atom -5587.701138 kJ/mol
# Density = 2.283235 g / cm^3
# Si number density = 22.884440 Si / 1000 Ang^3
#
#
#
# Elastic Constant Matrix: (Units=GPa)
#
#
# Indices 1 2 3 4 5 6 
#
# 1 88.3407 -5.0869 -27.7451 0.0000 7.8021 0.0000
# 2 -5.0869 56.9398 0.2091 0.0000 -6.0587 0.0000
# 3 -27.7451 0.2091 20.1656 0.0000 6.3130 0.0000
# 4 0.0000 0.0000 0.0000 17.0666 0.0000 19.5477
# 5 7.8021 -6.0587 6.3130 0.0000 26.6202 0.0000
# 6 0.0000 0.0000 0.0000 19.5477 0.0000 28.4369
#
#
#
# Elastic Compliance Matrix: (Units=1/GPa)
#
#
# Indices 1 2 3 4 5 6 
#
# 1 0.025558 0.000324 0.040488 0.000000 -0.017019 0.000000
# 2 0.000324 0.018050 -0.001078 0.000000 0.004269 0.000000
# 3 0.040488 -0.001078 0.117848 0.000000 -0.040060 0.000000
# 4 0.000000 0.000000 0.000000 0.275523 0.000000 -0.189396
# 5 -0.017019 0.004269 -0.040060 0.000000 0.053025 0.000000
# 6 0.000000 0.000000 0.000000 -0.189396 0.000000 0.165357
#
#
# Mechanical properties :
#
#
# Convention : Reuss Voigt Hill
#
# Bulk Modulus (GPa) = 4.15069 11.13334 7.64202
# Shear Modulus (GPa) = 7.61962 27.62934 17.62448
#
# Velocity S-wave (km/s) = 1.82670 3.47845 2.77817
# Velocity P-wave (km/s) = 2.50336 4.58350 3.69291
#
# Compressibility (1/GPa) = 0.24092359
#
# Stress axis : x y z
#
# Youngs Moduli (GPa) = 39.12711 55.40314 8.48550
#
# Poissons Ratio (x) = -0.01794 -0.34356
# Poissons Ratio (y) = -0.01267 0.00915
# Poissons Ratio (z) = -1.58420 0.05973
#
# Static dielectric constant tensor:
#      x y z
#    x 1.857660 0.000000 -0.006560 
#    y 0.000000 1.884360 0.000000 
#    z -0.006560 0.000000 1.836490 
# 
# From -- ./inp_files/81712.got.cif
#   From: 2010.05.17/outbox.cif.g08.bks.cpg/sg10_41_cif.got.tgz:81712.got - 2010.06.03 11:33:40.
