data_PCOD9143237
_publ_section_title
;
Structure prediction by ZEFSAII (Michael W. Deem and Ramdas Pophale) SiO2 
 PCOD9143237
Probable space group: P 2/M
;
_chemical_formula_sum "Si O2"
_cell_formula_units_Z 32
_cell_length_a 21.037186
_cell_length_b 8.937521
_cell_length_c 14.222951
_cell_angle_alpha 90.000000
_cell_angle_beta 45.444114
_cell_angle_gamma 90.000000
_cell_volume 1905.547611
_symmetry_space_group_name_H-M "P 2/M"
_symmetry_group_IT_number 10
_symmetry_cell_setting 'monoclinic'
loop_
_space_group_symop_operation_xyz
x,y,z
-x,y,-z
-x,-y,-z
x,-y,z
loop_
_atom_site_type_symbol
_atom_site_label
_atom_site_fract_x
_atom_site_fract_y
_atom_site_fract_z
Si Si1 0.686798 0.826686 0.984068
Si Si2 0.394410 0.320452 0.115749
Si Si3 0.377544 0.328802 0.657007
Si Si4 0.342327 0.819407 0.365598
Si Si5 0.895845 0.822962 0.087595
Si Si6 0.796244 0.327290 0.025847
Si Si7 0.748693 0.681179 0.372648
Si Si8 0.515737 0.828325 0.299841
O O1 0.657092 0.737687 0.922654
O O2 0.766818 0.752380 0.960213
O O3 0.705916 0.000000 0.942212
O O4 0.601051 0.824213 0.142285
O O5 0.390012 0.500000 0.126342
O O6 0.350990 0.246171 0.252663
O O7 0.500000 0.278183 0.000000
O O8 0.399858 0.500000 0.615056
O O9 0.335020 0.264056 0.605805
O O10 0.456063 0.255258 0.635038
O O11 0.292330 0.326785 0.816304
O O12 0.264531 0.751132 0.511036
O O13 0.433154 0.770349 0.325152
O O14 0.338304 0.000000 0.367161
O O15 0.835795 0.738615 0.227562
O O16 0.875172 0.000000 0.112051
O O17 0.868406 0.758544 0.014132
O O18 0.000000 0.801705 0.000000
O O19 0.821196 0.500000 0.984631
O O20 0.747819 0.500000 0.375877
O O21 0.497320 0.000000 0.343588
#
# Coordination Sequence:
#
# PCOD9143237 Si02
#       8
#     4   4   4   4   4   4   4   4
#     4  10  18  31  50  71 100 136 175 221 265 304
#     4  11  22  34  50  72  98 134 180 229 270 306
#     4   8  16  29  45  64  92 129 166 205 246 294
#     4  11  22  35  49  68  97 134 176 220 263 307
#     4  10  20  35  57  84 110 136 167 204 251 309
#     4   9  17  30  49  76 106 135 168 207 255 306
#     4  10  21  36  51  72 101 134 169 209 257 308
#     4   9  18  29  44  66  92 128 171 213 253 296
#
# _framework density 16.793073
#
# number of rings (size 3 to 8) (size 9 to 14) (size 15 to 20)
#    0.000    2.250    1.250    3.000    0.000    7.000 
#    0.000    2.500    0.000    0.000    0.000    0.875 
#    0.000    7.000    0.000    0.000    0.000    0.000 
#
# Total GULP energy -178508.075340 kJ/mol
# GULP energy per Si atom -5578.377354 kJ/mol
# Density = 1.675485 g / cm^3
# Si number density = 16.793073 Si / 1000 Ang^3
#
#
#
# Elastic Constant Matrix: (Units=GPa)
#
#
# Indices 1 2 3 4 5 6 
#
# 1 111.6370 55.2548 44.6956 0.0000 14.2328 0.0000
# 2 55.2548 83.1895 38.0399 0.0000 10.2147 0.0000
# 3 44.6956 38.0399 57.5573 0.0000 17.6582 0.0000
# 4 0.0000 0.0000 0.0000 9.3890 0.0000 6.3079
# 5 14.2328 10.2147 17.6582 0.0000 28.7824 0.0000
# 6 0.0000 0.0000 0.0000 6.3079 0.0000 30.5638
#
#
#
# Elastic Compliance Matrix: (Units=1/GPa)
#
#
# Indices 1 2 3 4 5 6 
#
# 1 0.015272 -0.006785 -0.007141 0.000000 -0.000763 0.000000
# 2 -0.006785 0.020268 -0.008560 0.000000 0.001414 0.000000
# 3 -0.007141 -0.008560 0.032720 0.000000 -0.013505 0.000000
# 4 0.000000 0.000000 0.000000 0.123653 0.000000 -0.025520
# 5 -0.000763 0.001414 -0.013505 0.000000 0.042904 0.000000
# 6 0.000000 0.000000 0.000000 -0.025520 0.000000 0.037985
#
#
# Mechanical properties :
#
#
# Convention : Reuss Voigt Hill
#
# Bulk Modulus (GPa) = 42.94137 58.70713 50.82425
# Shear Modulus (GPa) = 15.35922 21.37328 18.36625
#
# Velocity S-wave (km/s) = 3.02754 3.57142 3.31067
# Velocity P-wave (km/s) = 6.15205 7.21400 6.70409
#
# Compressibility (1/GPa) = 0.02328757
#
# Stress axis : x y z
#
# Youngs Moduli (GPa) = 65.47908 49.33915 30.56204
#
# Poissons Ratio (x) = 0.33474 0.21825
# Poissons Ratio (y) = 0.44425 0.26162
# Poissons Ratio (z) = 0.46761 0.42236
#
# Static dielectric constant tensor:
#      x y z
#    x 1.565860 0.000000 0.001750 
#    y 0.000000 1.572380 0.000000 
#    z 0.001750 0.000000 1.574300 
# 
# From -- ./inp_files/69988.got.cif
#   From: 2010.05.17/outbox.cif.g08.bks.cpg/sg10_35_cif.got.tgz:69988.got - 2010.06.03 11:33:40.
