data_PCOD9143356
_publ_section_title
;
Structure prediction by ZEFSAII (Michael W. Deem and Ramdas Pophale) SiO2 
 PCOD9143356
Probable space group: P 2/M
;
_chemical_formula_sum "Si O2"
_cell_formula_units_Z 20
_cell_length_a 12.661267
_cell_length_b 10.697605
_cell_length_c 12.712319
_cell_angle_alpha 90.000000
_cell_angle_beta 145.405708
_cell_angle_gamma 90.000000
_cell_volume 977.585226
_symmetry_space_group_name_H-M "P 2/M"
_symmetry_group_IT_number 10
_symmetry_cell_setting 'monoclinic'
loop_
_space_group_symop_operation_xyz
x,y,z
-x,y,-z
-x,-y,-z
x,-y,z
loop_
_atom_site_type_symbol
_atom_site_label
_atom_site_fract_x
_atom_site_fract_y
_atom_site_fract_z
Si Si1 0.809224 0.359820 0.097286
Si Si2 0.176248 0.353259 0.279641
Si Si3 0.335713 0.134738 0.279709
Si Si4 0.779040 0.645423 0.302614
Si Si5 0.546565 0.287527 0.305762
O O1 0.872639 0.500000 0.178508
O O2 0.748418 0.303971 0.159575
O O3 0.987395 0.307961 0.182513
O O4 0.630959 0.365490 0.877592
O O5 0.160559 0.500000 0.234818
O O6 0.221333 0.256722 0.223048
O O7 0.338818 0.342522 0.501427
O O8 0.500000 0.127570 0.500000
O O9 0.445755 0.162118 0.262582
O O10 0.238396 0.000000 0.198056
O O11 0.712237 0.500000 0.255546
O O12 0.682063 0.718733 0.317445
O O13 0.000000 0.645498 0.500000
#
# Coordination Sequence:
#
# PCOD9143356 Si02
#       5
#     4   4   4   4   4
#     4  10  20  32  51  84 119 147 180 225 278 330
#     4  10  20  35  56  84 115 145 185 231 273 325
#     4   9  21  40  60  81 111 150 188 230 280 332
#     4  10  18  31  52  80 117 150 178 221 279 332
#     4  11  20  33  56  79 111 152 188 222 275 330
#
# _framework density 20.458573999999999
#
# number of rings (size 3 to 8) (size 9 to 14) (size 15 to 20)
#    0.000    2.000    2.000    2.400    0.000    7.600 
#    0.000    4.000    0.000    4.200    0.000    0.000 
#    0.000    0.000    0.000    0.000    0.000    0.000 
#
# Total GULP energy -111479.057971 kJ/mol
# GULP energy per Si atom -5573.952899 kJ/mol
# Density = 2.041201 g / cm^3
# Si number density = 20.458574 Si / 1000 Ang^3
#
#
#
# Elastic Constant Matrix: (Units=GPa)
#
#
# Indices 1 2 3 4 5 6 
#
# 1 167.9996 68.0613 27.9875 0.0000 -4.1863 0.0000
# 2 68.0613 89.9773 9.7225 0.0000 -4.3328 0.0000
# 3 27.9875 9.7225 86.1529 0.0000 2.4081 0.0000
# 4 0.0000 0.0000 0.0000 -244.4135 0.0000 -378.5798
# 5 -4.1863 -4.3328 2.4081 0.0000 25.3825 0.0000
# 6 0.0000 0.0000 0.0000 -378.5798 0.0000 -607.2475
#
#
#
# Elastic Compliance Matrix: (Units=1/GPa)
#
#
# Indices 1 2 3 4 5 6 
#
# 1 0.008976 -0.006525 -0.002196 0.000000 0.000575 0.000000
# 2 -0.006525 0.016101 0.000256 0.000000 0.001648 0.000000
# 3 -0.002196 0.000256 0.012333 0.000000 -0.001488 0.000000
# 4 0.000000 0.000000 0.000000 -0.119142 0.000000 0.074277
# 5 0.000575 0.001648 -0.001488 0.000000 0.039915 0.000000
# 6 0.000000 0.000000 0.000000 0.074277 0.000000 -0.047954
#
#
# Mechanical properties :
#
#
# Convention : Reuss Voigt Hill
#
# Bulk Modulus (GPa) = 48.82222 61.74136 55.28179
# Shear Modulus (GPa) = -75.73877 -149.36513 -112.55195
#
# Velocity S-wave (km/s) = -6.09105 -8.55378 -7.42523
# Velocity P-wave (km/s) = 5.05491 8.20438 6.81410
#
# Compressibility (1/GPa) = 0.02048248
#
# Stress axis : x y z
#
# Youngs Moduli (GPa) = 111.41080 62.10818 81.08193
#
# Poissons Ratio (x) = 0.40523 0.17803
# Poissons Ratio (y) = 0.72691 -0.02080
# Poissons Ratio (z) = 0.24462 -0.01593
#
# Static dielectric constant tensor:
#      x y z
#    x 1.792110 0.000000 -0.019510 
#    y 0.000000 1.739060 0.000000 
#    z -0.019510 0.000000 1.749520 
# 
# From -- ./inp_files/23576.got.cif
#   From: 2010.05.17/outbox.cif.g08.bks.cpg/sg10_12_cif.got.tgz:23576.got - 2010.06.03 11:33:40.
