data_PCOD9143958
_publ_section_title
;
Structure prediction by ZEFSAII (Michael W. Deem and Ramdas Pophale) SiO2 
 PCOD9143958
Probable space group: P 2/M
;
_chemical_formula_sum "Si O2"
_cell_formula_units_Z 32
_cell_length_a 8.067530
_cell_length_b 13.793678
_cell_length_c 27.375770
_cell_angle_alpha 90.000000
_cell_angle_beta 28.612770
_cell_angle_gamma 90.000000
_cell_volume 1458.883270
_symmetry_space_group_name_H-M "P 2/M"
_symmetry_group_IT_number 10
_symmetry_cell_setting 'monoclinic'
loop_
_space_group_symop_operation_xyz
x,y,z
-x,y,-z
-x,-y,-z
x,-y,z
loop_
_atom_site_type_symbol
_atom_site_label
_atom_site_fract_x
_atom_site_fract_y
_atom_site_fract_z
Si Si1 0.146679 0.105340 0.793700
Si Si2 0.455947 0.197096 0.627212
Si Si3 0.583916 0.891452 0.076298
Si Si4 0.762072 0.811114 0.744007
Si Si5 0.361545 0.606417 0.376569
Si Si6 0.860187 0.732136 0.935140
Si Si7 0.847147 0.110600 0.444290
Si Si8 0.494491 0.610766 0.227606
O O1 0.433395 0.124185 0.678374
O O2 0.779550 0.105069 0.859402
O O3 0.099697 0.194621 0.841818
O O4 0.185666 0.000000 0.806842
O O5 0.433191 0.303881 0.654952
O O6 0.776902 0.179858 0.508292
O O7 0.117913 0.180799 0.682021
O O8 0.505544 0.869201 0.153089
O O9 0.732443 0.000000 0.031004
O O10 0.771144 0.797552 0.005264
O O11 0.673002 0.698133 0.759875
O O12 0.840994 0.857800 0.671148
O O13 0.519578 0.500000 0.344436
O O14 0.347655 0.617404 0.321376
O O15 0.000000 0.607561 0.500000
O O16 0.096704 0.637649 0.879597
O O17 0.500000 0.713473 0.000000
O O18 0.500000 0.115160 0.500000
O O19 0.878481 0.000000 0.452433
O O20 0.434462 0.500000 0.226783
#
# Coordination Sequence:
#
# PCOD9143958 Si02
#       8
#     4   4   4   4   4   4   4   4
#     4   9  16  30  55  87 116 146 185 232 286 342
#     4  10  18  33  59  87 115 152 194 235 282 345
#     4   9  18  34  58  84 114 152 191 231 281 344
#     4  10  21  36  57  84 118 157 193 236 285 346
#     4  10  21  38  61  84 111 152 196 242 292 340
#     4  10  20  37  61  85 113 150 195 243 293 351
#     4   9  17  31  54  85 121 158 190 225 279 345
#     4  11  24  42  60  82 117 153 191 250 306 343
#
# _framework density 21.934587000000001
#
# number of rings (size 3 to 8) (size 9 to 14) (size 15 to 20)
#    0.000    2.250    1.250    1.875    0.000    5.750 
#    0.000    4.375    0.000    6.000    0.000    0.000 
#    0.000    0.000    0.000    0.000    0.000    0.000 
#
# Total GULP energy -178731.324667 kJ/mol
# GULP energy per Si atom -5585.353896 kJ/mol
# Density = 2.188466 g / cm^3
# Si number density = 21.934587 Si / 1000 Ang^3
#
#
#
# Elastic Constant Matrix: (Units=GPa)
#
#
# Indices 1 2 3 4 5 6 
#
# 1 41.8319 5.7683 17.3392 0.0000 9.5617 0.0000
# 2 5.7683 101.6735 4.6684 0.0000 25.3837 0.0000
# 3 17.3392 4.6684 82.5833 0.0000 15.5287 0.0000
# 4 0.0000 0.0000 0.0000 23.8280 0.0000 -4.2244
# 5 9.5617 25.3837 15.5287 0.0000 34.2614 0.0000
# 6 0.0000 0.0000 0.0000 -4.2244 0.0000 29.7499
#
#
#
# Elastic Compliance Matrix: (Units=1/GPa)
#
#
# Indices 1 2 3 4 5 6 
#
# 1 0.027082 0.000046 -0.004658 0.000000 -0.005481 0.000000
# 2 0.000046 0.012158 0.001092 0.000000 -0.009516 0.000000
# 3 -0.004658 0.001092 0.014138 0.000000 -0.005917 0.000000
# 4 0.000000 0.000000 0.000000 0.043051 0.000000 0.006113
# 5 -0.005481 -0.009516 -0.005917 0.000000 0.040449 0.000000
# 6 0.000000 0.000000 0.000000 0.006113 0.000000 0.034482
#
#
# Mechanical properties :
#
#
# Convention : Reuss Voigt Hill
#
# Bulk Modulus (GPa) = 21.58034 31.29340 26.43687
# Shear Modulus (GPa) = 25.79355 30.78873 28.29114
#
# Velocity S-wave (km/s) = 3.43290 3.75061 3.59527
# Velocity P-wave (km/s) = 5.05697 5.74924 5.41418
#
# Compressibility (1/GPa) = 0.04633847
#
# Stress axis : x y z
#
# Youngs Moduli (GPa) = 36.92429 82.24792 70.73164
#
# Poissons Ratio (x) = -0.00376 0.32949
# Poissons Ratio (y) = -0.00169 -0.07727
# Poissons Ratio (z) = 0.17200 -0.08985
#
# Static dielectric constant tensor:
#      x y z
#    x 1.831940 0.000000 -0.024010 
#    y 0.000000 1.739930 0.000000 
#    z -0.024010 0.000000 1.841320 
# 
# From -- ./inp_files/94655.got.cif
#   From: 2010.05.17/outbox.cif.g08.bks.cpg/sg10_48_cif.got.tgz:94655.got - 2010.06.03 11:33:40.
