data_PCOD9143770
_publ_section_title
;
Structure prediction by ZEFSAII (Michael W. Deem and Ramdas Pophale) SiO2 
 PCOD9143770
Probable space group: P 2/M
;
_chemical_formula_sum "Si O2"
_cell_formula_units_Z 32
_cell_length_a 13.353574
_cell_length_b 13.776189
_cell_length_c 9.593972
_cell_angle_alpha 90.000000
_cell_angle_beta 111.725675
_cell_angle_gamma 90.000000
_cell_volume 1639.552187
_symmetry_space_group_name_H-M "P 2/M"
_symmetry_group_IT_number 10
_symmetry_cell_setting 'monoclinic'
loop_
_space_group_symop_operation_xyz
x,y,z
-x,y,-z
-x,-y,-z
x,-y,z
loop_
_atom_site_type_symbol
_atom_site_label
_atom_site_fract_x
_atom_site_fract_y
_atom_site_fract_z
Si Si1 0.728005 0.608947 0.574502
Si Si2 0.757653 0.110484 0.818566
Si Si3 0.233175 0.384513 0.838862
Si Si4 0.117964 0.719180 0.527839
Si Si5 0.067549 0.112146 0.337310
Si Si6 0.421977 0.737560 0.326245
Si Si7 0.565237 0.391140 0.222260
Si Si8 0.088383 0.755416 0.927976
O O1 0.761844 0.500000 0.622254
O O2 0.829387 0.673524 0.583031
O O3 0.662390 0.656016 0.665733
O O4 0.647522 0.605907 0.398833
O O5 0.832106 0.111176 0.718364
O O6 0.647271 0.167728 0.739604
O O7 0.738488 0.000000 0.848771
O O8 0.830051 0.165595 0.968056
O O9 0.210292 0.500000 0.813397
O O10 0.189467 0.318897 0.689578
O O11 0.362382 0.376321 0.879221
O O12 0.164050 0.335760 0.926192
O O13 0.109581 0.834069 0.497699
O O14 0.000000 0.679761 0.500000
O O15 0.978236 0.186458 0.227028
O O16 0.032112 0.000000 0.334680
O O17 0.500000 0.753160 0.500000
O O18 0.485453 0.693746 0.227591
O O19 0.516828 0.500000 0.191906
O O20 0.000000 0.729473 0.000000
#
# Coordination Sequence:
#
# PCOD9143770 Si02
#       8
#     4   4   4   4   4   4   4   4
#     4   9  17  29  48  78 113 146 180 215 267 334
#     4  10  21  38  60  82 109 146 190 238 284 331
#     4  10  21  37  56  82 119 153 185 225 280 341
#     4  11  19  32  51  84 118 148 177 225 284 341
#     4  10  20  37  58  83 113 147 192 238 276 327
#     4  10  18  32  57  84 113 141 180 233 284 332
#     4   8  16  31  53  79 107 143 180 218 271 330
#     4  10  21  40  60  79 108 151 198 232 271 326
#
# _framework density 19.517524999999999
#
# number of rings (size 3 to 8) (size 9 to 14) (size 15 to 20)
#    0.000    2.250    2.500    1.875    0.000    4.750 
#    0.000    1.875    0.000    3.750    0.000    0.000 
#    0.000    0.000    0.000    0.000    0.000    0.000 
#
# Total GULP energy -178335.291069 kJ/mol
# GULP energy per Si atom -5572.977846 kJ/mol
# Density = 1.947310 g / cm^3
# Si number density = 19.517525 Si / 1000 Ang^3
#
#
#
# Elastic Constant Matrix: (Units=GPa)
#
#
# Indices 1 2 3 4 5 6 
#
# 1 105.0766 56.2677 19.1703 0.0000 -3.1495 0.0000
# 2 56.2677 124.5381 34.5212 0.0000 -6.5608 0.0000
# 3 19.1703 34.5212 47.0208 0.0000 -2.2760 0.0000
# 4 0.0000 0.0000 0.0000 64.1872 0.0000 -19.8336
# 5 -3.1495 -6.5608 -2.2760 0.0000 17.9466 0.0000
# 6 0.0000 0.0000 0.0000 -19.8336 0.0000 40.9226
#
#
#
# Elastic Compliance Matrix: (Units=1/GPa)
#
#
# Indices 1 2 3 4 5 6 
#
# 1 0.012608 -0.005358 -0.001202 0.000000 0.000101 0.000000
# 2 -0.005358 0.012496 -0.006856 0.000000 0.002759 0.000000
# 3 -0.001202 -0.006856 0.026824 0.000000 0.000684 0.000000
# 4 0.000000 0.000000 0.000000 0.018324 0.000000 0.008881
# 5 0.000101 0.002759 0.000684 0.000000 0.056834 0.000000
# 6 0.000000 0.000000 0.000000 0.008881 0.000000 0.028740
#
#
# Mechanical properties :
#
#
# Convention : Reuss Voigt Hill
#
# Bulk Modulus (GPa) = 39.84668 55.17265 47.50966
# Shear Modulus (GPa) = 26.17462 35.72304 30.94883
#
# Velocity S-wave (km/s) = 3.66605 4.28285 3.98640
# Velocity P-wave (km/s) = 6.19517 7.26544 6.75155
#
# Compressibility (1/GPa) = 0.02509619
#
# Stress axis : x y z
#
# Youngs Moduli (GPa) = 79.31221 80.02291 37.28002
#
# Poissons Ratio (x) = 0.42877 0.04480
# Poissons Ratio (y) = 0.42497 0.25561
# Poissons Ratio (z) = 0.09531 0.54867
#
# Static dielectric constant tensor:
#      x y z
#    x 1.740510 0.000000 0.001730 
#    y 0.000000 1.655500 0.000000 
#    z 0.001730 0.000000 1.790370 
# 
# From -- ./inp_files/47026.got.cif
#   From: 2010.05.17/outbox.cif.g08.bks.cpg/sg10_24_cif.got.tgz:47026.got - 2010.06.03 11:33:40.
