data_PCOD9143957
_publ_section_title
;
Structure prediction by ZEFSAII (Michael W. Deem and Ramdas Pophale) SiO2 
 PCOD9143957
Probable space group: P 2/M
;
_chemical_formula_sum "Si O2"
_cell_formula_units_Z 32
_cell_length_a 15.112254
_cell_length_b 7.551976
_cell_length_c 22.801708
_cell_angle_alpha 90.000000
_cell_angle_beta 28.483752
_cell_angle_gamma 90.000000
_cell_volume 1241.061267
_symmetry_space_group_name_H-M "P 2/M"
_symmetry_group_IT_number 10
_symmetry_cell_setting 'monoclinic'
loop_
_space_group_symop_operation_xyz
x,y,z
-x,y,-z
-x,-y,-z
x,-y,z
loop_
_atom_site_type_symbol
_atom_site_label
_atom_site_fract_x
_atom_site_fract_y
_atom_site_fract_z
Si Si1 0.744877 0.700902 0.688069
Si Si2 0.559013 0.202636 0.586789
Si Si3 0.947753 0.211150 0.404905
Si Si4 0.545260 0.710431 0.231148
Si Si5 0.544329 0.214315 0.041980
Si Si6 0.236190 0.216858 0.699985
Si Si7 0.056960 0.787280 0.031060
Si Si8 0.941594 0.215415 0.783489
O O1 0.765890 0.500000 0.657795
O O2 0.635346 0.786866 0.697383
O O3 0.598825 0.714112 0.827087
O O4 0.942622 0.752524 0.599584
O O5 0.745616 0.284262 0.505506
O O6 0.429570 0.201413 0.720114
O O7 0.436506 0.279958 0.605606
O O8 0.602921 0.000000 0.543763
O O9 0.069862 0.267693 0.277630
O O10 0.932277 0.000000 0.412673
O O11 0.529994 0.500000 0.249128
O O12 0.727757 0.741993 0.086283
O O13 0.532184 0.000000 0.053864
O O14 0.500000 0.258434 0.000000
O O15 0.758473 0.271489 0.924860
O O16 0.138156 0.270487 0.696616
O O17 0.247158 0.000000 0.693312
O O18 0.084292 0.272821 0.836880
O O19 0.044383 0.000000 0.038178
O O20 0.000000 0.719447 0.000000
O O21 0.938674 0.000000 0.786878
#
# Coordination Sequence:
#
# PCOD9143957 Si02
#       8
#     4   4   4   4   4   4   4   4
#     4  11  24  39  56  81 114 150 186 228 280 335
#     4  10  21  38  59  82 109 144 189 237 280 326
#     4  10  21  38  59  82 109 144 189 237 280 326
#     4  11  24  39  56  81 114 150 186 228 280 335
#     4  10  18  33  59  86 114 146 181 225 274 328
#     4   9  17  31  54  85 116 144 176 220 277 332
#     4  10  18  33  59  86 114 146 181 225 274 328
#     4   9  17  31  54  85 116 144 176 220 277 332
#
# _framework density 25.784386000000001
#
# number of rings (size 3 to 8) (size 9 to 14) (size 15 to 20)
#    0.000    2.000    2.500    1.500    0.000    5.000 
#    0.000    5.000    0.000    0.750    0.000    1.750 
#    0.000    0.000    0.000    0.000    0.000    0.000 
#
# Total GULP energy -178890.587854 kJ/mol
# GULP energy per Si atom -5590.330870 kJ/mol
# Density = 2.572570 g / cm^3
# Si number density = 25.784386 Si / 1000 Ang^3
#
#
#
# Elastic Constant Matrix: (Units=GPa)
#
#
# Indices 1 2 3 4 5 6 
#
# 1 174.9544 1.1300 29.1118 0.0000 -33.3672 0.0000
# 2 1.1300 63.3329 -4.7150 0.0000 -4.6373 0.0000
# 3 29.1118 -4.7150 89.1258 0.0000 -27.1265 0.0000
# 4 0.0000 0.0000 0.0000 120.6834 0.0000 -33.8314
# 5 -33.3672 -4.6373 -27.1265 0.0000 56.6186 0.0000
# 6 0.0000 0.0000 0.0000 -33.8314 0.0000 41.6998
#
#
#
# Elastic Compliance Matrix: (Units=1/GPa)
#
#
# Indices 1 2 3 4 5 6 
#
# 1 0.006535 0.000043 -0.001123 0.000000 0.003317 0.000000
# 2 0.000043 0.016046 0.001455 0.000000 0.002036 0.000000
# 3 -0.001123 0.001455 0.013462 0.000000 0.005907 0.000000
# 4 0.000000 0.000000 0.000000 0.010726 0.000000 0.008702
# 5 0.003317 0.002036 0.005907 0.000000 0.022614 0.000000
# 6 0.000000 0.000000 0.000000 0.008702 0.000000 0.031041
#
#
# Mechanical properties :
#
#
# Convention : Reuss Voigt Hill
#
# Bulk Modulus (GPa) = 27.17977 42.05186 34.61581
# Shear Modulus (GPa) = 44.66782 63.92611 54.29697
#
# Velocity S-wave (km/s) = 4.16668 4.98462 4.59389
# Velocity P-wave (km/s) = 5.80623 7.03370 6.44924
#
# Compressibility (1/GPa) = 0.03679207
#
# Stress axis : x y z
#
# Youngs Moduli (GPa) = 153.02455 62.31998 74.28488
#
# Poissons Ratio (x) = -0.00266 0.08341
# Poissons Ratio (y) = -0.00653 -0.10807
# Poissons Ratio (z) = 0.17181 -0.09066
#
# Static dielectric constant tensor:
#      x y z
#    x 2.039380 0.000000 -0.039230 
#    y 0.000000 1.986680 0.000000 
#    z -0.039230 0.000000 2.074650 
# 
# From -- ./inp_files/89543.got.cif
#   From: 2010.05.17/outbox.cif.g08.bks.cpg/sg10_45_cif.got.tgz:89543.got - 2010.06.03 11:33:40.
