data_PCOD9143375
_publ_section_title
;
Structure prediction by ZEFSAII (Michael W. Deem and Ramdas Pophale) SiO2 
 PCOD9143375
Probable space group: P 2/M
;
_chemical_formula_sum "Si O2"
_cell_formula_units_Z 28
_cell_length_a 19.306356
_cell_length_b 10.109251
_cell_length_c 9.823901
_cell_angle_alpha 90.000000
_cell_angle_beta 135.527901
_cell_angle_gamma 90.000000
_cell_volume 1343.228051
_symmetry_space_group_name_H-M "P 2/M"
_symmetry_group_IT_number 10
_symmetry_cell_setting 'monoclinic'
loop_
_space_group_symop_operation_xyz
x,y,z
-x,y,-z
-x,-y,-z
x,-y,z
loop_
_atom_site_type_symbol
_atom_site_label
_atom_site_fract_x
_atom_site_fract_y
_atom_site_fract_z
Si Si1 0.364762 0.659827 0.579154
Si Si2 0.167203 0.775038 0.964148
Si Si3 0.045417 0.154874 0.336528
Si Si4 0.360460 0.648485 0.269107
Si Si5 0.810960 0.851429 0.694593
Si Si6 0.419330 0.659469 0.052769
Si Si7 0.756193 0.849823 0.218636
O O1 0.347268 0.500000 0.555666
O O2 0.385120 0.705632 0.450760
O O3 0.266807 0.743774 0.469777
O O4 0.463604 0.682250 0.806528
O O5 0.215939 0.846910 0.902938
O O6 0.051523 0.759125 0.773690
O O7 0.241649 0.652756 0.086435
O O8 0.174811 0.842723 0.123119
O O9 0.086624 0.168040 0.241570
O O10 0.140474 0.183614 0.562593
O O11 0.017459 0.000000 0.320605
O O12 0.395212 0.500000 0.324442
O O13 0.405609 0.699485 0.193200
O O14 0.776236 0.000000 0.612285
O O15 0.401885 0.500000 0.012498
O O16 0.331077 0.747066 0.867398
O O17 0.727987 0.000000 0.215780
#
# Coordination Sequence:
#
# PCOD9143375 Si02
#       7
#     4   4   4   4   4   4   4
#     4   9  17  31  51  73  99 132 166 202 247 296
#     4  10  18  31  53  77 100 128 166 208 244 285
#     4  10  20  34  50  70 101 137 166 197 246 300
#     4   8  15  28  47  74 104 130 160 200 249 302
#     4  10  20  33  51  76 102 129 165 206 245 289
#     4   9  17  31  51  73  99 132 166 202 247 296
#     4  10  20  33  51  76 102 129 165 206 245 289
#
# _framework density 20.845306000000001
#
# number of rings (size 3 to 8) (size 9 to 14) (size 15 to 20)
#    0.000    2.571    0.000    2.571    0.000    4.571 
#    0.000    2.857    0.000   16.286    0.000    0.000 
#    0.000    0.000    0.000    0.000    0.000    0.000 
#
# Total GULP energy -155911.278094 kJ/mol
# GULP energy per Si atom -5568.259932 kJ/mol
# Density = 2.079786 g / cm^3
# Si number density = 20.845306 Si / 1000 Ang^3
#
#
#
# Elastic Constant Matrix: (Units=GPa)
#
#
# Indices 1 2 3 4 5 6 
#
# 1 67.0065 19.2080 25.0137 0.0000 5.8327 0.0000
# 2 19.2080 64.8217 58.9061 0.0000 23.9102 0.0000
# 3 25.0137 58.9061 149.8688 0.0000 29.2443 0.0000
# 4 0.0000 0.0000 0.0000 22.3740 0.0000 4.4457
# 5 5.8327 23.9102 29.2443 0.0000 46.0012 0.0000
# 6 0.0000 0.0000 0.0000 4.4457 0.0000 9.7117
#
#
#
# Elastic Compliance Matrix: (Units=1/GPa)
#
#
# Indices 1 2 3 4 5 6 
#
# 1 0.016494 -0.003959 -0.001359 0.000000 0.000830 0.000000
# 2 -0.003959 0.027375 -0.008471 0.000000 -0.008341 0.000000
# 3 -0.001359 -0.008471 0.010658 0.000000 -0.002200 0.000000
# 4 0.000000 0.000000 0.000000 0.049167 0.000000 -0.022507
# 5 0.000830 -0.008341 -0.002200 0.000000 0.027368 0.000000
# 6 0.000000 0.000000 0.000000 -0.022507 0.000000 0.113272
#
#
# Mechanical properties :
#
#
# Convention : Reuss Voigt Hill
#
# Bulk Modulus (GPa) = 37.10708 54.21696 45.66202
# Shear Modulus (GPa) = 17.80027 27.52200 22.66114
#
# Velocity S-wave (km/s) = 2.92536 3.63753 3.30071
# Velocity P-wave (km/s) = 5.40834 6.61119 6.03978
#
# Compressibility (1/GPa) = 0.02694903
#
# Stress axis : x y z
#
# Youngs Moduli (GPa) = 60.62904 36.52957 93.82326
#
# Poissons Ratio (x) = 0.14461 0.12749
# Poissons Ratio (y) = 0.24002 0.79481
# Poissons Ratio (z) = 0.08239 0.30946
#
# Static dielectric constant tensor:
#      x y z
#    x 1.832280 0.000000 -0.055670 
#    y 0.000000 1.707640 0.000000 
#    z -0.055670 0.000000 1.792950 
# 
# From -- ./inp_files/55858.got.cif
#   From: 2010.05.17/outbox.cif.g08.bks.cpg/sg10_28_cif.got.tgz:55858.got - 2010.06.03 11:33:40.
