data_PCOD9143064
_publ_section_title
;
Structure prediction by ZEFSAII (Michael W. Deem and Ramdas Pophale) SiO2 
 PCOD9143064
Probable space group: P 2/M
;
_chemical_formula_sum "Si O2"
_cell_formula_units_Z 32
_cell_length_a 11.522460
_cell_length_b 15.063190
_cell_length_c 17.035477
_cell_angle_alpha 90.000000
_cell_angle_beta 148.110882
_cell_angle_gamma 90.000000
_cell_volume 1561.989941
_symmetry_space_group_name_H-M "P 2/M"
_symmetry_group_IT_number 10
_symmetry_cell_setting 'monoclinic'
loop_
_space_group_symop_operation_xyz
x,y,z
-x,y,-z
-x,-y,-z
x,-y,z
loop_
_atom_site_type_symbol
_atom_site_label
_atom_site_fract_x
_atom_site_fract_y
_atom_site_fract_z
Si Si1 0.771577 0.899739 0.324972
Si Si2 0.544865 0.596080 0.933942
Si Si3 0.059455 0.236674 0.193296
Si Si4 0.925094 0.639491 0.367305
Si Si5 0.211978 0.600603 0.382916
Si Si6 0.005425 0.176469 0.331586
Si Si7 0.514434 0.749502 0.381785
Si Si8 0.376045 0.238574 0.128006
O O1 0.904235 0.737487 0.317901
O O2 0.559803 0.836379 0.214484
O O3 0.000000 0.870473 0.500000
O O4 0.863298 0.899735 0.288869
O O5 0.660655 0.500000 0.991550
O O6 0.303834 0.591003 0.759639
O O7 0.630855 0.682923 0.940507
O O8 0.500000 0.610933 0.000000
O O9 0.092476 0.337650 0.248509
O O10 0.983087 0.183495 0.226163
O O11 0.302749 0.211447 0.303578
O O12 0.881320 0.215172 0.024259
O O13 0.000000 0.646031 0.500000
O O14 0.071251 0.595897 0.383093
O O15 0.254576 0.500000 0.381488
O O16 0.412856 0.661154 0.529569
O O17 0.268961 0.187718 0.496938
O O18 0.720548 0.000000 0.322077
O O19 0.446046 0.726986 0.253785
#
# Coordination Sequence:
#
# PCOD9143064 Si02
#       8
#     4   4   4   4   4   4   4   4
#     4  11  23  41  69 100 127 157 197 251 322 385
#     4  11  22  34  51  80 123 167 198 237 302 369
#     4  10  23  38  59  85 121 168 211 254 308 367
#     4  10  18  30  51  78 112 147 192 247 297 350
#     4  10  21  36  56  85 119 166 220 267 308 358
#     4  10  18  37  63  87 118 155 198 253 302 366
#     4  10  21  38  61  86 115 168 220 251 301 362
#     4  12  23  38  63  90 130 165 203 259 316 367
#
# _framework density 20.486685999999999
#
# number of rings (size 3 to 8) (size 9 to 14) (size 15 to 20)
#    0.000    1.750    2.500    5.625    0.000    5.000 
#    0.000    1.250    0.000    6.750    0.000    0.000 
#    0.000    0.000    0.000    0.000    0.000    0.000 
#
# Total GULP energy -178163.227981 kJ/mol
# GULP energy per Si atom -5567.600874 kJ/mol
# Density = 2.044006 g / cm^3
# Si number density = 20.486686 Si / 1000 Ang^3
#
#
#
# Elastic Constant Matrix: (Units=GPa)
#
#
# Indices 1 2 3 4 5 6 
#
# 1 57.3948 22.7632 16.5310 0.0000 5.1336 0.0000
# 2 22.7632 77.9502 28.8623 0.0000 0.4167 0.0000
# 3 16.5310 28.8623 118.7254 0.0000 0.2144 0.0000
# 4 0.0000 0.0000 0.0000 -3.2677 0.0000 -8.8481
# 5 5.1336 0.4167 0.2144 0.0000 36.9915 0.0000
# 6 0.0000 0.0000 0.0000 -8.8481 0.0000 6.7100
#
#
#
# Elastic Compliance Matrix: (Units=1/GPa)
#
#
# Indices 1 2 3 4 5 6 
#
# 1 0.020218 -0.005329 -0.001515 0.000000 -0.002737 0.000000
# 2 -0.005329 0.015503 -0.003028 0.000000 0.000582 0.000000
# 3 -0.001515 -0.003028 0.009369 0.000000 0.000190 0.000000
# 4 0.000000 0.000000 0.000000 -0.066956 0.000000 -0.088291
# 5 -0.002737 0.000582 0.000190 0.000000 0.027405 0.000000
# 6 0.000000 0.000000 0.000000 -0.088291 0.000000 0.032606
#
#
# Mechanical properties :
#
#
# Convention : Reuss Voigt Hill
#
# Bulk Modulus (GPa) = 39.45151 43.37593 41.41372
# Shear Modulus (GPa) = 75.37314 20.48103 47.92709
#
# Velocity S-wave (km/s) = 6.07216 3.16527 4.84201
# Velocity P-wave (km/s) = 8.27408 5.88025 7.17767
#
# Compressibility (1/GPa) = 0.02534757
#
# Stress axis : x y z
#
# Youngs Moduli (GPa) = 49.46183 64.50467 106.73003
#
# Poissons Ratio (x) = 0.34371 0.16167
# Poissons Ratio (y) = 0.26356 0.32316
# Poissons Ratio (z) = 0.07492 0.19531
#
# Static dielectric constant tensor:
#      x y z
#    x 1.672680 0.000000 0.087150 
#    y 0.000000 1.859930 0.000000 
#    z 0.087150 0.000000 1.748290 
# 
# From -- ./inp_files/77064.got.cif
#   From: 2010.05.17/outbox.cif.g08.bks.cpg/sg10_39_cif.got.tgz:77064.got - 2010.06.03 11:33:40.
