data_PCOD9143165
_publ_section_title
;
Structure prediction by ZEFSAII (Michael W. Deem and Ramdas Pophale) SiO2 
 PCOD9143165
Probable space group: P 2/M
;
_chemical_formula_sum "Si O2"
_cell_formula_units_Z 28
_cell_length_a 21.726261
_cell_length_b 13.198941
_cell_length_c 5.393026
_cell_angle_alpha 90.000000
_cell_angle_beta 90.000364
_cell_angle_gamma 90.000000
_cell_volume 1546.523751
_symmetry_space_group_name_H-M "P 2/M"
_symmetry_group_IT_number 10
_symmetry_cell_setting 'monoclinic'
loop_
_space_group_symop_operation_xyz
x,y,z
-x,y,-z
-x,-y,-z
x,-y,z
loop_
_atom_site_type_symbol
_atom_site_label
_atom_site_fract_x
_atom_site_fract_y
_atom_site_fract_z
Si Si1 0.243210 0.386168 0.250008
Si Si2 0.317717 0.822386 0.250012
Si Si3 0.962305 0.378227 0.249999
Si Si4 0.558375 0.383980 0.250000
Si Si5 0.747378 0.113048 0.249990
Si Si6 0.577295 0.695747 0.750000
Si Si7 0.822873 0.318610 0.249994
O O1 0.269232 0.500000 0.250008
O O2 0.290401 0.292332 0.250009
O O3 0.203102 0.370981 0.500221
O O4 0.203102 0.370981 0.999792
O O5 0.293170 0.873061 0.500805
O O6 0.390983 0.804580 0.250007
O O7 0.293168 0.873063 0.999223
O O8 0.951880 0.500000 0.249999
O O9 0.896180 0.325413 0.249996
O O10 0.000000 0.353699 0.500000
O O11 0.000000 0.353699 0.000000
O O12 0.537472 0.500000 0.249994
O O13 0.496987 0.314882 0.249999
O O14 0.595241 0.360280 0.496886
O O15 0.595242 0.360276 0.003120
O O16 0.796860 0.203720 0.249993
O O17 0.774106 0.000000 0.249994
#
# Coordination Sequence:
#
# PCOD9143165 Si02
#       7
#     4   4   4   4   4   4   4
#     4  10  19  30  47  72 105 139 163 197 252 307
#     4  10  21  34  52  80 102 128 170 214 258 309
#     4  10  19  30  48  74 104 140 173 199 234 286
#     4  10  19  30  47  71 101 146 183 199 236 300
#     4  10  21  39  59  77  97 128 173 221 271 311
#     4  10  18  31  46  69 102 132 166 212 247 289
#     4  10  20  34  51  73 103 135 173 210 247 300
#
# _framework density 18.105122000000001
#
# number of rings (size 3 to 8) (size 9 to 14) (size 15 to 20)
#    0.000    2.000    0.000    5.571    0.000    2.857 
#    0.000    0.000    0.000    0.857    0.000   40.000 
#    0.000    0.000    0.000    0.000    0.000    0.000 
#
# Total GULP energy -156102.893586 kJ/mol
# GULP energy per Si atom -5575.103342 kJ/mol
# Density = 1.806391 g / cm^3
# Si number density = 18.105122 Si / 1000 Ang^3
#
#
#
# Elastic Constant Matrix: (Units=GPa)
#
#
# Indices 1 2 3 4 5 6 
#
# 1 62.6931 16.9837 28.5486 0.0000 -0.0010 0.0000
# 2 16.9837 85.3141 25.2725 0.0000 -0.0005 0.0000
# 3 28.5486 25.2725 181.2967 0.0000 -0.0031 0.0000
# 4 0.0000 0.0000 0.0000 9.5878 0.0000 0.0014
# 5 -0.0010 -0.0005 -0.0031 0.0000 13.8848 0.0000
# 6 0.0000 0.0000 0.0000 0.0014 0.0000 25.8206
#
#
#
# Elastic Compliance Matrix: (Units=1/GPa)
#
#
# Indices 1 2 3 4 5 6 
#
# 1 0.017816 -0.002833 -0.002411 0.000000 0.000001 0.000000
# 2 -0.002833 0.012677 -0.001321 0.000000 0.000000 0.000000
# 3 -0.002411 -0.001321 0.006080 0.000000 0.000001 0.000000
# 4 0.000000 0.000000 0.000000 0.104299 0.000000 -0.000006
# 5 0.000001 0.000000 0.000001 0.000000 0.072021 0.000000
# 6 0.000000 0.000000 0.000000 -0.000006 0.000000 0.038729
#
#
# Mechanical properties :
#
#
# Convention : Reuss Voigt Hill
#
# Bulk Modulus (GPa) = 42.65561 52.32371 47.48966
# Shear Modulus (GPa) = 18.34434 27.09192 22.71813
#
# Velocity S-wave (km/s) = 3.18655 3.87249 3.54614
# Velocity P-wave (km/s) = 6.09508 6.99697 6.56154
#
# Compressibility (1/GPa) = 0.02344358
#
# Stress axis : x y z
#
# Youngs Moduli (GPa) = 56.13003 78.88546 164.48540
#
# Poissons Ratio (x) = 0.22345 0.39650
# Poissons Ratio (y) = 0.15899 0.21730
# Poissons Ratio (z) = 0.13531 0.10421
#
# Static dielectric constant tensor:
#      x y z
#    x 1.642380 0.000000 0.000000 
#    y 0.000000 1.606610 0.000000 
#    z 0.000000 0.000000 1.640110 
# 
# From -- ./inp_files/12257.got.cif
#   From: 2010.05.17/outbox.cif.g08.bks.cpg/sg10_7_cif.got.tgz:12257.got - 2010.06.03 11:33:40.
