data_PCOD9143616
_publ_section_title
;
Structure prediction by ZEFSAII (Michael W. Deem and Ramdas Pophale) SiO2 
 PCOD9143616
Probable space group: P 2/M
;
_chemical_formula_sum "Si O2"
_cell_formula_units_Z 32
_cell_length_a 29.103873
_cell_length_b 8.447557
_cell_length_c 22.540151
_cell_angle_alpha 90.000000
_cell_angle_beta 161.209613
_cell_angle_gamma 90.000000
_cell_volume 1785.002042
_symmetry_space_group_name_H-M "P 2/M"
_symmetry_group_IT_number 10
_symmetry_cell_setting 'monoclinic'
loop_
_space_group_symop_operation_xyz
x,y,z
-x,y,-z
-x,-y,-z
x,-y,z
loop_
_atom_site_type_symbol
_atom_site_label
_atom_site_fract_x
_atom_site_fract_y
_atom_site_fract_z
Si Si1 0.595054 0.310794 0.417135
Si Si2 0.844502 0.809588 0.171514
Si Si3 0.084624 0.690470 0.545323
Si Si4 0.664974 0.691206 0.707447
Si Si5 0.588806 0.691313 0.051396
Si Si6 0.163580 0.306583 0.199927
Si Si7 0.552869 0.189066 0.878847
Si Si8 0.314824 0.810658 0.139765
O O1 0.597713 0.500000 0.415701
O O2 0.740946 0.256789 0.627030
O O3 0.557577 0.241571 0.306970
O O4 0.464467 0.263244 0.300867
O O5 0.990332 0.739868 0.374087
O O6 0.851360 0.000000 0.183274
O O7 0.710107 0.756534 0.048099
O O8 0.801255 0.765044 0.051824
O O9 0.088562 0.500000 0.552981
O O10 0.247138 0.747587 0.743694
O O11 0.000000 0.749589 0.500000
O O12 0.500000 0.742125 0.500000
O O13 0.666555 0.500000 0.710876
O O14 0.755391 0.742937 0.761062
O O15 0.721072 0.754567 0.838473
O O16 0.589391 0.500000 0.052515
O O17 0.500000 0.745619 0.000000
O O18 0.527240 0.745436 0.912987
O O19 0.163247 0.500000 0.199886
O O20 0.000000 0.253531 0.000000
O O21 0.555118 0.000000 0.883394
O O22 0.330183 0.000000 0.156753
#
# Coordination Sequence:
#
# PCOD9143616 Si02
#       8
#     4   4   4   4   4   4   4   4
#     4  10  18  32  55  79 105 138 176 218 263 308
#     4   9  19  33  50  75 106 138 171 212 260 315
#     4  10  19  32  53  80 103 128 171 218 258 303
#     4  10  18  32  53  79 103 131 176 220 260 309
#     4  10  21  37  55  78 108 140 175 218 263 310
#     4   9  18  33  53  78 107 137 173 217 264 314
#     4  10  20  34  53  79 108 138 176 216 260 316
#     4  10  20  33  50  78 110 139 175 216 266 315
#
# _framework density 17.927150000000001
#
# number of rings (size 3 to 8) (size 9 to 14) (size 15 to 20)
#    0.000    2.250    2.500    1.875    0.000    3.750 
#    0.000    1.250    0.000    9.375    0.000    0.000 
#    0.000    0.000    0.000    0.000    0.000    0.000 
#
# Total GULP energy -178524.086072 kJ/mol
# GULP energy per Si atom -5578.877690 kJ/mol
# Density = 1.788635 g / cm^3
# Si number density = 17.927150 Si / 1000 Ang^3
#
#
#
# Elastic Constant Matrix: (Units=GPa)
#
#
# Indices 1 2 3 4 5 6 
#
# 1 143.7943 18.1554 80.6622 0.0000 -13.3442 0.0000
# 2 18.1554 9.2850 13.1086 0.0000 1.7768 0.0000
# 3 80.6622 13.1086 138.2381 0.0000 -10.9911 0.0000
# 4 0.0000 0.0000 0.0000 -224.0170 0.0000 136.7964
# 5 -13.3442 1.7768 -10.9911 0.0000 28.4651 0.0000
# 6 0.0000 0.0000 0.0000 136.7964 0.0000 -67.2630
#
#
#
# Elastic Compliance Matrix: (Units=1/GPa)
#
#
# Indices 1 2 3 4 5 6 
#
# 1 0.012696 -0.018362 -0.005264 0.000000 0.005065 0.000000
# 2 -0.018362 0.155525 -0.005664 0.000000 -0.020503 0.000000
# 3 -0.005264 -0.005664 0.011013 0.000000 0.002138 0.000000
# 4 0.000000 0.000000 0.000000 0.018453 0.000000 0.037528
# 5 0.005065 -0.020503 0.002138 0.000000 0.039611 0.000000
# 6 0.000000 0.000000 0.000000 0.037528 0.000000 0.061455
#
#
# Mechanical properties :
#
#
# Convention : Reuss Voigt Hill
#
# Bulk Modulus (GPa) = 8.28819 57.24111 32.76465
# Shear Modulus (GPa) = 12.57705 -40.60356 -14.01326
#
# Velocity S-wave (km/s) = 2.65158 -4.76428 -2.79888
# Velocity P-wave (km/s) = 3.74270 1.31707 2.80557
#
# Compressibility (1/GPa) = 0.12065357
#
# Stress axis : x y z
#
# Youngs Moduli (GPa) = 78.76655 6.42983 90.80571
#
# Poissons Ratio (x) = 0.11807 0.47800
# Poissons Ratio (y) = 1.44633 0.51429
# Poissons Ratio (z) = 0.41463 0.03642
#
# Static dielectric constant tensor:
#      x y z
#    x 1.605010 0.000000 -0.009080 
#    y 0.000000 1.609510 0.000000 
#    z -0.009080 0.000000 1.613070 
# 
# From -- ./inp_files/52705.got.cif
#   From: 2010.05.17/outbox.cif.g08.bks.cpg/sg10_27_cif.got.tgz:52705.got - 2010.06.03 11:33:40.
