data_PCOD9143390
_publ_section_title
;
Structure prediction by ZEFSAII (Michael W. Deem and Ramdas Pophale) SiO2 
 PCOD9143390
Probable space group: P 2/M
;
_chemical_formula_sum "Si O2"
_cell_formula_units_Z 32
_cell_length_a 25.575012
_cell_length_b 7.520808
_cell_length_c 16.788398
_cell_angle_alpha 90.000000
_cell_angle_beta 154.008628
_cell_angle_gamma 90.000000
_cell_volume 1415.133631
_symmetry_space_group_name_H-M "P 2/M"
_symmetry_group_IT_number 10
_symmetry_cell_setting 'monoclinic'
loop_
_space_group_symop_operation_xyz
x,y,z
-x,y,-z
-x,-y,-z
x,-y,z
loop_
_atom_site_type_symbol
_atom_site_label
_atom_site_fract_x
_atom_site_fract_y
_atom_site_fract_z
Si Si1 0.835558 0.785827 0.967388
Si Si2 0.239809 0.214560 0.840703
Si Si3 0.494204 0.217332 0.250844
Si Si4 0.291522 0.782362 0.565260
Si Si5 0.408960 0.782840 0.444980
Si Si6 0.948728 0.217071 0.845293
Si Si7 0.205443 0.202786 0.617448
Si Si8 0.940037 0.702411 0.271293
O O1 0.722003 0.723154 0.761812
O O2 0.832920 0.000000 0.961288
O O3 0.957820 0.725923 0.093877
O O4 0.842187 0.734432 0.068534
O O5 0.235821 0.283503 0.744876
O O6 0.122677 0.258640 0.731058
O O7 0.243319 0.000000 0.842154
O O8 0.359680 0.275745 0.049132
O O9 0.583597 0.270937 0.302411
O O10 0.546422 0.276079 0.407431
O O11 0.493182 0.000000 0.251256
O O12 0.259708 0.719408 0.610698
O O13 0.183792 0.727102 0.359304
O O14 0.289506 0.000000 0.564102
O O15 0.500000 0.731737 0.500000
O O16 0.406467 0.000000 0.444086
O O17 0.947832 0.000000 0.845456
O O18 0.000000 0.275952 0.000000
O O19 0.061290 0.195094 0.417112
O O20 0.250847 0.000000 0.681846
O O21 0.977879 0.500000 0.321436
#
# Coordination Sequence:
#
# PCOD9143390 Si02
#       8
#     4   4   4   4   4   4   4   4
#     4  10  18  31  53  79 109 143 178 218 268 323
#     4  10  21  36  57  81 108 142 180 223 275 331
#     4   9  17  30  50  83 117 142 176 223 270 320
#     4   9  16  28  48  77 114 142 169 217 268 320
#     4   9  16  26  45  76 111 144 180 220 261 308
#     4   9  15  24  44  77 109 137 170 212 262 312
#     4  10  20  36  57  82 109 141 178 222 279 332
#     4  12  24  37  55  79 109 142 183 232 278 324
#
# _framework density 22.612704999999998
#
# number of rings (size 3 to 8) (size 9 to 14) (size 15 to 20)
#    0.000    2.250    1.250    3.000    0.000    7.500 
#    0.000    2.500    0.000    4.500    0.000    1.750 
#    0.000    0.000    0.000    0.000    0.000    0.000 
#
# Total GULP energy -178803.786320 kJ/mol
# GULP energy per Si atom -5587.618323 kJ/mol
# Density = 2.256124 g / cm^3
# Si number density = 22.612705 Si / 1000 Ang^3
#
#
#
# Elastic Constant Matrix: (Units=GPa)
#
#
# Indices 1 2 3 4 5 6 
#
# 1 138.9044 -2.8209 31.9628 0.0000 -13.0137 0.0000
# 2 -2.8209 61.9924 -3.3651 0.0000 -0.7638 0.0000
# 3 31.9628 -3.3651 86.3409 0.0000 -12.5208 0.0000
# 4 0.0000 0.0000 0.0000 -34.5451 0.0000 15.1670
# 5 -13.0137 -0.7638 -12.5208 0.0000 43.7832 0.0000
# 6 0.0000 0.0000 0.0000 15.1670 0.0000 -52.2080
#
#
#
# Elastic Compliance Matrix: (Units=1/GPa)
#
#
# Indices 1 2 3 4 5 6 
#
# 1 0.007978 0.000236 -0.002712 0.000000 0.001600 0.000000
# 2 0.000236 0.016182 0.000620 0.000000 0.000530 0.000000
# 3 -0.002712 0.000620 0.013035 0.000000 0.002932 0.000000
# 4 0.000000 0.000000 0.000000 -0.033180 0.000000 -0.009639
# 5 0.001600 0.000530 0.002932 0.000000 0.024163 0.000000
# 6 0.000000 0.000000 0.000000 -0.009639 0.000000 -0.021954
#
#
# Mechanical properties :
#
#
# Convention : Reuss Voigt Hill
#
# Bulk Modulus (GPa) = 29.86628 37.64347 33.75487
# Shear Modulus (GPa) = 236.98971 8.83675 122.91323
#
# Velocity S-wave (km/s) = 10.24848 1.97898 7.38064
# Velocity P-wave (km/s) = 12.38056 4.68028 9.35904
#
# Compressibility (1/GPa) = 0.03348258
#
# Stress axis : x y z
#
# Youngs Moduli (GPa) = 125.34536 61.79735 76.71383
#
# Poissons Ratio (x) = -0.01455 0.20806
# Poissons Ratio (y) = -0.02952 -0.04759
# Poissons Ratio (z) = 0.33996 -0.03833
#
# Static dielectric constant tensor:
#      x y z
#    x 1.817160 0.000000 -0.015830 
#    y 0.000000 1.952660 0.000000 
#    z -0.015830 0.000000 1.817490 
# 
# From -- ./inp_files/71701.got.cif
#   From: 2010.05.17/outbox.cif.g08.bks.cpg/sg10_36_cif.got.tgz:71701.got - 2010.06.03 11:33:40.
