data_PCOD9143195
_publ_section_title
;
Structure prediction by ZEFSAII (Michael W. Deem and Ramdas Pophale) SiO2 
 PCOD9143195
Probable space group: P 2/M
;
_chemical_formula_sum "Si O2"
_cell_formula_units_Z 32
_cell_length_a 14.544407
_cell_length_b 7.606757
_cell_length_c 15.449257
_cell_angle_alpha 90.000000
_cell_angle_beta 86.434548
_cell_angle_gamma 90.000000
_cell_volume 1705.932049
_symmetry_space_group_name_H-M "P 2/M"
_symmetry_group_IT_number 10
_symmetry_cell_setting 'monoclinic'
loop_
_space_group_symop_operation_xyz
x,y,z
-x,y,-z
-x,-y,-z
x,-y,z
loop_
_atom_site_type_symbol
_atom_site_label
_atom_site_fract_x
_atom_site_fract_y
_atom_site_fract_z
Si Si1 0.004581 0.702239 0.402744
Si Si2 0.611709 0.289214 0.741596
Si Si3 0.167486 0.712373 0.686074
Si Si4 0.696321 0.288317 0.482876
Si Si5 0.519933 0.715833 0.096252
Si Si6 0.678584 0.293136 0.205452
Si Si7 0.462363 0.706833 0.622748
Si Si8 0.204153 0.198082 0.346852
O O1 0.973097 0.500000 0.416289
O O2 0.108743 0.700807 0.363156
O O3 0.000000 0.782425 0.500000
O O4 0.932747 0.777971 0.337110
O O5 0.601438 0.500000 0.739131
O O6 0.559351 0.229256 0.831040
O O7 0.555098 0.220128 0.660627
O O8 0.719252 0.250508 0.727622
O O9 0.163671 0.500000 0.698950
O O10 0.231897 0.744513 0.598798
O O11 0.224762 0.781915 0.765414
O O12 0.689934 0.500000 0.494777
O O13 0.596485 0.223759 0.455045
O O14 0.740761 0.213867 0.566195
O O15 0.521160 0.500000 0.096919
O O16 0.617856 0.777527 0.129857
O O17 0.500000 0.772091 0.000000
O O18 0.693066 0.500000 0.186208
O O19 0.609473 0.285311 0.292219
O O20 0.478439 0.500000 0.603252
O O21 0.175768 0.000000 0.332901
#
# Coordination Sequence:
#
# PCOD9143195 Si02
#       8
#     4   4   4   4   4   4   4   4
#     4  10  18  31  49  65  79 108 155 200 229 258
#     4   9  17  31  47  64  88 119 150 179 213 262
#     4   8  13  23  42  63  82 107 144 186 222 255
#     4   9  15  28  46  62  80 110 153 191 219 254
#     4   8  13  23  44  74 100 116 134 168 217 267
#     4   7  10  18  35  64  95 113 130 167 217 264
#     4   7  12  23  43  64  81 108 149 186 211 246
#     4  12  24  32  39  58  89 121 151 187 228 262
#
# _framework density 18.758074000000001
#
# number of rings (size 3 to 8) (size 9 to 14) (size 15 to 20)
#    0.000    3.250    1.250    4.125    0.000    0.750 
#    0.000    3.125    0.000    0.375    0.000    0.875 
#    0.000    7.000    0.000    0.000    0.000    0.000 
#
# Total GULP energy -178192.986842 kJ/mol
# GULP energy per Si atom -5568.530839 kJ/mol
# Density = 1.871538 g / cm^3
# Si number density = 18.758074 Si / 1000 Ang^3
#
#
#
# Elastic Constant Matrix: (Units=GPa)
#
#
# Indices 1 2 3 4 5 6 
#
# 1 144.0540 1.7544 55.9127 0.0000 25.7377 0.0000
# 2 1.7544 34.9242 5.4155 0.0000 0.7182 0.0000
# 3 55.9127 5.4155 90.8771 0.0000 31.3468 0.0000
# 4 0.0000 0.0000 0.0000 14.3811 0.0000 -11.2769
# 5 25.7377 0.7182 31.3468 0.0000 22.3243 0.0000
# 6 0.0000 0.0000 0.0000 -11.2769 0.0000 -27.2506
#
#
#
# Elastic Compliance Matrix: (Units=1/GPa)
#
#
# Indices 1 2 3 4 5 6 
#
# 1 0.009433 0.000255 -0.004004 0.000000 -0.005261 0.000000
# 2 0.000255 0.029004 -0.002835 0.000000 0.002754 0.000000
# 3 -0.004004 -0.002835 0.023296 0.000000 -0.028003 0.000000
# 4 0.000000 0.000000 0.000000 0.052500 0.000000 -0.021726
# 5 -0.005261 0.002754 -0.028003 0.000000 0.090092 0.000000
# 6 0.000000 0.000000 0.000000 -0.021726 0.000000 -0.027706
#
#
# Mechanical properties :
#
#
# Convention : Reuss Voigt Hill
#
# Bulk Modulus (GPa) = 20.59151 44.00231 32.29691
# Shear Modulus (GPa) = 24.27483 15.67578 19.97531
#
# Velocity S-wave (km/s) = 3.60126 2.89395 3.26681
# Velocity P-wave (km/s) = 5.31915 5.88858 5.61109
#
# Compressibility (1/GPa) = 0.04856369
#
# Stress axis : x y z
#
# Youngs Moduli (GPa) = 106.01261 34.47847 42.92624
#
# Poissons Ratio (x) = -0.00880 0.17188
# Poissons Ratio (y) = -0.02706 0.12171
# Poissons Ratio (z) = 0.42449 0.09776
#
# Static dielectric constant tensor:
#      x y z
#    x 1.707610 0.000000 0.027230 
#    y 0.000000 1.702210 0.000000 
#    z 0.027230 0.000000 1.648730 
# 
# From -- ./inp_files/66102.got.cif
#   From: 2010.05.17/outbox.cif.g08.bks.cpg/sg10_34_cif.got.tgz:66102.got - 2010.06.03 11:33:40.
