data_PCOD9143611
_publ_section_title
;
Structure prediction by ZEFSAII (Michael W. Deem and Ramdas Pophale) SiO2 
 PCOD9143611
Probable space group: P 2/M
;
_chemical_formula_sum "Si O2"
_cell_formula_units_Z 28
_cell_length_a 17.195117
_cell_length_b 8.620187
_cell_length_c 15.428471
_cell_angle_alpha 90.000000
_cell_angle_beta 133.802016
_cell_angle_gamma 90.000000
_cell_volume 1650.528408
_symmetry_space_group_name_H-M "P 2/M"
_symmetry_group_IT_number 10
_symmetry_cell_setting 'monoclinic'
loop_
_space_group_symop_operation_xyz
x,y,z
-x,y,-z
-x,-y,-z
x,-y,z
loop_
_atom_site_type_symbol
_atom_site_label
_atom_site_fract_x
_atom_site_fract_y
_atom_site_fract_z
Si Si1 0.988796 0.187524 0.389700
Si Si2 0.348486 0.815370 0.441191
Si Si3 0.606414 0.187346 0.886746
Si Si4 0.423033 0.315640 0.321903
Si Si5 0.747715 0.188775 0.157191
Si Si6 0.205170 0.684152 0.477340
Si Si7 0.361038 0.812667 0.746829
O O1 0.871320 0.236646 0.265354
O O2 0.000000 0.228839 0.500000
O O3 0.086547 0.259698 0.411846
O O4 0.996185 0.000000 0.390181
O O5 0.458975 0.760281 0.573204
O O6 0.352863 0.741326 0.349229
O O7 0.250156 0.760094 0.424309
O O8 0.350514 0.000000 0.435903
O O9 0.621969 0.261744 0.804915
O O10 0.485509 0.225387 0.825850
O O11 0.612198 0.000000 0.883098
O O12 0.691032 0.239263 0.024932
O O13 0.435092 0.500000 0.334421
O O14 0.679207 0.234962 0.188977
O O15 0.746725 0.000000 0.155764
O O16 0.209009 0.500000 0.472392
O O17 0.285048 0.738289 0.615851
O O18 0.349714 0.000000 0.731501
#
# Coordination Sequence:
#
# PCOD9143611 Si02
#       7
#     4   4   4   4   4   4   4
#     4  10  19  35  57  78 105 143 191 232 266 310
#     4  11  21  36  57  80 105 140 183 223 267 320
#     4  10  19  32  54  81 111 147 185 220 265 322
#     4  11  21  34  53  81 115 143 171 216 274 326
#     4   9  18  33  54  80 107 144 191 232 261 307
#     4  12  23  34  52  80 114 143 176 224 280 326
#     4  10  18  32  53  78 109 146 184 222 265 318
#
# _framework density 16.964265000000001
#
# number of rings (size 3 to 8) (size 9 to 14) (size 15 to 20)
#    0.000    1.571    2.857    5.143    0.000    2.000 
#    0.000    1.429    0.000    2.571    0.000    6.000 
#    0.000    0.000    0.000    0.000    0.000    0.000 
#
# Total GULP energy -156402.499282 kJ/mol
# GULP energy per Si atom -5585.803546 kJ/mol
# Density = 1.692565 g / cm^3
# Si number density = 16.964265 Si / 1000 Ang^3
#
#
#
# Elastic Constant Matrix: (Units=GPa)
#
#
# Indices 1 2 3 4 5 6 
#
# 1 114.0434 18.4760 57.7556 0.0000 -9.1174 0.0000
# 2 18.4760 40.4833 22.5458 0.0000 1.2674 0.0000
# 3 57.7556 22.5458 118.8686 0.0000 -4.0065 0.0000
# 4 0.0000 0.0000 0.0000 -26.7543 0.0000 -0.0400
# 5 -9.1174 1.2674 -4.0065 0.0000 20.6451 0.0000
# 6 0.0000 0.0000 0.0000 -0.0400 0.0000 -26.4927
#
#
#
# Elastic Compliance Matrix: (Units=1/GPa)
#
#
# Indices 1 2 3 4 5 6 
#
# 1 0.012256 -0.002801 -0.005270 0.000000 0.004562 0.000000
# 2 -0.002801 0.028413 -0.004156 0.000000 -0.003788 0.000000
# 3 -0.005270 -0.004156 0.011768 0.000000 0.000212 0.000000
# 4 0.000000 0.000000 0.000000 -0.037377 0.000000 0.000056
# 5 0.004562 -0.003788 0.000212 0.000000 0.050726 0.000000
# 6 0.000000 0.000000 0.000000 0.000056 0.000000 -0.037746
#
#
# Mechanical properties :
#
#
# Convention : Reuss Voigt Hill
#
# Bulk Modulus (GPa) = 35.73506 52.32780 44.03143
# Shear Modulus (GPa) = 80.87852 5.12082 42.99967
#
# Velocity S-wave (km/s) = 6.91226 1.73930 5.04006
# Velocity P-wave (km/s) = 9.20958 5.91155 7.73831
#
# Compressibility (1/GPa) = 0.02798372
#
# Stress axis : x y z
#
# Youngs Moduli (GPa) = 81.59303 35.19520 84.97287
#
# Poissons Ratio (x) = 0.09860 0.44779
# Poissons Ratio (y) = 0.22858 0.35311
# Poissons Ratio (z) = 0.42998 0.14626
#
# Static dielectric constant tensor:
#      x y z
#    x 1.564120 0.000000 -0.006190 
#    y 0.000000 1.566030 0.000000 
#    z -0.006190 0.000000 1.556280 
# 
# From -- ./inp_files/49321.got.cif
#   From: 2010.05.17/outbox.cif.g08.bks.cpg/sg10_25_cif.got.tgz:49321.got - 2010.06.03 11:33:40.
