data_PCOD9143110
_publ_section_title
;
Structure prediction by ZEFSAII (Michael W. Deem and Ramdas Pophale) SiO2 
 PCOD9143110
Probable space group: P 2/M
;
_chemical_formula_sum "Si O2"
_cell_formula_units_Z 32
_cell_length_a 9.699248
_cell_length_b 14.292142
_cell_length_c 20.275789
_cell_angle_alpha 90.000000
_cell_angle_beta 36.263723
_cell_angle_gamma 90.000000
_cell_volume 1662.531730
_symmetry_space_group_name_H-M "P 2/M"
_symmetry_group_IT_number 10
_symmetry_cell_setting 'monoclinic'
loop_
_space_group_symop_operation_xyz
x,y,z
-x,y,-z
-x,-y,-z
x,-y,z
loop_
_atom_site_type_symbol
_atom_site_label
_atom_site_fract_x
_atom_site_fract_y
_atom_site_fract_z
Si Si1 0.973481 0.105170 0.737806
Si Si2 0.362641 0.279814 0.792414
Si Si3 0.830126 0.692359 0.773371
Si Si4 0.774316 0.893613 0.491893
Si Si5 0.090518 0.717468 0.400626
Si Si6 0.665543 0.609726 0.063582
Si Si7 0.087828 0.390656 0.797473
Si Si8 0.270821 0.106373 0.752180
O O1 0.813325 0.194389 0.783967
O O2 0.185613 0.110118 0.602746
O O3 0.073230 0.115123 0.772715
O O4 0.872435 0.000000 0.769404
O O5 0.637097 0.263572 0.694898
O O6 0.287709 0.331684 0.888107
O O7 0.246169 0.181263 0.819408
O O8 0.303466 0.343321 0.751701
O O9 0.930804 0.669145 0.662114
O O10 0.576665 0.645338 0.874786
O O11 0.003306 0.658459 0.763349
O O12 0.515379 0.877138 0.618985
O O13 0.944075 0.813408 0.452731
O O14 0.839852 0.000000 0.486237
O O15 0.000000 0.664388 0.500000
O O16 0.643371 0.500000 0.089338
O O17 0.873777 0.619644 0.931545
O O18 0.127905 0.500000 0.770420
O O19 0.274071 0.000000 0.775227
#
# Coordination Sequence:
#
# PCOD9143110 Si02
#       8
#     4   4   4   4   4   4   4   4
#     4   9  17  31  51  84 122 156 189 229 277 325
#     4  11  21  35  56  87 116 153 183 230 290 349
#     4  10  20  35  61  89 113 148 187 237 283 342
#     4   9  17  29  51  81 112 152 202 240 266 308
#     4  10  20  34  51  81 121 158 181 216 277 335
#     4  10  22  40  63  87 111 136 181 253 314 340
#     4  11  22  40  65  87 104 133 191 258 301 337
#     4  10  18  30  52  83 120 156 193 232 273 322
#
# _framework density 19.247754
#
# number of rings (size 3 to 8) (size 9 to 14) (size 15 to 20)
#    0.000    2.000    2.500    1.875    0.000    4.250 
#    0.000    2.500    0.000   18.750    0.000    0.000 
#    0.000    0.000    0.000    0.000    0.000    0.000 
#
# Total GULP energy -178486.448819 kJ/mol
# GULP energy per Si atom -5577.701526 kJ/mol
# Density = 1.920395 g / cm^3
# Si number density = 19.247754 Si / 1000 Ang^3
#
#
#
# Elastic Constant Matrix: (Units=GPa)
#
#
# Indices 1 2 3 4 5 6 
#
# 1 98.4942 28.4412 4.4865 0.0000 18.1236 0.0000
# 2 28.4412 96.6290 19.0712 0.0000 9.9592 0.0000
# 3 4.4865 19.0712 20.9832 0.0000 2.7978 0.0000
# 4 0.0000 0.0000 0.0000 25.5102 0.0000 -0.9460
# 5 18.1236 9.9592 2.7978 0.0000 23.5739 0.0000
# 6 0.0000 0.0000 0.0000 -0.9460 0.0000 24.3076
#
#
#
# Elastic Compliance Matrix: (Units=1/GPa)
#
#
# Indices 1 2 3 4 5 6 
#
# 1 0.012544 -0.003059 0.001232 0.000000 -0.008497 0.000000
# 2 -0.003059 0.013746 -0.011561 0.000000 -0.002083 0.000000
# 3 0.001232 -0.011561 0.058299 0.000000 -0.002982 0.000000
# 4 0.000000 0.000000 0.000000 0.039257 0.000000 0.001528
# 5 -0.008497 -0.002083 -0.002982 0.000000 0.050186 0.000000
# 6 0.000000 0.000000 0.000000 0.001528 0.000000 0.041199
#
#
# Mechanical properties :
#
#
# Convention : Reuss Voigt Hill
#
# Bulk Modulus (GPa) = 17.29794 35.56714 26.43254
# Shear Modulus (GPa) = 19.13661 25.61885 22.37773
#
# Velocity S-wave (km/s) = 3.15656 3.65225 3.41341
# Velocity P-wave (km/s) = 4.72140 6.02528 5.41274
#
# Compressibility (1/GPa) = 0.05781036
#
# Stress axis : x y z
#
# Youngs Moduli (GPa) = 79.72096 72.74925 17.15288
#
# Poissons Ratio (x) = 0.22256 -0.02112
# Poissons Ratio (y) = 0.24389 0.19831
# Poissons Ratio (z) = -0.09818 0.84109
#
# Static dielectric constant tensor:
#      x y z
#    x 1.686800 0.000000 0.025690 
#    y 0.000000 1.686900 0.000000 
#    z 0.025690 0.000000 1.668460 
# 
# From -- ./inp_files/82792.got.cif
#   From: 2010.05.17/outbox.cif.g08.bks.cpg/sg10_42_cif.got.tgz:82792.got - 2010.06.03 11:33:40.
