data_PCOD9143575
_publ_section_title
;
Structure prediction by ZEFSAII (Michael W. Deem and Ramdas Pophale) SiO2 
 PCOD9143575
Probable space group: P 2/M
;
_chemical_formula_sum "Si O2"
_cell_formula_units_Z 32
_cell_length_a 16.773327
_cell_length_b 13.236454
_cell_length_c 15.594947
_cell_angle_alpha 90.000000
_cell_angle_beta 24.831103
_cell_angle_gamma 90.000000
_cell_volume 1454.008640
_symmetry_space_group_name_H-M "P 2/M"
_symmetry_group_IT_number 10
_symmetry_cell_setting 'monoclinic'
loop_
_space_group_symop_operation_xyz
x,y,z
-x,y,-z
-x,-y,-z
x,-y,z
loop_
_atom_site_type_symbol
_atom_site_label
_atom_site_fract_x
_atom_site_fract_y
_atom_site_fract_z
Si Si1 0.269346 0.112087 0.975052
Si Si2 0.326536 0.384007 0.336426
Si Si3 0.149212 0.678049 0.050281
Si Si4 0.213558 0.616825 0.814116
Si Si5 0.421229 0.886619 0.479861
Si Si6 0.875395 0.612888 0.743016
Si Si7 0.593779 0.778929 0.990851
Si Si8 0.726976 0.325242 0.422137
O O1 0.414777 0.112117 0.752867
O O2 0.368346 0.145492 0.967437
O O3 0.187455 0.000000 0.062095
O O4 0.129215 0.204734 0.094331
O O5 0.378972 0.500000 0.269232
O O6 0.442568 0.305208 0.167840
O O7 0.365397 0.356028 0.398154
O O8 0.101495 0.374903 0.534878
O O9 0.209378 0.620575 0.077182
O O10 0.942605 0.638167 0.227609
O O11 0.274605 0.670482 0.842274
O O12 0.196332 0.500000 0.853313
O O13 0.329493 0.626401 0.613304
O O14 0.000000 0.657292 0.000000
O O15 0.500000 0.869329 0.500000
O O16 0.288584 0.794080 0.581677
O O17 0.335225 0.000000 0.564297
O O18 0.838878 0.500000 0.742974
O O19 0.780376 0.709369 0.790379
O O20 0.500000 0.829924 0.000000
#
# Coordination Sequence:
#
# PCOD9143575 Si02
#       8
#     4   4   4   4   4   4   4   4
#     4  10  21  39  58  78 107 142 182 235 291 338
#     4  10  20  36  58  84 116 152 190 231 277 341
#     4   9  18  31  53  80 106 145 185 231 275 332
#     4   9  16  27  47  76 111 148 184 220 266 326
#     4  10  20  34  54  77 106 144 182 225 278 332
#     4   9  19  35  56  84 116 151 187 227 281 334
#     4  11  23  39  60  84 112 148 190 237 286 341
#     4  10  18  32  52  78 110 147 187 230 278 328
#
# _framework density 22.008120999999999
#
# number of rings (size 3 to 8) (size 9 to 14) (size 15 to 20)
#    0.000    2.250    1.250    1.875    0.000    5.250 
#    0.000    1.250    0.000    6.000    0.000    3.500 
#    0.000    0.000    0.000    0.000    0.000    0.000 
#
# Total GULP energy -178563.392810 kJ/mol
# GULP energy per Si atom -5580.106025 kJ/mol
# Density = 2.195803 g / cm^3
# Si number density = 22.008121 Si / 1000 Ang^3
#
#
#
# Elastic Constant Matrix: (Units=GPa)
#
#
# Indices 1 2 3 4 5 6 
#
# 1 85.9752 -7.2866 7.3453 0.0000 7.8585 0.0000
# 2 -7.2866 81.7786 -3.5241 0.0000 1.6111 0.0000
# 3 7.3453 -3.5241 45.1684 0.0000 0.8084 0.0000
# 4 0.0000 0.0000 0.0000 18.3523 0.0000 -8.9780
# 5 7.8585 1.6111 0.8084 0.0000 25.6720 0.0000
# 6 0.0000 0.0000 0.0000 -8.9780 0.0000 3.4246
#
#
#
# Elastic Compliance Matrix: (Units=1/GPa)
#
#
# Indices 1 2 3 4 5 6 
#
# 1 0.012223 0.001084 -0.001836 0.000000 -0.003752 0.000000
# 2 0.001084 0.012382 0.000810 0.000000 -0.001134 0.000000
# 3 -0.001836 0.000810 0.022505 0.000000 -0.000197 0.000000
# 4 0.000000 0.000000 0.000000 -0.192881 0.000000 -0.505661
# 5 -0.003752 -0.001134 -0.000197 0.000000 0.040179 0.000000
# 6 0.000000 0.000000 0.000000 -0.505661 0.000000 -1.033644
#
#
# Mechanical properties :
#
#
# Convention : Reuss Voigt Hill
#
# Bulk Modulus (GPa) = 21.17498 22.88793 22.03145
# Shear Modulus (GPa) = -4.44994 23.91563 9.73285
#
# Velocity S-wave (km/s) = -1.42350 3.30005 2.10523
# Velocity P-wave (km/s) = 2.63449 4.99427 3.99270
#
# Compressibility (1/GPa) = 0.04722555
#
# Stress axis : x y z
#
# Youngs Moduli (GPa) = 81.81357 80.76256 44.43524
#
# Poissons Ratio (x) = -0.08754 0.08158
# Poissons Ratio (y) = -0.08868 -0.03600
# Poissons Ratio (z) = 0.15021 -0.06543
#
# Static dielectric constant tensor:
#      x y z
#    x 1.867150 0.000000 0.014400 
#    y 0.000000 1.767710 0.000000 
#    z 0.014400 0.000000 1.853420 
# 
# From -- ./inp_files/38214.got.cif
#   From: 2010.05.17/outbox.cif.g08.bks.cpg/sg10_20_cif.got.tgz:38214.got - 2010.06.03 11:33:40.
