data_PCOD9143039
_publ_section_title
;
Structure prediction by ZEFSAII (Michael W. Deem and Ramdas Pophale) SiO2 
 PCOD9143039
Probable space group: P 2/M
;
_chemical_formula_sum "Si O2"
_cell_formula_units_Z 28
_cell_length_a 22.427842
_cell_length_b 8.393646
_cell_length_c 18.630648
_cell_angle_alpha 90.000000
_cell_angle_beta 153.929060
_cell_angle_gamma 90.000000
_cell_volume 1541.376774
_symmetry_space_group_name_H-M "P 2/M"
_symmetry_group_IT_number 10
_symmetry_cell_setting 'monoclinic'
loop_
_space_group_symop_operation_xyz
x,y,z
-x,y,-z
-x,-y,-z
x,-y,z
loop_
_atom_site_type_symbol
_atom_site_label
_atom_site_fract_x
_atom_site_fract_y
_atom_site_fract_z
Si Si1 0.879763 0.192843 0.565556
Si Si2 0.418758 0.190932 0.176115
Si Si3 0.960845 0.807011 0.877899
Si Si4 0.443338 0.686265 0.042262
Si Si5 0.135513 0.806251 0.931182
Si Si6 0.707856 0.187855 0.250197
Si Si7 0.288786 0.310733 0.480441
O O1 0.830650 0.243858 0.433810
O O2 0.775351 0.252950 0.513255
O O3 0.028530 0.242082 0.753524
O O4 0.874050 0.000000 0.560457
O O5 0.561491 0.239938 0.364805
O O6 0.414166 0.000000 0.164934
O O7 0.413508 0.263193 0.090713
O O8 0.287165 0.246432 0.078042
O O9 0.815981 0.746152 0.693554
O O10 0.070674 0.755054 0.936709
O O11 0.956854 0.000000 0.872735
O O12 0.000000 0.754720 0.000000
O O13 0.477519 0.500000 0.075716
O O14 0.320789 0.723508 0.855113
O O15 0.572374 0.783294 0.151391
O O16 0.136433 0.000000 0.933067
O O17 0.722127 0.000000 0.251212
O O18 0.296657 0.500000 0.489883
#
# Coordination Sequence:
#
# PCOD9143039 Si02
#       7
#     4   4   4   4   4   4   4
#     4   9  17  33  55  77 101 132 178 226 264 310
#     4  11  20  34  53  74 105 141 179 218 258 310
#     4   9  18  37  63  86 107 133 170 214 258 308
#     4  11  21  31  46  71 106 138 175 223 269 312
#     4   8  17  33  55  81 104 132 172 218 263 307
#     4  10  18  30  51  75 100 134 178 222 271 316
#     4  11  21  32  52  80 109 139 174 212 257 311
#
# _framework density 18.165579999999999
#
# number of rings (size 3 to 8) (size 9 to 14) (size 15 to 20)
#    0.000    2.143    1.429    5.143    0.000    0.857 
#    0.000    7.143    0.000    8.571    0.000    0.000 
#    0.000    0.000    0.000    0.000    0.000    0.000 
#
# Total GULP energy -156226.435281 kJ/mol
# GULP energy per Si atom -5579.515546 kJ/mol
# Density = 1.812423 g / cm^3
# Si number density = 18.165580 Si / 1000 Ang^3
#
#
#
# Elastic Constant Matrix: (Units=GPa)
#
#
# Indices 1 2 3 4 5 6 
#
# 1 80.8663 3.8169 68.3100 0.0000 -12.0421 0.0000
# 2 3.8169 22.0873 5.1388 0.0000 -2.8627 0.0000
# 3 68.3100 5.1388 128.7780 0.0000 -0.6685 0.0000
# 4 0.0000 0.0000 0.0000 -5.0635 0.0000 -4.8262
# 5 -12.0421 -2.8627 -0.6685 0.0000 34.3118 0.0000
# 6 0.0000 0.0000 0.0000 -4.8262 0.0000 -17.0467
#
#
#
# Elastic Compliance Matrix: (Units=1/GPa)
#
#
# Indices 1 2 3 4 5 6 
#
# 1 0.024601 -0.000142 -0.013000 0.000000 0.008369 0.000000
# 2 -0.000142 0.046195 -0.001749 0.000000 0.003770 0.000000
# 3 -0.013000 -0.001749 0.014708 0.000000 -0.004422 0.000000
# 4 0.000000 0.000000 0.000000 -0.270481 0.000000 0.076577
# 5 0.008369 0.003770 -0.004422 0.000000 0.032310 0.000000
# 6 0.000000 0.000000 0.000000 0.076577 0.000000 -0.080342
#
#
# Mechanical properties :
#
#
# Convention : Reuss Voigt Hill
#
# Bulk Modulus (GPa) = 17.94617 42.91812 30.43215
# Shear Modulus (GPa) = -27.07773 12.73804 -7.16984
#
# Velocity S-wave (km/s) = -3.86503 2.65093 -1.98885
# Velocity P-wave (km/s) = 3.16500 5.74867 3.39338
#
# Compressibility (1/GPa) = 0.05572218
#
# Stress axis : x y z
#
# Youngs Moduli (GPa) = 40.64923 21.64742 67.98978
#
# Poissons Ratio (x) = 0.00307 0.88389
# Poissons Ratio (y) = 0.00577 0.11888
# Poissons Ratio (z) = 0.52845 0.03785
#
# Static dielectric constant tensor:
#      x y z
#    x 1.604580 0.000000 -0.011290 
#    y 0.000000 1.613460 0.000000 
#    z -0.011290 0.000000 1.642100 
# 
# From -- ./inp_files/86531.got.cif
#   From: 2010.05.17/outbox.cif.g08.bks.cpg/sg10_44_cif.got.tgz:86531.got - 2010.06.03 11:33:40.
