data_PCOD9143421
_publ_section_title
;
Structure prediction by ZEFSAII (Michael W. Deem and Ramdas Pophale) SiO2 
 PCOD9143421
Probable space group: P 2/M
;
_chemical_formula_sum "Si O2"
_cell_formula_units_Z 32
_cell_length_a 22.371916
_cell_length_b 8.044369
_cell_length_c 29.010478
_cell_angle_alpha 90.000000
_cell_angle_beta 19.040575
_cell_angle_gamma 90.000000
_cell_volume 1703.272518
_symmetry_space_group_name_H-M "P 2/M"
_symmetry_group_IT_number 10
_symmetry_cell_setting 'monoclinic'
loop_
_space_group_symop_operation_xyz
x,y,z
-x,y,-z
-x,-y,-z
x,-y,z
loop_
_atom_site_type_symbol
_atom_site_label
_atom_site_fract_x
_atom_site_fract_y
_atom_site_fract_z
Si Si1 0.195161 0.200004 0.840161
Si Si2 0.693243 0.803285 0.341205
Si Si3 0.939630 0.799105 0.594552
Si Si4 0.461325 0.796737 0.080736
Si Si5 0.890989 0.301154 0.435356
Si Si6 0.157307 0.196307 0.160788
Si Si7 0.424841 0.299512 0.401382
Si Si8 0.847293 0.694788 0.320096
O O1 0.243061 0.266275 0.754164
O O2 0.368019 0.239592 0.746503
O O3 0.180602 0.000000 0.847985
O O4 0.000000 0.264300 0.000000
O O5 0.500000 0.731591 0.500000
O O6 0.833912 0.779019 0.280406
O O7 0.665852 0.000000 0.354098
O O8 0.735542 0.740939 0.757360
O O9 0.000000 0.740448 0.500000
O O10 0.075474 0.747652 0.536572
O O11 0.935258 0.000000 0.596732
O O12 0.460466 0.000000 0.081193
O O13 0.500000 0.743990 0.000000
O O14 0.635086 0.743648 0.984515
O O15 0.903451 0.500000 0.421701
O O16 0.698513 0.248044 0.552470
O O17 0.050783 0.225482 0.286717
O O18 0.035907 0.279962 0.209904
O O19 0.159383 0.000000 0.150190
O O20 0.425177 0.500000 0.402278
O O21 0.311773 0.240487 0.529184
O O22 0.816223 0.500000 0.336010
#
# Coordination Sequence:
#
# PCOD9143421 Si02
#       8
#     4   4   4   4   4   4   4   4
#     4  10  21  36  54  79 108 135 171 221 264 304
#     4  10  19  33  54  79 103 134 176 215 257 312
#     4  10  20  35  55  79 105 138 180 220 261 314
#     4   9  16  30  52  78 104 130 169 217 262 306
#     4  10  20  34  52  78 109 138 175 218 262 311
#     4  10  18  31  54  78 106 140 174 217 267 311
#     4   9  19  34  52  75 104 138 173 211 255 314
#     4  10  20  33  51  79 111 137 172 220 266 310
#
# _framework density 18.787364
#
# number of rings (size 3 to 8) (size 9 to 14) (size 15 to 20)
#    0.000    2.250    2.500    1.875    0.000    3.750 
#    0.000    3.125    0.000    6.000    0.000    0.000 
#    0.000    0.000    0.000    0.000    0.000    0.000 
#
# Total GULP energy -178528.818383 kJ/mol
# GULP energy per Si atom -5579.025574 kJ/mol
# Density = 1.874460 g / cm^3
# Si number density = 18.787364 Si / 1000 Ang^3
#
#
#
# Elastic Constant Matrix: (Units=GPa)
#
#
# Indices 1 2 3 4 5 6 
#
# 1 125.0401 -4.1249 77.6115 0.0000 -5.3222 0.0000
# 2 -4.1249 12.1217 9.9963 0.0000 4.7471 0.0000
# 3 77.6115 9.9963 138.6311 0.0000 -10.2263 0.0000
# 4 0.0000 0.0000 0.0000 44.5075 0.0000 -46.1001
# 5 -5.3222 4.7471 -10.2263 0.0000 27.4104 0.0000
# 6 0.0000 0.0000 0.0000 -46.1001 0.0000 63.9016
#
#
#
# Elastic Compliance Matrix: (Units=1/GPa)
#
#
# Indices 1 2 3 4 5 6 
#
# 1 0.013845 0.013214 -0.008920 0.000000 -0.002928 0.000000
# 2 0.013214 0.109960 -0.017010 0.000000 -0.022824 0.000000
# 3 -0.008920 -0.017010 0.013906 0.000000 0.006402 0.000000
# 4 0.000000 0.000000 0.000000 0.088891 0.000000 0.064128
# 5 -0.002928 -0.022824 0.006402 0.000000 0.042255 0.000000
# 6 0.000000 0.000000 0.000000 0.064128 0.000000 0.061912
#
#
# Mechanical properties :
#
#
# Convention : Reuss Voigt Hill
#
# Bulk Modulus (GPa) = 8.90638 49.19539 29.05089
# Shear Modulus (GPa) = 12.70233 39.98458 26.34345
#
# Velocity S-wave (km/s) = 2.60303 4.61832 3.74864
# Velocity P-wave (km/s) = 3.71285 7.39464 5.85090
#
# Compressibility (1/GPa) = 0.11227905
#
# Stress axis : x y z
#
# Youngs Moduli (GPa) = 72.22664 9.09420 71.91134
#
# Poissons Ratio (x) = -0.12017 0.64145
# Poissons Ratio (y) = -0.95442 1.22324
# Poissons Ratio (z) = 0.64426 0.15470
#
# Static dielectric constant tensor:
#      x y z
#    x 1.652330 0.000000 -0.012270 
#    y 0.000000 1.659850 0.000000 
#    z -0.012270 0.000000 1.650370 
# 
# From -- ./inp_files/93625.got.cif
#   From: 2010.05.17/outbox.cif.g08.bks.cpg/sg10_47_cif.got.tgz:93625.got - 2010.06.03 11:33:40.
