data_PCOD9143228
_publ_section_title
;
Structure prediction by ZEFSAII (Michael W. Deem and Ramdas Pophale) SiO2 
 PCOD9143228
Probable space group: P 2/M
;
_chemical_formula_sum "Si O2"
_cell_formula_units_Z 32
_cell_length_a 28.070800
_cell_length_b 7.610565
_cell_length_c 19.953909
_cell_angle_alpha 90.000000
_cell_angle_beta 22.147350
_cell_angle_gamma 90.000000
_cell_volume 1607.049713
_symmetry_space_group_name_H-M "P 2/M"
_symmetry_group_IT_number 10
_symmetry_cell_setting 'monoclinic'
loop_
_space_group_symop_operation_xyz
x,y,z
-x,y,-z
-x,-y,-z
x,-y,z
loop_
_atom_site_type_symbol
_atom_site_label
_atom_site_fract_x
_atom_site_fract_y
_atom_site_fract_z
Si Si1 0.138294 0.714138 0.439129
Si Si2 0.606295 0.284318 0.309519
Si Si3 0.409653 0.299711 0.060804
Si Si4 0.423623 0.800254 0.275148
Si Si5 0.847541 0.711896 0.422896
Si Si6 0.864073 0.295636 0.799886
Si Si7 0.118670 0.704968 0.059340
Si Si8 0.409075 0.712317 0.824098
O O1 0.127032 0.500000 0.449480
O O2 0.268086 0.772457 0.234856
O O3 0.160887 0.762383 0.487785
O O4 0.998552 0.779646 0.600160
O O5 0.500000 0.227263 0.500000
O O6 0.608378 0.500000 0.307435
O O7 0.579444 0.230856 0.267902
O O8 0.748976 0.221982 0.139281
O O9 0.386153 0.500000 0.115676
O O10 0.500000 0.216234 0.000000
O O11 0.490100 0.306282 0.888788
O O12 0.276867 0.764944 0.454275
O O13 0.473118 0.764904 0.284705
O O14 0.449320 0.000000 0.223630
O O15 0.853028 0.500000 0.415659
O O16 0.981653 0.780565 0.220615
O O17 0.859762 0.500000 0.783453
O O18 0.874228 0.293058 0.868318
O O19 0.723963 0.221036 0.970641
O O20 0.116731 0.500000 0.042062
O O21 0.400293 0.500000 0.834800
#
# Coordination Sequence:
#
# PCOD9143228 Si02
#       8
#     4   4   4   4   4   4   4   4
#     4   8  13  24  46  71  89 107 145 201 242 270
#     4   8  13  24  48  83 110 120 138 186 244 283
#     4  10  18  31  50  70  90 118 157 198 240 284
#     4  12  24  33  43  63  95 130 161 197 238 275
#     4   9  15  28  48  68  90 120 160 197 231 274
#     4   7  11  22  43  69  90 111 147 193 230 265
#     4   7  11  20  41  72  99 119 143 185 234 277
#     4   9  17  31  50  70  94 126 159 186 223 282
#
# _framework density 19.912264
#
# number of rings (size 3 to 8) (size 9 to 14) (size 15 to 20)
#    0.000    3.250    1.250    4.125    0.000    0.250 
#    0.000    0.625    0.000   12.375    0.000    5.250 
#    0.000    0.000    0.000    0.000    0.000    0.000 
#
# Total GULP energy -178181.039543 kJ/mol
# GULP energy per Si atom -5568.157486 kJ/mol
# Density = 1.986694 g / cm^3
# Si number density = 19.912264 Si / 1000 Ang^3
#
#
#
# Elastic Constant Matrix: (Units=GPa)
#
#
# Indices 1 2 3 4 5 6 
#
# 1 48.5057 -2.5294 42.0534 0.0000 -11.6917 0.0000
# 2 -2.5294 42.3210 1.5002 0.0000 0.5289 0.0000
# 3 42.0534 1.5002 161.6759 0.0000 -7.3234 0.0000
# 4 0.0000 0.0000 0.0000 -25.1448 0.0000 -2.2962
# 5 -11.6917 0.5289 -7.3234 0.0000 22.9169 0.0000
# 6 0.0000 0.0000 0.0000 -2.2962 0.0000 17.6599
#
#
#
# Elastic Compliance Matrix: (Units=1/GPa)
#
#
# Indices 1 2 3 4 5 6 
#
# 1 0.030158 0.001898 -0.007272 0.000000 0.013018 0.000000
# 2 0.001898 0.023765 -0.000705 0.000000 0.000194 0.000000
# 3 -0.007272 -0.000705 0.008032 0.000000 -0.001127 0.000000
# 4 0.000000 0.000000 0.000000 -0.039303 0.000000 -0.005110
# 5 0.013018 0.000194 -0.001127 0.000000 0.049913 0.000000
# 6 0.000000 0.000000 0.000000 -0.005110 0.000000 0.055961
#
#
# Mechanical properties :
#
#
# Convention : Reuss Voigt Hill
#
# Bulk Modulus (GPa) = 20.08235 37.17234 28.62734
# Shear Modulus (GPa) = 31.78963 17.18498 24.48730
#
# Velocity S-wave (km/s) = 3.99994 2.94093 3.51060
# Velocity P-wave (km/s) = 5.60714 5.49915 5.55341
#
# Compressibility (1/GPa) = 0.04979497
#
# Stress axis : x y z
#
# Youngs Moduli (GPa) = 33.15892 42.07881 124.49755
#
# Poissons Ratio (x) = -0.07984 0.90538
# Poissons Ratio (y) = -0.06292 0.08780
# Poissons Ratio (z) = 0.24114 0.02968
#
# Static dielectric constant tensor:
#      x y z
#    x 1.678330 0.000000 -0.030690 
#    y 0.000000 1.743340 0.000000 
#    z -0.030690 0.000000 1.760950 
# 
# From -- ./inp_files/83362.got.cif
#   From: 2010.05.17/outbox.cif.g08.bks.cpg/sg10_42_cif.got.tgz:83362.got - 2010.06.03 11:33:40.
