data_PCOD9143890
_publ_section_title
;
Structure prediction by ZEFSAII (Michael W. Deem and Ramdas Pophale) SiO2 
 PCOD9143890
Probable space group: P 2/M
;
_chemical_formula_sum "Si O2"
_cell_formula_units_Z 28
_cell_length_a 22.035211
_cell_length_b 7.932548
_cell_length_c 18.629443
_cell_angle_alpha 90.000000
_cell_angle_beta 26.882106
_cell_angle_gamma 90.000000
_cell_volume 1472.374389
_symmetry_space_group_name_H-M "P 2/M"
_symmetry_group_IT_number 10
_symmetry_cell_setting 'monoclinic'
loop_
_space_group_symop_operation_xyz
x,y,z
-x,y,-z
-x,-y,-z
x,-y,z
loop_
_atom_site_type_symbol
_atom_site_label
_atom_site_fract_x
_atom_site_fract_y
_atom_site_fract_z
Si Si1 0.984966 0.796075 0.432238
Si Si2 0.897007 0.804716 0.176516
Si Si3 0.343978 0.207073 0.664005
Si Si4 0.587934 0.796489 0.015032
Si Si5 0.308771 0.205418 0.248808
Si Si6 0.209561 0.692170 0.083644
Si Si7 0.858371 0.197590 0.999862
O O1 0.834629 0.743208 0.570601
O O2 0.000000 0.749906 0.500000
O O3 0.094583 0.722539 0.263994
O O4 0.997613 0.000000 0.415336
O O5 0.754479 0.736148 0.297731
O O6 0.993973 0.729122 0.135869
O O7 0.867653 0.000000 0.226224
O O8 0.000000 0.802294 0.000000
O O9 0.500000 0.261300 0.500000
O O10 0.346199 0.000000 0.660025
O O11 0.261406 0.261775 0.822382
O O12 0.668906 0.742468 0.857737
O O13 0.655034 0.736467 0.016837
O O14 0.591227 0.000000 0.012027
O O15 0.436161 0.740201 0.160520
O O16 0.310073 0.000000 0.246008
O O17 0.212333 0.500000 0.058589
O O18 0.179048 0.790917 0.043485
O O19 0.869533 0.000000 0.006701
#
# Coordination Sequence:
#
# PCOD9143890 Si02
#       7
#     4   4   4   4   4   4   4
#     4  10  18  33  56  77  95 122 164 214 261 304
#     4   7  11  22  43  70  96 121 151 189 236 288
#     4   8  13  24  48  81 104 117 149 206 256 290
#     4   9  16  32  54  74  95 123 162 207 256 306
#     4   8  15  29  54  79  93 113 157 214 260 303
#     4  12  24  34  46  70 105 141 174 209 250 297
#     4   9  17  31  50  70  97 133 165 198 247 301
#
# _framework density 19.016902000000002
#
# number of rings (size 3 to 8) (size 9 to 14) (size 15 to 20)
#    0.000    3.000    1.429    3.857    0.000    0.286 
#    0.000    3.571    0.000    9.429    0.000    0.000 
#    0.000    0.000    0.000    0.000    0.000    0.000 
#
# Total GULP energy -155881.894840 kJ/mol
# GULP energy per Si atom -5567.210530 kJ/mol
# Density = 1.897362 g / cm^3
# Si number density = 19.016902 Si / 1000 Ang^3
#
#
#
# Elastic Constant Matrix: (Units=GPa)
#
#
# Indices 1 2 3 4 5 6 
#
# 1 138.0761 -2.9580 54.4434 0.0000 -24.1779 0.0000
# 2 -2.9580 13.2706 2.7367 0.0000 -3.2322 0.0000
# 3 54.4434 2.7367 78.1579 0.0000 -30.0050 0.0000
# 4 0.0000 0.0000 0.0000 -20.1106 0.0000 -14.9721
# 5 -24.1779 -3.2322 -30.0050 0.0000 31.4289 0.0000
# 6 0.0000 0.0000 0.0000 -14.9721 0.0000 -38.3366
#
#
#
# Elastic Compliance Matrix: (Units=1/GPa)
#
#
# Indices 1 2 3 4 5 6 
#
# 1 0.010256 0.004141 -0.006467 0.000000 0.002142 0.000000
# 2 0.004141 0.078977 -0.002066 0.000000 0.009335 0.000000
# 3 -0.006467 -0.002066 0.024279 0.000000 0.017991 0.000000
# 4 0.000000 0.000000 0.000000 -0.070110 0.000000 0.027381
# 5 0.002142 0.009335 0.017991 0.000000 0.051602 0.000000
# 6 0.000000 0.000000 0.000000 0.027381 0.000000 -0.036778
#
#
# Mechanical properties :
#
#
# Convention : Reuss Voigt Hill
#
# Bulk Modulus (GPa) = 9.54856 37.54987 23.54921
# Shear Modulus (GPa) = 49.05862 6.28183 27.67023
#
# Velocity S-wave (km/s) = 5.08462 1.81947 3.81863
# Velocity P-wave (km/s) = 6.28515 4.91959 5.64382
#
# Compressibility (1/GPa) = 0.10472789
#
# Stress axis : x y z
#
# Youngs Moduli (GPa) = 97.50331 12.66188 41.18849
#
# Poissons Ratio (x) = -0.05244 0.26636
# Poissons Ratio (y) = -0.40379 0.08511
# Poissons Ratio (z) = 0.63055 0.02616
#
# Static dielectric constant tensor:
#      x y z
#    x 1.692650 0.000000 -0.047060 
#    y 0.000000 1.695690 0.000000 
#    z -0.047060 0.000000 1.655330 
# 
# From -- ./inp_files/79236.got.cif
#   From: 2010.05.17/outbox.cif.g08.bks.cpg/sg10_40_cif.got.tgz:79236.got - 2010.06.03 11:33:40.
