data_PCOD9143037
_publ_section_title
;
Structure prediction by ZEFSAII (Michael W. Deem and Ramdas Pophale) SiO2 
 PCOD9143037
Probable space group: P 2/M
;
_chemical_formula_sum "Si O2"
_cell_formula_units_Z 32
_cell_length_a 17.080951
_cell_length_b 8.601712
_cell_length_c 12.046721
_cell_angle_alpha 90.000000
_cell_angle_beta 83.398028
_cell_angle_gamma 90.000000
_cell_volume 1758.232551
_symmetry_space_group_name_H-M "P 2/M"
_symmetry_group_IT_number 10
_symmetry_cell_setting 'monoclinic'
loop_
_space_group_symop_operation_xyz
x,y,z
-x,y,-z
-x,-y,-z
x,-y,z
loop_
_atom_site_type_symbol
_atom_site_label
_atom_site_fract_x
_atom_site_fract_y
_atom_site_fract_z
Si Si1 0.549800 0.181912 0.378223
Si Si2 0.661676 0.320585 0.963215
Si Si3 0.719278 0.317185 0.384017
Si Si4 0.913953 0.813694 0.971519
Si Si5 0.726854 0.819400 0.619269
Si Si6 0.822655 0.321490 0.789538
Si Si7 0.767851 0.689099 0.134675
Si Si8 0.575583 0.686166 0.766097
O O1 0.500000 0.200938 0.500000
O O2 0.627334 0.284637 0.376839
O O3 0.497169 0.233684 0.282635
O O4 0.571022 0.000000 0.366300
O O5 0.638308 0.500000 0.986651
O O6 0.743207 0.319474 0.878721
O O7 0.597470 0.255518 0.887194
O O8 0.691196 0.254422 0.075939
O O9 0.732185 0.500000 0.400452
O O10 0.742232 0.225087 0.490264
O O11 0.762161 0.268472 0.263927
O O12 0.891280 0.744899 0.855308
O O13 0.910504 0.000000 0.966609
O O14 0.846237 0.753640 0.065395
O O15 0.000000 0.766215 0.000000
O O16 0.800000 0.777692 0.686121
O O17 0.652233 0.722265 0.677608
O O18 0.706153 0.000000 0.632492
O O19 0.837226 0.500000 0.756778
O O20 0.768165 0.500000 0.125982
O O21 0.564503 0.500000 0.772079
#
# Coordination Sequence:
#
# PCOD9143037 Si02
#       8
#     4   4   4   4   4   4   4   4
#     4  11  22  34  48  70 101 137 177 224 274 321
#     4   7  13  28  49  72  96 124 163 212 258 299
#     4  11  22  35  53  75 101 139 182 222 266 317
#     4  10  20  34  56  87 117 142 169 206 257 311
#     4  11  20  31  49  75 106 138 173 218 270 316
#     4   9  17  31  52  78 106 137 176 217 254 300
#     4   9  19  36  56  78 105 138 178 217 257 313
#     4  10  18  30  51  74  97 130 174 224 270 314
#
# _framework density 18.200095999999998
#
# number of rings (size 3 to 8) (size 9 to 14) (size 15 to 20)
#    0.000    2.250    1.250    4.500    0.000    2.500 
#    0.000    1.250    0.000    4.500    0.000    5.250 
#    0.000    0.000    0.000    0.000    0.000    0.000 
#
# Total GULP energy -178473.753079 kJ/mol
# GULP energy per Si atom -5577.304784 kJ/mol
# Density = 1.815867 g / cm^3
# Si number density = 18.200096 Si / 1000 Ang^3
#
#
#
# Elastic Constant Matrix: (Units=GPa)
#
#
# Indices 1 2 3 4 5 6 
#
# 1 42.4820 -3.8544 17.2650 0.0000 21.4181 0.0000
# 2 -3.8544 19.0602 0.2273 0.0000 1.8508 0.0000
# 3 17.2650 0.2273 69.9033 0.0000 16.4484 0.0000
# 4 0.0000 0.0000 0.0000 17.8528 0.0000 9.5907
# 5 21.4181 1.8508 16.4484 0.0000 25.8645 0.0000
# 6 0.0000 0.0000 0.0000 9.5907 0.0000 18.1464
#
#
#
# Elastic Compliance Matrix: (Units=1/GPa)
#
#
# Indices 1 2 3 4 5 6 
#
# 1 0.043438 0.012239 -0.002468 0.000000 -0.035277 0.000000
# 2 0.012239 0.056323 0.000150 0.000000 -0.014261 0.000000
# 3 -0.002468 0.000150 0.016976 0.000000 -0.008764 0.000000
# 4 0.000000 0.000000 0.000000 0.078223 0.000000 -0.041342
# 5 -0.035277 -0.014261 -0.008764 0.000000 0.074469 0.000000
# 6 0.000000 0.000000 0.000000 -0.041342 0.000000 0.076958
#
#
# Mechanical properties :
#
#
# Convention : Reuss Voigt Hill
#
# Bulk Modulus (GPa) = 7.32168 17.63570 12.47869
# Shear Modulus (GPa) = 13.43823 20.22659 16.83241
#
# Velocity S-wave (km/s) = 2.72023 3.33730 3.04444
# Velocity P-wave (km/s) = 3.72797 4.95591 4.38514
#
# Compressibility (1/GPa) = 0.13658071
#
# Stress axis : x y z
#
# Youngs Moduli (GPa) = 23.02110 17.75462 58.90499
#
# Poissons Ratio (x) = -0.21730 0.14535
# Poissons Ratio (y) = -0.28176 -0.00881
# Poissons Ratio (z) = 0.05680 -0.00265
#
# Static dielectric constant tensor:
#      x y z
#    x 1.612950 0.000000 0.019020 
#    y 0.000000 1.610650 0.000000 
#    z 0.019020 0.000000 1.657870 
# 
# From -- ./inp_files/52804.got.cif
#   From: 2010.05.17/outbox.cif.g08.bks.cpg/sg10_27_cif.got.tgz:52804.got - 2010.06.03 11:33:40.
