data_PCOD9143783
_publ_section_title
;
Structure prediction by ZEFSAII (Michael W. Deem and Ramdas Pophale) SiO2 
 PCOD9143783
Probable space group: P 2/M
;
_chemical_formula_sum "Si O2"
_cell_formula_units_Z 32
_cell_length_a 21.993301
_cell_length_b 7.564997
_cell_length_c 15.109608
_cell_angle_alpha 90.000000
_cell_angle_beta 34.868124
_cell_angle_gamma 90.000000
_cell_volume 1437.184722
_symmetry_space_group_name_H-M "P 2/M"
_symmetry_group_IT_number 10
_symmetry_cell_setting 'monoclinic'
loop_
_space_group_symop_operation_xyz
x,y,z
-x,y,-z
-x,-y,-z
x,-y,z
loop_
_atom_site_type_symbol
_atom_site_label
_atom_site_fract_x
_atom_site_fract_y
_atom_site_fract_z
Si Si1 0.909154 0.291601 0.739491
Si Si2 0.512672 0.783181 0.196243
Si Si3 0.763353 0.715637 0.078588
Si Si4 0.521343 0.201755 0.378895
Si Si5 0.721360 0.212201 0.846686
Si Si6 0.908205 0.204101 0.359695
Si Si7 0.317807 0.216415 0.305994
Si Si8 0.052796 0.704315 0.023540
O O1 0.924779 0.500000 0.728127
O O2 0.841482 0.257641 0.732235
O O3 0.022079 0.212405 0.633169
O O4 0.828144 0.232310 0.913635
O O5 0.483962 0.721062 0.329614
O O6 0.423507 0.730604 0.231866
O O7 0.514701 0.000000 0.196952
O O8 0.629706 0.724267 0.024103
O O9 0.755330 0.500000 0.088578
O O10 0.648138 0.796765 0.217579
O O11 0.835941 0.777302 0.073731
O O12 0.500000 0.286798 0.500000
O O13 0.479691 0.000000 0.433136
O O14 0.689905 0.274368 0.786476
O O15 0.715705 0.000000 0.853252
O O16 0.790525 0.274757 0.516706
O O17 0.973838 0.292233 0.202031
O O18 0.899215 0.000000 0.344716
O O19 0.317189 0.000000 0.305824
O O20 0.075710 0.500000 0.974470
O O21 0.000000 0.786481 0.000000
#
# Coordination Sequence:
#
# PCOD9143783 Si02
#       8
#     4   4   4   4   4   4   4   4
#     4  10  20  35  55  77 106 141 177 222 270 320
#     4   9  17  32  53  77 107 141 176 216 267 320
#     4   9  18  33  52  72  98 134 173 214 257 308
#     4  10  20  32  50  79 108 134 168 215 266 315
#     4  10  18  32  58  82 100 136 186 225 265 323
#     4  10  20  34  53  79 111 141 177 225 272 318
#     4   9  19  33  51  79 111 140 176 225 273 321
#     4   9  19  36  56  77 104 141 182 222 267 322
#
# _framework density 22.265753
#
# number of rings (size 3 to 8) (size 9 to 14) (size 15 to 20)
#    0.000    2.500    1.250    1.875    0.000    5.500 
#    0.000    5.000    0.000    5.250    0.000    0.000 
#    0.000    0.000    0.000    0.000    0.000    0.000 
#
# Total GULP energy -178570.013372 kJ/mol
# GULP energy per Si atom -5580.312918 kJ/mol
# Density = 2.221508 g / cm^3
# Si number density = 22.265753 Si / 1000 Ang^3
#
#
#
# Elastic Constant Matrix: (Units=GPa)
#
#
# Indices 1 2 3 4 5 6 
#
# 1 143.0202 -7.4538 0.0751 0.0000 8.6889 0.0000
# 2 -7.4538 50.3051 -9.3960 0.0000 1.7290 0.0000
# 3 0.0751 -9.3960 23.5355 0.0000 1.1800 0.0000
# 4 0.0000 0.0000 0.0000 10.6757 0.0000 -2.7061
# 5 8.6889 1.7290 1.1800 0.0000 36.9284 0.0000
# 6 0.0000 0.0000 0.0000 -2.7061 0.0000 -51.6123
#
#
#
# Elastic Compliance Matrix: (Units=1/GPa)
#
#
# Indices 1 2 3 4 5 6 
#
# 1 0.007163 0.001225 0.000555 0.000000 -0.001760 0.000000
# 2 0.001225 0.021751 0.008759 0.000000 -0.001587 0.000000
# 3 0.000555 0.008759 0.046085 0.000000 -0.002013 0.000000
# 4 0.000000 0.000000 0.000000 0.092442 0.000000 -0.004847
# 5 -0.001760 -0.001587 -0.002013 0.000000 0.027632 0.000000
# 6 0.000000 0.000000 0.000000 -0.004847 0.000000 -0.019121
#
#
# Mechanical properties :
#
#
# Convention : Reuss Voigt Hill
#
# Bulk Modulus (GPa) = 10.40835 20.36794 15.38814
# Shear Modulus (GPa) = 26.75247 14.77407 20.76327
#
# Velocity S-wave (km/s) = 3.47004 2.57871 3.05703
# Velocity P-wave (km/s) = 4.55408 4.24663 4.40304
#
# Compressibility (1/GPa) = 0.09607675
#
# Stress axis : x y z
#
# Youngs Moduli (GPa) = 139.61529 45.97526 21.69900
#
# Poissons Ratio (x) = -0.05634 -0.01203
# Poissons Ratio (y) = -0.17108 -0.19007
# Poissons Ratio (z) = -0.07743 -0.40271
#
# Static dielectric constant tensor:
#      x y z
#    x 1.851740 0.000000 0.026640 
#    y 0.000000 1.838660 0.000000 
#    z 0.026640 0.000000 1.791270 
# 
# From -- ./inp_files/69953.got.cif
#   From: 2010.05.17/outbox.cif.g08.bks.cpg/sg10_35_cif.got.tgz:69953.got - 2010.06.03 11:33:40.
