data_PCOD9143932
_publ_section_title
;
Structure prediction by ZEFSAII (Michael W. Deem and Ramdas Pophale) SiO2 
 PCOD9143932
Probable space group: P 2/M
;
_chemical_formula_sum "Si O2"
_cell_formula_units_Z 30
_cell_length_a 9.861499
_cell_length_b 17.215571
_cell_length_c 8.084557
_cell_angle_alpha 90.000000
_cell_angle_beta 104.656453
_cell_angle_gamma 90.000000
_cell_volume 1327.864513
_symmetry_space_group_name_H-M "P 2/M"
_symmetry_group_IT_number 10
_symmetry_cell_setting 'monoclinic'
loop_
_space_group_symop_operation_xyz
x,y,z
-x,y,-z
-x,-y,-z
x,-y,z
loop_
_atom_site_type_symbol
_atom_site_label
_atom_site_fract_x
_atom_site_fract_y
_atom_site_fract_z
Si Si1 0.210476 0.911092 0.025030
Si Si2 0.611372 0.241252 0.330241
Si Si3 0.196543 0.611985 0.223905
Si Si4 0.500000 0.145073 0.000000
Si Si5 0.220096 0.789828 0.318519
Si Si6 0.127031 0.387174 0.847979
Si Si7 0.908127 0.785963 0.242206
Si Si8 0.339288 0.415610 0.616079
O O1 0.361655 0.905166 0.982604
O O2 0.221590 0.861674 0.195648
O O3 0.170983 0.000000 0.037306
O O4 0.109360 0.861768 0.875587
O O5 0.644481 0.209405 0.522716
O O6 0.767925 0.224803 0.305261
O O7 0.581430 0.333734 0.330551
O O8 0.514273 0.198965 0.167543
O O9 0.220332 0.705011 0.235361
O O10 0.285742 0.585054 0.409825
O O11 0.034837 0.587728 0.209690
O O12 0.212300 0.587133 0.037388
O O13 0.066262 0.789633 0.358121
O O14 0.103986 0.294580 0.861239
O O15 0.209702 0.407710 0.706358
O O16 0.407697 0.500000 0.667822
#
# Coordination Sequence:
#
# PCOD9143932 Si02
#       8
#     4   4   4   2   4   4   4   4
#     4  11  22  36  59  87 117 147 183 239 292 336
#     4   9  20  38  61  81 108 155 199 236 280 340
#     4   9  17  29  48  74 111 154 194 225 269 339
#     4  10  23  44  61  78 106 150 202 236 283 350
#     4  10  18  33  57  88 115 149 190 232 277 346
#     4   9  16  29  48  73 109 159 196 220 265 343
#     4   9  17  33  56  84 120 151 190 223 275 349
#     4  10  20  32  49  79 113 144 189 247 296 333
#
# _framework density 22.592666999999999
#
# number of rings (size 3 to 8) (size 9 to 14) (size 15 to 20)
#    0.000    2.400    1.333    1.400    0.000    6.400 
#    0.000    5.667    0.000    4.000    0.000    1.867 
#    0.000    0.000    0.000    0.000    0.000    0.000 
#
# Total GULP energy -167282.202201 kJ/mol
# GULP energy per Si atom -5576.073407 kJ/mol
# Density = 2.254124 g / cm^3
# Si number density = 22.592667 Si / 1000 Ang^3
#
#
#
# Elastic Constant Matrix: (Units=GPa)
#
#
# Indices 1 2 3 4 5 6 
#
# 1 76.2057 7.9059 11.4414 0.0000 5.0316 0.0000
# 2 7.9059 191.7809 44.3138 0.0000 2.0817 0.0000
# 3 11.4414 44.3138 99.0968 0.0000 7.6469 0.0000
# 4 0.0000 0.0000 0.0000 22.0413 0.0000 1.4756
# 5 5.0316 2.0817 7.6469 0.0000 26.2463 0.0000
# 6 0.0000 0.0000 0.0000 1.4756 0.0000 -54.9332
#
#
#
# Elastic Compliance Matrix: (Units=1/GPa)
#
#
# Indices 1 2 3 4 5 6 
#
# 1 0.013484 -0.000236 -0.001282 0.000000 -0.002193 0.000000
# 2 -0.000236 0.005822 -0.002602 0.000000 0.000342 0.000000
# 3 -0.001282 -0.002602 0.011629 0.000000 -0.002936 0.000000
# 4 0.000000 0.000000 0.000000 0.045288 0.000000 0.001217
# 5 -0.002193 0.000342 -0.002936 0.000000 0.039349 0.000000
# 6 0.000000 0.000000 0.000000 0.001217 0.000000 -0.018171
#
#
# Mechanical properties :
#
#
# Convention : Reuss Voigt Hill
#
# Bulk Modulus (GPa) = 44.06373 54.93395 49.49884
# Shear Modulus (GPa) = 44.16692 18.89903 31.53297
#
# Velocity S-wave (km/s) = 4.42625 2.89539 3.73998
# Velocity P-wave (km/s) = 6.75782 5.96200 6.37234
#
# Compressibility (1/GPa) = 0.02269440
#
# Stress axis : x y z
#
# Youngs Moduli (GPa) = 74.16122 171.77327 85.98830
#
# Poissons Ratio (x) = 0.04050 0.11025
# Poissons Ratio (y) = 0.01749 0.22378
# Poissons Ratio (z) = 0.09509 0.44703
#
# Static dielectric constant tensor:
#      x y z
#    x 1.912820 0.000000 -0.049020 
#    y 0.000000 1.810860 0.000000 
#    z -0.049020 0.000000 1.866290 
# 
# From -- ./inp_files/25856.got.cif
#   From: 2010.05.17/outbox.cif.g08.bks.cpg/sg10_13_cif.got.tgz:25856.got - 2010.06.03 11:33:40.
