data_PCOD9143594
_publ_section_title
;
Structure prediction by ZEFSAII (Michael W. Deem and Ramdas Pophale) SiO2 
 PCOD9143594
Probable space group: P 2/M
;
_chemical_formula_sum "Si O2"
_cell_formula_units_Z 24
_cell_length_a 23.935319
_cell_length_b 7.623821
_cell_length_c 16.925566
_cell_angle_alpha 90.000000
_cell_angle_beta 156.838871
_cell_angle_gamma 90.000000
_cell_volume 1214.784419
_symmetry_space_group_name_H-M "P 2/M"
_symmetry_group_IT_number 10
_symmetry_cell_setting 'monoclinic'
loop_
_space_group_symop_operation_xyz
x,y,z
-x,y,-z
-x,-y,-z
x,-y,z
loop_
_atom_site_type_symbol
_atom_site_label
_atom_site_fract_x
_atom_site_fract_y
_atom_site_fract_z
Si Si1 0.336623 0.784690 0.286798
Si Si2 0.931424 0.704094 0.489866
Si Si3 0.178079 0.290723 0.407436
Si Si4 0.899807 0.203149 0.136898
Si Si5 0.658005 0.714803 0.225479
Si Si6 0.839437 0.209153 0.791081
O O1 0.500000 0.729641 0.500000
O O2 0.256343 0.724844 0.261814
O O3 0.334892 0.000000 0.283348
O O4 0.242574 0.726987 0.089381
O O5 0.902451 0.500000 0.434556
O O6 0.781482 0.777566 0.326349
O O7 0.000000 0.782592 0.500000
O O8 0.038497 0.711547 0.703609
O O9 0.163977 0.500000 0.394344
O O10 0.289763 0.233668 0.619289
O O11 0.219306 0.241883 0.372671
O O12 0.025047 0.215117 0.234118
O O13 0.877399 0.000000 0.127300
O O14 0.658173 0.500000 0.223672
O O15 0.500000 0.773724 0.000000
O O16 0.849494 0.000000 0.815499
O O17 0.000000 0.281490 0.000000
#
# Coordination Sequence:
#
# PCOD9143594 Si02
#       6
#     4   4   4   4   4   4
#     4   9  18  33  51  71  99 135 168 201 246 296
#     4   9  18  33  52  74  98 129 166 203 247 296
#     4  10  19  31  51  78 102 128 166 205 249 293
#     4  10  18  32  54  75  98 131 171 206 244 291
#     4   8  15  30  50  69  94 129 162 195 240 295
#     4  10  18  32  53  75  97 129 170 204 242 294
#
# _framework density 19.756591
#
# number of rings (size 3 to 8) (size 9 to 14) (size 15 to 20)
#    0.000    2.667    1.667    2.000    0.000    0.667 
#    3.000    0.000    0.000   16.000    0.000    0.000 
#    0.000    0.000    0.000    0.000    0.000    0.000 
#
# Total GULP energy -133858.029387 kJ/mol
# GULP energy per Si atom -5577.417891 kJ/mol
# Density = 1.971162 g / cm^3
# Si number density = 19.756591 Si / 1000 Ang^3
#
#
#
# Elastic Constant Matrix: (Units=GPa)
#
#
# Indices 1 2 3 4 5 6 
#
# 1 144.7284 -3.4320 78.4912 0.0000 6.2955 0.0000
# 2 -3.4320 36.5337 -1.3495 0.0000 7.8772 0.0000
# 3 78.4912 -1.3495 180.4119 0.0000 6.7609 0.0000
# 4 0.0000 0.0000 0.0000 11.6425 0.0000 -7.9709
# 5 6.2955 7.8772 6.7609 0.0000 15.8169 0.0000
# 6 0.0000 0.0000 0.0000 -7.9709 0.0000 16.6422
#
#
#
# Elastic Compliance Matrix: (Units=1/GPa)
#
#
# Indices 1 2 3 4 5 6 
#
# 1 0.009156 0.001283 -0.003875 0.000000 -0.002627 0.000000
# 2 0.001283 0.030963 0.000275 0.000000 -0.016049 0.000000
# 3 -0.003875 0.000275 0.007295 0.000000 -0.001713 0.000000
# 4 0.000000 0.000000 0.000000 0.127799 0.000000 0.061211
# 5 -0.002627 -0.016049 -0.001713 0.000000 0.072994 0.000000
# 6 0.000000 0.000000 0.000000 0.061211 0.000000 0.089406
#
#
# Mechanical properties :
#
#
# Convention : Reuss Voigt Hill
#
# Bulk Modulus (GPa) = 23.37569 56.56593 39.97081
# Shear Modulus (GPa) = 14.02493 28.01793 21.02143
#
# Velocity S-wave (km/s) = 2.66726 3.76993 3.26547
# Velocity P-wave (km/s) = 4.61987 6.90242 5.87310
#
# Compressibility (1/GPa) = 0.04277948
#
# Stress axis : x y z
#
# Youngs Moduli (GPa) = 109.21838 32.29655 137.07703
#
# Poissons Ratio (x) = -0.04145 0.53123
# Poissons Ratio (y) = -0.14017 -0.03765
# Poissons Ratio (z) = 0.42327 -0.00887
#
# Static dielectric constant tensor:
#      x y z
#    x 1.688840 0.000000 -0.004500 
#    y 0.000000 1.738470 0.000000 
#    z -0.004500 0.000000 1.684470 
# 
# From -- ./inp_files/72609.got.cif
#   From: 2010.05.17/outbox.cif.g08.bks.cpg/sg10_37_cif.got.tgz:72609.got - 2010.06.03 11:33:40.
