data_PCOD9143519
_publ_section_title
;
Structure prediction by ZEFSAII (Michael W. Deem and Ramdas Pophale) SiO2 
 PCOD9143519
Probable space group: P 2/M
;
_chemical_formula_sum "Si O2"
_cell_formula_units_Z 28
_cell_length_a 5.390082
_cell_length_b 29.240449
_cell_length_c 9.675806
_cell_angle_alpha 90.000000
_cell_angle_beta 62.515485
_cell_angle_gamma 90.000000
_cell_volume 1352.871558
_symmetry_space_group_name_H-M "P 2/M"
_symmetry_group_IT_number 10
_symmetry_cell_setting 'monoclinic'
loop_
_space_group_symop_operation_xyz
x,y,z
-x,y,-z
-x,-y,-z
x,-y,z
loop_
_atom_site_type_symbol
_atom_site_label
_atom_site_fract_x
_atom_site_fract_y
_atom_site_fract_z
Si Si1 0.132203 0.553731 0.164936
Si Si2 0.613873 0.590978 0.188370
Si Si3 0.170636 0.928094 0.092983
Si Si4 0.136891 0.741256 0.314032
Si Si5 0.196947 0.051990 0.557589
Si Si6 0.828187 0.818725 0.904489
Si Si7 0.357334 0.690443 0.689617
O O1 0.189660 0.500000 0.136982
O O2 0.296713 0.574551 0.251740
O O3 0.803004 0.562648 0.246312
O O4 0.252298 0.579186 0.996698
O O5 0.635452 0.643049 0.229816
O O6 0.148492 0.873280 0.120314
O O7 0.993427 0.950301 0.259758
O O8 0.500000 0.940050 0.000000
O O9 0.000000 0.939665 0.000000
O O10 0.087635 0.789163 0.249368
O O11 0.454384 0.725434 0.266518
O O12 0.000000 0.742596 0.500000
O O13 0.958423 0.706366 0.263859
O O14 0.500000 0.073593 0.500000
O O15 0.000000 0.077150 0.500000
O O16 0.255170 0.000000 0.489863
O O17 0.500000 0.808325 0.000000
O O18 0.000000 0.807096 0.000000
O O19 0.500000 0.685847 0.500000
#
# Coordination Sequence:
#
# PCOD9143519 Si02
#       7
#     4   4   4   4   4   4   4
#     4  10  19  33  53  74 103 134 164 213 262 307
#     4  10  18  32  50  75  99 129 167 205 258 307
#     4  10  21  37  59  83 118 156 198 243 300 367
#     4  10  21  39  57  77 106 149 186 219 273 341
#     4  10  21  37  57  86 122 156 199 255 304 348
#     4  10  21  39  56  84 114 146 185 243 292 327
#     4  10  21  37  55  75 106 140 176 219 262 316
#
# _framework density 20.696717
#
# number of rings (size 3 to 8) (size 9 to 14) (size 15 to 20)
#    0.000    2.000    0.000    4.714    0.000    1.143 
#   15.429    2.143    0.000    4.714    0.000    0.000 
#    0.000    0.000    0.000    0.000    0.000    0.000 
#
# Total GULP energy -156078.299809 kJ/mol
# GULP energy per Si atom -5574.224993 kJ/mol
# Density = 2.064961 g / cm^3
# Si number density = 20.696717 Si / 1000 Ang^3
#
#
#
# Elastic Constant Matrix: (Units=GPa)
#
#
# Indices 1 2 3 4 5 6 
#
# 1 217.2918 31.7004 40.1997 0.0000 17.2093 0.0000
# 2 31.7004 45.6368 23.7798 0.0000 12.0848 0.0000
# 3 40.1997 23.7798 39.9717 0.0000 10.0384 0.0000
# 4 0.0000 0.0000 0.0000 14.0445 0.0000 0.9551
# 5 17.2093 12.0848 10.0384 0.0000 23.5092 0.0000
# 6 0.0000 0.0000 0.0000 0.9551 0.0000 42.9684
#
#
#
# Elastic Compliance Matrix: (Units=1/GPa)
#
#
# Indices 1 2 3 4 5 6 
#
# 1 0.005769 -0.001109 -0.004732 0.000000 -0.001632 0.000000
# 2 -0.001109 0.033873 -0.016653 0.000000 -0.009489 0.000000
# 3 -0.004732 -0.016653 0.041067 0.000000 -0.005512 0.000000
# 4 0.000000 0.000000 0.000000 0.071310 0.000000 -0.001585
# 5 -0.001632 -0.009489 -0.005512 0.000000 0.050963 0.000000
# 6 0.000000 0.000000 0.000000 -0.001585 0.000000 0.023308
#
#
# Mechanical properties :
#
#
# Convention : Reuss Voigt Hill
#
# Bulk Modulus (GPa) = 27.99426 54.91778 41.45602
# Shear Modulus (GPa) = 17.65638 29.91912 23.78775
#
# Velocity S-wave (km/s) = 2.92396 3.80623 3.39388
# Velocity P-wave (km/s) = 4.99547 6.77559 5.95245
#
# Compressibility (1/GPa) = 0.03572161
#
# Stress axis : x y z
#
# Youngs Moduli (GPa) = 173.35301 29.52244 24.35016
#
# Poissons Ratio (x) = 0.03275 0.11522
# Poissons Ratio (y) = 0.19230 0.40549
# Poissons Ratio (z) = 0.82025 0.49162
#
# Static dielectric constant tensor:
#      x y z
#    x 1.796780 0.000000 0.003610 
#    y 0.000000 1.735410 0.000000 
#    z 0.003610 0.000000 1.514720 
# 
# From -- ./inp_files/15881.got.cif
#   From: 2010.05.17/outbox.cif.g08.bks.cpg/sg10_8_cif.got.tgz:15881.got - 2010.06.03 11:33:40.
