data_PCOD9143870
_publ_section_title
;
Structure prediction by ZEFSAII (Michael W. Deem and Ramdas Pophale) SiO2 
 PCOD9143870
Probable space group: P 2/M
;
_chemical_formula_sum "Si O2"
_cell_formula_units_Z 26
_cell_length_a 8.976988
_cell_length_b 17.453313
_cell_length_c 9.830995
_cell_angle_alpha 90.000000
_cell_angle_beta 91.437317
_cell_angle_gamma 90.000000
_cell_volume 1539.817784
_symmetry_space_group_name_H-M "P 2/M"
_symmetry_group_IT_number 10
_symmetry_cell_setting 'monoclinic'
loop_
_space_group_symop_operation_xyz
x,y,z
-x,y,-z
-x,-y,-z
x,-y,z
loop_
_atom_site_type_symbol
_atom_site_label
_atom_site_fract_x
_atom_site_fract_y
_atom_site_fract_z
Si Si1 0.754425 0.725943 0.215772
Si Si2 0.856441 0.084635 0.593088
Si Si3 0.967965 0.586701 0.160222
Si Si4 0.752732 0.685103 0.794739
Si Si5 0.035292 0.828498 0.149048
Si Si6 0.329420 0.233780 0.485222
Si Si7 0.500000 0.299727 0.000000
O O1 0.832374 0.644668 0.183810
O O2 0.883845 0.788629 0.197710
O O3 0.714173 0.727656 0.373428
O O4 0.613353 0.739796 0.112060
O O5 0.759883 0.155528 0.539239
O O6 0.000000 0.082278 0.500000
O O7 0.907762 0.108690 0.744947
O O8 0.786258 0.000000 0.589820
O O9 0.938103 0.500000 0.204270
O O10 0.120925 0.621150 0.223731
O O11 0.000000 0.586768 0.000000
O O12 0.694772 0.712575 0.646825
O O13 0.843107 0.759182 0.856713
O O14 0.621087 0.662616 0.897510
O O15 0.000000 0.859515 0.000000
O O16 0.500000 0.212976 0.500000
#
# Coordination Sequence:
#
# PCOD9143870 Si02
#       7
#     4   4   4   4   4   4   2
#     4  11  20  35  55  83 106 139 183 225 263 318
#     4  10  21  36  54  80 107 140 183 218 261 325
#     4  10  20  37  57  79 109 145 182 221 266 315
#     4  10  20  33  54  84 106 137 187 225 256 322
#     4  10  18  33  55  78 104 141 181 228 263 304
#     4  11  22  35  57  82 111 141 174 219 280 316
#     4  12  18  32  57  82 111 136 176 232 266 306
#
# _framework density 16.885116
#
# number of rings (size 3 to 8) (size 9 to 14) (size 15 to 20)
#    0.000    1.538    6.154    0.923    0.000    0.615 
#    0.000    3.077    0.000    0.923    0.000    4.308 
#    0.000    0.000    0.000    0.000    0.000    0.000 
#
# Total GULP energy -144798.220057 kJ/mol
# GULP energy per Si atom -5569.162310 kJ/mol
# Density = 1.684668 g / cm^3
# Si number density = 16.885116 Si / 1000 Ang^3
#
#
#
# Elastic Constant Matrix: (Units=GPa)
#
#
# Indices 1 2 3 4 5 6 
#
# 1 83.8185 17.5587 33.6186 0.0000 4.3772 0.0000
# 2 17.5587 77.4673 29.6642 0.0000 1.8376 0.0000
# 3 33.6186 29.6642 116.3524 0.0000 4.1481 0.0000
# 4 0.0000 0.0000 0.0000 14.6255 0.0000 1.4812
# 5 4.3772 1.8376 4.1481 0.0000 32.9187 0.0000
# 6 0.0000 0.0000 0.0000 1.4812 0.0000 9.0019
#
#
#
# Elastic Compliance Matrix: (Units=1/GPa)
#
#
# Indices 1 2 3 4 5 6 
#
# 1 0.013763 -0.001755 -0.003483 0.000000 -0.001293 0.000000
# 2 -0.001755 0.014533 -0.003192 0.000000 -0.000176 0.000000
# 3 -0.003483 -0.003192 0.010439 0.000000 -0.000674 0.000000
# 4 0.000000 0.000000 0.000000 0.069532 0.000000 -0.011441
# 5 -0.001293 -0.000176 -0.000674 0.000000 0.030645 0.000000
# 6 0.000000 0.000000 0.000000 -0.011441 0.000000 0.112970
#
#
# Mechanical properties :
#
#
# Convention : Reuss Voigt Hill
#
# Bulk Modulus (GPa) = 45.71514 48.81346 47.26430
# Shear Modulus (GPa) = 18.11382 24.42900 21.27141
#
# Velocity S-wave (km/s) = 3.27887 3.80778 3.55318
# Velocity P-wave (km/s) = 6.43954 6.95012 6.69969
#
# Compressibility (1/GPa) = 0.02187459
#
# Stress axis : x y z
#
# Youngs Moduli (GPa) = 72.66007 68.80956 95.79697
#
# Poissons Ratio (x) = 0.12076 0.33366
# Poissons Ratio (y) = 0.12752 0.30577
# Poissons Ratio (z) = 0.25308 0.21963
#
# Static dielectric constant tensor:
#      x y z
#    x 1.585320 0.000000 0.008970 
#    y 0.000000 1.555640 0.000000 
#    z 0.008970 0.000000 1.599360 
# 
# From -- ./inp_files/19618.got.cif
#   From: 2010.05.17/outbox.cif.g08.bks.cpg/sg10_10_cif.got.tgz:19618.got - 2010.06.03 11:33:40.
