data_PCOD9143248
_publ_section_title
;
Structure prediction by ZEFSAII (Michael W. Deem and Ramdas Pophale) SiO2 
 PCOD9143248
Probable space group: P 2/M
;
_chemical_formula_sum "Si O2"
_cell_formula_units_Z 32
_cell_length_a 11.345743
_cell_length_b 7.599208
_cell_length_c 22.749897
_cell_angle_alpha 90.000000
_cell_angle_beta 47.787194
_cell_angle_gamma 90.000000
_cell_volume 1452.768255
_symmetry_space_group_name_H-M "P 2/M"
_symmetry_group_IT_number 10
_symmetry_cell_setting 'monoclinic'
loop_
_space_group_symop_operation_xyz
x,y,z
-x,y,-z
-x,-y,-z
x,-y,z
loop_
_atom_site_type_symbol
_atom_site_label
_atom_site_fract_x
_atom_site_fract_y
_atom_site_fract_z
Si Si1 0.359408 0.205216 0.005987
Si Si2 0.177313 0.715251 0.456295
Si Si3 0.942113 0.793155 0.831343
Si Si4 0.282271 0.702307 0.675328
Si Si5 0.174169 0.292170 0.586901
Si Si6 0.534121 0.699194 0.157324
Si Si7 0.501865 0.283481 0.704906
Si Si8 0.179078 0.205703 0.260144
O O1 0.406713 0.213373 0.922221
O O2 0.346775 0.000000 0.027750
O O3 0.500000 0.282022 0.000000
O O4 0.184120 0.277547 0.079132
O O5 0.174138 0.500000 0.458059
O O6 0.222591 0.775779 0.506923
O O7 0.314322 0.767839 0.365239
O O8 0.000000 0.774596 0.500000
O O9 0.851591 0.777287 0.799307
O O10 0.111268 0.703381 0.764944
O O11 0.977326 0.000000 0.829732
O O12 0.332678 0.500000 0.648946
O O13 0.251992 0.782403 0.620632
O O14 0.406813 0.779092 0.679512
O O15 0.208229 0.500000 0.575836
O O16 0.983112 0.271537 0.655939
O O17 0.594107 0.500000 0.134805
O O18 0.571655 0.777284 0.208740
O O19 0.341872 0.699084 0.220532
O O20 0.495977 0.500000 0.708322
O O21 0.198991 0.000000 0.266789
#
# Coordination Sequence:
#
# PCOD9143248 Si02
#       8
#     4   4   4   4   4   4   4   4
#     4  10  19  35  54  76 106 135 165 205 261 317
#     4   9  16  28  49  76 107 137 167 209 263 311
#     4   9  18  33  53  74 100 133 166 204 254 312
#     4   9  18  33  52  74 102 134 176 220 252 292
#     4   9  17  29  50  79 101 129 177 221 251 295
#     4  11  21  32  50  76 104 134 174 213 254 307
#     4   9  19  34  50  72 105 142 171 209 263 308
#     4  10  18  31  50  73 104 139 167 203 262 316
#
# _framework density 22.026914000000001
#
# number of rings (size 3 to 8) (size 9 to 14) (size 15 to 20)
#    0.000    2.500    1.250    1.500    0.000    3.750 
#    0.000    4.375    0.000    8.625    0.000    3.500 
#    0.000    0.000    0.000    0.000    0.000    0.000 
#
# Total GULP energy -178566.057273 kJ/mol
# GULP energy per Si atom -5580.189290 kJ/mol
# Density = 2.197678 g / cm^3
# Si number density = 22.026914 Si / 1000 Ang^3
#
#
#
# Elastic Constant Matrix: (Units=GPa)
#
#
# Indices 1 2 3 4 5 6 
#
# 1 68.0276 3.6707 24.7645 0.0000 10.9164 0.0000
# 2 3.6707 45.3956 -3.3531 0.0000 2.5914 0.0000
# 3 24.7645 -3.3531 116.7644 0.0000 23.5393 0.0000
# 4 0.0000 0.0000 0.0000 33.0262 0.0000 -3.9581
# 5 10.9164 2.5914 23.5393 0.0000 19.2002 0.0000
# 6 0.0000 0.0000 0.0000 -3.9581 0.0000 -25.0953
#
#
#
# Elastic Compliance Matrix: (Units=1/GPa)
#
#
# Indices 1 2 3 4 5 6 
#
# 1 0.016628 -0.001135 -0.002237 0.000000 -0.006558 0.000000
# 2 -0.001135 0.022519 0.001820 0.000000 -0.004625 0.000000
# 3 -0.002237 0.001820 0.011801 0.000000 -0.013441 0.000000
# 4 0.000000 0.000000 0.000000 0.029717 0.000000 -0.004687
# 5 -0.006558 -0.004625 -0.013441 0.000000 0.072915 0.000000
# 6 0.000000 0.000000 0.000000 -0.004687 0.000000 -0.039109
#
#
# Mechanical properties :
#
#
# Convention : Reuss Voigt Hill
#
# Bulk Modulus (GPa) = 20.90215 31.15020 26.02617
# Shear Modulus (GPa) = 37.44668 19.09992 28.27330
#
# Velocity S-wave (km/s) = 4.12763 2.94788 3.58659
# Velocity P-wave (km/s) = 5.67683 5.07536 5.38450
#
# Compressibility (1/GPa) = 0.04784197
#
# Stress axis : x y z
#
# Youngs Moduli (GPa) = 60.13974 44.40731 84.74073
#
# Poissons Ratio (x) = 0.05042 0.18958
# Poissons Ratio (y) = 0.06828 -0.15421
# Poissons Ratio (z) = 0.13454 -0.08081
#
# Static dielectric constant tensor:
#      x y z
#    x 1.810770 0.000000 0.016000 
#    y 0.000000 1.824000 0.000000 
#    z 0.016000 0.000000 1.806730 
# 
# From -- ./inp_files/83569.got.cif
#   From: 2010.05.17/outbox.cif.g08.bks.cpg/sg10_42_cif.got.tgz:83569.got - 2010.06.03 11:33:40.
