data_PCOD9143983
_publ_section_title
;
Structure prediction by ZEFSAII (Michael W. Deem and Ramdas Pophale) SiO2 
 PCOD9143983
Probable space group: P 2/M
;
_chemical_formula_sum "Si O2"
_cell_formula_units_Z 28
_cell_length_a 18.138805
_cell_length_b 15.412619
_cell_length_c 6.219054
_cell_angle_alpha 90.000000
_cell_angle_beta 133.676674
_cell_angle_gamma 90.000000
_cell_volume 1257.467870
_symmetry_space_group_name_H-M "P 2/M"
_symmetry_group_IT_number 10
_symmetry_cell_setting 'monoclinic'
loop_
_space_group_symop_operation_xyz
x,y,z
-x,y,-z
-x,-y,-z
x,-y,z
loop_
_atom_site_type_symbol
_atom_site_label
_atom_site_fract_x
_atom_site_fract_y
_atom_site_fract_z
Si Si1 0.238613 0.598497 0.162971
Si Si2 0.830082 0.095858 0.905748
Si Si3 0.403364 0.718941 0.463218
Si Si4 0.612865 0.871346 0.239127
Si Si5 0.916418 0.403767 0.518304
Si Si6 0.871705 0.264115 0.749036
Si Si7 0.740452 0.828881 0.122685
O O1 0.221173 0.500000 0.199442
O O2 0.357202 0.624385 0.412593
O O3 0.180600 0.666149 0.199769
O O4 0.189880 0.604141 0.825711
O O5 0.712852 0.096395 0.574016
O O6 0.893332 0.176926 0.932594
O O7 0.815230 0.113390 0.129894
O O8 0.872605 0.000000 0.948822
O O9 0.500000 0.720044 0.500000
O O10 0.409010 0.777695 0.688669
O O11 0.312444 0.764042 0.147667
O O12 0.500000 0.910566 0.000000
O O13 0.651211 0.876434 0.071183
O O14 0.920177 0.500000 0.628127
O O15 0.936881 0.323059 0.714661
O O16 0.000000 0.402373 0.500000
O O17 0.794119 0.222851 0.420353
#
# Coordination Sequence:
#
# PCOD9143983 Si02
#       7
#     4   4   4   4   4   4   4
#     4  11  22  37  57  88 121 154 200 243 284 345
#     4  10  22  35  54  85 113 148 201 249 295 351
#     4  11  19  32  56  80 116 156 202 243 287 342
#     4  10  19  32  55  78 109 155 199 247 303 349
#     4  10  22  39  62  94 127 156 188 233 291 353
#     4  11  19  38  63  83 117 158 194 236 298 351
#     4  10  18  34  54  75 109 154 195 241 292 343
#
# _framework density 22.266970000000001
#
# number of rings (size 3 to 8) (size 9 to 14) (size 15 to 20)
#    0.000    1.571    7.143    0.429    0.000    3.429 
#    0.000    2.857    0.000    1.714    0.000    4.000 
#    0.000    0.000    0.000    0.000    0.000    0.000 
#
# Total GULP energy -155959.131748 kJ/mol
# GULP energy per Si atom -5569.968991 kJ/mol
# Density = 2.221629 g / cm^3
# Si number density = 22.266970 Si / 1000 Ang^3
#
#
#
# Elastic Constant Matrix: (Units=GPa)
#
#
# Indices 1 2 3 4 5 6 
#
# 1 92.5872 54.0950 -4.2279 0.0000 -22.8544 0.0000
# 2 54.0950 180.9546 22.7369 0.0000 -18.6255 0.0000
# 3 -4.2279 22.7369 59.4650 0.0000 -15.7180 0.0000
# 4 0.0000 0.0000 0.0000 -9.4522 0.0000 -2.1477
# 5 -22.8544 -18.6255 -15.7180 0.0000 32.0045 0.0000
# 6 0.0000 0.0000 0.0000 -2.1477 0.0000 20.9061
#
#
#
# Elastic Compliance Matrix: (Units=1/GPa)
#
#
# Indices 1 2 3 4 5 6 
#
# 1 0.016786 -0.004521 0.006200 0.000000 0.012401 0.000000
# 2 -0.004521 0.007222 -0.003247 0.000000 -0.000620 0.000000
# 3 0.006200 -0.003247 0.022029 0.000000 0.013357 0.000000
# 4 0.000000 0.000000 0.000000 -0.103382 0.000000 -0.010621
# 5 0.012401 -0.000620 0.013357 0.000000 0.046300 0.000000
# 6 0.000000 0.000000 0.000000 -0.010621 0.000000 0.046742
#
#
# Mechanical properties :
#
#
# Convention : Reuss Voigt Hill
#
# Bulk Modulus (GPa) = 23.30877 53.13498 38.22188
# Shear Modulus (GPa) = 94.10495 26.05187 60.07841
#
# Velocity S-wave (km/s) = 6.50799 3.42421 5.19995
# Velocity P-wave (km/s) = 8.18306 6.28873 7.29762
#
# Compressibility (1/GPa) = 0.04290230
#
# Stress axis : x y z
#
# Youngs Moduli (GPa) = 59.57339 138.46978 45.39415
#
# Poissons Ratio (x) = 0.62597 -0.28143
# Poissons Ratio (y) = 0.26931 0.14737
# Poissons Ratio (z) = -0.36934 0.44955
#
# Static dielectric constant tensor:
#      x y z
#    x 1.930040 0.000000 0.047010 
#    y 0.000000 1.878910 0.000000 
#    z 0.047010 0.000000 1.861290 
# 
# From -- ./inp_files/11460.got.cif
#   From: 2010.05.17/outbox.cif.g08.bks.cpg/sg10_6_cif.got.tgz:11460.got - 2010.06.03 11:33:40.
