data_PCOD9143930
_publ_section_title
;
Structure prediction by ZEFSAII (Michael W. Deem and Ramdas Pophale) SiO2 
 PCOD9143930
Probable space group: P 2/M
;
_chemical_formula_sum "Si O2"
_cell_formula_units_Z 32
_cell_length_a 15.134398
_cell_length_b 11.225099
_cell_length_c 15.080490
_cell_angle_alpha 90.000000
_cell_angle_beta 141.057199
_cell_angle_gamma 90.000000
_cell_volume 1610.299424
_symmetry_space_group_name_H-M "P 2/M"
_symmetry_group_IT_number 10
_symmetry_cell_setting 'monoclinic'
loop_
_space_group_symop_operation_xyz
x,y,z
-x,y,-z
-x,-y,-z
x,-y,z
loop_
_atom_site_type_symbol
_atom_site_label
_atom_site_fract_x
_atom_site_fract_y
_atom_site_fract_z
Si Si1 0.303523 0.639173 0.190718
Si Si2 0.878289 0.641866 0.785360
Si Si3 0.017801 0.136831 0.797346
Si Si4 0.667943 0.368383 0.140090
Si Si5 0.936326 0.867792 0.537860
Si Si6 0.318830 0.212816 0.022037
Si Si7 0.614580 0.636908 0.447194
Si Si8 0.638416 0.212086 0.287707
O O1 0.292512 0.500000 0.161830
O O2 0.176683 0.666514 0.158073
O O3 0.311158 0.707513 0.104506
O O4 0.455269 0.658244 0.356349
O O5 0.926692 0.500000 0.818044
O O6 0.738173 0.648858 0.614530
O O7 0.973388 0.752665 0.826407
O O8 0.968151 0.179201 0.660558
O O9 0.962559 0.000000 0.771700
O O10 0.186263 0.127867 0.927231
O O11 0.732081 0.500000 0.188314
O O12 0.683418 0.303170 0.245432
O O13 0.500000 0.380263 0.000000
O O14 0.710129 0.290118 0.088722
O O15 0.769553 0.874935 0.395509
O O16 0.000000 0.806158 0.500000
O O17 0.001753 0.000000 0.591510
O O18 0.480256 0.166682 0.143513
O O19 0.617787 0.500000 0.417903
O O20 0.634292 0.721233 0.378458
#
# Coordination Sequence:
#
# PCOD9143930 Si02
#       8
#     4   4   4   4   4   4   4   4
#     4   9  18  33  57  87 117 152 193 241 292 341
#     4  10  20  36  60  88 117 151 197 244 289 346
#     4  11  24  42  59  81 120 160 192 238 302 349
#     4   9  17  30  51  81 118 151 181 229 293 345
#     4  10  21  38  59  80 108 149 193 236 287 348
#     4  10  21  35  55  82 113 155 199 239 276 346
#     4   9  16  30  55  87 119 147 185 238 292 345
#     4  10  18  33  57  85 112 147 193 236 288 343
#
# _framework density 19.872078999999999
#
# number of rings (size 3 to 8) (size 9 to 14) (size 15 to 20)
#    0.000    2.250    1.250    1.875    0.000    6.500 
#    0.000    2.500    0.000    8.625    0.000    0.000 
#    0.000    0.000    0.000    0.000    0.000    0.000 
#
# Total GULP energy -178162.635178 kJ/mol
# GULP energy per Si atom -5567.582349 kJ/mol
# Density = 1.982685 g / cm^3
# Si number density = 19.872079 Si / 1000 Ang^3
#
#
#
# Elastic Constant Matrix: (Units=GPa)
#
#
# Indices 1 2 3 4 5 6 
#
# 1 100.8132 54.7121 32.3234 0.0000 2.1961 0.0000
# 2 54.7121 74.5506 10.8094 0.0000 7.5704 0.0000
# 3 32.3234 10.8094 52.3705 0.0000 15.8113 0.0000
# 4 0.0000 0.0000 0.0000 8.2192 0.0000 17.9812
# 5 2.1961 7.5704 15.8113 0.0000 35.8285 0.0000
# 6 0.0000 0.0000 0.0000 17.9812 0.0000 -20.7866
#
#
#
# Elastic Compliance Matrix: (Units=1/GPa)
#
#
# Indices 1 2 3 4 5 6 
#
# 1 0.022015 -0.015068 -0.012728 0.000000 0.007451 0.000000
# 2 -0.015068 0.024256 0.006417 0.000000 -0.007034 0.000000
# 3 -0.012728 0.006417 0.029765 0.000000 -0.013711 0.000000
# 4 0.000000 0.000000 0.000000 0.042063 0.000000 0.036386
# 5 0.007451 -0.007034 -0.013711 0.000000 0.034991 0.000000
# 6 0.000000 0.000000 0.000000 0.036386 0.000000 -0.016632
#
#
# Mechanical properties :
#
#
# Convention : Reuss Voigt Hill
#
# Bulk Modulus (GPa) = 30.04835 47.04714 38.54775
# Shear Modulus (GPa) = 26.27300 13.31152 19.79226
#
# Velocity S-wave (km/s) = 3.64002 2.59097 3.15934
# Velocity P-wave (km/s) = 5.72888 5.71640 5.72264
#
# Compressibility (1/GPa) = 0.03327969
#
# Stress axis : x y z
#
# Youngs Moduli (GPa) = 45.42261 41.22705 33.59600
#
# Poissons Ratio (x) = 0.62122 0.42760
# Poissons Ratio (y) = 0.68444 -0.21559
# Poissons Ratio (z) = 0.57812 -0.26456
#
# Static dielectric constant tensor:
#      x y z
#    x 1.734590 0.000000 -0.005160 
#    y 0.000000 1.289030 0.000000 
#    z -0.005160 0.000000 1.777350 
# 
# From -- ./inp_files/67363.got.cif
#   From: 2010.05.17/outbox.cif.g08.bks.cpg/sg10_34_cif.got.tgz:67363.got - 2010.06.03 11:33:40.
