data_PCOD9143805
_publ_section_title
;
Structure prediction by ZEFSAII (Michael W. Deem and Ramdas Pophale) SiO2 
 PCOD9143805
Probable space group: P 2/M
;
_chemical_formula_sum "Si O2"
_cell_formula_units_Z 22
_cell_length_a 11.294489
_cell_length_b 12.659817
_cell_length_c 7.655460
_cell_angle_alpha 90.000000
_cell_angle_beta 111.771873
_cell_angle_gamma 90.000000
_cell_volume 1016.543102
_symmetry_space_group_name_H-M "P 2/M"
_symmetry_group_IT_number 10
_symmetry_cell_setting 'monoclinic'
loop_
_space_group_symop_operation_xyz
x,y,z
-x,y,-z
-x,-y,-z
x,-y,z
loop_
_atom_site_type_symbol
_atom_site_label
_atom_site_fract_x
_atom_site_fract_y
_atom_site_fract_z
Si Si1 0.028697 0.772905 0.725905
Si Si2 0.808004 0.621356 0.685170
Si Si3 0.058053 0.000000 0.336177
Si Si4 0.500000 0.312996 0.000000
Si Si5 0.232471 0.614806 0.755352
Si Si6 0.398432 0.775408 0.287945
Si Si7 0.656031 0.000000 0.635846
O O1 0.164997 0.715912 0.805908
O O2 0.000000 0.772729 0.500000
O O3 0.933283 0.692081 0.765869
O O4 0.998655 0.891096 0.772703
O O5 0.824000 0.500000 0.745529
O O6 0.774263 0.623964 0.458895
O O7 0.698161 0.679989 0.730898
O O8 0.000000 0.000000 0.500000
O O9 0.214969 0.000000 0.418135
O O10 0.622594 0.381872 0.108454
O O11 0.472010 0.240688 0.150192
O O12 0.172644 0.500000 0.766695
O O13 0.500000 0.771930 0.500000
O O14 0.331077 0.889136 0.258292
O O15 0.500000 0.000000 0.500000
#
# Coordination Sequence:
#
# PCOD9143805 Si02
#       7
#     4   4   2   2   4   4   2
#     4   9  18  33  59  94 128 165 219 264 326 384
#     4  10  19  35  62  91 127 169 214 262 321 388
#     4  10  18  32  64  99 131 172 222 276 327 391
#     4  12  25  41  66  94 132 171 215 274 328 400
#     4  10  21  38  61  94 132 170 215 271 325 391
#     4  11  23  42  64  94 131 169 218 262 329 387
#     4  10  22  39  68  98 136 175 219 276 325 396
#
# _framework density 21.641973
#
# number of rings (size 3 to 8) (size 9 to 14) (size 15 to 20)
#    0.000    1.818    3.636    0.818    0.000    4.364 
#    0.000    1.818    0.000    3.273    0.000    0.000 
#    0.000    0.000    0.000    0.000    0.000    0.000 
#
# Total GULP energy -122748.537304 kJ/mol
# GULP energy per Si atom -5579.478968 kJ/mol
# Density = 2.159272 g / cm^3
# Si number density = 21.641973 Si / 1000 Ang^3
#
#
#
# Elastic Constant Matrix: (Units=GPa)
#
#
# Indices 1 2 3 4 5 6 
#
# 1 131.9995 76.5001 29.7553 0.0000 -5.8171 0.0000
# 2 76.5001 212.3488 26.0458 0.0000 -5.9628 0.0000
# 3 29.7553 26.0458 62.0838 0.0000 -12.4282 0.0000
# 4 0.0000 0.0000 0.0000 13.0984 0.0000 1.2572
# 5 -5.8171 -5.9628 -12.4282 0.0000 36.0276 0.0000
# 6 0.0000 0.0000 0.0000 1.2572 0.0000 39.9650
#
#
#
# Elastic Compliance Matrix: (Units=1/GPa)
#
#
# Indices 1 2 3 4 5 6 
#
# 1 0.010268 -0.003264 -0.003575 0.000000 -0.000116 0.000000
# 2 -0.003264 0.006003 -0.000924 0.000000 0.000148 0.000000
# 3 -0.003575 -0.000924 0.019402 0.000000 0.005963 0.000000
# 4 0.000000 0.000000 0.000000 0.076576 0.000000 -0.002409
# 5 -0.000116 0.000148 0.005963 0.000000 0.029819 0.000000
# 6 0.000000 0.000000 0.000000 -0.002409 0.000000 0.025098
#
#
# Mechanical properties :
#
#
# Convention : Reuss Voigt Hill
#
# Bulk Modulus (GPa) = 49.63735 74.55940 62.09837
# Shear Modulus (GPa) = 26.39796 36.09359 31.24577
#
# Velocity S-wave (km/s) = 3.49629 4.08825 3.80380
# Velocity P-wave (km/s) = 6.26771 7.53732 6.93164
#
# Compressibility (1/GPa) = 0.02014612
#
# Stress axis : x y z
#
# Youngs Moduli (GPa) = 97.38803 166.59423 51.54052
#
# Poissons Ratio (x) = 0.54375 0.18426
# Poissons Ratio (y) = 0.31787 0.04764
# Poissons Ratio (z) = 0.34818 0.15400
#
# Static dielectric constant tensor:
#      x y z
#    x 1.789680 0.000000 -0.004080 
#    y 0.000000 1.796880 0.000000 
#    z -0.004080 0.000000 1.797660 
# 
# From -- ./inp_files/24193.got.cif
#   From: 2010.05.17/outbox.cif.g08.bks.cpg/sg10_13_cif.got.tgz:24193.got - 2010.06.03 11:33:40.
