data_PCOD9143234
_publ_section_title
;
Structure prediction by ZEFSAII (Michael W. Deem and Ramdas Pophale) SiO2 
 PCOD9143234
Probable space group: P 2/M
;
_chemical_formula_sum "Si O2"
_cell_formula_units_Z 32
_cell_length_a 18.476751
_cell_length_b 9.718846
_cell_length_c 10.406087
_cell_angle_alpha 90.000000
_cell_angle_beta 118.974222
_cell_angle_gamma 90.000000
_cell_volume 1634.764767
_symmetry_space_group_name_H-M "P 2/M"
_symmetry_group_IT_number 10
_symmetry_cell_setting 'monoclinic'
loop_
_space_group_symop_operation_xyz
x,y,z
-x,y,-z
-x,-y,-z
x,-y,z
loop_
_atom_site_type_symbol
_atom_site_label
_atom_site_fract_x
_atom_site_fract_y
_atom_site_fract_z
Si Si1 0.926201 0.344605 0.545178
Si Si2 0.040071 0.151462 0.787215
Si Si3 0.268680 0.337312 0.255161
Si Si4 0.473040 0.661527 0.124527
Si Si5 0.689192 0.164861 0.962162
Si Si6 0.904818 0.652370 0.960698
Si Si7 0.429525 0.665913 0.541529
Si Si8 0.819290 0.152626 0.300987
O O1 0.911581 0.500000 0.575574
O O2 0.843872 0.273070 0.419273
O O3 0.000000 0.351316 0.500000
O O4 0.964148 0.248641 0.687367
O O5 0.096619 0.139803 0.710014
O O6 0.013916 0.000000 0.806094
O O7 0.097006 0.225240 0.939816
O O8 0.285040 0.500000 0.242181
O O9 0.280468 0.246979 0.137396
O O10 0.170858 0.329062 0.203081
O O11 0.338072 0.291211 0.416834
O O12 0.449639 0.500000 0.129404
O O13 0.398171 0.765432 0.082136
O O14 0.542898 0.699641 0.289995
O O15 0.500000 0.669694 0.000000
O O16 0.685504 0.000000 0.936475
O O17 0.748292 0.185537 0.137013
O O18 0.891144 0.500000 0.009076
O O19 0.000000 0.653002 0.000000
O O20 0.500000 0.713826 0.500000
O O21 0.430087 0.500000 0.535991
O O22 0.803577 0.000000 0.344334
#
# Coordination Sequence:
#
# PCOD9143234 Si02
#       8
#     4   4   4   4   4   4   4   4
#     4   9  17  28  45  71  99 130 173 224 270 320
#     4  10  18  31  50  70  99 139 179 224 284 344
#     4  10  19  34  58  82 110 149 192 242 295 349
#     4  10  21  38  59  85 119 155 195 238 291 362
#     4  11  21  34  55  84 117 148 189 241 294 352
#     4  10  21  35  51  76 109 144 187 241 297 349
#     4   9  16  31  58  88 113 144 192 244 290 347
#     4   9  18  31  47  72 104 137 174 223 276 337
#
# _framework density 19.574681999999999
#
# number of rings (size 3 to 8) (size 9 to 14) (size 15 to 20)
#    0.000    2.250    2.500    1.125    0.000    3.500 
#    0.000    2.500    0.000    3.000    0.000    0.000 
#    0.000    0.000    0.000    0.000    0.000    0.000 
#
# Total GULP energy -178232.198867 kJ/mol
# GULP energy per Si atom -5569.756215 kJ/mol
# Density = 1.953013 g / cm^3
# Si number density = 19.574682 Si / 1000 Ang^3
#
#
#
# Elastic Constant Matrix: (Units=GPa)
#
#
# Indices 1 2 3 4 5 6 
#
# 1 51.5632 19.6905 42.7584 0.0000 19.0129 0.0000
# 2 19.6905 105.7789 71.7998 0.0000 19.9076 0.0000
# 3 42.7584 71.7998 167.5362 0.0000 36.0450 0.0000
# 4 0.0000 0.0000 0.0000 254.4146 0.0000 9.9838
# 5 19.0129 19.9076 36.0450 0.0000 28.5419 0.0000
# 6 0.0000 0.0000 0.0000 9.9838 0.0000 11.5922
#
#
#
# Elastic Compliance Matrix: (Units=1/GPa)
#
#
# Indices 1 2 3 4 5 6 
#
# 1 0.027770 0.000277 -0.004373 0.000000 -0.013170 0.000000
# 2 0.000277 0.013507 -0.005208 0.000000 -0.003029 0.000000
# 3 -0.004373 -0.005208 0.010859 0.000000 -0.007168 0.000000
# 4 0.000000 0.000000 0.000000 0.004068 0.000000 -0.003504
# 5 -0.013170 -0.003029 -0.007168 0.000000 0.054975 0.000000
# 6 0.000000 0.000000 0.000000 -0.003504 0.000000 0.089283
#
#
# Mechanical properties :
#
#
# Convention : Reuss Voigt Hill
#
# Bulk Modulus (GPa) = 29.82437 65.93064 47.87751
# Shear Modulus (GPa) = 21.71607 71.61837 46.66722
#
# Velocity S-wave (km/s) = 3.33437 6.05530 4.88798
# Velocity P-wave (km/s) = 5.48574 9.09085 7.50789
#
# Compressibility (1/GPa) = 0.03352962
#
# Stress axis : x y z
#
# Youngs Moduli (GPa) = 36.01010 74.03600 92.08975
#
# Poissons Ratio (x) = -0.02054 0.40269
# Poissons Ratio (y) = -0.00999 0.47958
# Poissons Ratio (z) = 0.15747 0.38556
#
# Static dielectric constant tensor:
#      x y z
#    x 1.717790 0.000000 -0.006130 
#    y 0.000000 1.692300 0.000000 
#    z -0.006130 0.000000 1.710030 
# 
# From -- ./inp_files/55391.got.cif
#   From: 2010.05.17/outbox.cif.g08.bks.cpg/sg10_28_cif.got.tgz:55391.got - 2010.06.03 11:33:40.
