data_PCOD9143754
_publ_section_title
;
Structure prediction by ZEFSAII (Michael W. Deem and Ramdas Pophale) SiO2 
 PCOD9143754
Probable space group: P 2/M
;
_chemical_formula_sum "Si O2"
_cell_formula_units_Z 32
_cell_length_a 32.101757
_cell_length_b 7.829907
_cell_length_c 12.735988
_cell_angle_alpha 90.000000
_cell_angle_beta 152.293705
_cell_angle_gamma 90.000000
_cell_volume 1488.381707
_symmetry_space_group_name_H-M "P 2/M"
_symmetry_group_IT_number 10
_symmetry_cell_setting 'monoclinic'
loop_
_space_group_symop_operation_xyz
x,y,z
-x,y,-z
-x,-y,-z
x,-y,z
loop_
_atom_site_type_symbol
_atom_site_label
_atom_site_fract_x
_atom_site_fract_y
_atom_site_fract_z
Si Si1 0.206033 0.800712 0.621421
Si Si2 0.402864 0.298418 0.548191
Si Si3 0.078643 0.290686 0.899789
Si Si4 0.144634 0.695446 0.261047
Si Si5 0.337675 0.199964 0.629037
Si Si6 0.105203 0.696916 0.598968
Si Si7 0.223263 0.708251 0.053476
Si Si8 0.403196 0.794956 0.996772
O O1 0.155076 0.783376 0.396569
O O2 0.157472 0.703295 0.605961
O O3 0.308061 0.737646 0.831604
O O4 0.209047 0.000000 0.656576
O O5 0.390045 0.500000 0.531673
O O6 0.383154 0.220285 0.618546
O O7 0.325622 0.234717 0.296916
O O8 0.505509 0.266871 0.747793
O O9 0.075613 0.500000 0.897382
O O10 0.992272 0.227799 0.643302
O O11 0.082964 0.231858 0.030262
O O12 0.166998 0.244738 0.031624
O O13 0.118566 0.500000 0.223303
O O14 0.244311 0.701189 0.432504
O O15 0.399388 0.254107 0.864876
O O16 0.315740 0.000000 0.596613
O O17 0.088236 0.500000 0.592247
O O18 0.167823 0.772269 0.829459
O O19 0.224682 0.500000 0.049817
O O20 0.404076 0.000000 0.003665
#
# Coordination Sequence:
#
# PCOD9143754 Si02
#       8
#     4   4   4   4   4   4   4   4
#     4  10  22  40  56  75 112 149 182 225 272 322
#     4  11  20  31  52  82 111 139 176 226 274 318
#     4   9  17  32  57  87 113 137 174 227 277 322
#     4  10  18  32  56  84 113 141 179 226 270 320
#     4  10  19  32  50  76 113 150 179 212 266 328
#     4  10  20  36  61  82 102 144 191 226 267 320
#     4   9  18  34  55  84 115 139 175 227 276 319
#     4   9  20  36  52  72 103 145 183 217 266 327
#
# _framework density 21.499862
#
# number of rings (size 3 to 8) (size 9 to 14) (size 15 to 20)
#    0.000    2.250    1.250    3.000    0.000    6.500 
#    0.000    5.625    0.000    4.500    0.000    0.000 
#    0.000    0.000    0.000    0.000    0.000    0.000 
#
# Total GULP energy -178631.965170 kJ/mol
# GULP energy per Si atom -5582.248912 kJ/mol
# Density = 2.145093 g / cm^3
# Si number density = 21.499862 Si / 1000 Ang^3
#
#
#
# Elastic Constant Matrix: (Units=GPa)
#
#
# Indices 1 2 3 4 5 6 
#
# 1 77.4945 -15.1615 46.9524 0.0000 20.6468 0.0000
# 2 -15.1615 35.0666 -2.5083 0.0000 -4.5895 0.0000
# 3 46.9524 -2.5083 176.8153 0.0000 10.8321 0.0000
# 4 0.0000 0.0000 0.0000 62.3365 0.0000 -11.3836
# 5 20.6468 -4.5895 10.8321 0.0000 44.7959 0.0000
# 6 0.0000 0.0000 0.0000 -11.3836 0.0000 9.9607
#
#
#
# Elastic Compliance Matrix: (Units=1/GPa)
#
#
# Indices 1 2 3 4 5 6 
#
# 1 0.018797 0.006907 -0.004472 0.000000 -0.006874 0.000000
# 2 0.006907 0.031452 -0.001411 0.000000 0.000380 0.000000
# 3 -0.004472 -0.001411 0.006807 0.000000 0.000271 0.000000
# 4 0.000000 0.000000 0.000000 0.020273 0.000000 0.023169
# 5 -0.006874 0.000380 0.000271 0.000000 0.025465 0.000000
# 6 0.000000 0.000000 0.000000 0.023169 0.000000 0.126873
#
#
# Mechanical properties :
#
#
# Convention : Reuss Voigt Hill
#
# Bulk Modulus (GPa) = 16.91950 38.66018 27.78984
# Shear Modulus (GPa) = 20.21665 40.75821 30.48743
#
# Velocity S-wave (km/s) = 3.06978 4.35874 3.76976
# Velocity P-wave (km/s) = 4.52233 6.58423 5.64816
#
# Compressibility (1/GPa) = 0.05910341
#
# Stress axis : x y z
#
# Youngs Moduli (GPa) = 53.20070 31.79405 146.91636
#
# Poissons Ratio (x) = -0.21961 0.65705
# Poissons Ratio (y) = -0.36748 0.20735
# Poissons Ratio (z) = 0.23793 0.04487
#
# Static dielectric constant tensor:
#      x y z
#    x 1.736920 0.000000 -0.006110 
#    y 0.000000 1.802120 0.000000 
#    z -0.006110 0.000000 1.826660 
# 
# From -- ./inp_files/58346.got.cif
#   From: 2010.05.17/outbox.cif.g08.bks.cpg/sg10_30_cif.got.tgz:58346.got - 2010.06.03 11:33:40.
