data_PCOD9143456
_publ_section_title
;
Structure prediction by ZEFSAII (Michael W. Deem and Ramdas Pophale) SiO2 
 PCOD9143456
Probable space group: P 2/M
;
_chemical_formula_sum "Si O2"
_cell_formula_units_Z 32
_cell_length_a 14.892424
_cell_length_b 20.972306
_cell_length_c 9.921963
_cell_angle_alpha 90.000000
_cell_angle_beta 138.109779
_cell_angle_gamma 90.000000
_cell_volume 2069.160320
_symmetry_space_group_name_H-M "P 2/M"
_symmetry_group_IT_number 10
_symmetry_cell_setting 'monoclinic'
loop_
_space_group_symop_operation_xyz
x,y,z
-x,y,-z
-x,-y,-z
x,-y,z
loop_
_atom_site_type_symbol
_atom_site_label
_atom_site_fract_x
_atom_site_fract_y
_atom_site_fract_z
Si Si1 0.484185 0.847228 0.328181
Si Si2 0.515815 0.652772 0.171819
Si Si3 0.623443 0.574773 0.535223
Si Si4 0.844026 0.179774 0.345408
Si Si5 0.719743 0.265358 0.972245
Si Si6 0.376557 0.925227 0.964777
Si Si7 0.280257 0.765358 0.527755
Si Si8 0.844026 0.320226 0.845408
O O1 0.500000 0.866951 0.500000
O O2 0.380976 0.787460 0.204078
O O3 0.624223 0.820497 0.425402
O O4 0.426567 0.901346 0.166329
O O5 0.573434 0.598655 0.333671
O O6 0.375777 0.679503 0.074598
O O7 0.619024 0.712540 0.295921
O O8 0.500000 0.633049 0.000000
O O9 0.500000 0.586900 0.500000
O O10 0.654682 0.500000 0.571615
O O11 0.748450 0.618635 0.717215
O O12 0.748450 0.118635 0.217215
O O13 0.813178 0.208149 0.458386
O O14 0.000000 0.164859 0.500000
O O15 0.798158 0.231055 0.181133
O O16 0.813177 0.291851 0.958385
O O17 0.345318 0.000000 0.928385
O O18 0.500000 0.913100 0.000000
O O19 0.201842 0.731055 0.318868
O O20 0.000000 0.335141 0.000000
#
# Coordination Sequence:
#
# PCOD9143456 Si02
#       8
#     4   4   4   4   4   4   4   4
#     4  10  18  31  55  77 103 134 165 214 255 299
#     4  10  18  31  55  77 103 134 165 214 255 299
#     4  10  21  36  54  75 100 136 181 214 244 295
#     4  11  21  34  53  78 108 137 165 207 259 308
#     4  10  19  31  50  82 106 130 168 203 260 312
#     4  10  21  36  54  75 100 136 181 214 244 295
#     4  10  19  31  50  82 106 130 168 203 260 312
#     4  11  21  34  53  78 108 137 165 207 259 308
#
# _framework density 15.465211
#
# number of rings (size 3 to 8) (size 9 to 14) (size 15 to 20)
#    0.000    1.750    5.000    0.750    0.000    1.000 
#    0.000    0.000    0.000    0.000    0.000    1.750 
#    0.000    0.000    0.000    0.000    0.000    0.000 
#
# Total GULP energy -178557.036687 kJ/mol
# GULP energy per Si atom -5579.907396 kJ/mol
# Density = 1.543001 g / cm^3
# Si number density = 15.465211 Si / 1000 Ang^3
#
#
#
# Elastic Constant Matrix: (Units=GPa)
#
#
# Indices 1 2 3 4 5 6 
#
# 1 133.2737 58.5215 53.5269 0.0000 0.2933 0.0000
# 2 58.5215 79.0773 39.3242 0.0000 7.6104 0.0000
# 3 53.5269 39.3242 64.5143 0.0000 3.7988 0.0000
# 4 0.0000 0.0000 0.0000 4.2230 0.0000 -2.0432
# 5 0.2933 7.6104 3.7988 0.0000 35.5461 0.0000
# 6 0.0000 0.0000 0.0000 -2.0432 0.0000 18.0690
#
#
#
# Elastic Compliance Matrix: (Units=1/GPa)
#
#
# Indices 1 2 3 4 5 6 
#
# 1 0.013180 -0.006388 -0.007161 0.000000 0.002024 0.000000
# 2 -0.006388 0.021507 -0.007590 0.000000 -0.003741 0.000000
# 3 -0.007161 -0.007590 0.026133 0.000000 -0.001109 0.000000
# 4 0.000000 0.000000 0.000000 0.250504 0.000000 0.028327
# 5 0.002024 -0.003741 -0.001109 0.000000 0.029035 0.000000
# 6 0.000000 0.000000 0.000000 0.028327 0.000000 0.058547
#
#
# Mechanical properties :
#
#
# Convention : Reuss Voigt Hill
#
# Bulk Modulus (GPa) = 53.92518 64.40119 59.16319
# Shear Modulus (GPa) = 11.17659 19.93378 15.55519
#
# Velocity S-wave (km/s) = 2.69121 3.59408 3.17490
# Velocity P-wave (km/s) = 6.67841 7.67830 7.19574
#
# Compressibility (1/GPa) = 0.01854421
#
# Stress axis : x y z
#
# Youngs Moduli (GPa) = 75.87415 46.49600 38.26547
#
# Poissons Ratio (x) = 0.29699 0.27401
# Poissons Ratio (y) = 0.48465 0.29042
# Poissons Ratio (z) = 0.54332 0.35289
#
# Static dielectric constant tensor:
#      x y z
#    x 1.501360 0.000000 -0.004970 
#    y 0.000000 1.487880 0.000000 
#    z -0.004970 0.000000 1.498540 
# 
# From -- ./inp_files/20564.got.cif
#   From: 2010.05.17/outbox.cif.g08.bks.cpg/sg10_11_cif.got.tgz:20564.got - 2010.06.03 11:33:40.
