data_PCOD9143722
_publ_section_title
;
Structure prediction by ZEFSAII (Michael W. Deem and Ramdas Pophale) SiO2 
 PCOD9143722
Probable space group: P 2/M
;
_chemical_formula_sum "Si O2"
_cell_formula_units_Z 32
_cell_length_a 20.215432
_cell_length_b 8.366281
_cell_length_c 14.756887
_cell_angle_alpha 90.000000
_cell_angle_beta 45.821621
_cell_angle_gamma 90.000000
_cell_volume 1789.923798
_symmetry_space_group_name_H-M "P 2/M"
_symmetry_group_IT_number 10
_symmetry_cell_setting 'monoclinic'
loop_
_space_group_symop_operation_xyz
x,y,z
-x,y,-z
-x,-y,-z
x,-y,z
loop_
_atom_site_type_symbol
_atom_site_label
_atom_site_fract_x
_atom_site_fract_y
_atom_site_fract_z
Si Si1 0.218273 0.809721 0.642177
Si Si2 0.396350 0.694515 0.123694
Si Si3 0.984045 0.690515 0.118594
Si Si4 0.315584 0.310145 0.012469
Si Si5 0.537277 0.189439 0.272818
Si Si6 0.314051 0.194129 0.731702
Si Si7 0.349967 0.689565 0.369407
Si Si8 0.168035 0.190228 0.026152
O O1 0.118014 0.735547 0.752457
O O2 0.286230 0.751888 0.658391
O O3 0.265288 0.767585 0.502767
O O4 0.209362 0.000000 0.659829
O O5 0.399049 0.500000 0.125788
O O6 0.331460 0.737607 0.101281
O O7 0.365577 0.750675 0.252012
O O8 0.500000 0.747503 0.000000
O O9 0.994564 0.500000 0.108766
O O10 0.063799 0.763068 0.105003
O O11 0.000000 0.748976 0.000000
O O12 0.333844 0.500000 0.987472
O O13 0.215882 0.270878 0.066840
O O14 0.389663 0.221109 0.877856
O O15 0.590574 0.246662 0.312583
O O16 0.443062 0.274178 0.336470
O O17 0.519515 0.000000 0.297848
O O18 0.318199 0.000000 0.726780
O O19 0.231067 0.239565 0.879325
O O20 0.335594 0.500000 0.379737
O O21 0.176470 0.000000 0.027149
#
# Coordination Sequence:
#
# PCOD9143722 Si02
#       8
#     4   4   4   4   4   4   4   4
#     4  11  22  38  56  77 108 149 186 223 274 330
#     4   9  17  33  56  79 106 144 184 221 277 333
#     4  11  22  36  57  86 112 140 183 231 268 311
#     4  10  18  32  55  82 109 141 180 227 273 322
#     4  10  19  33  51  77 108 145 185 223 268 324
#     4   8  17  32  51  73 105 146 182 212 257 323
#     4  11  22  37  54  77 109 146 186 231 274 325
#     4  10  19  34  55  82 112 144 177 219 274 326
#
# _framework density 17.877856999999999
#
# number of rings (size 3 to 8) (size 9 to 14) (size 15 to 20)
#    0.000    2.000    2.500    3.000    0.000    1.000 
#    0.000    7.500    0.000    0.750    0.000    5.250 
#    0.000    0.000    0.000    0.000    0.000    0.000 
#
# Total GULP energy -178612.298083 kJ/mol
# GULP energy per Si atom -5581.634315 kJ/mol
# Density = 1.783717 g / cm^3
# Si number density = 17.877857 Si / 1000 Ang^3
#
#
#
# Elastic Constant Matrix: (Units=GPa)
#
#
# Indices 1 2 3 4 5 6 
#
# 1 107.6666 -0.5714 43.0618 0.0000 8.0453 0.0000
# 2 -0.5714 14.6908 -10.5567 0.0000 5.8916 0.0000
# 3 43.0618 -10.5567 77.6613 0.0000 9.6625 0.0000
# 4 0.0000 0.0000 0.0000 17.6750 0.0000 -1.9621
# 5 8.0453 5.8916 9.6625 0.0000 20.9825 0.0000
# 6 0.0000 0.0000 0.0000 -1.9621 0.0000 19.2779
#
#
#
# Elastic Compliance Matrix: (Units=1/GPa)
#
#
# Indices 1 2 3 4 5 6 
#
# 1 0.012242 -0.004955 -0.007479 0.000000 0.000142 0.000000
# 2 -0.004955 0.096067 0.020076 0.000000 -0.034319 0.000000
# 3 -0.007479 0.020076 0.021319 0.000000 -0.012587 0.000000
# 4 0.000000 0.000000 0.000000 0.057223 0.000000 0.005824
# 5 0.000142 -0.034319 -0.012587 0.000000 0.063037 0.000000
# 6 0.000000 0.000000 0.000000 0.005824 0.000000 0.052466
#
#
# Mechanical properties :
#
#
# Convention : Reuss Voigt Hill
#
# Bulk Modulus (GPa) = 6.90076 29.32067 18.11072
# Shear Modulus (GPa) = 14.90867 22.79277 18.85072
#
# Velocity S-wave (km/s) = 2.89090 3.57447 3.25070
# Velocity P-wave (km/s) = 3.87445 5.78549 4.92358
#
# Compressibility (1/GPa) = 0.14491160
#
# Stress axis : x y z
#
# Youngs Moduli (GPa) = 81.68270 10.40937 46.90719
#
# Poissons Ratio (x) = 0.05158 0.35084
# Poissons Ratio (y) = 0.40476 -0.94172
# Poissons Ratio (z) = 0.61094 -0.20898
#
# Static dielectric constant tensor:
#      x y z
#    x 1.624000 0.000000 0.016270 
#    y 0.000000 1.611650 0.000000 
#    z 0.016270 0.000000 1.591340 
# 
# From -- ./inp_files/70009.got.cif
#   From: 2010.05.17/outbox.cif.g08.bks.cpg/sg10_36_cif.got.tgz:70009.got - 2010.06.03 11:33:40.
