data_PCOD9143907
_publ_section_title
;
Structure prediction by ZEFSAII (Michael W. Deem and Ramdas Pophale) SiO2 
 PCOD9143907
Probable space group: P 2/M
;
_chemical_formula_sum "Si O2"
_cell_formula_units_Z 28
_cell_length_a 21.498462
_cell_length_b 7.763785
_cell_length_c 14.616400
_cell_angle_alpha 90.000000
_cell_angle_beta 32.013518
_cell_angle_gamma 90.000000
_cell_volume 1293.287124
_symmetry_space_group_name_H-M "P 2/M"
_symmetry_group_IT_number 10
_symmetry_cell_setting 'monoclinic'
loop_
_space_group_symop_operation_xyz
x,y,z
-x,y,-z
-x,-y,-z
x,-y,z
loop_
_atom_site_type_symbol
_atom_site_label
_atom_site_fract_x
_atom_site_fract_y
_atom_site_fract_z
Si Si1 0.540791 0.698933 0.350258
Si Si2 0.944470 0.296849 0.856443
Si Si3 0.194808 0.198706 0.483644
Si Si4 0.131406 0.704363 0.358445
Si Si5 0.256853 0.295871 0.031726
Si Si6 0.863555 0.297668 0.144922
Si Si7 0.336154 0.802063 0.474937
O O1 0.500000 0.773178 0.500000
O O2 0.574751 0.500000 0.328913
O O3 0.647851 0.777883 0.157885
O O4 0.433487 0.705355 0.412637
O O5 0.967907 0.500000 0.844195
O O6 0.069646 0.210177 0.691296
O O7 0.869794 0.282255 0.858263
O O8 0.862498 0.237160 0.041678
O O9 0.170164 0.276397 0.414993
O O10 0.292984 0.271208 0.430820
O O11 0.224637 0.000000 0.432235
O O12 0.124526 0.500000 0.348018
O O13 0.000000 0.774192 0.500000
O O14 0.231041 0.774945 0.164955
O O15 0.287630 0.500000 0.001435
O O16 0.830332 0.500000 0.191259
O O17 0.779022 0.199900 0.317749
O O18 0.000000 0.283320 0.000000
O O19 0.375029 0.000000 0.414176
#
# Coordination Sequence:
#
# PCOD9143907 Si02
#       7
#     4   4   4   4   4   4   4
#     4  10  21  40  65  88 113 147 194 247 289 339
#     4  10  18  33  56  83 115 147 184 234 291 347
#     4  11  23  36  52  81 119 155 190 232 285 344
#     4  10  19  35  60  86 114 150 189 239 296 346
#     4   9  18  34  58  86 112 142 187 240 293 341
#     4  10  19  31  54  84 111 145 191 238 286 340
#     4  11  24  39  55  79 120 162 194 235 289 350
#
# _framework density 21.650258000000001
#
# number of rings (size 3 to 8) (size 9 to 14) (size 15 to 20)
#    0.000    1.857    2.857    1.714    0.000    5.429 
#    0.000    2.143    0.000    4.286    0.000    0.000 
#    0.000    0.000    0.000    0.000    0.000    0.000 
#
# Total GULP energy -156164.678797 kJ/mol
# GULP energy per Si atom -5577.309957 kJ/mol
# Density = 2.160098 g / cm^3
# Si number density = 21.650258 Si / 1000 Ang^3
#
#
#
# Elastic Constant Matrix: (Units=GPa)
#
#
# Indices 1 2 3 4 5 6 
#
# 1 120.9131 -1.0544 45.9939 0.0000 20.4498 0.0000
# 2 -1.0544 30.2869 3.9198 0.0000 0.9749 0.0000
# 3 45.9939 3.9198 99.5094 0.0000 17.7156 0.0000
# 4 0.0000 0.0000 0.0000 -9.5588 0.0000 -17.4179
# 5 20.4498 0.9749 17.7156 0.0000 34.2673 0.0000
# 6 0.0000 0.0000 0.0000 -17.4179 0.0000 5.9874
#
#
#
# Elastic Compliance Matrix: (Units=1/GPa)
#
#
# Indices 1 2 3 4 5 6 
#
# 1 0.010579 0.001045 -0.004187 0.000000 -0.004178 0.000000
# 2 0.001045 0.033293 -0.001668 0.000000 -0.000708 0.000000
# 3 -0.004187 -0.001668 0.012772 0.000000 -0.004057 0.000000
# 4 0.000000 0.000000 0.000000 -0.016603 0.000000 -0.048300
# 5 -0.004178 -0.000708 -0.004057 0.000000 0.033793 0.000000
# 6 0.000000 0.000000 0.000000 -0.048300 0.000000 0.026507
#
#
# Mechanical properties :
#
#
# Convention : Reuss Voigt Hill
#
# Bulk Modulus (GPa) = 21.26616 38.71423 29.99020
# Shear Modulus (GPa) = 39.79747 19.59587 29.69667
#
# Velocity S-wave (km/s) = 4.29207 3.01177 3.70760
# Velocity P-wave (km/s) = 5.86570 5.47858 5.67544
#
# Compressibility (1/GPa) = 0.04702306
#
# Stress axis : x y z
#
# Youngs Moduli (GPa) = 94.52840 30.03672 78.29324
#
# Poissons Ratio (x) = -0.03138 0.32781
# Poissons Ratio (y) = -0.09875 0.13061
# Poissons Ratio (z) = 0.39578 0.05011
#
# Static dielectric constant tensor:
#      x y z
#    x 1.839400 0.000000 0.037060 
#    y 0.000000 1.807000 0.000000 
#    z 0.037060 0.000000 1.805770 
# 
# From -- ./inp_files/63372.got.cif
#   From: 2010.05.17/outbox.cif.g08.bks.cpg/sg10_32_cif.got.tgz:63372.got - 2010.06.03 11:33:40.
