data_PCOD9143366
_publ_section_title
;
Structure prediction by ZEFSAII (Michael W. Deem and Ramdas Pophale) SiO2 
 PCOD9143366
Probable space group: P 2/M
;
_chemical_formula_sum "Si O2"
_cell_formula_units_Z 32
_cell_length_a 20.442393
_cell_length_b 7.346658
_cell_length_c 26.202283
_cell_angle_alpha 90.000000
_cell_angle_beta 21.941414
_cell_angle_gamma 90.000000
_cell_volume 1470.399558
_symmetry_space_group_name_H-M "P 2/M"
_symmetry_group_IT_number 10
_symmetry_cell_setting 'monoclinic'
loop_
_space_group_symop_operation_xyz
x,y,z
-x,y,-z
-x,-y,-z
x,-y,z
loop_
_atom_site_type_symbol
_atom_site_label
_atom_site_fract_x
_atom_site_fract_y
_atom_site_fract_z
Si Si1 0.691381 0.207324 0.353959
Si Si2 0.059592 0.222697 0.124710
Si Si3 0.917621 0.222259 0.679797
Si Si4 0.814144 0.289479 0.154156
Si Si5 0.643503 0.778090 0.791876
Si Si6 0.703688 0.222093 0.631997
Si Si7 0.349115 0.219734 0.833279
Si Si8 0.243676 0.778110 0.096340
O O1 0.500000 0.291901 0.500000
O O2 0.740318 0.203060 0.258797
O O3 0.861950 0.286620 0.258343
O O4 0.676846 0.000000 0.384114
O O5 0.142587 0.278214 0.118390
O O6 0.057502 0.000000 0.125092
O O7 0.188142 0.279457 0.985761
O O8 0.783614 0.280159 0.732530
O O9 0.849560 0.280444 0.784308
O O10 0.114254 0.280037 0.524651
O O11 0.917079 0.000000 0.680112
O O12 0.844748 0.500000 0.145200
O O13 0.684090 0.277498 0.200503
O O14 0.000000 0.212417 0.000000
O O15 0.691057 0.721434 0.700140
O O16 0.644385 0.000000 0.791444
O O17 0.446088 0.721185 0.947735
O O18 0.531749 0.280608 0.725617
O O19 0.702004 0.000000 0.633232
O O20 0.349221 0.000000 0.833786
O O21 0.244335 0.000000 0.095644
#
# Coordination Sequence:
#
# PCOD9143366 Si02
#       8
#     4   4   4   4   4   4   4   4
#     4  10  21  36  56  81 105 134 173 213 257 308
#     4   9  16  28  46  67  94 127 164 209 250 292
#     4   9  16  22  32  54  88 123 156 198 238 286
#     4  11  23  37  55  79 105 135 170 211 259 309
#     4   9  14  22  34  51  81 123 163 192 233 294
#     4   9  16  25  38  60  86 120 162 200 244 292
#     4  10  18  31  53  74  96 131 171 210 252 298
#     4   9  15  23  35  53  81 122 164 193 234 293
#
# _framework density 21.762792000000001
#
# number of rings (size 3 to 8) (size 9 to 14) (size 15 to 20)
#    0.000    2.500    2.500    1.125    0.000    4.750 
#    0.000    3.750    0.000    0.000    0.000    0.000 
#    0.000    2.000    0.000    1.625    0.000    2.250 
#
# Total GULP energy -178833.484031 kJ/mol
# GULP energy per Si atom -5588.546376 kJ/mol
# Density = 2.171326 g / cm^3
# Si number density = 21.762792 Si / 1000 Ang^3
#
#
#
# Elastic Constant Matrix: (Units=GPa)
#
#
# Indices 1 2 3 4 5 6 
#
# 1 101.7538 -7.9167 48.1802 0.0000 -23.3246 0.0000
# 2 -7.9167 82.6143 2.6782 0.0000 -2.8613 0.0000
# 3 48.1802 2.6782 173.4172 0.0000 -19.6952 0.0000
# 4 0.0000 0.0000 0.0000 -12.4048 0.0000 -5.4340
# 5 -23.3246 -2.8613 -19.6952 0.0000 40.8303 0.0000
# 6 0.0000 0.0000 0.0000 -5.4340 0.0000 -116.3174
#
#
#
# Elastic Compliance Matrix: (Units=1/GPa)
#
#
# Indices 1 2 3 4 5 6 
#
# 1 0.012669 0.001513 -0.002866 0.000000 0.005961 0.000000
# 2 0.001513 0.012316 -0.000438 0.000000 0.001516 0.000000
# 3 -0.002866 -0.000438 0.006750 0.000000 0.001588 0.000000
# 4 0.000000 0.000000 0.000000 -0.082298 0.000000 0.003845
# 5 0.005961 0.001516 0.001588 0.000000 0.028769 0.000000
# 6 0.000000 0.000000 0.000000 0.003845 0.000000 -0.008777
#
#
# Mechanical properties :
#
#
# Convention : Reuss Voigt Hill
#
# Bulk Modulus (GPa) = 35.52104 49.29654 42.40879
# Shear Modulus (GPa) = -284.01427 3.41120 -140.30153
#
# Velocity S-wave (km/s) = -11.43625 1.25334 -8.03794
# Velocity P-wave (km/s) = 12.57086 4.97950 8.16183
#
# Compressibility (1/GPa) = 0.02815233
#
# Stress axis : x y z
#
# Youngs Moduli (GPa) = 78.93381 81.19400 148.15143
#
# Poissons Ratio (x) = -0.12288 0.42463
# Poissons Ratio (y) = -0.11946 0.06496
# Poissons Ratio (z) = 0.22624 0.03560
#
# Static dielectric constant tensor:
#      x y z
#    x 1.730520 0.000000 -0.015520 
#    y 0.000000 1.855060 0.000000 
#    z -0.015520 0.000000 1.752480 
# 
# From -- ./inp_files/93634.got.cif
#   From: 2010.05.17/outbox.cif.g08.bks.cpg/sg10_47_cif.got.tgz:93634.got - 2010.06.03 11:33:40.
