data_PCOD9143380
_publ_section_title
;
Structure prediction by ZEFSAII (Michael W. Deem and Ramdas Pophale) SiO2 
 PCOD9143380
Probable space group: P 2/M
;
_chemical_formula_sum "Si O2"
_cell_formula_units_Z 20
_cell_length_a 10.462445
_cell_length_b 7.714564
_cell_length_c 22.320337
_cell_angle_alpha 90.000000
_cell_angle_beta 144.448741
_cell_angle_gamma 90.000000
_cell_volume 1047.474722
_symmetry_space_group_name_H-M "P 2/M"
_symmetry_group_IT_number 10
_symmetry_cell_setting 'monoclinic'
loop_
_space_group_symop_operation_xyz
x,y,z
-x,y,-z
-x,-y,-z
x,-y,z
loop_
_atom_site_type_symbol
_atom_site_label
_atom_site_fract_x
_atom_site_fract_y
_atom_site_fract_z
Si Si1 0.749536 0.205690 0.277132
Si Si2 0.019773 0.789959 0.938066
Si Si3 0.543581 0.787135 0.722918
Si Si4 0.152161 0.201120 0.497970
Si Si5 0.511838 0.702393 0.937946
O O1 0.571312 0.268585 0.258283
O O2 0.658035 0.228528 0.176089
O O3 0.990763 0.277952 0.386053
O O4 0.765773 0.000000 0.294222
O O5 0.796739 0.734131 0.819672
O O6 0.029031 0.000000 0.941011
O O7 0.000000 0.736920 0.000000
O O8 0.243408 0.725434 0.994320
O O9 0.384779 0.725097 0.608809
O O10 0.541166 0.000000 0.721464
O O11 0.000000 0.202240 0.500000
O O12 0.196503 0.000000 0.499202
O O13 0.461344 0.500000 0.923494
O O14 0.500000 0.780360 0.000000
#
# Coordination Sequence:
#
# PCOD9143380 Si02
#       5
#     4   4   4   4   4
#     4   9  15  28  50  73  96 124 161 199 237 285
#     4  10  18  31  53  78 100 123 158 203 246 290
#     4   8  13  24  45  76 105 121 144 192 248 292
#     4   7  11  20  41  72 100 123 146 184 242 292
#     4  11  24  37  47  65  98 137 171 202 240 286
#
# _framework density 19.093540000000001
#
# number of rings (size 3 to 8) (size 9 to 14) (size 15 to 20)
#    0.000    3.000    2.000    3.000    0.000    2.000 
#    0.000    0.000    0.000    7.800    0.000    8.400 
#    0.000    0.000    0.000    0.000    0.000    0.000 
#
# Total GULP energy -111373.585681 kJ/mol
# GULP energy per Si atom -5568.679284 kJ/mol
# Density = 1.905008 g / cm^3
# Si number density = 19.093540 Si / 1000 Ang^3
#
#
#
# Elastic Constant Matrix: (Units=GPa)
#
#
# Indices 1 2 3 4 5 6 
#
# 1 55.2700 -8.0953 40.3993 0.0000 -16.7301 0.0000
# 2 -8.0953 23.0309 -1.9028 0.0000 -1.7108 0.0000
# 3 40.3993 -1.9028 196.8926 0.0000 -13.7313 0.0000
# 4 0.0000 0.0000 0.0000 -56.8977 0.0000 -8.6138
# 5 -16.7301 -1.7108 -13.7313 0.0000 18.7582 0.0000
# 6 0.0000 0.0000 0.0000 -8.6138 0.0000 13.3030
#
#
#
# Elastic Compliance Matrix: (Units=1/GPa)
#
#
# Indices 1 2 3 4 5 6 
#
# 1 0.030825 0.012353 -0.004436 0.000000 0.025371 0.000000
# 2 0.012353 0.048769 -0.001038 0.000000 0.014706 0.000000
# 3 -0.004436 -0.001038 0.006003 0.000000 0.000343 0.000000
# 4 0.000000 0.000000 0.000000 -0.016006 0.000000 -0.010364
# 5 0.025371 0.014706 0.000343 0.000000 0.077531 0.000000
# 6 0.000000 0.000000 0.000000 -0.010364 0.000000 0.068460
#
#
# Mechanical properties :
#
#
# Convention : Reuss Voigt Hill
#
# Bulk Modulus (GPa) = 10.06493 37.33287 23.69890
# Shear Modulus (GPa) = 21.28197 11.35219 16.31708
#
# Velocity S-wave (km/s) = 3.34221 2.44100 2.92650
# Velocity P-wave (km/s) = 4.49184 5.24783 4.88448
#
# Compressibility (1/GPa) = 0.09935490
#
# Stress axis : x y z
#
# Youngs Moduli (GPa) = 32.44169 20.50494 166.58312
#
# Poissons Ratio (x) = -0.25330 0.73895
# Poissons Ratio (y) = -0.40075 0.17287
# Poissons Ratio (z) = 0.14391 0.02128
#
# Static dielectric constant tensor:
#      x y z
#    x 1.629630 0.000000 -0.018050 
#    y 0.000000 1.711230 0.000000 
#    z -0.018050 0.000000 1.733080 
# 
# From -- ./inp_files/26857.got.cif
#   From: 2010.05.17/outbox.cif.g08.bks.cpg/sg10_14_cif.got.tgz:26857.got - 2010.06.03 11:33:40.
