data_PCOD9143213
_publ_section_title
;
Structure prediction by ZEFSAII (Michael W. Deem and Ramdas Pophale) SiO2 
 PCOD9143213
Probable space group: P 2/M
;
_chemical_formula_sum "Si O2"
_cell_formula_units_Z 26
_cell_length_a 13.512350
_cell_length_b 14.634028
_cell_length_c 8.035574
_cell_angle_alpha 90.000000
_cell_angle_beta 117.991420
_cell_angle_gamma 90.000000
_cell_volume 1403.075926
_symmetry_space_group_name_H-M "P 2/M"
_symmetry_group_IT_number 10
_symmetry_cell_setting 'monoclinic'
loop_
_space_group_symop_operation_xyz
x,y,z
-x,y,-z
-x,-y,-z
x,-y,z
loop_
_atom_site_type_symbol
_atom_site_label
_atom_site_fract_x
_atom_site_fract_y
_atom_site_fract_z
Si Si1 0.094399 0.755362 0.456839
Si Si2 0.301801 0.400767 0.056968
Si Si3 0.945024 0.105494 0.138104
Si Si4 0.466033 0.329580 0.657341
Si Si5 0.740509 0.201951 0.126235
Si Si6 0.222849 0.397531 0.368011
Si Si7 0.500000 0.199489 0.000000
O O1 0.193895 0.795204 0.648066
O O2 0.141832 0.681057 0.368458
O O3 0.000000 0.710322 0.500000
O O4 0.029591 0.837970 0.319459
O O5 0.278546 0.500000 0.959353
O O6 0.432633 0.396363 0.212203
O O7 0.235289 0.394350 0.178266
O O8 0.277966 0.308771 0.936407
O O9 0.824256 0.154183 0.061916
O O10 0.934370 0.000000 0.180649
O O11 0.000000 0.108956 0.000000
O O12 0.500000 0.291533 0.500000
O O13 0.346315 0.376829 0.540397
O O14 0.465662 0.258238 0.808966
O O15 0.618566 0.155149 0.042712
O O16 0.188082 0.500000 0.387996
#
# Coordination Sequence:
#
# PCOD9143213 Si02
#       7
#     4   4   4   4   4   4   2
#     4  10  21  35  54  80 110 141 184 231 277 332
#     4   9  18  31  50  77 111 153 193 228 268 321
#     4  10  22  42  67  86 102 135 186 238 286 343
#     4   9  17  30  49  75 112 157 202 237 268 321
#     4  10  20  35  56  86 117 147 185 230 281 339
#     4  10  18  31  49  73 111 154 193 233 274 318
#     4  10  18  34  54  86 122 154 190 228 288 342
#
# _framework density 18.530715000000001
#
# number of rings (size 3 to 8) (size 9 to 14) (size 15 to 20)
#    0.000    2.308    1.538    1.385    0.000    5.538 
#    0.000    4.615    0.000    8.308    0.000    2.154 
#    0.000    0.000    0.000    0.000    0.000    0.000 
#
# Total GULP energy -144881.745162 kJ/mol
# GULP energy per Si atom -5572.374814 kJ/mol
# Density = 1.848854 g / cm^3
# Si number density = 18.530715 Si / 1000 Ang^3
#
#
#
# Elastic Constant Matrix: (Units=GPa)
#
#
# Indices 1 2 3 4 5 6 
#
# 1 114.6405 48.3182 20.3018 0.0000 14.3327 0.0000
# 2 48.3182 76.2648 20.0549 0.0000 7.0072 0.0000
# 3 20.3018 20.0549 56.0860 0.0000 7.5137 0.0000
# 4 0.0000 0.0000 0.0000 22.3422 0.0000 -0.9704
# 5 14.3327 7.0072 7.5137 0.0000 24.4256 0.0000
# 6 0.0000 0.0000 0.0000 -0.9704 0.0000 1.5375
#
#
#
# Elastic Compliance Matrix: (Units=1/GPa)
#
#
# Indices 1 2 3 4 5 6 
#
# 1 0.012601 -0.007180 -0.001334 0.000000 -0.004924 0.000000
# 2 -0.007180 0.018733 -0.004114 0.000000 0.000104 0.000000
# 3 -0.001334 -0.004114 0.020360 0.000000 -0.004300 0.000000
# 4 0.000000 0.000000 0.000000 0.046020 0.000000 0.029045
# 5 -0.004924 0.000104 -0.004300 0.000000 0.045123 0.000000
# 6 0.000000 0.000000 0.000000 0.029045 0.000000 0.668722
#
#
# Mechanical properties :
#
#
# Convention : Reuss Voigt Hill
#
# Bulk Modulus (GPa) = 37.82397 47.14904 42.48650
# Shear Modulus (GPa) = 5.91277 20.21550 13.06414
#
# Velocity S-wave (km/s) = 1.78822 3.30649 2.65806
# Velocity P-wave (km/s) = 4.97186 6.33057 5.69190
#
# Compressibility (1/GPa) = 0.02643826
#
# Stress axis : x y z
#
# Youngs Moduli (GPa) = 79.35808 53.38044 49.11677
#
# Poissons Ratio (x) = 0.38329 0.06553
# Poissons Ratio (y) = 0.56981 0.20204
# Poissons Ratio (z) = 0.10588 0.21958
#
# Static dielectric constant tensor:
#      x y z
#    x 1.684560 0.000000 -0.014150 
#    y 0.000000 1.616290 0.000000 
#    z -0.014150 0.000000 1.648770 
# 
# From -- ./inp_files/28415.got.cif
#   From: 2010.05.17/outbox.cif.g08.bks.cpg/sg10_15_cif.got.tgz:28415.got - 2010.06.03 11:33:40.
