data_PCOD9143258
_publ_section_title
;
Structure prediction by ZEFSAII (Michael W. Deem and Ramdas Pophale) SiO2 
 PCOD9143258
Probable space group: P 2/M
;
_chemical_formula_sum "Si O2"
_cell_formula_units_Z 16
_cell_length_a 13.050506
_cell_length_b 12.103515
_cell_length_c 15.035825
_cell_angle_alpha 90.000000
_cell_angle_beta 18.080158
_cell_angle_gamma 90.000000
_cell_volume 737.078957
_symmetry_space_group_name_H-M "P 2/M"
_symmetry_group_IT_number 10
_symmetry_cell_setting 'monoclinic'
loop_
_space_group_symop_operation_xyz
x,y,z
-x,y,-z
-x,-y,-z
x,-y,z
loop_
_atom_site_type_symbol
_atom_site_label
_atom_site_fract_x
_atom_site_fract_y
_atom_site_fract_z
Si Si1 0.528388 0.750981 0.272464
Si Si2 0.608502 0.214291 0.820664
Si Si3 0.578384 0.000000 0.218546
Si Si4 0.842957 0.000000 0.819909
Si Si5 0.827638 0.629417 0.288600
O O1 0.457299 0.744051 0.225411
O O2 0.585667 0.878538 0.254701
O O3 0.232857 0.699155 0.572159
O O4 0.852101 0.678856 0.022190
O O5 0.000000 0.191023 0.500000
O O6 0.500000 0.280272 0.000000
O O7 0.368781 0.107667 0.025361
O O8 0.209099 0.000000 0.478394
O O9 0.867879 0.000000 0.906638
O O10 0.500000 0.642819 0.500000
O O11 0.872743 0.500000 0.269632
#
# Coordination Sequence:
#
# PCOD9143258 Si02
#       5
#     4   4   2   2   4
#     4  11  22  40  62  91 128 158 193 248 304 354
#     4  11  20  32  54  86 124 166 204 236 282 350
#     4  10  20  35  57  90 128 162 190 232 303 373
#     4  10  18  31  50  82 123 166 209 240 272 327
#     4  11  24  44  69  90 109 148 210 265 303 346
#
# _framework density 21.707308999999999
#
# number of rings (size 3 to 8) (size 9 to 14) (size 15 to 20)
#    0.000    1.250    0.000    9.750    0.000    2.000 
#    0.000    3.750    0.000   15.000    0.000    0.000 
#    0.000    0.000    0.000    0.000    0.000    0.000 
#
# Total GULP energy -89317.805035 kJ/mol
# GULP energy per Si atom -5582.362815 kJ/mol
# Density = 2.165790 g / cm^3
# Si number density = 21.707309 Si / 1000 Ang^3
#
#
#
# Elastic Constant Matrix: (Units=GPa)
#
#
# Indices 1 2 3 4 5 6 
#
# 1 65.2724 23.4291 1.8076 0.0000 18.6311 0.0000
# 2 23.4291 87.7147 1.8580 0.0000 1.0993 0.0000
# 3 1.8076 1.8580 78.9773 0.0000 15.8174 0.0000
# 4 0.0000 0.0000 0.0000 56.0053 0.0000 4.1747
# 5 18.6311 1.0993 15.8174 0.0000 35.5716 0.0000
# 6 0.0000 0.0000 0.0000 4.1747 0.0000 -2.8678
#
#
#
# Elastic Compliance Matrix: (Units=1/GPa)
#
#
# Indices 1 2 3 4 5 6 
#
# 1 0.020446 -0.005360 0.001943 0.000000 -0.011407 0.000000
# 2 -0.005360 0.012813 -0.000726 0.000000 0.002734 0.000000
# 3 0.001943 -0.000726 0.014088 0.000000 -0.007260 0.000000
# 4 0.000000 0.000000 0.000000 0.016108 0.000000 0.023448
# 5 -0.011407 0.002734 -0.007260 0.000000 0.037231 0.000000
# 6 0.000000 0.000000 0.000000 0.023448 0.000000 -0.314565
#
#
# Mechanical properties :
#
#
# Convention : Reuss Voigt Hill
#
# Bulk Modulus (GPa) = 25.60045 31.79488 28.69766
# Shear Modulus (GPa) = -25.96429 31.39979 2.71775
#
# Velocity S-wave (km/s) = -3.46223 3.80742 1.12014
# Velocity P-wave (km/s) = 2.04051 5.83160 3.86289
#
# Compressibility (1/GPa) = 0.03906182
#
# Stress axis : x y z
#
# Youngs Moduli (GPa) = 48.90830 78.04399 70.98020
#
# Poissons Ratio (x) = 0.41828 -0.13790
# Poissons Ratio (y) = 0.26213 0.05156
# Poissons Ratio (z) = -0.09502 0.05669
#
# Static dielectric constant tensor:
#      x y z
#    x 1.901760 0.000000 0.008740 
#    y 0.000000 1.784560 0.000000 
#    z 0.008740 0.000000 1.741090 
# 
# From -- ./inp_files/64569.got.cif
#   From: 2010.05.17/outbox.cif.g08.bks.cpg/sg10_33_cif.got.tgz:64569.got - 2010.06.03 11:33:40.
