data_PCOD9143325
_publ_section_title
;
Structure prediction by ZEFSAII (Michael W. Deem and Ramdas Pophale) SiO2 
 PCOD9143325
Probable space group: P 2/M
;
_chemical_formula_sum "Si O2"
_cell_formula_units_Z 28
_cell_length_a 12.236994
_cell_length_b 7.426826
_cell_length_c 14.600149
_cell_angle_alpha 90.000000
_cell_angle_beta 71.081588
_cell_angle_gamma 90.000000
_cell_volume 1255.214069
_symmetry_space_group_name_H-M "P 2/M"
_symmetry_group_IT_number 10
_symmetry_cell_setting 'monoclinic'
loop_
_space_group_symop_operation_xyz
x,y,z
-x,y,-z
-x,-y,-z
x,-y,z
loop_
_atom_site_type_symbol
_atom_site_label
_atom_site_fract_x
_atom_site_fract_y
_atom_site_fract_z
Si Si1 0.123492 0.716992 0.000451
Si Si2 0.249644 0.296240 0.287904
Si Si3 0.801288 0.292647 0.322311
Si Si4 0.870534 0.278578 0.504762
Si Si5 0.947603 0.208407 0.784847
Si Si6 0.461152 0.280223 0.112837
Si Si7 0.670991 0.719984 0.185888
O O1 0.123689 0.500000 0.996624
O O2 0.128929 0.769478 0.104140
O O3 0.226739 0.779982 0.909425
O O4 0.000000 0.783973 0.000000
O O5 0.290763 0.500000 0.292959
O O6 0.223040 0.216493 0.394450
O O7 0.123304 0.300235 0.276273
O O8 0.339129 0.218467 0.189465
O O9 0.768857 0.500000 0.346873
O O10 0.832305 0.217434 0.413918
O O11 0.705650 0.216743 0.278466
O O12 0.924950 0.287940 0.236264
O O13 0.872287 0.500000 0.504315
O O14 0.000000 0.222569 0.500000
O O15 0.961474 0.000000 0.759403
O O16 0.457644 0.500000 0.106434
O O17 0.554239 0.230194 0.165572
O O18 0.500000 0.219198 0.000000
O O19 0.672323 0.500000 0.188732
#
# Coordination Sequence:
#
# PCOD9143325 Si02
#       7
#     4   4   4   4   4   4   4
#     4  10  18  31  52  75  99 136 175 204 251 315
#     4  10  19  34  55  75 100 138 179 213 258 312
#     4  10  18  33  53  74 103 136 172 212 261 318
#     4   9  16  28  51  78 102 131 173 218 260 306
#     4  12  23  32  47  76 110 137 169 216 267 306
#     4   9  17  30  51  78 104 131 172 221 256 299
#     4   9  17  30  51  78 103 131 171 216 256 305
#
# _framework density 22.306951999999999
#
# number of rings (size 3 to 8) (size 9 to 14) (size 15 to 20)
#    0.000    2.143    2.857    2.143    0.000    2.571 
#    0.000    2.143    0.000    9.000    0.000    0.000 
#    0.000    2.286    0.000    0.000    0.000    0.000 
#
# Total GULP energy -156224.427630 kJ/mol
# GULP energy per Si atom -5579.443844 kJ/mol
# Density = 2.225618 g / cm^3
# Si number density = 22.306952 Si / 1000 Ang^3
#
#
#
# Elastic Constant Matrix: (Units=GPa)
#
#
# Indices 1 2 3 4 5 6 
#
# 1 110.5699 -3.9365 47.4784 0.0000 19.8248 0.0000
# 2 -3.9365 75.5802 -0.7310 0.0000 -0.3853 0.0000
# 3 47.4784 -0.7310 153.2015 0.0000 23.2946 0.0000
# 4 0.0000 0.0000 0.0000-5040.4654 0.0000-1079.0785
# 5 19.8248 -0.3853 23.2946 0.0000 40.8017 0.0000
# 6 0.0000 0.0000 0.0000-1079.0785 0.0000 -248.8422
#
#
#
# Elastic Compliance Matrix: (Units=1/GPa)
#
#
# Indices 1 2 3 4 5 6 
#
# 1 0.010939 0.000524 -0.002825 0.000000 -0.003697 0.000000
# 2 0.000524 0.013257 -0.000087 0.000000 -0.000080 0.000000
# 3 -0.002825 -0.000087 0.007878 0.000000 -0.003126 0.000000
# 4 0.000000 0.000000 0.000000 -0.002769 0.000000 0.012007
# 5 -0.003697 -0.000080 -0.003126 0.000000 0.028089 0.000000
# 6 0.000000 0.000000 0.000000 0.012007 0.000000 -0.056086
#
#
# Mechanical properties :
#
#
# Convention : Reuss Voigt Hill
#
# Bulk Modulus (GPa) = 36.63523 47.21926 41.92725
# Shear Modulus (GPa) = 329.30338 -1029.93182 -350.31422
#
# Velocity S-wave (km/s) = 12.16323 -21.51072 -12.54526
# Velocity P-wave (km/s) = 14.61909 24.40767 13.82058
#
# Compressibility (1/GPa) = 0.02729613
#
# Stress axis : x y z
#
# Youngs Moduli (GPa) = 91.41807 75.43180 126.93889
#
# Poissons Ratio (x) = -0.03949 0.35865
# Poissons Ratio (y) = -0.04786 0.01103
# Poissons Ratio (z) = 0.25829 0.00655
#
# Static dielectric constant tensor:
#      x y z
#    x 1.804550 0.000000 0.020100 
#    y 0.000000 1.839000 0.000000 
#    z 0.020100 0.000000 1.854610 
# 
# From -- ./inp_files/49198.got.cif
#   From: 2010.05.17/outbox.cif.g08.bks.cpg/sg10_25_cif.got.tgz:49198.got - 2010.06.03 11:33:40.
