data_PCOD9143933
_publ_section_title
;
Structure prediction by ZEFSAII (Michael W. Deem and Ramdas Pophale) SiO2 
 PCOD9143933
Probable space group: P 2/M
;
_chemical_formula_sum "Si O2"
_cell_formula_units_Z 32
_cell_length_a 13.322227
_cell_length_b 24.070345
_cell_length_c 7.284070
_cell_angle_alpha 90.000000
_cell_angle_beta 36.577663
_cell_angle_gamma 90.000000
_cell_volume 1391.923206
_symmetry_space_group_name_H-M "P 2/M"
_symmetry_group_IT_number 10
_symmetry_cell_setting 'monoclinic'
loop_
_space_group_symop_operation_xyz
x,y,z
-x,y,-z
-x,-y,-z
x,-y,z
loop_
_atom_site_type_symbol
_atom_site_label
_atom_site_fract_x
_atom_site_fract_y
_atom_site_fract_z
Si Si1 0.703050 0.855572 0.214916
Si Si2 0.883483 0.256220 0.921276
Si Si3 0.315505 0.865670 0.320642
Si Si4 0.182776 0.374578 0.149225
Si Si5 0.745814 0.255126 0.537633
Si Si6 0.528230 0.349683 0.685354
Si Si7 0.188020 0.435694 0.780770
Si Si8 0.006698 0.063722 0.214732
O O1 0.500000 0.855010 0.500000
O O2 0.717386 0.860368 0.413860
O O3 0.792661 0.801159 0.993293
O O4 0.818294 0.907317 0.982753
O O5 0.813154 0.314094 0.953308
O O6 0.083289 0.265821 0.596587
O O7 0.834373 0.250510 0.207293
O O8 0.316624 0.800595 0.272217
O O9 0.155392 0.900192 0.485273
O O10 0.500000 0.889274 0.000000
O O11 0.000000 0.381769 0.500000
O O12 0.349791 0.370652 0.025144
O O13 0.203470 0.424382 0.974632
O O14 0.595812 0.295528 0.691550
O O15 0.500000 0.344458 0.500000
O O16 0.671259 0.395560 0.505245
O O17 0.208714 0.500000 0.702856
O O18 0.000000 0.417333 0.000000
O O19 0.995562 0.000000 0.289844
O O20 0.000000 0.063373 0.000000
#
# Coordination Sequence:
#
# PCOD9143933 Si02
#       8
#     4   4   4   4   4   4   4   4
#     4  10  21  36  60  84 111 153 196 243 291 348
#     4  10  19  34  54  78 115 154 191 229 287 356
#     4  10  21  35  55  88 116 148 194 240 299 347
#     4  11  24  37  55  89 125 152 186 242 306 339
#     4  10  18  33  58  77 112 154 194 234 276 350
#     4  10  20  35  58  87 118 151 195 234 284 345
#     4  10  21  41  67  87 111 158 208 239 273 344
#     4   9  18  38  60  82 114 156 202 239 284 358
#
# _framework density 22.989771999999999
#
# number of rings (size 3 to 8) (size 9 to 14) (size 15 to 20)
#    0.000    2.000    3.750    0.750    3.500    4.000 
#    0.000    2.500    0.000    2.250    0.000    0.000 
#    0.000    0.000    0.000    0.000    0.000    0.000 
#
# Total GULP energy -178202.615372 kJ/mol
# GULP energy per Si atom -5568.831730 kJ/mol
# Density = 2.293745 g / cm^3
# Si number density = 22.989772 Si / 1000 Ang^3
#
#
#
# Elastic Constant Matrix: (Units=GPa)
#
#
# Indices 1 2 3 4 5 6 
#
# 1 70.6806 23.3149 28.9077 0.0000 -15.7420 0.0000
# 2 23.3149 70.9908 19.9579 0.0000 -19.2737 0.0000
# 3 28.9077 19.9579 117.4025 0.0000 -35.3080 0.0000
# 4 0.0000 0.0000 0.0000 12.0766 0.0000 -28.4172
# 5 -15.7420 -19.2737 -35.3080 0.0000 55.0614 0.0000
# 6 0.0000 0.0000 0.0000 -28.4172 0.0000 106.5807
#
#
#
# Elastic Compliance Matrix: (Units=1/GPa)
#
#
# Indices 1 2 3 4 5 6 
#
# 1 0.017161 -0.004395 -0.003055 0.000000 0.001409 0.000000
# 2 -0.004395 0.016840 -0.000478 0.000000 0.004332 0.000000
# 3 -0.003055 -0.000478 0.011198 0.000000 0.006140 0.000000
# 4 0.000000 0.000000 0.000000 0.222231 0.000000 0.059253
# 5 0.001409 0.004332 0.006140 0.000000 0.024018 0.000000
# 6 0.000000 0.000000 0.000000 0.059253 0.000000 0.025181
#
#
# Mechanical properties :
#
#
# Convention : Reuss Voigt Hill
#
# Bulk Modulus (GPa) = 34.07818 44.82610 39.45214
# Shear Modulus (GPa) = 14.60860 47.20329 30.90595
#
# Velocity S-wave (km/s) = 2.52353 4.53617 3.67049
# Velocity P-wave (km/s) = 4.83180 6.85394 5.92970
#
# Compressibility (1/GPa) = 0.02934429
#
# Stress axis : x y z
#
# Youngs Moduli (GPa) = 58.27179 59.38218 89.30496
#
# Poissons Ratio (x) = 0.26097 0.27279
# Poissons Ratio (y) = 0.25609 0.04268
# Poissons Ratio (z) = 0.17800 0.02838
#
# Static dielectric constant tensor:
#      x y z
#    x 1.911980 0.000000 0.064120 
#    y 0.000000 1.851900 0.000000 
#    z 0.064120 0.000000 1.889310 
# 
# From -- ./inp_files/30566.got.cif
#   From: 2010.05.17/outbox.cif.g08.bks.cpg/sg10_16_cif.got.tgz:30566.got - 2010.06.03 11:33:40.
