data_PCOD9143748
_publ_section_title
;
Structure prediction by ZEFSAII (Michael W. Deem and Ramdas Pophale) SiO2 
 PCOD9143748
Probable space group: P 2/M
;
_chemical_formula_sum "Si O2"
_cell_formula_units_Z 32
_cell_length_a 11.176767
_cell_length_b 7.616914
_cell_length_c 22.046633
_cell_angle_alpha 90.000000
_cell_angle_beta 128.853219
_cell_angle_gamma 90.000000
_cell_volume 1461.634247
_symmetry_space_group_name_H-M "P 2/M"
_symmetry_group_IT_number 10
_symmetry_cell_setting 'monoclinic'
loop_
_space_group_symop_operation_xyz
x,y,z
-x,y,-z
-x,-y,-z
x,-y,z
loop_
_atom_site_type_symbol
_atom_site_label
_atom_site_fract_x
_atom_site_fract_y
_atom_site_fract_z
Si Si1 0.937697 0.793901 0.159238
Si Si2 0.140346 0.213077 0.404572
Si Si3 0.830021 0.294812 0.452456
Si Si4 0.467141 0.300992 0.160076
Si Si5 0.813112 0.205853 0.257153
Si Si6 0.484014 0.710680 0.696005
Si Si7 0.749173 0.211609 0.691214
Si Si8 0.359846 0.204756 0.995499
O O1 0.864029 0.783472 0.203094
O O2 0.108541 0.719624 0.222554
O O3 0.959084 0.000000 0.150232
O O4 0.807323 0.718418 0.073649
O O5 0.209083 0.280637 0.488801
O O6 0.225119 0.270845 0.369920
O O7 0.961132 0.268884 0.341795
O O8 0.141135 0.000000 0.406099
O O9 0.841863 0.500000 0.439533
O O10 0.688012 0.218927 0.369565
O O11 0.000000 0.214507 0.500000
O O12 0.409119 0.500000 0.139733
O O13 0.652674 0.300335 0.214845
O O14 0.438813 0.221232 0.217526
O O15 0.402362 0.212090 0.079415
O O16 0.788294 0.000000 0.262503
O O17 0.472198 0.500000 0.699591
O O18 0.590128 0.744510 0.672087
O O19 0.762912 0.000000 0.693343
O O20 0.349801 0.000000 0.973612
O O21 0.500000 0.281729 0.000000
#
# Coordination Sequence:
#
# PCOD9143748 Si02
#       8
#     4   4   4   4   4   4   4   4
#     4   8  15  31  54  79 106 135 171 215 261 315
#     4   9  19  34  56  85 111 136 175 229 276 312
#     4  10  21  38  58  79 109 146 182 217 264 326
#     4  11  22  34  50  76 111 143 179 225 270 315
#     4   9  16  31  53  77 107 141 173 211 267 328
#     4  10  23  40  54  73 106 148 185 221 265 318
#     4   9  19  37  59  80 105 140 183 226 263 311
#     4  10  18  32  56  82 109 141 174 214 270 329
#
# _framework density 21.8933
#
# number of rings (size 3 to 8) (size 9 to 14) (size 15 to 20)
#    0.000    2.500    1.250    2.625    0.000    4.500 
#    0.000    5.625    0.000    3.750    0.000    0.000 
#    0.000    0.000    0.000    0.000    0.000    0.000 
#
# Total GULP energy -178576.621730 kJ/mol
# GULP energy per Si atom -5580.519429 kJ/mol
# Density = 2.184347 g / cm^3
# Si number density = 21.893300 Si / 1000 Ang^3
#
#
#
# Elastic Constant Matrix: (Units=GPa)
#
#
# Indices 1 2 3 4 5 6 
#
# 1 79.5010 -1.8082 24.5114 0.0000 2.8393 0.0000
# 2 -1.8082 46.6639 -0.8706 0.0000 2.6656 0.0000
# 3 24.5114 -0.8706 117.4976 0.0000 -5.3618 0.0000
# 4 0.0000 0.0000 0.0000 -0.0468 0.0000 -7.5958
# 5 2.8393 2.6656 -5.3618 0.0000 20.1493 0.0000
# 6 0.0000 0.0000 0.0000 -7.5958 0.0000 16.3504
#
#
#
# Elastic Compliance Matrix: (Units=1/GPa)
#
#
# Indices 1 2 3 4 5 6 
#
# 1 0.013605 0.000631 -0.002961 0.000000 -0.002789 0.000000
# 2 0.000631 0.021622 -0.000107 0.000000 -0.002978 0.000000
# 3 -0.002961 -0.000107 0.009260 0.000000 0.002896 0.000000
# 4 0.000000 0.000000 0.000000 -0.279680 0.000000 -0.129928
# 5 -0.002789 -0.002978 0.002896 0.000000 0.051187 0.000000
# 6 0.000000 0.000000 0.000000 -0.129928 0.000000 0.000801
#
#
# Mechanical properties :
#
#
# Convention : Reuss Voigt Hill
#
# Bulk Modulus (GPa) = 25.24382 31.92530 28.58456
# Shear Modulus (GPa) = -30.27999 22.07924 -4.10037
#
# Velocity S-wave (km/s) = -3.72300 3.17912 -1.37002
# Velocity P-wave (km/s) = 2.63165 5.29997 3.25300
#
# Compressibility (1/GPa) = 0.03961366
#
# Stress axis : x y z
#
# Youngs Moduli (GPa) = 73.50091 46.24830 107.99360
#
# Poissons Ratio (x) = -0.02919 0.31975
# Poissons Ratio (y) = -0.04640 0.01160
# Poissons Ratio (z) = 0.21762 0.00497
#
# Static dielectric constant tensor:
#      x y z
#    x 1.793910 0.000000 0.007600 
#    y 0.000000 1.862630 0.000000 
#    z 0.007600 0.000000 1.819340 
# 
# From -- ./inp_files/83623.got.cif
#   From: 2010.05.17/outbox.cif.g08.bks.cpg/sg10_42_cif.got.tgz:83623.got - 2010.06.03 11:33:40.
