data_PCOD9143475
_publ_section_title
;
Structure prediction by ZEFSAII (Michael W. Deem and Ramdas Pophale) SiO2 
 PCOD9143475
Probable space group: P 2/M
;
_chemical_formula_sum "Si O2"
_cell_formula_units_Z 32
_cell_length_a 9.910979
_cell_length_b 13.887413
_cell_length_c 28.087209
_cell_angle_alpha 90.000000
_cell_angle_beta 27.443384
_cell_angle_gamma 90.000000
_cell_volume 1781.667768
_symmetry_space_group_name_H-M "P 2/M"
_symmetry_group_IT_number 10
_symmetry_cell_setting 'monoclinic'
loop_
_space_group_symop_operation_xyz
x,y,z
-x,y,-z
-x,-y,-z
x,-y,z
loop_
_atom_site_type_symbol
_atom_site_label
_atom_site_fract_x
_atom_site_fract_y
_atom_site_fract_z
Si Si1 0.344419 0.695955 0.166267
Si Si2 0.878323 0.383067 0.937255
Si Si3 0.032979 0.113057 0.417265
Si Si4 0.110106 0.705095 0.769438
Si Si5 0.478172 0.387303 0.225827
Si Si6 0.646134 0.110367 0.350344
Si Si7 0.727154 0.702386 0.616110
Si Si8 0.858392 0.109485 0.729177
O O1 0.375427 0.641229 0.206009
O O2 0.332504 0.808526 0.185235
O O3 0.050185 0.673508 0.228587
O O4 0.611512 0.663139 0.049478
O O5 0.845914 0.500000 0.942511
O O6 0.915841 0.331047 0.874470
O O7 0.180535 0.362762 0.871170
O O8 0.690954 0.138195 0.533800
O O9 0.232817 0.183106 0.386322
O O10 0.106007 0.126301 0.338412
O O11 0.073032 0.000000 0.415961
O O12 0.177820 0.818557 0.739886
O O13 0.434535 0.669644 0.680744
O O14 0.456131 0.500000 0.238837
O O15 0.287916 0.339018 0.326370
O O16 0.825672 0.114267 0.343826
O O17 0.650117 0.000000 0.332435
O O18 0.000000 0.669979 0.500000
O O19 0.748248 0.000000 0.770466
#
# Coordination Sequence:
#
# PCOD9143475 Si02
#       8
#     4   4   4   4   4   4   4   4
#     4  11  20  36  61  85 110 148 189 241 276 332
#     4  10  22  40  62  86 112 142 184 240 297 340
#     4  10  18  31  56  84 113 152 195 231 270 324
#     4  10  22  35  54  85 119 149 184 230 290 332
#     4  10  22  40  62  86 108 141 188 236 287 340
#     4   9  17  31  53  83 117 151 190 231 274 328
#     4  11  21  37  55  83 119 154 182 229 281 338
#     4   9  18  32  52  84 119 149 183 230 285 334
#
# _framework density 17.960698000000001
#
# number of rings (size 3 to 8) (size 9 to 14) (size 15 to 20)
#    0.000    2.000    2.500    1.500    0.000    5.000 
#    0.000    1.250    0.000    6.000    0.000    0.000 
#    0.000    0.000    0.000    0.000    0.000    0.000 
#
# Total GULP energy -178349.823451 kJ/mol
# GULP energy per Si atom -5573.431983 kJ/mol
# Density = 1.791982 g / cm^3
# Si number density = 17.960698 Si / 1000 Ang^3
#
#
#
# Elastic Constant Matrix: (Units=GPa)
#
#
# Indices 1 2 3 4 5 6 
#
# 1 100.2139 28.6633 44.5716 0.0000 13.1218 0.0000
# 2 28.6633 52.0200 44.0655 0.0000 5.4871 0.0000
# 3 44.5716 44.0655 109.0416 0.0000 12.4450 0.0000
# 4 0.0000 0.0000 0.0000 -41.7754 0.0000 -75.8807
# 5 13.1218 5.4871 12.4450 0.0000 16.0398 0.0000
# 6 0.0000 0.0000 0.0000 -75.8807 0.0000 -59.1912
#
#
#
# Elastic Compliance Matrix: (Units=1/GPa)
#
#
# Indices 1 2 3 4 5 6 
#
# 1 0.013438 -0.004086 -0.003013 0.000000 -0.007257 0.000000
# 2 -0.004086 0.030484 -0.010796 0.000000 0.001291 0.000000
# 3 -0.003013 -0.010796 0.015429 0.000000 -0.005813 0.000000
# 4 0.000000 0.000000 0.000000 0.018018 0.000000 -0.023098
# 5 -0.007257 0.001291 -0.005813 0.000000 0.072350 0.000000
# 6 0.000000 0.000000 0.000000 -0.023098 0.000000 0.012716
#
#
# Mechanical properties :
#
#
# Convention : Reuss Voigt Hill
#
# Bulk Modulus (GPa) = 42.44600 55.09738 48.77169
# Shear Modulus (GPa) = 24.26243 -7.38703 8.43770
#
# Velocity S-wave (km/s) = 3.67939 -2.03023 2.16981
# Velocity P-wave (km/s) = 6.46023 5.02469 5.78714
#
# Compressibility (1/GPa) = 0.02355935
#
# Stress axis : x y z
#
# Youngs Moduli (GPa) = 74.41650 32.80399 64.81404
#
# Poissons Ratio (x) = 0.13405 0.19530
# Poissons Ratio (y) = 0.30410 0.69974
# Poissons Ratio (z) = 0.22423 0.35416
#
# Static dielectric constant tensor:
#      x y z
#    x 1.644520 0.000000 -0.010860 
#    y 0.000000 1.634060 0.000000 
#    z -0.010860 0.000000 1.594810 
# 
# From -- ./inp_files/88251.got.cif
#   From: 2010.05.17/outbox.cif.g08.bks.cpg/sg10_45_cif.got.tgz:88251.got - 2010.06.03 11:33:40.
