data_PCOD9143598
_publ_section_title
;
Structure prediction by ZEFSAII (Michael W. Deem and Ramdas Pophale) SiO2 
 PCOD9143598
Probable space group: P 2/M
;
_chemical_formula_sum "Si O2"
_cell_formula_units_Z 32
_cell_length_a 9.135810
_cell_length_b 13.625442
_cell_length_c 20.979952
_cell_angle_alpha 90.000000
_cell_angle_beta 40.773753
_cell_angle_gamma 90.000000
_cell_volume 1705.549711
_symmetry_space_group_name_H-M "P 2/M"
_symmetry_group_IT_number 10
_symmetry_cell_setting 'monoclinic'
loop_
_space_group_symop_operation_xyz
x,y,z
-x,y,-z
-x,-y,-z
x,-y,z
loop_
_atom_site_type_symbol
_atom_site_label
_atom_site_fract_x
_atom_site_fract_y
_atom_site_fract_z
Si Si1 0.204436 0.114489 0.284448
Si Si2 0.017733 0.617524 0.196020
Si Si3 0.257103 0.202497 0.399266
Si Si4 0.869146 0.614693 0.977382
Si Si5 0.818241 0.386173 0.655336
Si Si6 0.600441 0.296502 0.850428
Si Si7 0.689695 0.113981 0.490572
Si Si8 0.250299 0.618916 0.593489
O O1 0.312514 0.140141 0.317892
O O2 0.319158 0.188444 0.196928
O O3 0.937229 0.137352 0.380280
O O4 0.228495 0.000000 0.261510
O O5 0.035246 0.500000 0.197913
O O6 0.250841 0.665225 0.140336
O O7 0.842322 0.651741 0.307316
O O8 0.978510 0.636887 0.134690
O O9 0.257223 0.315047 0.376239
O O10 0.375485 0.176652 0.425819
O O11 0.000000 0.176327 0.500000
O O12 0.794139 0.500000 0.995577
O O13 0.657024 0.685788 0.049687
O O14 0.000000 0.622706 0.000000
O O15 0.811912 0.500000 0.640207
O O16 0.665870 0.364153 0.767488
O O17 0.067877 0.358709 0.598662
O O18 0.500000 0.120861 0.500000
O O19 0.706323 0.000000 0.506145
O O20 0.500000 0.655287 0.500000
O O21 0.257756 0.500000 0.592168
#
# Coordination Sequence:
#
# PCOD9143598 Si02
#       8
#     4   4   4   4   4   4   4   4
#     4   9  18  33  53  77 104 135 173 219 275 337
#     4   9  17  31  53  78 102 136 179 216 260 316
#     4   9  17  30  47  71  99 134 180 224 267 316
#     4  10  20  34  54  80 107 135 176 231 276 308
#     4   9  17  29  46  71 105 147 187 215 253 319
#     4  10  18  32  53  76 102 134 173 216 265 319
#     4   9  17  32  55  78 100 131 179 240 290 323
#     4   8  14  27  47  72 106 144 181 222 263 309
#
# _framework density 18.762280000000001
#
# number of rings (size 3 to 8) (size 9 to 14) (size 15 to 20)
#    0.000    2.875    0.000    2.625    0.000    2.750 
#    0.000   16.250    0.000    8.250    0.000    0.000 
#    0.000    0.000    0.000    0.000    0.000    0.000 
#
# Total GULP energy -178497.611909 kJ/mol
# GULP energy per Si atom -5578.050372 kJ/mol
# Density = 1.871958 g / cm^3
# Si number density = 18.762280 Si / 1000 Ang^3
#
#
#
# Elastic Constant Matrix: (Units=GPa)
#
#
# Indices 1 2 3 4 5 6 
#
# 1 74.4349 35.6012 35.9786 0.0000 23.2508 0.0000
# 2 35.6012 98.7356 33.2497 0.0000 5.3651 0.0000
# 3 35.9786 33.2497 66.3680 0.0000 4.4325 0.0000
# 4 0.0000 0.0000 0.0000 21.0608 0.0000 5.3149
# 5 23.2508 5.3651 4.4325 0.0000 24.5338 0.0000
# 6 0.0000 0.0000 0.0000 5.3149 0.0000 15.6442
#
#
#
# Elastic Compliance Matrix: (Units=1/GPa)
#
#
# Indices 1 2 3 4 5 6 
#
# 1 0.029163 -0.005310 -0.011520 0.000000 -0.024395 0.000000
# 2 -0.005310 0.013211 -0.003931 0.000000 0.002854 0.000000
# 3 -0.011520 -0.003931 0.022770 0.000000 0.007663 0.000000
# 4 0.000000 0.000000 0.000000 0.051934 0.000000 -0.017644
# 5 -0.024395 0.002854 0.007663 0.000000 0.061871 0.000000
# 6 0.000000 0.000000 0.000000 -0.017644 0.000000 0.069916
#
#
# Mechanical properties :
#
#
# Convention : Reuss Voigt Hill
#
# Bulk Modulus (GPa) = 42.33207 49.91083 46.12145
# Shear Modulus (GPa) = 16.76389 21.22835 18.99612
#
# Velocity S-wave (km/s) = 2.99237 3.36733 3.18538
# Velocity P-wave (km/s) = 5.87796 6.46359 6.17772
#
# Compressibility (1/GPa) = 0.02362275
#
# Stress axis : x y z
#
# Youngs Moduli (GPa) = 34.29039 75.69219 43.91785
#
# Poissons Ratio (x) = 0.40195 0.50592
# Poissons Ratio (y) = 0.18209 0.17262
# Poissons Ratio (z) = 0.39501 0.29751
#
# Static dielectric constant tensor:
#      x y z
#    x 1.677150 0.000000 0.007770 
#    y 0.000000 1.670980 0.000000 
#    z 0.007770 0.000000 1.661900 
# 
# From -- ./inp_files/82796.got.cif
#   From: 2010.05.17/outbox.cif.g08.bks.cpg/sg10_42_cif.got.tgz:82796.got - 2010.06.03 11:33:40.
