data_PCOD9143035
_publ_section_title
;
Structure prediction by ZEFSAII (Michael W. Deem and Ramdas Pophale) SiO2 
 PCOD9143035
Probable space group: P 2/M
;
_chemical_formula_sum "Si O2"
_cell_formula_units_Z 32
_cell_length_a 23.761793
_cell_length_b 8.776856
_cell_length_c 29.391580
_cell_angle_alpha 90.000000
_cell_angle_beta 162.822552
_cell_angle_gamma 90.000000
_cell_volume 1810.304600
_symmetry_space_group_name_H-M "P 2/M"
_symmetry_group_IT_number 10
_symmetry_cell_setting 'monoclinic'
loop_
_space_group_symop_operation_xyz
x,y,z
-x,y,-z
-x,-y,-z
x,-y,z
loop_
_atom_site_type_symbol
_atom_site_label
_atom_site_fract_x
_atom_site_fract_y
_atom_site_fract_z
Si Si1 0.087260 0.818011 0.461716
Si Si2 0.279447 0.184169 0.515517
Si Si3 0.787936 0.680724 0.631936
Si Si4 0.060939 0.815685 0.164033
Si Si5 0.287396 0.815752 0.166626
Si Si6 0.221521 0.675724 0.654915
Si Si7 0.675998 0.315371 0.168135
Si Si8 0.623604 0.183532 0.664478
O O1 0.877517 0.746661 0.305720
O O2 0.179611 0.770490 0.485228
O O3 0.218081 0.767628 0.605440
O O4 0.069744 0.000000 0.448845
O O5 0.184061 0.251558 0.396688
O O6 0.501412 0.232856 0.685372
O O7 0.276062 0.000000 0.509662
O O8 0.793456 0.500000 0.634666
O O9 0.931112 0.745585 0.780049
O O10 0.579634 0.737509 0.487737
O O11 0.249919 0.774931 0.281074
O O12 0.057825 0.000000 0.164761
O O13 0.880405 0.761659 0.995346
O O14 0.265138 0.779156 0.202759
O O15 0.283504 0.000000 0.161211
O O16 0.273197 0.500000 0.685736
O O17 0.337148 0.731839 0.788620
O O18 0.000000 0.677448 0.500000
O O19 0.685190 0.500000 0.175468
O O20 0.500000 0.269222 0.000000
O O21 0.592654 0.000000 0.639544
#
# Coordination Sequence:
#
# PCOD9143035 Si02
#       8
#     4   4   4   4   4   4   4   4
#     4  10  19  31  52  78 100 126 162 205 246 283
#     4   9  19  37  55  70  92 126 167 204 242 290
#     4  11  22  33  47  69  98 131 164 200 242 290
#     4  10  18  30  51  74  95 123 158 200 251 299
#     4   8  15  30  52  73  92 119 160 204 240 285
#     4   8  15  29  49  72  98 130 164 193 227 277
#     4   9  18  33  52  75 106 140 167 193 231 280
#     4   9  17  31  51  73  95 122 159 200 245 299
#
# _framework density 17.676583000000001
#
# number of rings (size 3 to 8) (size 9 to 14) (size 15 to 20)
#    0.000    2.750    0.000    3.750    0.000    7.000 
#    0.000    3.750    0.000    8.250    0.000    0.000 
#    0.000    0.000    0.000    0.000    0.000    0.000 
#
# Total GULP energy -178366.389176 kJ/mol
# GULP energy per Si atom -5573.949662 kJ/mol
# Density = 1.763635 g / cm^3
# Si number density = 17.676583 Si / 1000 Ang^3
#
#
#
# Elastic Constant Matrix: (Units=GPa)
#
#
# Indices 1 2 3 4 5 6 
#
# 1 149.1819 34.1761 48.3388 0.0000 -24.1042 0.0000
# 2 34.1761 21.6276 14.1384 0.0000 -5.4772 0.0000
# 3 48.3388 14.1384 56.5379 0.0000 -31.4965 0.0000
# 4 0.0000 0.0000 0.0000 -9.0168 0.0000 -9.2808
# 5 -24.1042 -5.4772 -31.4965 0.0000 30.5609 0.0000
# 6 0.0000 0.0000 0.0000 -9.2808 0.0000 11.6424
#
#
#
# Elastic Compliance Matrix: (Units=1/GPa)
#
#
# Indices 1 2 3 4 5 6 
#
# 1 0.012363 -0.015107 -0.006736 0.000000 0.000102 0.000000
# 2 -0.015107 0.075119 -0.011756 0.000000 -0.010569 0.000000
# 3 -0.006736 -0.011756 0.052254 0.000000 0.046434 0.000000
# 4 0.000000 0.000000 0.000000 -0.060920 0.000000 -0.048563
# 5 0.000102 -0.010569 0.046434 0.000000 0.078763 0.000000
# 6 0.000000 0.000000 0.000000 -0.048563 0.000000 0.047181
#
#
# Mechanical properties :
#
#
# Convention : Reuss Voigt Hill
#
# Bulk Modulus (GPa) = 13.78602 46.73933 30.26267
# Shear Modulus (GPa) = 16.88408 15.35024 16.11716
#
# Velocity S-wave (km/s) = 3.09393 2.95005 3.02285
# Velocity P-wave (km/s) = 4.53643 6.17272 5.41672
#
# Compressibility (1/GPa) = 0.07253726
#
# Stress axis : x y z
#
# Youngs Moduli (GPa) = 80.88557 13.31225 19.13743
#
# Poissons Ratio (x) = 0.20111 0.12890
# Poissons Ratio (y) = 1.22197 0.22498
# Poissons Ratio (z) = 0.54483 0.15650
#
# Static dielectric constant tensor:
#      x y z
#    x 1.606450 0.000000 -0.026360 
#    y 0.000000 1.599020 0.000000 
#    z -0.026360 0.000000 1.610910 
# 
# From -- ./inp_files/93765.got.cif
#   From: 2010.05.17/outbox.cif.g08.bks.cpg/sg10_47_cif.got.tgz:93765.got - 2010.06.03 11:33:40.
