data_PCOD9143224
_publ_section_title
;
Structure prediction by ZEFSAII (Michael W. Deem and Ramdas Pophale) SiO2 
 PCOD9143224
Probable space group: P 2/M
;
_chemical_formula_sum "Si O2"
_cell_formula_units_Z 32
_cell_length_a 16.719397
_cell_length_b 13.640537
_cell_length_c 19.102423
_cell_angle_alpha 90.000000
_cell_angle_beta 21.749302
_cell_angle_gamma 90.000000
_cell_volume 1614.294655
_symmetry_space_group_name_H-M "P 2/M"
_symmetry_group_IT_number 10
_symmetry_cell_setting 'monoclinic'
loop_
_space_group_symop_operation_xyz
x,y,z
-x,y,-z
-x,-y,-z
x,-y,z
loop_
_atom_site_type_symbol
_atom_site_label
_atom_site_fract_x
_atom_site_fract_y
_atom_site_fract_z
Si Si1 0.611425 0.607753 0.505108
Si Si2 0.140423 0.721451 0.586530
Si Si3 0.258552 0.737410 0.982868
Si Si4 0.861539 0.613253 0.707983
Si Si5 0.466216 0.612411 0.142050
Si Si6 0.503462 0.112675 0.292336
Si Si7 0.967131 0.336894 0.104659
Si Si8 0.645378 0.807290 0.320418
O O1 0.511604 0.500000 0.586914
O O2 0.729288 0.633201 0.481903
O O3 0.793686 0.611162 0.295844
O O4 0.459314 0.700431 0.613459
O O5 0.295846 0.815372 0.458830
O O6 0.942566 0.741685 0.800855
O O7 0.039928 0.684162 0.595670
O O8 0.180293 0.677032 0.977956
O O9 0.455299 0.681891 0.860150
O O10 0.336171 0.843445 0.895824
O O11 0.935292 0.500000 0.643626
O O12 0.747853 0.640192 0.727199
O O13 0.664400 0.613794 0.924841
O O14 0.444958 0.500000 0.182877
O O15 0.622335 0.129292 0.270213
O O16 0.448458 0.000000 0.327153
O O17 0.872091 0.226803 0.168182
O O18 0.000000 0.378538 0.000000
O O19 0.500000 0.851085 0.500000
#
# Coordination Sequence:
#
# PCOD9143224 Si02
#       8
#     4   4   4   4   4   4   4   4
#     4   9  18  31  49  74 106 145 176 208 259 316
#     4   9  19  35  58  81 109 143 178 222 268 325
#     4  10  20  36  56  78 112 144 173 224 276 316
#     4   8  13  27  56  88 115 147 181 214 258 314
#     4   8  15  29  53  86 118 147 182 217 256 315
#     4  11  23  39  58  79 104 137 181 232 285 331
#     4  10  18  31  50  69 103 140 177 217 255 313
#     4   9  19  36  54  72 103 136 177 231 273 318
#
# _framework density 19.822899
#
# number of rings (size 3 to 8) (size 9 to 14) (size 15 to 20)
#    0.000    2.750    1.250    1.875    0.000    6.250 
#    0.000    5.000    0.000    3.000    0.000    3.500 
#    0.000    0.000    0.000    0.000    0.000    0.000 
#
# Total GULP energy -178620.400223 kJ/mol
# GULP energy per Si atom -5581.887507 kJ/mol
# Density = 1.977778 g / cm^3
# Si number density = 19.822899 Si / 1000 Ang^3
#
#
#
# Elastic Constant Matrix: (Units=GPa)
#
#
# Indices 1 2 3 4 5 6 
#
# 1 134.7203 48.3519 21.9008 0.0000 -13.9834 0.0000
# 2 48.3519 87.9688 11.1211 0.0000 -3.4947 0.0000
# 3 21.9008 11.1211 52.9412 0.0000 0.3062 0.0000
# 4 0.0000 0.0000 0.0000 15.5271 0.0000 -0.3240
# 5 -13.9834 -3.4947 0.3062 0.0000 29.4168 0.0000
# 6 0.0000 0.0000 0.0000 -0.3240 0.0000 15.0372
#
#
#
# Elastic Compliance Matrix: (Units=1/GPa)
#
#
# Indices 1 2 3 4 5 6 
#
# 1 0.010189 -0.005028 -0.003184 0.000000 0.004279 0.000000
# 2 -0.005028 0.014218 -0.000903 0.000000 -0.000692 0.000000
# 3 -0.003184 -0.000903 0.020406 0.000000 -0.001833 0.000000
# 4 0.000000 0.000000 0.000000 0.064432 0.000000 0.001389
# 5 0.004279 -0.000692 -0.001833 0.000000 0.035965 0.000000
# 6 0.000000 0.000000 0.000000 0.001389 0.000000 0.066532
#
#
# Mechanical properties :
#
#
# Convention : Reuss Voigt Hill
#
# Bulk Modulus (GPa) = 37.61578 48.70867 43.16223
# Shear Modulus (GPa) = 20.93516 24.94663 22.94090
#
# Velocity S-wave (km/s) = 3.25331 3.55135 3.40559
# Velocity P-wave (km/s) = 5.75579 6.43750 6.10617
#
# Compressibility (1/GPa) = 0.02658458
#
# Stress axis : x y z
#
# Youngs Moduli (GPa) = 98.14463 70.33383 49.00491
#
# Poissons Ratio (x) = 0.35363 0.15601
# Poissons Ratio (y) = 0.49346 0.04424
# Poissons Ratio (z) = 0.31245 0.06349
#
# Static dielectric constant tensor:
#      x y z
#    x 1.734090 0.000000 0.003850 
#    y 0.000000 1.633780 0.000000 
#    z 0.003850 0.000000 1.800520 
# 
# From -- ./inp_files/78181.got.cif
#   From: 2010.05.17/outbox.cif.g08.bks.cpg/sg10_40_cif.got.tgz:78181.got - 2010.06.03 11:33:40.
