data_PCOD9143971
_publ_section_title
;
Structure prediction by ZEFSAII (Michael W. Deem and Ramdas Pophale) SiO2 
 PCOD9143971
Probable space group: P 2/M
;
_chemical_formula_sum "Si O2"
_cell_formula_units_Z 20
_cell_length_a 7.453930
_cell_length_b 13.792226
_cell_length_c 7.849741
_cell_angle_alpha 90.000000
_cell_angle_beta 99.796387
_cell_angle_gamma 90.000000
_cell_volume 795.235522
_symmetry_space_group_name_H-M "P 2/M"
_symmetry_group_IT_number 10
_symmetry_cell_setting 'monoclinic'
loop_
_space_group_symop_operation_xyz
x,y,z
-x,y,-z
-x,-y,-z
x,-y,z
loop_
_atom_site_type_symbol
_atom_site_label
_atom_site_fract_x
_atom_site_fract_y
_atom_site_fract_z
Si Si1 0.453661 0.188701 0.754674
Si Si2 0.015097 0.396648 0.797828
Si Si3 0.591962 0.607009 0.699030
Si Si4 0.763789 0.890158 0.590773
Si Si5 0.896566 0.185625 0.163523
O O1 0.525630 0.298393 0.788835
O O2 0.319784 0.179690 0.566447
O O3 0.627047 0.126061 0.727361
O O4 0.687513 0.152551 0.125669
O O5 0.089971 0.500000 0.746534
O O6 0.808139 0.384840 0.704534
O O7 0.117082 0.297860 0.778585
O O8 0.000000 0.402083 0.000000
O O9 0.500000 0.608596 0.500000
O O10 0.560076 0.500000 0.773265
O O11 0.966827 0.868308 0.686545
O O12 0.748914 0.000000 0.526649
O O13 0.000000 0.183087 0.000000
#
# Coordination Sequence:
#
# PCOD9143971 Si02
#       5
#     4   4   4   4   4
#     4  11  21  40  66  91 123 162 208 253 315 370
#     4   9  18  36  58  85 128 170 205 245 300 373
#     4  10  18  33  61  94 127 161 208 262 309 363
#     4  11  24  44  66  90 118 158 213 263 316 380
#     4  11  24  40  62  93 128 163 203 255 313 373
#
# _framework density 25.149781999999998
#
# number of rings (size 3 to 8) (size 9 to 14) (size 15 to 20)
#    0.000    1.600    4.000    1.800    0.000    4.400 
#    0.000    1.000    0.000   12.000    0.000    0.000 
#    0.000    0.000    0.000    0.000    0.000    0.000 
#
# Total GULP energy -111863.094649 kJ/mol
# GULP energy per Si atom -5593.154732 kJ/mol
# Density = 2.509254 g / cm^3
# Si number density = 25.149782 Si / 1000 Ang^3
#
#
#
# Elastic Constant Matrix: (Units=GPa)
#
#
# Indices 1 2 3 4 5 6 
#
# 1 113.5410 3.6585 -21.6377 0.0000 -2.7623 0.0000
# 2 3.6585 114.2180 -2.4446 0.0000 -10.8173 0.0000
# 3 -21.6377 -2.4446 48.1244 0.0000 -2.0467 0.0000
# 4 0.0000 0.0000 0.0000 13.6609 0.0000 10.1592
# 5 -2.7623 -10.8173 -2.0467 0.0000 37.2359 0.0000
# 6 0.0000 0.0000 0.0000 10.1592 0.0000 8.4787
#
#
#
# Elastic Compliance Matrix: (Units=1/GPa)
#
#
# Indices 1 2 3 4 5 6 
#
# 1 0.009669 -0.000129 0.004380 0.000000 0.000921 0.000000
# 2 -0.000129 0.009020 0.000513 0.000000 0.002639 0.000000
# 3 0.004380 0.000513 0.022848 0.000000 0.001730 0.000000
# 4 0.000000 0.000000 0.000000 0.671970 0.000000 -0.805156
# 5 0.000921 0.002639 0.001730 0.000000 0.027786 0.000000
# 6 0.000000 0.000000 0.000000 -0.805156 0.000000 1.082684
#
#
# Mechanical properties :
#
#
# Convention : Reuss Voigt Hill
#
# Bulk Modulus (GPa) = 19.58314 26.11509 22.84911
# Shear Modulus (GPa) = 2.73005 31.62890 17.17948
#
# Velocity S-wave (km/s) = 1.04301 3.55014 2.61643
# Velocity P-wave (km/s) = 3.04204 5.21642 4.26996
#
# Compressibility (1/GPa) = 0.05106433
#
# Stress axis : x y z
#
# Youngs Moduli (GPa) = 103.42756 110.86199 43.76691
#
# Poissons Ratio (x) = 0.01428 -0.19169
# Poissons Ratio (y) = 0.01332 -0.02243
# Poissons Ratio (z) = -0.45299 -0.05682
#
# Static dielectric constant tensor:
#      x y z
#    x 2.035310 0.000000 -0.086110 
#    y 0.000000 1.964790 0.000000 
#    z -0.086110 0.000000 2.014110 
# 
# From -- ./inp_files/47064.got.cif
#   From: 2010.05.17/outbox.cif.g08.bks.cpg/sg10_24_cif.got.tgz:47064.got - 2010.06.03 11:33:40.
