data_PCOD9143182
_publ_section_title
;
Structure prediction by ZEFSAII (Michael W. Deem and Ramdas Pophale) SiO2 
 PCOD9143182
Probable space group: P 2/M
;
_chemical_formula_sum "Si O2"
_cell_formula_units_Z 32
_cell_length_a 19.741005
_cell_length_b 13.495852
_cell_length_c 19.804488
_cell_angle_alpha 90.000000
_cell_angle_beta 158.777357
_cell_angle_gamma 90.000000
_cell_volume 1909.999911
_symmetry_space_group_name_H-M "P 2/M"
_symmetry_group_IT_number 10
_symmetry_cell_setting 'monoclinic'
loop_
_space_group_symop_operation_xyz
x,y,z
-x,y,-z
-x,-y,-z
x,-y,z
loop_
_atom_site_type_symbol
_atom_site_label
_atom_site_fract_x
_atom_site_fract_y
_atom_site_fract_z
Si Si1 0.736362 0.881001 0.561399
Si Si2 0.281922 0.679465 0.778117
Si Si3 0.050929 0.388160 0.437324
Si Si4 0.785966 0.112660 0.230332
Si Si5 0.511732 0.116871 0.854662
Si Si6 0.328965 0.879760 0.134476
Si Si7 0.989671 0.121010 0.913330
Si Si8 0.111995 0.185413 0.436473
O O1 0.527672 0.848083 0.350009
O O2 0.870381 0.851394 0.623821
O O3 0.733930 0.000000 0.559125
O O4 0.809454 0.848844 0.702239
O O5 0.213718 0.633970 0.644017
O O6 0.222906 0.796073 0.726502
O O7 0.146013 0.627954 0.706709
O O8 0.500000 0.667945 0.000000
O O9 0.066036 0.500000 0.426906
O O10 0.063428 0.301051 0.394817
O O11 0.962662 0.127773 0.344453
O O12 0.785984 0.000000 0.257632
O O13 0.605511 0.127331 0.014372
O O14 0.658853 0.148688 0.933064
O O15 0.317081 0.169569 0.659625
O O16 0.475036 0.000000 0.810398
O O17 0.162764 0.845541 0.027736
O O18 0.318792 0.000000 0.125832
O O19 0.992506 0.000000 0.918055
O O20 0.000000 0.155185 0.000000
#
# Coordination Sequence:
#
# PCOD9143182 Si02
#       8
#     4   4   4   4   4   4   4   4
#     4   9  16  26  41  60  83 112 142 170 205 250
#     4  10  20  35  51  67  88 116 144 172 214 264
#     4  10  22  37  51  67  84 106 143 187 224 263
#     4  10  19  29  44  67  92 116 143 175 210 254
#     4   9  16  27  44  65  90 117 144 176 213 254
#     4   8  14  23  35  53  78 111 147 177 202 230
#     4   9  16  24  35  54  83 119 152 175 195 227
#     4  10  18  31  48  65  85 112 146 180 220 262
#
# _framework density 16.753927999999998
#
# number of rings (size 3 to 8) (size 9 to 14) (size 15 to 20)
#    0.000    2.625    0.000    4.125    0.000    3.750 
#    0.000    8.750    0.000    0.000    0.000    0.000 
#    0.000    0.500    0.000    5.500    0.000    2.500 
#
# Total GULP energy -178464.064171 kJ/mol
# GULP energy per Si atom -5577.002005 kJ/mol
# Density = 1.671579 g / cm^3
# Si number density = 16.753928 Si / 1000 Ang^3
#
#
#
# Elastic Constant Matrix: (Units=GPa)
#
#
# Indices 1 2 3 4 5 6 
#
# 1 34.0323 -1.2866 3.4762 0.0000 -4.9333 0.0000
# 2 -1.2866 57.9035 2.4909 0.0000 -0.6003 0.0000
# 3 3.4762 2.4909 58.3849 0.0000 3.7640 0.0000
# 4 0.0000 0.0000 0.0000 7.4747 0.0000 1.1156
# 5 -4.9333 -0.6003 3.7640 0.0000 20.5864 0.0000
# 6 0.0000 0.0000 0.0000 1.1156 0.0000 8.5533
#
#
#
# Elastic Compliance Matrix: (Units=1/GPa)
#
#
# Indices 1 2 3 4 5 6 
#
# 1 0.030796 0.000868 -0.002376 0.000000 0.007840 0.000000
# 2 0.000868 0.017335 -0.000847 0.000000 0.000868 0.000000
# 3 -0.002376 -0.000847 0.017550 0.000000 -0.003803 0.000000
# 4 0.000000 0.000000 0.000000 0.136441 0.000000 -0.017796
# 5 0.007840 0.000868 -0.003803 0.000000 0.051175 0.000000
# 6 0.000000 0.000000 0.000000 -0.017796 0.000000 0.119235
#
#
# Mechanical properties :
#
#
# Convention : Reuss Voigt Hill
#
# Bulk Modulus (GPa) = 16.40143 17.74240 17.07192
# Shear Modulus (GPa) = 12.57651 17.03223 14.80437
#
# Velocity S-wave (km/s) = 2.74279 3.19189 2.97583
# Velocity P-wave (km/s) = 4.45437 4.91907 4.69247
#
# Compressibility (1/GPa) = 0.06097028
#
# Stress axis : x y z
#
# Youngs Moduli (GPa) = 32.47194 57.68731 56.97844
#
# Poissons Ratio (x) = -0.05006 0.13538
# Poissons Ratio (y) = -0.02818 0.04827
# Poissons Ratio (z) = 0.07715 0.04887
#
# Static dielectric constant tensor:
#      x y z
#    x 1.587810 0.000000 0.003170 
#    y 0.000000 1.556070 0.000000 
#    z 0.003170 0.000000 1.616420 
# 
# From -- ./inp_files/86369.got.cif
#   From: 2010.05.17/outbox.cif.g08.bks.cpg/sg10_44_cif.got.tgz:86369.got - 2010.06.03 11:33:40.
