data_PCOD9143480
_publ_section_title
;
Structure prediction by ZEFSAII (Michael W. Deem and Ramdas Pophale) SiO2 
 PCOD9143480
Probable space group: P 2/M
;
_chemical_formula_sum "Si O2"
_cell_formula_units_Z 30
_cell_length_a 30.886940
_cell_length_b 10.856338
_cell_length_c 15.665247
_cell_angle_alpha 90.000000
_cell_angle_beta 162.769334
_cell_angle_gamma 90.000000
_cell_volume 1555.997269
_symmetry_space_group_name_H-M "P 2/M"
_symmetry_group_IT_number 10
_symmetry_cell_setting 'monoclinic'
loop_
_space_group_symop_operation_xyz
x,y,z
-x,y,-z
-x,-y,-z
x,-y,z
loop_
_atom_site_type_symbol
_atom_site_label
_atom_site_fract_x
_atom_site_fract_y
_atom_site_fract_z
Si Si1 0.177927 0.766145 0.016001
Si Si2 0.727476 0.139341 0.174204
Si Si3 0.355281 0.146967 0.684260
Si Si4 0.621423 0.143138 0.462468
Si Si5 0.957840 0.000000 0.152866
Si Si6 0.058261 0.205905 0.205246
Si Si7 0.916998 0.636766 0.600462
Si Si8 0.824728 0.140740 0.163189
O O1 0.309310 0.778417 0.331065
O O2 0.227408 0.771703 0.011273
O O3 0.064944 0.658305 0.825236
O O4 0.083248 0.890103 0.854921
O O5 0.804759 0.253960 0.364532
O O6 0.756770 0.156002 0.128973
O O7 0.790032 0.000000 0.318990
O O8 0.554564 0.138088 0.866270
O O9 0.332200 0.190380 0.543660
O O10 0.225801 0.168954 0.505708
O O11 0.374466 0.000000 0.709436
O O12 0.500000 0.199005 0.000000
O O13 0.676742 0.000000 0.579087
O O14 0.983317 0.107604 0.126133
O O15 0.046067 0.334631 0.231422
O O16 0.000000 0.205104 0.000000
O O17 0.859333 0.500000 0.478942
O O18 0.000000 0.155078 0.500000
O O19 0.789390 0.000000 0.073008
#
# Coordination Sequence:
#
# PCOD9143480 Si02
#       8
#     4   4   4   4   2   4   4   4
#     4  11  20  35  58  85 124 157 190 243 299 355
#     4  10  22  38  62  89 119 157 198 242 297 355
#     4  10  19  31  48  81 119 149 191 243 290 340
#     4  10  20  34  56  89 124 156 193 244 300 356
#     4  10  19  30  54  87 115 152 185 236 294 345
#     4  11  22  33  57  82 113 153 198 242 296 347
#     4  11  25  41  59  85 120 158 203 248 299 355
#     4  10  18  31  56  93 122 150 193 242 296 353
#
# _framework density 19.280241
#
# number of rings (size 3 to 8) (size 9 to 14) (size 15 to 20)
#    0.000    1.600    3.333    2.600    5.600    1.867 
#    0.000    4.000    0.000    3.600    0.000    1.867 
#    0.000    0.000    0.000    0.000    0.000    0.000 
#
# Total GULP energy -167037.814896 kJ/mol
# GULP energy per Si atom -5567.927163 kJ/mol
# Density = 1.923636 g / cm^3
# Si number density = 19.280241 Si / 1000 Ang^3
#
#
#
# Elastic Constant Matrix: (Units=GPa)
#
#
# Indices 1 2 3 4 5 6 
#
# 1 122.2977 16.7102 6.9225 0.0000 -18.5580 0.0000
# 2 16.7102 85.5013 17.5265 0.0000 -3.0600 0.0000
# 3 6.9225 17.5265 61.3050 0.0000 -13.0104 0.0000
# 4 0.0000 0.0000 0.0000 11.2648 0.0000 2.5417
# 5 -18.5580 -3.0600 -13.0104 0.0000 37.0788 0.0000
# 6 0.0000 0.0000 0.0000 2.5417 0.0000 7.3170
#
#
#
# Elastic Compliance Matrix: (Units=1/GPa)
#
#
# Indices 1 2 3 4 5 6 
#
# 1 0.009075 -0.001698 0.000427 0.000000 0.004552 0.000000
# 2 -0.001698 0.012744 -0.003683 0.000000 -0.001091 0.000000
# 3 0.000427 -0.003683 0.018689 0.000000 0.006467 0.000000
# 4 0.000000 0.000000 0.000000 0.096321 0.000000 -0.033459
# 5 0.004552 -0.001091 0.006467 0.000000 0.031427 0.000000
# 6 0.000000 0.000000 0.000000 -0.033459 0.000000 0.148290
#
#
# Mechanical properties :
#
#
# Convention : Reuss Voigt Hill
#
# Bulk Modulus (GPa) = 32.68066 39.04696 35.86381
# Shear Modulus (GPa) = 14.85198 26.32843 20.59021
#
# Velocity S-wave (km/s) = 2.77848 3.69937 3.27149
# Velocity P-wave (km/s) = 5.22306 6.20833 5.73689
#
# Compressibility (1/GPa) = 0.03059914
#
# Stress axis : x y z
#
# Youngs Moduli (GPa) = 110.18837 78.47111 53.50702
#
# Poissons Ratio (x) = 0.13326 -0.02283
# Poissons Ratio (y) = 0.18713 0.19706
# Poissons Ratio (z) = -0.04702 0.28900
#
# Static dielectric constant tensor:
#      x y z
#    x 1.704860 0.000000 -0.016150 
#    y 0.000000 1.649310 0.000000 
#    z -0.016150 0.000000 1.481960 
# 
# From -- ./inp_files/72664.got.cif
#   From: 2010.05.17/outbox.cif.g08.bks.cpg/sg10_37_cif.got.tgz:72664.got - 2010.06.03 11:33:40.
