data_PCOD9143149
_publ_section_title
;
Structure prediction by ZEFSAII (Michael W. Deem and Ramdas Pophale) SiO2 
 PCOD9143149
Probable space group: P 2/M
;
_chemical_formula_sum "Si O2"
_cell_formula_units_Z 32
_cell_length_a 9.937720
_cell_length_b 14.180579
_cell_length_c 14.843111
_cell_angle_alpha 90.000000
_cell_angle_beta 51.015095
_cell_angle_gamma 90.000000
_cell_volume 1625.926384
_symmetry_space_group_name_H-M "P 2/M"
_symmetry_group_IT_number 10
_symmetry_cell_setting 'monoclinic'
loop_
_space_group_symop_operation_xyz
x,y,z
-x,y,-z
-x,-y,-z
x,-y,z
loop_
_atom_site_type_symbol
_atom_site_label
_atom_site_fract_x
_atom_site_fract_y
_atom_site_fract_z
Si Si1 0.174553 0.797530 0.879310
Si Si2 0.214887 0.604736 0.966219
Si Si3 0.680440 0.112315 0.875294
Si Si4 0.938466 0.604441 0.773186
Si Si5 0.604933 0.394987 0.787318
Si Si6 0.954361 0.802271 0.264821
Si Si7 0.429998 0.189855 0.268234
Si Si8 0.849322 0.888427 0.494989
O O1 0.183452 0.688691 0.909895
O O2 0.365993 0.834101 0.823043
O O3 0.150349 0.809305 0.783187
O O4 0.000000 0.837584 0.000000
O O5 0.189632 0.500000 0.937400
O O6 0.415475 0.609179 0.911977
O O7 0.103240 0.613918 0.103269
O O8 0.846203 0.169189 0.841142
O O9 0.658806 0.140089 0.780167
O O10 0.708062 0.000000 0.873437
O O11 0.500000 0.137704 0.000000
O O12 0.010707 0.500000 0.726109
O O13 0.759246 0.611831 0.793602
O O14 0.050939 0.694061 0.700400
O O15 0.618590 0.500000 0.738707
O O16 0.603286 0.302248 0.726373
O O17 0.895394 0.864956 0.373068
O O18 0.332663 0.154290 0.397300
O O19 0.000000 0.852515 0.500000
O O20 0.840671 0.000000 0.510148
#
# Coordination Sequence:
#
# PCOD9143149 Si02
#       8
#     4   4   4   4   4   4   4   4
#     4  11  23  38  58  93 134 172 201 247 315 384
#     4   9  18  31  53  85 128 174 212 249 297 370
#     4  11  23  39  63  91 118 155 207 266 328 380
#     4  10  18  30  54  91 129 166 211 256 307 369
#     4   9  17  30  53  91 128 162 207 259 311 367
#     4  12  23  39  62  92 128 164 209 261 316 365
#     4  11  22  40  66  90 125 168 212 257 311 374
#     4  11  23  44  72  94 114 153 220 280 315 364
#
# _framework density 19.681087999999999
#
# number of rings (size 3 to 8) (size 9 to 14) (size 15 to 20)
#    0.000    1.500    3.750    1.875    1.750    2.750 
#    0.000    3.750    0.000    6.750    0.000    4.375 
#    0.000    0.000    0.000    0.000    0.000    0.000 
#
# Total GULP energy -178596.418750 kJ/mol
# GULP energy per Si atom -5581.138086 kJ/mol
# Density = 1.963629 g / cm^3
# Si number density = 19.681088 Si / 1000 Ang^3
#
#
#
# Elastic Constant Matrix: (Units=GPa)
#
#
# Indices 1 2 3 4 5 6 
#
# 1 76.1696 0.9429 2.5348 0.0000 8.7887 0.0000
# 2 0.9429 61.9427 11.3812 0.0000 -5.3971 0.0000
# 3 2.5348 11.3812 58.3437 0.0000 -4.6146 0.0000
# 4 0.0000 0.0000 0.0000 27.8030 0.0000 0.5870
# 5 8.7887 -5.3971 -4.6146 0.0000 19.9215 0.0000
# 6 0.0000 0.0000 0.0000 0.5870 0.0000 13.1448
#
#
#
# Elastic Compliance Matrix: (Units=1/GPa)
#
#
# Indices 1 2 3 4 5 6 
#
# 1 0.013924 -0.000597 -0.001006 0.000000 -0.006537 0.000000
# 2 -0.000597 0.017065 -0.002971 0.000000 0.004198 0.000000
# 3 -0.001006 -0.002971 0.018065 0.000000 0.003823 0.000000
# 4 0.000000 0.000000 0.000000 0.036001 0.000000 -0.001608
# 5 -0.006537 0.004198 0.003823 0.000000 0.055104 0.000000
# 6 0.000000 0.000000 0.000000 -0.001608 0.000000 0.076148
#
#
# Mechanical properties :
#
#
# Convention : Reuss Voigt Hill
#
# Bulk Modulus (GPa) = 25.05797 25.13041 25.09419
# Shear Modulus (GPa) = 20.94190 24.28033 22.61112
#
# Velocity S-wave (km/s) = 3.26554 3.51620 3.39318
# Velocity P-wave (km/s) = 5.19403 5.41123 5.30374
#
# Compressibility (1/GPa) = 0.03990746
#
# Stress axis : x y z
#
# Youngs Moduli (GPa) = 71.81977 58.60055 55.35431
#
# Poissons Ratio (x) = 0.03497 0.05566
# Poissons Ratio (y) = 0.04286 0.16445
# Poissons Ratio (z) = 0.07222 0.17409
#
# Static dielectric constant tensor:
#      x y z
#    x 1.706350 0.000000 -0.022860 
#    y 0.000000 1.726300 0.000000 
#    z -0.022860 0.000000 1.680920 
# 
# From -- ./inp_files/61852.got.cif
#   From: 2010.05.17/outbox.cif.g08.bks.cpg/sg10_31_cif.got.tgz:61852.got - 2010.06.03 11:33:40.
