data_PCOD9143995
_publ_section_title
;
Structure prediction by ZEFSAII (Michael W. Deem and Ramdas Pophale) SiO2 
 PCOD9143995
Probable space group: P 2/M
;
_chemical_formula_sum "Si O2"
_cell_formula_units_Z 20
_cell_length_a 10.016413
_cell_length_b 14.660735
_cell_length_c 10.619786
_cell_angle_alpha 90.000000
_cell_angle_beta 41.553036
_cell_angle_gamma 90.000000
_cell_volume 1034.432759
_symmetry_space_group_name_H-M "P 2/M"
_symmetry_group_IT_number 10
_symmetry_cell_setting 'monoclinic'
loop_
_space_group_symop_operation_xyz
x,y,z
-x,y,-z
-x,-y,-z
x,-y,z
loop_
_atom_site_type_symbol
_atom_site_label
_atom_site_fract_x
_atom_site_fract_y
_atom_site_fract_z
Si Si1 0.599648 0.242621 0.224917
Si Si2 0.977474 0.261776 0.780991
Si Si3 0.675139 0.695853 0.780287
Si Si4 0.817388 0.896884 0.231419
Si Si5 0.315506 0.604803 0.479026
O O1 0.433838 0.228477 0.231612
O O2 0.640365 0.157614 0.285296
O O3 0.513877 0.332545 0.352981
O O4 0.808631 0.265585 0.008232
O O5 0.858217 0.268238 0.733802
O O6 0.101698 0.169018 0.715570
O O7 0.132519 0.345020 0.677323
O O8 0.728846 0.618805 0.640323
O O9 0.500000 0.663993 0.000000
O O10 0.768456 0.000000 0.302919
O O11 0.000000 0.901542 0.000000
O O12 0.339518 0.500000 0.493437
#
# Coordination Sequence:
#
# PCOD9143995 Si02
#       5
#     4   4   4   4   4
#     4   8  19  36  51  78 112 141 174 223 264 307
#     4  10  18  34  55  80 110 139 176 223 267 306
#     4   8  17  34  53  76 108 145 171 219 266 305
#     4   9  18  36  62  82 103 141 181 217 270 328
#     4  10  21  34  55  81 107 145 185 216 260 317
#
# _framework density 19.334267000000001
#
# number of rings (size 3 to 8) (size 9 to 14) (size 15 to 20)
#    1.200    1.800    0.000    0.600    0.000    3.600 
#    0.000    5.000    0.000   10.800    0.000    0.000 
#    0.000    0.000    0.000    0.000    0.000    0.000 
#
# Total GULP energy -111359.980707 kJ/mol
# GULP energy per Si atom -5567.999035 kJ/mol
# Density = 1.929026 g / cm^3
# Si number density = 19.334267 Si / 1000 Ang^3
#
#
#
# Elastic Constant Matrix: (Units=GPa)
#
#
# Indices 1 2 3 4 5 6 
#
# 1 104.2191 65.1031 28.9147 0.0000 -14.0300 0.0000
# 2 65.1031 165.2524 33.9002 0.0000 -13.7372 0.0000
# 3 28.9147 33.9002 65.9756 0.0000 0.8842 0.0000
# 4 0.0000 0.0000 0.0000 24.5487 0.0000 4.3482
# 5 -14.0300 -13.7372 0.8842 0.0000 23.1827 0.0000
# 6 0.0000 0.0000 0.0000 4.3482 0.0000 7.7536
#
#
#
# Elastic Compliance Matrix: (Units=1/GPa)
#
#
# Indices 1 2 3 4 5 6 
#
# 1 0.014235 -0.004237 -0.004146 0.000000 0.006262 0.000000
# 2 -0.004237 0.008448 -0.002518 0.000000 0.002538 0.000000
# 3 -0.004146 -0.002518 0.018331 0.000000 -0.004700 0.000000
# 4 0.000000 0.000000 0.000000 0.045228 0.000000 -0.025364
# 5 0.006262 0.002538 -0.004700 0.000000 0.048609 0.000000
# 6 0.000000 0.000000 0.000000 -0.025364 0.000000 0.143197
#
#
# Mechanical properties :
#
#
# Convention : Reuss Voigt Hill
#
# Bulk Modulus (GPa) = 52.04841 65.69810 58.87326
# Shear Modulus (GPa) = 16.32635 24.93225 20.62930
#
# Velocity S-wave (km/s) = 2.90905 3.59491 3.27001
# Velocity P-wave (km/s) = 6.18564 7.16136 6.69131
#
# Compressibility (1/GPa) = 0.01921288
#
# Stress axis : x y z
#
# Youngs Moduli (GPa) = 70.24849 118.36973 54.55319
#
# Poissons Ratio (x) = 0.50155 0.22615
# Poissons Ratio (y) = 0.29765 0.13736
# Poissons Ratio (z) = 0.29122 0.29805
#
# Static dielectric constant tensor:
#      x y z
#    x 1.731990 0.000000 0.011380 
#    y 0.000000 1.621830 0.000000 
#    z 0.011380 0.000000 1.730930 
# 
# From -- ./inp_files/32022.got.cif
#   From: 2010.05.17/outbox.cif.g08.bks.cpg/sg10_17_cif.got.tgz:32022.got - 2010.06.03 11:33:40.
