data_PCOD9143903
_publ_section_title
;
Structure prediction by ZEFSAII (Michael W. Deem and Ramdas Pophale) SiO2 
 PCOD9143903
Probable space group: P 2/M
;
_chemical_formula_sum "Si O2"
_cell_formula_units_Z 32
_cell_length_a 11.244696
_cell_length_b 7.606923
_cell_length_c 20.523622
_cell_angle_alpha 90.000000
_cell_angle_beta 127.178098
_cell_angle_gamma 90.000000
_cell_volume 1398.745817
_symmetry_space_group_name_H-M "P 2/M"
_symmetry_group_IT_number 10
_symmetry_cell_setting 'monoclinic'
loop_
_space_group_symop_operation_xyz
x,y,z
-x,y,-z
-x,-y,-z
x,-y,z
loop_
_atom_site_type_symbol
_atom_site_label
_atom_site_fract_x
_atom_site_fract_y
_atom_site_fract_z
Si Si1 0.749811 0.716691 0.224426
Si Si2 0.759186 0.197732 0.663992
Si Si3 0.445826 0.709843 0.174325
Si Si4 0.972271 0.711842 0.415247
Si Si5 0.955457 0.696948 0.177239
Si Si6 0.485776 0.695862 0.330309
Si Si7 0.109753 0.713155 0.096108
Si Si8 0.696479 0.204482 0.509875
O O1 0.753871 0.500000 0.225898
O O2 0.575800 0.773253 0.169092
O O3 0.830351 0.775268 0.183921
O O4 0.843413 0.770008 0.321021
O O5 0.647879 0.190031 0.687274
O O6 0.661163 0.265509 0.571209
O O7 0.901035 0.310004 0.728155
O O8 0.808802 0.000000 0.664720
O O9 0.429975 0.500000 0.156783
O O10 0.525662 0.737676 0.270477
O O11 0.276569 0.775919 0.130755
O O12 0.958379 0.500000 0.414415
O O13 0.127358 0.767128 0.434186
O O14 0.000000 0.773497 0.500000
O O15 0.904417 0.500000 0.142308
O O16 0.027164 0.778461 0.135017
O O17 0.421871 0.500000 0.308612
O O18 0.622578 0.702929 0.424497
O O19 0.123507 0.500000 0.109302
O O20 0.000000 0.747948 0.000000
O O21 0.653938 0.000000 0.489487
#
# Coordination Sequence:
#
# PCOD9143903 Si02
#       8
#     4   4   4   4   4   4   4   4
#     4   9  17  29  49  75 106 139 181 228 264 312
#     4  11  22  35  51  74 108 143 181 230 282 325
#     4   9  17  31  51  79 109 139 175 221 273 319
#     4  10  19  32  50  71  98 140 193 239 275 313
#     4  10  18  33  56  81 105 141 185 222 268 332
#     4  11  21  34  54  76 103 143 190 231 272 323
#     4   9  17  31  54  84 115 140 169 218 278 334
#     4  11  23  35  47  71 108 145 182 231 284 327
#
# _framework density 22.877635000000001
#
# number of rings (size 3 to 8) (size 9 to 14) (size 15 to 20)
#    0.000    2.000    2.500    2.250    0.000    5.250 
#    0.000    0.625    0.000    4.875    0.000    0.000 
#    0.000    1.000    0.000    0.000    0.000    0.000 
#
# Total GULP energy -178324.847070 kJ/mol
# GULP energy per Si atom -5572.651471 kJ/mol
# Density = 2.282556 g / cm^3
# Si number density = 22.877635 Si / 1000 Ang^3
#
#
#
# Elastic Constant Matrix: (Units=GPa)
#
#
# Indices 1 2 3 4 5 6 
#
# 1 186.2715 16.2783 57.0908 0.0000 7.2838 0.0000
# 2 16.2783 27.9795 17.2434 0.0000 -1.8528 0.0000
# 3 57.0908 17.2434 85.9165 0.0000 -2.1183 0.0000
# 4 0.0000 0.0000 0.0000 -25.1877 0.0000 -12.5746
# 5 7.2838 -1.8528 -2.1183 0.0000 24.3041 0.0000
# 6 0.0000 0.0000 0.0000 -12.5746 0.0000 7.9786
#
#
#
# Elastic Compliance Matrix: (Units=1/GPa)
#
#
# Indices 1 2 3 4 5 6 
#
# 1 0.006942 -0.001515 -0.004372 0.000000 -0.002577 0.000000
# 2 -0.001515 0.041256 -0.007200 0.000000 0.002972 0.000000
# 3 -0.004372 -0.007200 0.016043 0.000000 0.002160 0.000000
# 4 0.000000 0.000000 0.000000 -0.022219 0.000000 -0.035019
# 5 -0.002577 0.002972 0.002160 0.000000 0.042332 0.000000
# 6 0.000000 0.000000 0.000000 -0.035019 0.000000 0.070145
#
#
# Mechanical properties :
#
#
# Convention : Reuss Voigt Hill
#
# Bulk Modulus (GPa) = 26.27012 53.48804 39.87908
# Shear Modulus (GPa) = 25.85834 15.38932 20.62383
#
# Velocity S-wave (km/s) = 3.36562 2.59642 3.00573
# Velocity P-wave (km/s) = 5.15859 5.69380 5.43279
#
# Compressibility (1/GPa) = 0.03806606
#
# Stress axis : x y z
#
# Youngs Moduli (GPa) = 144.05688 24.23894 62.33306
#
# Poissons Ratio (x) = 0.03672 0.27253
# Poissons Ratio (y) = 0.21821 0.44881
# Poissons Ratio (z) = 0.62985 0.17453
#
# Static dielectric constant tensor:
#      x y z
#    x 1.921980 0.000000 -0.045240 
#    y 0.000000 1.864290 0.000000 
#    z -0.045240 0.000000 1.858780 
# 
# From -- ./inp_files/83602.got.cif
#   From: 2010.05.17/outbox.cif.g08.bks.cpg/sg10_42_cif.got.tgz:83602.got - 2010.06.03 11:33:40.
