data_PCOD9143836
_publ_section_title
;
Structure prediction by ZEFSAII (Michael W. Deem and Ramdas Pophale) SiO2 
 PCOD9143836
Probable space group: P 2/M
;
_chemical_formula_sum "Si O2"
_cell_formula_units_Z 24
_cell_length_a 22.939233
_cell_length_b 12.173832
_cell_length_c 20.536888
_cell_angle_alpha 90.000000
_cell_angle_beta 167.491197
_cell_angle_gamma 90.000000
_cell_volume 1242.162610
_symmetry_space_group_name_H-M "P 2/M"
_symmetry_group_IT_number 10
_symmetry_cell_setting 'monoclinic'
loop_
_space_group_symop_operation_xyz
x,y,z
-x,y,-z
-x,-y,-z
x,-y,z
loop_
_atom_site_type_symbol
_atom_site_label
_atom_site_fract_x
_atom_site_fract_y
_atom_site_fract_z
Si Si1 0.693246 0.873106 0.293659
Si Si2 0.704212 0.124678 0.460407
Si Si3 0.840337 0.264935 0.266241
Si Si4 0.365396 0.325949 0.092132
Si Si5 0.207409 0.627058 0.175986
Si Si6 0.969358 0.334762 0.776459
O O1 0.755333 0.872074 0.438611
O O2 0.942772 0.820264 0.527734
O O3 0.651108 0.000000 0.229183
O O4 0.420847 0.800835 0.991873
O O5 0.429374 0.194664 0.169549
O O6 0.927825 0.202605 0.736044
O O7 0.689537 0.000000 0.466320
O O8 0.000000 0.320168 0.500000
O O9 0.742925 0.338989 0.099257
O O10 0.664053 0.373789 0.429394
O O11 0.158576 0.361243 0.921788
O O12 0.500000 0.679548 0.500000
O O13 0.241141 0.500000 0.234580
O O14 0.000000 0.679625 0.000000
O O15 0.092623 0.626467 0.978215
#
# Coordination Sequence:
#
# PCOD9143836 Si02
#       6
#     4   4   4   4   4   4
#     4  10  19  29  39  57  86 124 170 217 259 292
#     4   8  17  29  47  67  92 130 175 211 238 272
#     4  11  19  29  40  58  92 128 168 215 256 287
#     4   9  18  31  44  71  92 132 175 208 241 284
#     4  10  21  37  59  87 111 127 146 181 245 316
#     4  10  18  33  54  71 100 132 161 202 236 295
#
# _framework density 19.321141000000001
#
# number of rings (size 3 to 8) (size 9 to 14) (size 15 to 20)
#    1.000    1.333    1.667    2.000    0.000    3.333 
#    0.000    0.000    0.000    1.000    0.000    0.000 
#    0.000    4.000    0.000    0.000    0.000    0.000 
#
# Total GULP energy -133657.322074 kJ/mol
# GULP energy per Si atom -5569.055086 kJ/mol
# Density = 1.927717 g / cm^3
# Si number density = 19.321141 Si / 1000 Ang^3
#
#
#
# Elastic Constant Matrix: (Units=GPa)
#
#
# Indices 1 2 3 4 5 6 
#
# 1 97.8263 -3.1602 70.1421 0.0000 8.1451 0.0000
# 2 -3.1602 41.4584 1.6904 0.0000 4.4424 0.0000
# 3 70.1421 1.6904 147.3193 0.0000 13.9579 0.0000
# 4 0.0000 0.0000 0.0000 -35.0177 0.0000 -39.5188
# 5 8.1451 4.4424 13.9579 0.0000 34.9436 0.0000
# 6 0.0000 0.0000 0.0000 -39.5188 0.0000 -20.8554
#
#
#
# Elastic Compliance Matrix: (Units=1/GPa)
#
#
# Indices 1 2 3 4 5 6 
#
# 1 0.015639 0.001589 -0.007379 0.000000 -0.000900 0.000000
# 2 0.001589 0.024615 -0.000735 0.000000 -0.003206 0.000000
# 3 -0.007379 -0.000735 0.010537 0.000000 -0.002395 0.000000
# 4 0.000000 0.000000 0.000000 0.025084 0.000000 -0.047531
# 5 -0.000900 -0.003206 -0.002395 0.000000 0.030192 0.000000
# 6 0.000000 0.000000 0.000000 -0.047531 0.000000 0.042118
#
#
# Mechanical properties :
#
#
# Convention : Reuss Voigt Hill
#
# Bulk Modulus (GPa) = 26.49646 47.10540 36.80093
# Shear Modulus (GPa) = 28.76615 10.34290 19.55453
#
# Velocity S-wave (km/s) = 3.86274 2.31620 3.18477
# Velocity P-wave (km/s) = 5.79981 5.62016 5.71069
#
# Compressibility (1/GPa) = 0.03774090
#
# Stress axis : x y z
#
# Youngs Moduli (GPa) = 63.94078 40.62526 94.90543
#
# Poissons Ratio (x) = -0.06457 0.70033
# Poissons Ratio (y) = -0.10163 0.06980
# Poissons Ratio (z) = 0.47184 0.02988
#
# Static dielectric constant tensor:
#      x y z
#    x 1.658060 0.000000 -0.010200 
#    y 0.000000 1.673340 0.000000 
#    z -0.010200 0.000000 1.676330 
# 
# From -- ./inp_files/91264.got.cif
#   From: 2010.05.17/outbox.cif.g08.bks.cpg/sg10_46_cif.got.tgz:91264.got - 2010.06.03 11:33:40.
