data_PCOD9143516
_publ_section_title
;
Structure prediction by ZEFSAII (Michael W. Deem and Ramdas Pophale) SiO2 
 PCOD9143516
Probable space group: P 2/M
;
_chemical_formula_sum "Si O2"
_cell_formula_units_Z 22
_cell_length_a 6.971993
_cell_length_b 25.610147
_cell_length_c 5.448605
_cell_angle_alpha 90.000000
_cell_angle_beta 101.647932
_cell_angle_gamma 90.000000
_cell_volume 952.834349
_symmetry_space_group_name_H-M "P 2/M"
_symmetry_group_IT_number 10
_symmetry_cell_setting 'monoclinic'
loop_
_space_group_symop_operation_xyz
x,y,z
-x,y,-z
-x,-y,-z
x,-y,z
loop_
_atom_site_type_symbol
_atom_site_label
_atom_site_fract_x
_atom_site_fract_y
_atom_site_fract_z
Si Si1 0.787375 0.604871 0.190915
Si Si2 0.130419 0.000000 0.283226
Si Si3 0.272446 0.774411 0.423164
Si Si4 0.128712 0.886580 0.283464
Si Si5 0.260898 0.724711 0.919854
Si Si6 0.767914 0.561879 0.685176
O O1 0.802921 0.666797 0.169914
O O2 0.691116 0.588857 0.420734
O O3 0.001686 0.577950 0.251175
O O4 0.690252 0.583345 0.920575
O O5 0.233744 0.056571 0.304734
O O6 0.000000 0.000000 0.500000
O O7 0.000000 0.000000 0.000000
O O8 0.500000 0.760247 0.500000
O O9 0.255434 0.834651 0.340435
O O10 0.198051 0.762913 0.679871
O O11 0.191283 0.741049 0.173644
O O12 0.000000 0.886702 0.500000
O O13 0.000000 0.882726 0.000000
O O14 0.500000 0.725112 0.000000
O O15 0.747454 0.500000 0.663585
#
# Coordination Sequence:
#
# PCOD9143516 Si02
#       6
#     4   2   4   4   4   4
#     4  10  18  32  50  74  95 128 167 201 249 307
#     4   8  16  30  53  74 111 140 174 214 278 322
#     4  10  21  38  54  74 108 149 180 217 270 321
#     4  10  19  35  54  84 107 143 180 228 267 313
#     4  10  21  37  54  71 102 144 177 209 257 313
#     4  10  19  33  53  74 101 130 156 205 271 308
#
# _framework density 23.089006999999999
#
# number of rings (size 3 to 8) (size 9 to 14) (size 15 to 20)
#    0.000    2.182    0.000    4.909    0.000    0.000 
#   19.636    0.455    0.000    6.000    0.000   11.455 
#    0.000    0.000    0.000    0.000    0.000    0.000 
#
# Total GULP energy -122895.478524 kJ/mol
# GULP energy per Si atom -5586.158115 kJ/mol
# Density = 2.303646 g / cm^3
# Si number density = 23.089007 Si / 1000 Ang^3
#
#
#
# Elastic Constant Matrix: (Units=GPa)
#
#
# Indices 1 2 3 4 5 6 
#
# 1 50.8856 -16.6288 40.3088 0.0000 -7.8178 0.0000
# 2 -16.6288 180.0442 74.9491 0.0000 -1.0061 0.0000
# 3 40.3088 74.9491 231.6670 0.0000 -24.7158 0.0000
# 4 0.0000 0.0000 0.0000 41.5214 0.0000 -4.8888
# 5 -7.8178 -1.0061 -24.7158 0.0000 39.1537 0.0000
# 6 0.0000 0.0000 0.0000 -4.8888 0.0000 29.7501
#
#
#
# Elastic Compliance Matrix: (Units=1/GPa)
#
#
# Indices 1 2 3 4 5 6 
#
# 1 0.026254 0.004929 -0.005993 0.000000 0.001585 0.000000
# 2 0.004929 0.007399 -0.003352 0.000000 -0.000942 0.000000
# 3 -0.005993 -0.003352 0.006762 0.000000 0.002986 0.000000
# 4 0.000000 0.000000 0.000000 0.024559 0.000000 0.004036
# 5 0.001585 -0.000942 0.002986 0.000000 0.027718 0.000000
# 6 0.000000 0.000000 0.000000 0.004036 0.000000 0.034277
#
#
# Mechanical properties :
#
#
# Convention : Reuss Voigt Hill
#
# Bulk Modulus (GPa) = 31.66353 73.31724 52.49038
# Shear Modulus (GPa) = 34.16948 46.34954 40.25951
#
# Velocity S-wave (km/s) = 3.85112 4.48529 4.18025
# Velocity P-wave (km/s) = 5.78950 7.65813 6.78842
#
# Compressibility (1/GPa) = 0.03158208
#
# Stress axis : x y z
#
# Youngs Moduli (GPa) = 38.08992 135.14517 147.87847
#
# Poissons Ratio (x) = -0.66607 0.88629
# Poissons Ratio (y) = -0.18773 0.49567
# Poissons Ratio (z) = 0.22829 0.45299
#
# Static dielectric constant tensor:
#      x y z
#    x 1.879070 0.000000 -0.012330 
#    y 0.000000 1.820550 0.000000 
#    z -0.012330 0.000000 1.865490 
# 
# From -- ./inp_files/5202.got.cif
#   From: 2010.05.17/outbox.cif.g08.bks.cpg/sg10_3_cif.got.tgz:5202.got - 2010.06.03 11:33:40.
