data_PCOD9143444
_publ_section_title
;
Structure prediction by ZEFSAII (Michael W. Deem and Ramdas Pophale) SiO2 
 PCOD9143444
Probable space group: P 2/M
;
_chemical_formula_sum "Si O2"
_cell_formula_units_Z 32
_cell_length_a 12.759818
_cell_length_b 7.707195
_cell_length_c 33.049712
_cell_angle_alpha 90.000000
_cell_angle_beta 152.276904
_cell_angle_gamma 90.000000
_cell_volume 1511.984002
_symmetry_space_group_name_H-M "P 2/M"
_symmetry_group_IT_number 10
_symmetry_cell_setting 'monoclinic'
loop_
_space_group_symop_operation_xyz
x,y,z
-x,y,-z
-x,-y,-z
x,-y,z
loop_
_atom_site_type_symbol
_atom_site_label
_atom_site_fract_x
_atom_site_fract_y
_atom_site_fract_z
Si Si1 0.811340 0.706914 0.210641
Si Si2 0.149950 0.704740 0.684286
Si Si3 0.739673 0.799881 0.921137
Si Si4 0.447117 0.795028 0.224202
Si Si5 0.652160 0.791179 0.979782
Si Si6 0.374949 0.210006 0.498070
Si Si7 0.894858 0.786545 0.822719
Si Si8 0.255983 0.204020 0.316094
O O1 0.825930 0.500000 0.217497
O O2 0.773480 0.769972 0.244314
O O3 0.614375 0.752571 0.111052
O O4 0.047828 0.777958 0.275712
O O5 0.184232 0.500000 0.695657
O O6 0.285954 0.777822 0.691930
O O7 0.884896 0.740034 0.590502
O O8 0.633645 0.713433 0.845759
O O9 0.710903 0.720185 0.955176
O O10 0.658261 0.000000 0.896593
O O11 0.000000 0.808893 0.000000
O O12 0.296444 0.731399 0.210006
O O13 0.393559 0.000000 0.204679
O O14 0.670864 0.000000 0.986949
O O15 0.851803 0.730407 0.077701
O O16 0.500000 0.270400 0.500000
O O17 0.521301 0.275128 0.586144
O O18 0.384997 0.000000 0.501442
O O19 0.821337 0.723291 0.753458
O O20 0.898770 0.000000 0.823502
O O21 0.297067 0.000000 0.323379
#
# Coordination Sequence:
#
# PCOD9143444 Si02
#       8
#     4   4   4   4   4   4   4   4
#     4  11  23  36  52  80 115 148 182 224 275 324
#     4  11  23  36  54  84 117 143 177 227 280 328
#     4   9  14  23  46  78 105 133 174 221 260 303
#     4  10  18  32  56  83 112 143 181 224 270 321
#     4  10  18  31  54  82 111 144 184 224 267 317
#     4  10  20  36  61  87 107 134 179 231 283 331
#     4   9  19  35  58  85 110 144 186 227 268 317
#     4  10  21  39  60  82 109 139 180 230 278 329
#
# _framework density 21.164245000000001
#
# number of rings (size 3 to 8) (size 9 to 14) (size 15 to 20)
#    0.000    2.000    3.750    0.750    0.000    2.250 
#    0.000    5.000    0.000    6.000    0.000    0.000 
#    0.000    0.000    0.000    0.000    0.000    0.000 
#
# Total GULP energy -178356.972348 kJ/mol
# GULP energy per Si atom -5573.655386 kJ/mol
# Density = 2.111607 g / cm^3
# Si number density = 21.164245 Si / 1000 Ang^3
#
#
#
# Elastic Constant Matrix: (Units=GPa)
#
#
# Indices 1 2 3 4 5 6 
#
# 1 37.2632 -7.4783 38.1292 0.0000 -6.7751 0.0000
# 2 -7.4783 34.8545 8.8331 0.0000 -8.4119 0.0000
# 3 38.1292 8.8331 153.6680 0.0000 0.0602 0.0000
# 4 0.0000 0.0000 0.0000 -379.8572 0.0000 -145.2249
# 5 -6.7751 -8.4119 0.0602 0.0000 31.8568 0.0000
# 6 0.0000 0.0000 0.0000 -145.2249 0.0000 -61.4825
#
#
#
# Elastic Compliance Matrix: (Units=1/GPa)
#
#
# Indices 1 2 3 4 5 6 
#
# 1 0.044915 0.016029 -0.012072 0.000000 0.013808 0.000000
# 2 0.016029 0.036850 -0.006100 0.000000 0.013151 0.000000
# 3 -0.012072 -0.006100 0.009855 0.000000 -0.004197 0.000000
# 4 0.000000 0.000000 0.000000 -0.027153 0.000000 0.064137
# 5 0.013808 0.013151 -0.004197 0.000000 0.037807 0.000000
# 6 0.000000 0.000000 0.000000 0.064137 0.000000 -0.167760
#
#
# Mechanical properties :
#
#
# Convention : Reuss Voigt Hill
#
# Bulk Modulus (GPa) = 11.45036 33.86152 22.65594
# Shear Modulus (GPa) = -155.82245 -69.47646 -112.64945
#
# Velocity S-wave (km/s) = -8.58983 -5.73573 -7.30355
# Velocity P-wave (km/s) = 9.64148 5.27547 7.77138
#
# Compressibility (1/GPa) = 0.08733349
#
# Stress axis : x y z
#
# Youngs Moduli (GPa) = 22.26404 27.13734 101.47018
#
# Poissons Ratio (x) = -0.43497 1.22490
# Poissons Ratio (y) = -0.35686 0.61902
# Poissons Ratio (z) = 0.26876 0.16555
#
# Static dielectric constant tensor:
#      x y z
#    x 1.790170 0.000000 0.014670 
#    y 0.000000 1.781710 0.000000 
#    z 0.014670 0.000000 1.819620 
# 
# From -- ./inp_files/95084.got.cif
#   From: 2010.05.17/outbox.cif.g08.bks.cpg/sg10_48_cif.got.tgz:95084.got - 2010.06.03 11:33:40.
