data_PCOD9143331
_publ_section_title
;
Structure prediction by ZEFSAII (Michael W. Deem and Ramdas Pophale) SiO2 
 PCOD9143331
Probable space group: P 2/M
;
_chemical_formula_sum "Si O2"
_cell_formula_units_Z 28
_cell_length_a 9.901221
_cell_length_b 17.277103
_cell_length_c 10.616757
_cell_angle_alpha 90.000000
_cell_angle_beta 44.997180
_cell_angle_gamma 90.000000
_cell_volume 1284.148296
_symmetry_space_group_name_H-M "P 2/M"
_symmetry_group_IT_number 10
_symmetry_cell_setting 'monoclinic'
loop_
_space_group_symop_operation_xyz
x,y,z
-x,y,-z
-x,-y,-z
x,-y,z
loop_
_atom_site_type_symbol
_atom_site_label
_atom_site_fract_x
_atom_site_fract_y
_atom_site_fract_z
Si Si1 0.126909 0.084950 0.790016
Si Si2 0.273883 0.500000 0.309412
Si Si3 0.273177 0.255269 0.652575
Si Si4 0.278513 0.248579 0.146222
Si Si5 0.868247 0.084178 0.710445
Si Si6 0.268890 0.334302 0.399206
Si Si7 0.261981 0.665137 0.912273
Si Si8 0.262244 0.500000 0.021941
O O1 0.240774 0.164685 0.701633
O O2 0.997114 0.083080 0.750634
O O3 0.227500 0.000000 0.729075
O O4 0.000000 0.089910 0.000000
O O5 0.214869 0.423871 0.424371
O O6 0.505738 0.500000 0.143554
O O7 0.211892 0.500000 0.203590
O O8 0.500000 0.266684 0.500000
O O9 0.202899 0.285928 0.563804
O O10 0.198080 0.306734 0.817555
O O11 0.261784 0.158543 0.187805
O O12 0.198775 0.295527 0.316473
O O13 0.500000 0.270743 0.000000
O O14 0.203396 0.273668 0.059413
O O15 0.000000 0.093337 0.500000
O O16 0.771200 0.000000 0.763689
O O17 0.503417 0.333669 0.246120
O O18 0.199978 0.579669 0.996486
#
# Coordination Sequence:
#
# PCOD9143331 Si02
#       8
#     4   2   4   4   4   4   4   2
#     4  10  21  38  57  75 100 138 179 212 250 313
#     4   9  14  25  45  71 105 141 170 201 252 307
#     4  10  20  33  50  79 110 132 167 220 268 300
#     4  10  18  31  52  77 102 131 170 213 255 300
#     4  10  21  36  53  75 102 133 170 209 255 312
#     4   9  17  28  46  74 107 136 165 210 258 302
#     4   9  17  28  46  74 105 135 170 210 253 302
#     4   9  14  25  45  71 105 140 170 204 252 303
#
# _framework density 21.804337
#
# number of rings (size 3 to 8) (size 9 to 14) (size 15 to 20)
#    0.000    2.429    1.429    1.714    0.000    1.143 
#    0.000    2.857    0.000   10.286    0.000   20.000 
#    0.000    0.000    0.000    0.000    0.000    0.000 
#
# Total GULP energy -156361.778893 kJ/mol
# GULP energy per Si atom -5584.349246 kJ/mol
# Density = 2.175471 g / cm^3
# Si number density = 21.804337 Si / 1000 Ang^3
#
#
#
# Elastic Constant Matrix: (Units=GPa)
#
#
# Indices 1 2 3 4 5 6 
#
# 1 35.9219 1.0474 34.9945 0.0000 13.4359 0.0000
# 2 1.0474 174.4651 73.2351 0.0000 21.8717 0.0000
# 3 34.9945 73.2351 144.1179 0.0000 33.5144 0.0000
# 4 0.0000 0.0000 0.0000 53.1300 0.0000 -1.1507
# 5 13.4359 21.8717 33.5144 0.0000 41.4761 0.0000
# 6 0.0000 0.0000 0.0000 -1.1507 0.0000 22.3318
#
#
#
# Elastic Compliance Matrix: (Units=1/GPa)
#
#
# Indices 1 2 3 4 5 6 
#
# 1 0.041069 0.005262 -0.010968 0.000000 -0.007216 0.000000
# 2 0.005262 0.007997 -0.004882 0.000000 -0.001977 0.000000
# 3 -0.010968 -0.004882 0.013124 0.000000 -0.004477 0.000000
# 4 0.000000 0.000000 0.000000 0.018843 0.000000 0.000971
# 5 -0.007216 -0.001977 -0.004477 0.000000 0.031108 0.000000
# 6 0.000000 0.000000 0.000000 0.000971 0.000000 0.044829
#
#
# Mechanical properties :
#
#
# Convention : Reuss Voigt Hill
#
# Bulk Modulus (GPa) = 24.38168 63.67323 44.02745
# Shear Modulus (GPa) = 26.06636 39.73610 32.90123
#
# Velocity S-wave (km/s) = 3.46130 4.27358 3.88871
# Velocity P-wave (km/s) = 5.21349 7.32235 6.35599
#
# Compressibility (1/GPa) = 0.04101441
#
# Stress axis : x y z
#
# Youngs Moduli (GPa) = 24.34930 125.04117 76.19594
#
# Poissons Ratio (x) = -0.65800 0.83574
# Poissons Ratio (y) = -0.12813 0.37198
# Poissons Ratio (z) = 0.26707 0.61044
#
# Static dielectric constant tensor:
#      x y z
#    x 1.819130 0.000000 -0.042880 
#    y 0.000000 1.794750 0.000000 
#    z -0.042880 0.000000 1.763620 
# 
# From -- ./inp_files/25267.got.cif
#   From: 2010.05.17/outbox.cif.g08.bks.cpg/sg10_13_cif.got.tgz:25267.got - 2010.06.03 11:33:40.
