data_PCOD9143664
_publ_section_title
;
Structure prediction by ZEFSAII (Michael W. Deem and Ramdas Pophale) SiO2 
 PCOD9143664
Probable space group: P 2/M
;
_chemical_formula_sum "Si O2"
_cell_formula_units_Z 32
_cell_length_a 26.357878
_cell_length_b 8.178329
_cell_length_c 21.446866
_cell_angle_alpha 90.000000
_cell_angle_beta 22.164418
_cell_angle_gamma 90.000000
_cell_volume 1744.159559
_symmetry_space_group_name_H-M "P 2/M"
_symmetry_group_IT_number 10
_symmetry_cell_setting 'monoclinic'
loop_
_space_group_symop_operation_xyz
x,y,z
-x,y,-z
-x,-y,-z
x,-y,z
loop_
_atom_site_type_symbol
_atom_site_label
_atom_site_fract_x
_atom_site_fract_y
_atom_site_fract_z
Si Si1 0.141260 0.697452 0.664754
Si Si2 0.859377 0.195690 0.838550
Si Si3 0.415401 0.800266 0.906596
Si Si4 0.437168 0.197045 0.136175
Si Si5 0.557987 0.195681 0.368986
Si Si6 0.840989 0.694466 0.002236
Si Si7 0.155461 0.304504 0.504810
Si Si8 0.414508 0.803378 0.407265
O O1 0.142229 0.500000 0.663522
O O2 0.169241 0.752673 0.561439
O O3 0.259538 0.758563 0.574023
O O4 0.989810 0.751550 0.853330
O O5 0.008954 0.247533 0.649093
O O6 0.854884 0.000000 0.848848
O O7 0.738692 0.248121 0.930535
O O8 0.831962 0.265823 0.938818
O O9 0.480805 0.742574 0.896552
O O10 0.503200 0.744763 0.747200
O O11 0.419350 0.000000 0.902792
O O12 0.281664 0.241976 0.322401
O O13 0.446691 0.000000 0.125202
O O14 0.500000 0.257853 0.000000
O O15 0.500000 0.261236 0.500000
O O16 0.715400 0.229150 0.180460
O O17 0.480005 0.259977 0.396566
O O18 0.538743 0.000000 0.391261
O O19 0.834941 0.500000 0.016705
O O20 0.156780 0.500000 0.503934
O O21 0.426561 0.000000 0.393862
#
# Coordination Sequence:
#
# PCOD9143664 Si02
#       8
#     4   4   4   4   4   4   4   4
#     4   9  19  33  50  77 106 134 169 214 258 304
#     4  10  18  32  55  79 105 136 173 219 265 302
#     4   9  17  31  52  80 105 128 173 221 256 303
#     4  10  20  35  55  78 105 139 176 215 262 314
#     4  10  21  37  55  77 106 139 175 214 259 311
#     4  10  20  34  52  78 110 138 173 214 260 313
#     4  10  20  34  51  77 110 139 174 215 260 312
#     4  10  18  32  54  79 103 131 173 219 256 301
#
# _framework density 18.346945999999999
#
# number of rings (size 3 to 8) (size 9 to 14) (size 15 to 20)
#    0.000    2.250    2.500    1.875    0.000    3.500 
#    0.000    2.500    0.000    7.500    0.000    0.000 
#    0.000    0.000    0.000    0.000    0.000    0.000 
#
# Total GULP energy -178528.650805 kJ/mol
# GULP energy per Si atom -5579.020338 kJ/mol
# Density = 1.830519 g / cm^3
# Si number density = 18.346946 Si / 1000 Ang^3
#
#
#
# Elastic Constant Matrix: (Units=GPa)
#
#
# Indices 1 2 3 4 5 6 
#
# 1 124.8491 10.3212 92.8527 0.0000 -7.1931 0.0000
# 2 10.3212 -10.1421 -18.5018 0.0000 -3.3029 0.0000
# 3 92.8527 -18.5018 139.5097 0.0000 -16.3999 0.0000
# 4 0.0000 0.0000 0.0000 43.3865 0.0000 -24.2938
# 5 -7.1931 -3.3029 -16.3999 0.0000 24.2538 0.0000
# 6 0.0000 0.0000 0.0000 -24.2938 0.0000 28.1391
#
#
#
# Elastic Compliance Matrix: (Units=1/GPa)
#
#
# Indices 1 2 3 4 5 6 
#
# 1 0.009784 0.016528 -0.004035 0.000000 0.002424 0.000000
# 2 0.016528 -0.043816 -0.018399 0.000000 -0.013506 0.000000
# 3 -0.004035 -0.018399 0.007581 0.000000 0.001424 0.000000
# 4 0.000000 0.000000 0.000000 0.044618 0.000000 0.038521
# 5 0.002424 -0.013506 0.001424 0.000000 0.041073 0.000000
# 6 0.000000 0.000000 0.000000 0.038521 0.000000 0.068794
#
#
# Mechanical properties :
#
#
# Convention : Reuss Voigt Hill
#
# Bulk Modulus (GPa) = -26.13426 47.06233 10.46403
# Shear Modulus (GPa) = 39.34192 30.45886 34.90039
#
# Velocity S-wave (km/s) = 4.63572 4.07893 4.36621
# Velocity P-wave (km/s) = 3.79180 6.92030 5.57980
#
# Compressibility (1/GPa) = -0.03826394
#
# Stress axis : x y z
#
# Youngs Moduli (GPa) = 102.20993 -22.82251 131.91410
#
# Poissons Ratio (x) = 0.37721 0.53225
# Poissons Ratio (y) = -1.68930 2.42708
# Poissons Ratio (z) = 0.41240 -0.41991
#
# Static dielectric constant tensor:
#      x y z
#    x 1.629880 0.000000 -0.008510 
#    y 0.000000 1.632240 0.000000 
#    z -0.008510 0.000000 1.625850 
# 
# From -- ./inp_files/86728.got.cif
#   From: 2010.05.17/outbox.cif.g08.bks.cpg/sg10_44_cif.got.tgz:86728.got - 2010.06.03 11:33:40.
