data_PCOD9143657
_publ_section_title
;
Structure prediction by ZEFSAII (Michael W. Deem and Ramdas Pophale) SiO2 
 PCOD9143657
Probable space group: P 2/M
;
_chemical_formula_sum "Si O2"
_cell_formula_units_Z 26
_cell_length_a 14.828851
_cell_length_b 9.493764
_cell_length_c 11.797949
_cell_angle_alpha 90.000000
_cell_angle_beta 118.923550
_cell_angle_gamma 90.000000
_cell_volume 1453.758988
_symmetry_space_group_name_H-M "P 2/M"
_symmetry_group_IT_number 10
_symmetry_cell_setting 'monoclinic'
loop_
_space_group_symop_operation_xyz
x,y,z
-x,y,-z
-x,-y,-z
x,-y,z
loop_
_atom_site_type_symbol
_atom_site_label
_atom_site_fract_x
_atom_site_fract_y
_atom_site_fract_z
Si Si1 0.324819 0.169235 0.670908
Si Si2 0.000000 0.742440 0.500000
Si Si3 0.109788 0.170717 0.123809
Si Si4 0.154396 0.836276 0.403491
Si Si5 0.191440 0.344160 0.756698
Si Si6 0.252655 0.333053 0.040349
Si Si7 0.459088 0.167678 0.103628
O O1 0.259545 0.223424 0.523059
O O2 0.265564 0.231748 0.743098
O O3 0.444899 0.202171 0.755423
O O4 0.316322 0.000000 0.669819
O O5 0.932111 0.824693 0.551530
O O6 0.916388 0.660419 0.374567
O O7 0.116980 0.218533 0.259556
O O8 0.198716 0.248621 0.108157
O O9 0.121238 0.000000 0.123630
O O10 0.000000 0.205001 0.000000
O O11 0.175029 0.000000 0.395932
O O12 0.237829 0.500000 0.771678
O O13 0.182915 0.316576 0.884616
O O14 0.262603 0.500000 0.069715
O O15 0.361491 0.262491 0.074085
O O16 0.434683 0.000000 0.098362
O O17 0.500000 0.190379 0.000000
#
# Coordination Sequence:
#
# PCOD9143657 Si02
#       7
#     4   2   4   4   4   4   4
#     4   9  18  33  54  79 107 136 172 220 274 322
#     4  10  18  32  54  78 107 138 175 218 273 332
#     4  10  21  38  58  80 109 146 187 226 267 319
#     4   9  18  33  54  81 108 137 176 225 275 320
#     4  10  20  32  48  75 109 141 175 216 266 321
#     4  11  23  36  54  81 112 147 185 224 271 323
#     4  10  19  34  57  84 110 141 181 227 275 324
#
# _framework density 17.884671000000001
#
# number of rings (size 3 to 8) (size 9 to 14) (size 15 to 20)
#    0.000    2.154    1.538    1.846    0.000    2.462 
#    0.000    4.615    0.000    4.615    0.000    0.000 
#    0.000    0.000    0.000    0.000    0.000    0.000 
#
# Total GULP energy -144850.795056 kJ/mol
# GULP energy per Si atom -5571.184425 kJ/mol
# Density = 1.784396 g / cm^3
# Si number density = 17.884671 Si / 1000 Ang^3
#
#
#
# Elastic Constant Matrix: (Units=GPa)
#
#
# Indices 1 2 3 4 5 6 
#
# 1 89.6687 28.5692 54.2995 0.0000 1.4333 0.0000
# 2 28.5692 25.7312 26.4980 0.0000 2.7106 0.0000
# 3 54.2995 26.4980 138.2362 0.0000 -3.3255 0.0000
# 4 0.0000 0.0000 0.0000 16.4985 0.0000 1.7524
# 5 1.4333 2.7106 -3.3255 0.0000 26.8061 0.0000
# 6 0.0000 0.0000 0.0000 1.7524 0.0000 -12.8399
#
#
#
# Elastic Compliance Matrix: (Units=1/GPa)
#
#
# Indices 1 2 3 4 5 6 
#
# 1 0.019096 -0.016816 -0.004274 0.000000 0.000149 0.000000
# 2 -0.016816 0.064235 -0.005860 0.000000 -0.006323 0.000000
# 3 -0.004274 -0.005860 0.010086 0.000000 0.002072 0.000000
# 4 0.000000 0.000000 0.000000 0.059745 0.000000 0.008154
# 5 0.000149 -0.006323 0.002072 0.000000 0.038193 0.000000
# 6 0.000000 0.000000 0.000000 0.008154 0.000000 -0.076770
#
#
# Mechanical properties :
#
#
# Convention : Reuss Voigt Hill
#
# Bulk Modulus (GPa) = 25.30567 52.48549 38.89558
# Shear Modulus (GPa) = 27.52438 15.71090 21.61764
#
# Velocity S-wave (km/s) = 3.92726 2.96709 3.48044
# Velocity P-wave (km/s) = 5.89445 6.41471 6.16008
#
# Compressibility (1/GPa) = 0.03951684
#
# Stress axis : x y z
#
# Youngs Moduli (GPa) = 52.36801 15.56789 99.14967
#
# Poissons Ratio (x) = 0.26180 0.42374
# Poissons Ratio (y) = 0.88064 0.58097
# Poissons Ratio (z) = 0.22381 0.09122
#
# Static dielectric constant tensor:
#      x y z
#    x 1.579620 0.000000 0.017810 
#    y 0.000000 1.605470 0.000000 
#    z 0.017810 0.000000 1.665190 
# 
# From -- ./inp_files/49475.got.cif
#   From: 2010.05.17/outbox.cif.g08.bks.cpg/sg10_25_cif.got.tgz:49475.got - 2010.06.03 11:33:40.
