data_PCOD9143003
_publ_section_title
;
Structure prediction by ZEFSAII (Michael W. Deem and Ramdas Pophale) SiO2 
 PCOD9143003
Probable space group: P 2/M
;
_chemical_formula_sum "Si O2"
_cell_formula_units_Z 32
_cell_length_a 19.414757
_cell_length_b 8.807352
_cell_length_c 27.389899
_cell_angle_alpha 90.000000
_cell_angle_beta 157.781171
_cell_angle_gamma 90.000000
_cell_volume 1771.030925
_symmetry_space_group_name_H-M "P 2/M"
_symmetry_group_IT_number 10
_symmetry_cell_setting 'monoclinic'
loop_
_space_group_symop_operation_xyz
x,y,z
-x,y,-z
-x,-y,-z
x,-y,z
loop_
_atom_site_type_symbol
_atom_site_label
_atom_site_fract_x
_atom_site_fract_y
_atom_site_fract_z
Si Si1 0.473906 0.321391 0.424542
Si Si2 0.702570 0.180370 0.876020
Si Si3 0.653422 0.320058 0.387612
Si Si4 0.926214 0.319664 0.168411
Si Si5 0.207301 0.181669 0.622574
Si Si6 0.944434 0.681688 0.857237
Si Si7 0.555830 0.318987 0.881385
Si Si8 0.796882 0.177473 0.577191
O O1 0.500000 0.308306 0.500000
O O2 0.504771 0.500000 0.432535
O O3 0.621860 0.219914 0.495049
O O4 0.267185 0.281487 0.274526
O O5 0.552919 0.255196 0.742373
O O6 0.631109 0.235953 0.882299
O O7 0.695025 0.000000 0.867058
O O8 0.910222 0.238473 0.012032
O O9 0.643234 0.500000 0.375719
O O10 0.740692 0.248043 0.396227
O O11 0.772147 0.271307 0.511529
O O12 0.958308 0.500000 0.196417
O O13 0.029415 0.228074 0.277415
O O14 0.006766 0.281461 0.167419
O O15 0.709706 0.292352 0.022923
O O16 0.354161 0.254933 0.755897
O O17 0.000000 0.217693 0.500000
O O18 0.229849 0.000000 0.636742
O O19 0.967851 0.500000 0.877394
O O20 0.550971 0.500000 0.868942
O O21 0.801438 0.000000 0.569187
#
# Coordination Sequence:
#
# PCOD9143003 Si02
#       8
#     4   4   4   4   4   4   4   4
#     4  10  19  35  54  73 102 141 183 226 267 314
#     4  10  18  30  50  75 105 134 169 220 272 315
#     4  11  22  38  58  77 104 142 183 217 254 314
#     4   9  17  32  51  74 103 140 182 220 260 307
#     4  10  20  35  58  88 118 141 165 208 264 313
#     4   9  17  31  52  74 100 135 179 224 266 314
#     4   9  17  30  51  78 107 139 178 217 250 300
#     4  12  24  35  51  77 109 141 177 223 275 322
#
# _framework density 18.068570999999999
#
# number of rings (size 3 to 8) (size 9 to 14) (size 15 to 20)
#    0.000    2.000    1.250    6.375    0.000    4.250 
#    0.000    0.625    0.000    4.500    0.000    5.250 
#    0.000    0.000    0.000    0.000    0.000    0.000 
#
# Total GULP energy -178575.453564 kJ/mol
# GULP energy per Si atom -5580.482924 kJ/mol
# Density = 1.802745 g / cm^3
# Si number density = 18.068571 Si / 1000 Ang^3
#
#
#
# Elastic Constant Matrix: (Units=GPa)
#
#
# Indices 1 2 3 4 5 6 
#
# 1 25.1447 17.0150 30.4776 0.0000 3.1644 0.0000
# 2 17.0150 73.5249 50.3510 0.0000 8.0120 0.0000
# 3 30.4776 50.3510 131.1748 0.0000 15.4216 0.0000
# 4 0.0000 0.0000 0.0000 30.2666 0.0000 10.6834
# 5 3.1644 8.0120 15.4216 0.0000 22.8879 0.0000
# 6 0.0000 0.0000 0.0000 10.6834 0.0000 10.6321
#
#
#
# Elastic Compliance Matrix: (Units=1/GPa)
#
#
# Indices 1 2 3 4 5 6 
#
# 1 0.057066 -0.005663 -0.011285 0.000000 0.001696 0.000000
# 2 -0.005663 0.019084 -0.005774 0.000000 -0.002007 0.000000
# 3 -0.011285 -0.005774 0.013076 0.000000 -0.005229 0.000000
# 4 0.000000 0.000000 0.000000 0.051199 0.000000 -0.051446
# 5 0.001696 -0.002007 -0.005229 0.000000 0.047683 0.000000
# 6 0.000000 0.000000 0.000000 -0.051446 0.000000 0.145749
#
#
# Mechanical properties :
#
#
# Convention : Reuss Voigt Hill
#
# Bulk Modulus (GPa) = 22.83937 47.28129 35.06033
# Shear Modulus (GPa) = 12.69373 21.55738 17.12555
#
# Velocity S-wave (km/s) = 2.65341 3.45786 3.08199
# Velocity P-wave (km/s) = 4.69630 6.49360 5.66666
#
# Compressibility (1/GPa) = 0.04378405
#
# Stress axis : x y z
#
# Youngs Moduli (GPa) = 17.52343 52.40015 76.47443
#
# Poissons Ratio (x) = 0.29675 0.86299
# Poissons Ratio (y) = 0.09924 0.44153
# Poissons Ratio (z) = 0.19775 0.30253
#
# Static dielectric constant tensor:
#      x y z
#    x 1.612720 0.000000 0.007180 
#    y 0.000000 1.602590 0.000000 
#    z 0.007180 0.000000 1.661620 
# 
# From -- ./inp_files/93753.got.cif
#   From: 2010.05.17/outbox.cif.g08.bks.cpg/sg10_47_cif.got.tgz:93753.got - 2010.06.03 11:33:40.
