data_PCOD9143874
_publ_section_title
;
Structure prediction by ZEFSAII (Michael W. Deem and Ramdas Pophale) SiO2 
 PCOD9143874
Probable space group: P 2/M
;
_chemical_formula_sum "Si O2"
_cell_formula_units_Z 28
_cell_length_a 12.443027
_cell_length_b 14.698273
_cell_length_c 14.946220
_cell_angle_alpha 90.000000
_cell_angle_beta 30.411512
_cell_angle_gamma 90.000000
_cell_volume 1383.731778
_symmetry_space_group_name_H-M "P 2/M"
_symmetry_group_IT_number 10
_symmetry_cell_setting 'monoclinic'
loop_
_space_group_symop_operation_xyz
x,y,z
-x,y,-z
-x,-y,-z
x,-y,z
loop_
_atom_site_type_symbol
_atom_site_label
_atom_site_fract_x
_atom_site_fract_y
_atom_site_fract_z
Si Si1 0.597643 0.600965 0.527457
Si Si2 0.133290 0.230376 0.626977
Si Si3 0.492256 0.191279 0.214170
Si Si4 0.151036 0.797655 0.316393
Si Si5 0.252234 0.894548 0.703938
Si Si6 0.409071 0.000000 0.915447
Si Si7 0.228650 0.273793 0.861149
Si Si8 0.173658 0.000000 0.259714
O O1 0.500000 0.592919 0.500000
O O2 0.651532 0.500000 0.522604
O O3 0.788268 0.673443 0.390552
O O4 0.405458 0.651164 0.714811
O O5 0.312333 0.206236 0.420810
O O6 0.140977 0.153685 0.698160
O O7 0.910657 0.240981 0.735132
O O8 0.381419 0.206551 0.196917
O O9 0.567542 0.087899 0.160633
O O10 0.703384 0.246039 0.087848
O O11 0.077740 0.903465 0.355065
O O12 0.000000 0.754826 0.500000
O O13 0.500000 0.898800 0.500000
O O14 0.240943 0.819842 0.792361
O O15 0.182047 0.000000 0.771683
O O16 0.609884 0.000000 0.838605
O O17 0.216046 0.000000 0.123500
O O18 0.000000 0.310932 0.000000
#
# Coordination Sequence:
#
# PCOD9143874 Si02
#       8
#     4   4   4   4   4   2   4   2
#     4  10  19  38  62  82 104 131 174 231 279 319
#     4  10  18  33  55  79 102 133 179 224 266 317
#     4   9  19  33  48  69 105 143 175 222 260 303
#     4   9  18  30  50  73 100 137 181 223 265 303
#     4  11  21  34  53  77 110 150 186 216 263 313
#     4   9  18  30  45  63 101 150 189 210 255 295
#     4  11  22  37  54  79 113 143 180 219 269 328
#     4   9  17  30  42  68 101 142 191 221 239 303
#
# _framework density 20.235135
#
# number of rings (size 3 to 8) (size 9 to 14) (size 15 to 20)
#    0.000    2.143    4.286    0.214    3.000    2.857 
#    0.000    0.000    0.000   10.714    0.000    0.000 
#    0.000    2.286    0.000    0.143    0.000    0.000 
#
# Total GULP energy -155915.268584 kJ/mol
# GULP energy per Si atom -5568.402449 kJ/mol
# Density = 2.018908 g / cm^3
# Si number density = 20.235135 Si / 1000 Ang^3
#
#
#
# Elastic Constant Matrix: (Units=GPa)
#
#
# Indices 1 2 3 4 5 6 
#
# 1 136.7972 30.5506 4.2616 0.0000 -10.9910 0.0000
# 2 30.5506 105.0728 3.9569 0.0000 3.6504 0.0000
# 3 4.2616 3.9569 21.5911 0.0000 1.9655 0.0000
# 4 0.0000 0.0000 0.0000 -3.7037 0.0000 1.8033
# 5 -10.9910 3.6504 1.9655 0.0000 28.0562 0.0000
# 6 0.0000 0.0000 0.0000 1.8033 0.0000 20.9983
#
#
#
# Elastic Compliance Matrix: (Units=1/GPa)
#
#
# Indices 1 2 3 4 5 6 
#
# 1 0.008197 -0.002453 -0.001499 0.000000 0.003635 0.000000
# 2 -0.002453 0.010353 -0.001211 0.000000 -0.002223 0.000000
# 3 -0.001499 -0.001211 0.047173 0.000000 -0.003734 0.000000
# 4 0.000000 0.000000 0.000000 -0.259161 0.000000 0.022257
# 5 0.003635 -0.002223 -0.003734 0.000000 0.037618 0.000000
# 6 0.000000 0.000000 0.000000 0.022257 0.000000 0.045712
#
#
# Mechanical properties :
#
#
# Convention : Reuss Voigt Hill
#
# Bulk Modulus (GPa) = 18.05156 37.88879 27.97017
# Shear Modulus (GPa) = -61.48826 24.04962 -18.71932
#
# Velocity S-wave (km/s) = -5.51841 3.45121 -3.04483
# Velocity P-wave (km/s) = 5.62704 5.88609 1.22118
#
# Compressibility (1/GPa) = 0.05539689
#
# Stress axis : x y z
#
# Youngs Moduli (GPa) = 122.00008 96.58754 21.19852
#
# Poissons Ratio (x) = 0.23694 0.03178
# Poissons Ratio (y) = 0.29928 0.02567
# Poissons Ratio (z) = 0.18290 0.11695
#
# Static dielectric constant tensor:
#      x y z
#    x 1.797210 0.000000 0.012050 
#    y 0.000000 1.743140 0.000000 
#    z 0.012050 0.000000 1.809630 
# 
# From -- ./inp_files/64930.got.cif
#   From: 2010.05.17/outbox.cif.g08.bks.cpg/sg10_33_cif.got.tgz:64930.got - 2010.06.03 11:33:40.
