data_PCOD9143362
_publ_section_title
;
Structure prediction by ZEFSAII (Michael W. Deem and Ramdas Pophale) SiO2 
 PCOD9143362
Probable space group: P 2/M
;
_chemical_formula_sum "Si O2"
_cell_formula_units_Z 26
_cell_length_a 25.143118
_cell_length_b 7.391259
_cell_length_c 7.853102
_cell_angle_alpha 90.000000
_cell_angle_beta 42.074743
_cell_angle_gamma 90.000000
_cell_volume 977.953200
_symmetry_space_group_name_H-M "P 2/M"
_symmetry_group_IT_number 10
_symmetry_cell_setting 'monoclinic'
loop_
_space_group_symop_operation_xyz
x,y,z
-x,y,-z
-x,-y,-z
x,-y,z
loop_
_atom_site_type_symbol
_atom_site_label
_atom_site_fract_x
_atom_site_fract_y
_atom_site_fract_z
Si Si1 0.987238 0.718425 0.234242
Si Si2 0.551741 0.216397 0.711108
Si Si3 0.745431 0.201950 0.548761
Si Si4 0.699194 0.706197 0.176998
Si Si5 0.150366 0.705312 0.010811
Si Si6 0.400114 0.789155 0.910971
Si Si7 0.850830 0.000000 0.569969
O O1 0.977292 0.500000 0.273984
O O2 0.914974 0.839671 0.467574
O O3 0.065505 0.776503 0.154349
O O4 0.000000 0.756224 0.000000
O O5 0.639255 0.293393 0.479587
O O6 0.489177 0.280359 0.715174
O O7 0.563224 0.000000 0.677071
O O8 0.500000 0.259051 0.000000
O O9 0.800195 0.300577 0.283921
O O10 0.730112 0.000000 0.509470
O O11 0.795176 0.155049 0.601107
O O12 0.663683 0.288398 0.804950
O O13 0.714264 0.500000 0.091805
O O14 0.784103 0.794681 0.018993
O O15 0.643838 0.787573 0.164024
O O16 0.136865 0.500000 0.102057
O O17 0.407362 0.000000 0.941650
#
# Coordination Sequence:
#
# PCOD9143362 Si02
#       7
#     4   4   4   4   4   4   2
#     4  10  18  31  52  83 121 153 191 249 306 354
#     4  10  21  39  63  88 113 146 190 236 290 343
#     4   9  19  33  56  83 113 141 191 244 287 339
#     4  11  24  39  56  83 118 155 196 235 286 349
#     4  10  21  35  53  82 116 151 191 241 296 351
#     4  10  21  39  58  81 115 153 191 235 284 348
#     4  10  19  32  56  91 116 149 200 249 297 369
#
# _framework density 26.586138999999999
#
# number of rings (size 3 to 8) (size 9 to 14) (size 15 to 20)
#    0.462    1.538    1.538    2.077    1.077    5.846 
#    0.000    0.000    0.000    1.846    0.000    3.231 
#    0.000    0.000    0.000    0.000    0.000    0.000 
#
# Total GULP energy -144803.849484 kJ/mol
# GULP energy per Si atom -5569.378826 kJ/mol
# Density = 2.652563 g / cm^3
# Si number density = 26.586139 Si / 1000 Ang^3
#
#
#
# Elastic Constant Matrix: (Units=GPa)
#
#
# Indices 1 2 3 4 5 6 
#
# 1 183.0202 1.7708 41.0760 0.0000 -42.6177 0.0000
# 2 1.7708 105.2149 -4.4158 0.0000 -16.3920 0.0000
# 3 41.0760 -4.4158 114.0438 0.0000 -27.7962 0.0000
# 4 0.0000 0.0000 0.0000 -23.8735 0.0000 -37.2668
# 5 -42.6177 -16.3920 -27.7962 0.0000 59.9157 0.0000
# 6 0.0000 0.0000 0.0000 -37.2668 0.0000 -52.2560
#
#
#
# Elastic Compliance Matrix: (Units=1/GPa)
#
#
# Indices 1 2 3 4 5 6 
#
# 1 0.006772 0.000502 -0.001367 0.000000 0.004320 0.000000
# 2 0.000502 0.010107 0.001095 0.000000 0.003630 0.000000
# 3 -0.001367 0.001095 0.010304 0.000000 0.004108 0.000000
# 4 0.000000 0.000000 0.000000 0.369872 0.000000 -0.263777
# 5 0.004320 0.003630 0.004108 0.000000 0.022662 0.000000
# 6 0.000000 0.000000 0.000000 -0.263777 0.000000 0.168978
#
#
# Mechanical properties :
#
#
# Convention : Reuss Voigt Hill
#
# Bulk Modulus (GPa) = 36.17339 53.23787 44.70563
# Shear Modulus (GPa) = 8.36890 21.01376 14.69133
#
# Velocity S-wave (km/s) = 1.77614 2.81446 2.35328
# Velocity P-wave (km/s) = 4.22396 5.53441 4.92299
#
# Compressibility (1/GPa) = 0.02764463
#
# Stress axis : x y z
#
# Youngs Moduli (GPa) = 147.67409 98.93662 97.04500
#
# Poissons Ratio (x) = -0.04964 0.13263
# Poissons Ratio (y) = -0.07409 -0.10631
# Poissons Ratio (z) = 0.20182 -0.10838
#
# Static dielectric constant tensor:
#      x y z
#    x 2.186650 0.000000 0.089280 
#    y 0.000000 2.055900 0.000000 
#    z 0.089280 0.000000 2.148760 
# 
# From -- ./inp_files/36683.got.cif
#   From: 2010.05.17/outbox.cif.g08.bks.cpg/sg10_19_cif.got.tgz:36683.got - 2010.06.03 11:33:40.
