data_PCOD9143764
_publ_section_title
;
Structure prediction by ZEFSAII (Michael W. Deem and Ramdas Pophale) SiO2 
 PCOD9143764
Probable space group: P 2/M
;
_chemical_formula_sum "Si O2"
_cell_formula_units_Z 28
_cell_length_a 9.071937
_cell_length_b 16.569995
_cell_length_c 21.189111
_cell_angle_alpha 90.000000
_cell_angle_beta 150.490621
_cell_angle_gamma 90.000000
_cell_volume 1568.915641
_symmetry_space_group_name_H-M "P 2/M"
_symmetry_group_IT_number 10
_symmetry_cell_setting 'monoclinic'
loop_
_space_group_symop_operation_xyz
x,y,z
-x,y,-z
-x,-y,-z
x,-y,z
loop_
_atom_site_type_symbol
_atom_site_label
_atom_site_fract_x
_atom_site_fract_y
_atom_site_fract_z
Si Si1 0.815689 0.908968 0.153453
Si Si2 0.137540 0.244147 0.738001
Si Si3 0.178734 0.189584 0.205004
Si Si4 0.222495 0.732047 0.523584
Si Si5 0.684084 0.715175 0.857962
Si Si6 0.439056 0.592484 0.298735
Si Si7 0.850860 0.660709 0.135230
O O1 0.860061 0.840545 0.223350
O O2 0.060490 0.892240 0.190055
O O3 0.835433 0.000000 0.185544
O O4 0.500000 0.899075 0.000000
O O5 0.462144 0.263853 0.830813
O O6 0.070051 0.313665 0.763940
O O7 0.923675 0.247014 0.597552
O O8 0.474257 0.217667 0.352453
O O9 0.257127 0.204134 0.161572
O O10 0.919649 0.256154 0.122786
O O11 0.331853 0.639097 0.569761
O O12 0.000000 0.747675 0.500000
O O13 0.553851 0.647936 0.761678
O O14 0.000000 0.684309 0.000000
O O15 0.513321 0.500000 0.315503
O O16 0.101350 0.601084 0.200739
O O17 0.500000 0.638691 0.000000
#
# Coordination Sequence:
#
# PCOD9143764 Si02
#       7
#     4   4   4   4   4   4   4
#     4  10  21  37  58  88 120 142 169 221 281 325
#     4  11  18  34  60  81 106 144 191 224 263 324
#     4   9  18  33  54  79 111 144 184 221 263 320
#     4  10  19  37  55  81 105 147 190 228 266 319
#     4  10  18  32  57  82 104 144 196 229 268 327
#     4  10  22  37  52  76 114 146 179 237 290 323
#     4   9  18  33  53  78 106 143 184 223 275 332
#
# _framework density 17.846720000000001
#
# number of rings (size 3 to 8) (size 9 to 14) (size 15 to 20)
#    0.000    2.429    2.857    4.286    0.000    6.000 
#    0.000    4.286    0.000    3.429    0.000    0.000 
#    0.000    0.000    0.000    0.000    0.000    0.000 
#
# Total GULP energy -155964.511917 kJ/mol
# GULP energy per Si atom -5570.161140 kJ/mol
# Density = 1.780610 g / cm^3
# Si number density = 17.846720 Si / 1000 Ang^3
#
#
#
# Elastic Constant Matrix: (Units=GPa)
#
#
# Indices 1 2 3 4 5 6 
#
# 1 75.9941 19.4451 6.3847 0.0000 -1.3146 0.0000
# 2 19.4451 88.4963 28.4506 0.0000 -5.9742 0.0000
# 3 6.3847 28.4506 76.4427 0.0000 -12.4200 0.0000
# 4 0.0000 0.0000 0.0000 14.4194 0.0000 -0.5868
# 5 -1.3146 -5.9742 -12.4200 0.0000 35.1501 0.0000
# 6 0.0000 0.0000 0.0000 -0.5868 0.0000 14.4429
#
#
#
# Elastic Compliance Matrix: (Units=1/GPa)
#
#
# Indices 1 2 3 4 5 6 
#
# 1 0.013943 -0.003055 -0.000029 0.000000 -0.000008 0.000000
# 2 -0.003055 0.013514 -0.004689 0.000000 0.000526 0.000000
# 3 -0.000029 -0.004689 0.015595 0.000000 0.004712 0.000000
# 4 0.000000 0.000000 0.000000 0.069466 0.000000 0.002823
# 5 -0.000008 0.000526 0.004712 0.000000 0.030203 0.000000
# 6 0.000000 0.000000 0.000000 0.002823 0.000000 0.069353
#
#
# Mechanical properties :
#
#
# Convention : Reuss Voigt Hill
#
# Bulk Modulus (GPa) = 36.35548 38.83266 37.59407
# Shear Modulus (GPa) = 21.11584 25.24599 23.18092
#
# Velocity S-wave (km/s) = 3.44347 3.76520 3.60792
# Velocity P-wave (km/s) = 6.01873 6.38032 6.20216
#
# Compressibility (1/GPa) = 0.02750617
#
# Stress axis : x y z
#
# Youngs Moduli (GPa) = 71.72115 73.99646 64.12338
#
# Poissons Ratio (x) = 0.22605 0.00185
# Poissons Ratio (y) = 0.21910 0.30068
# Poissons Ratio (z) = 0.00207 0.34698
#
# Static dielectric constant tensor:
#      x y z
#    x 1.643620 0.000000 0.012910 
#    y 0.000000 1.596590 0.000000 
#    z 0.012910 0.000000 1.651690 
# 
# From -- ./inp_files/82984.got.cif
#   From: 2010.05.17/outbox.cif.g08.bks.cpg/sg10_42_cif.got.tgz:82984.got - 2010.06.03 11:33:40.
