data_PCOD9143487
_publ_section_title
;
Structure prediction by ZEFSAII (Michael W. Deem and Ramdas Pophale) SiO2 
 PCOD9143487
Probable space group: P 2/M
;
_chemical_formula_sum "Si O2"
_cell_formula_units_Z 32
_cell_length_a 18.995582
_cell_length_b 14.789697
_cell_length_c 12.392430
_cell_angle_alpha 90.000000
_cell_angle_beta 151.693141
_cell_angle_gamma 90.000000
_cell_volume 1650.912486
_symmetry_space_group_name_H-M "P 2/M"
_symmetry_group_IT_number 10
_symmetry_cell_setting 'monoclinic'
loop_
_space_group_symop_operation_xyz
x,y,z
-x,y,-z
-x,-y,-z
x,-y,z
loop_
_atom_site_type_symbol
_atom_site_label
_atom_site_fract_x
_atom_site_fract_y
_atom_site_fract_z
Si Si1 0.135177 0.702584 0.390337
Si Si2 0.615130 0.337050 0.424651
Si Si3 0.460215 0.196795 0.062027
Si Si4 0.153345 0.100993 0.140274
Si Si5 0.157093 0.276195 0.667317
Si Si6 0.269785 0.099116 0.525471
Si Si7 0.698777 0.398455 0.956164
Si Si8 0.198909 0.287714 0.111775
O O1 0.260213 0.645046 0.497541
O O2 0.133161 0.686304 0.514844
O O3 0.180129 0.810011 0.438247
O O4 0.974719 0.685485 0.122028
O O5 0.526300 0.253003 0.251223
O O6 0.478347 0.401981 0.263715
O O7 0.707387 0.316374 0.657044
O O8 0.564507 0.109504 0.204922
O O9 0.500000 0.242625 0.000000
O O10 0.284072 0.199019 0.833662
O O11 0.270378 0.101419 0.396168
O O12 0.191014 0.178582 0.106871
O O13 0.142919 0.000000 0.081107
O O14 0.000000 0.119652 0.000000
O O15 0.000000 0.243682 0.500000
O O16 0.221228 0.353514 0.832777
O O17 0.207415 0.000000 0.471475
O O18 0.753987 0.500000 0.009877
O O19 0.730202 0.332512 0.897781
#
# Coordination Sequence:
#
# PCOD9143487 Si02
#       8
#     4   4   4   4   4   4   4   4
#     4  11  20  38  64  97 123 170 220 257 318 382
#     4  10  21  38  64  92 124 160 211 262 316 379
#     4  10  18  34  59  88 121 162 214 251 306 371
#     4  10  18  31  58  99 137 170 212 258 309 379
#     4  11  22  42  64  92 122 163 213 264 318 392
#     4  10  19  32  58  97 134 164 214 269 311 370
#     4  11  27  45  67  92 123 172 217 261 332 399
#     4  12  20  38  66  95 132 172 209 264 327 377
#
# _framework density 19.383220000000001
#
# number of rings (size 3 to 8) (size 9 to 14) (size 15 to 20)
#    0.000    1.375    7.500    0.750    0.000    1.500 
#    0.000    1.875    0.000   13.875    0.000    0.000 
#    0.000    0.000    0.000    0.000    0.000    0.000 
#
# Total GULP energy -178198.264202 kJ/mol
# GULP energy per Si atom -5568.695756 kJ/mol
# Density = 1.933910 g / cm^3
# Si number density = 19.383220 Si / 1000 Ang^3
#
#
#
# Elastic Constant Matrix: (Units=GPa)
#
#
# Indices 1 2 3 4 5 6 
#
# 1 99.1407 42.5177 36.3996 0.0000 3.6957 0.0000
# 2 42.5177 78.0998 15.2140 0.0000 -5.7347 0.0000
# 3 36.3996 15.2140 135.8191 0.0000 11.1719 0.0000
# 4 0.0000 0.0000 0.0000 90.1303 0.0000 -88.7509
# 5 3.6957 -5.7347 11.1719 0.0000 40.3937 0.0000
# 6 0.0000 0.0000 0.0000 -88.7509 0.0000 119.1983
#
#
#
# Elastic Compliance Matrix: (Units=1/GPa)
#
#
# Indices 1 2 3 4 5 6 
#
# 1 0.014371 -0.007374 -0.002897 0.000000 -0.001560 0.000000
# 2 -0.007374 0.017089 -0.000198 0.000000 0.003155 0.000000
# 3 -0.002897 -0.000198 0.008331 0.000000 -0.002067 0.000000
# 4 0.000000 0.000000 0.000000 0.041581 0.000000 0.030960
# 5 -0.001560 0.003155 -0.002067 0.000000 0.025919 0.000000
# 6 0.000000 0.000000 0.000000 0.030960 0.000000 0.031441
#
#
# Mechanical properties :
#
#
# Convention : Reuss Voigt Hill
#
# Bulk Modulus (GPa) = 53.03920 55.70248 54.37084
# Shear Modulus (GPa) = 30.12904 64.53968 47.33436
#
# Velocity S-wave (km/s) = 3.94685 5.77659 4.94705
# Velocity P-wave (km/s) = 6.94212 8.56106 7.79374
#
# Compressibility (1/GPa) = 0.01885398
#
# Stress axis : x y z
#
# Youngs Moduli (GPa) = 69.58549 58.51857 120.02900
#
# Poissons Ratio (x) = 0.43150 0.34773
# Poissons Ratio (y) = 0.51310 0.02372
# Poissons Ratio (z) = 0.20159 0.01156
#
# Static dielectric constant tensor:
#      x y z
#    x 1.680870 0.000000 0.011440 
#    y 0.000000 1.709860 0.000000 
#    z 0.011440 0.000000 1.740160 
# 
# From -- ./inp_files/54076.got.cif
#   From: 2010.05.17/outbox.cif.g08.bks.cpg/sg10_28_cif.got.tgz:54076.got - 2010.06.03 11:33:40.
