data_PCOD9143677
_publ_section_title
;
Structure prediction by ZEFSAII (Michael W. Deem and Ramdas Pophale) SiO2 
 PCOD9143677
Probable space group: P 2/M
;
_chemical_formula_sum "Si O2"
_cell_formula_units_Z 32
_cell_length_a 20.948137
_cell_length_b 8.041938
_cell_length_c 26.279949
_cell_angle_alpha 90.000000
_cell_angle_beta 19.963093
_cell_angle_gamma 90.000000
_cell_volume 1511.516701
_symmetry_space_group_name_H-M "P 2/M"
_symmetry_group_IT_number 10
_symmetry_cell_setting 'monoclinic'
loop_
_space_group_symop_operation_xyz
x,y,z
-x,y,-z
-x,-y,-z
x,-y,z
loop_
_atom_site_type_symbol
_atom_site_label
_atom_site_fract_x
_atom_site_fract_y
_atom_site_fract_z
Si Si1 0.480527 0.698107 0.262085
Si Si2 0.124637 0.300874 0.834322
Si Si3 0.875850 0.690797 0.343909
Si Si4 0.341615 0.192165 0.582305
Si Si5 0.295084 0.698562 0.809586
Si Si6 0.079503 0.187358 0.580320
Si Si7 0.667467 0.300268 0.909727
Si Si8 0.291043 0.700445 0.006163
O O1 0.514718 0.500000 0.238542
O O2 0.558187 0.763849 0.258455
O O3 0.259674 0.725879 0.420931
O O4 0.595483 0.765322 0.127385
O O5 0.151333 0.500000 0.807200
O O6 0.165014 0.207892 0.752087
O O7 0.262759 0.238623 0.776137
O O8 0.911039 0.280191 0.011541
O O9 0.882943 0.500000 0.357037
O O10 0.703947 0.715228 0.435292
O O11 0.874492 0.804625 0.393978
O O12 0.068248 0.725330 0.169879
O O13 0.500000 0.266993 0.500000
O O14 0.382560 0.000000 0.540903
O O15 0.327720 0.500000 0.779505
O O16 0.871918 0.262921 0.733357
O O17 0.071691 0.000000 0.567605
O O18 0.651811 0.500000 0.924228
O O19 0.656388 0.237350 0.976482
O O20 0.500000 0.236322 0.000000
O O21 0.319364 0.500000 0.985579
#
# Coordination Sequence:
#
# PCOD9143677 Si02
#       8
#     4   4   4   4   4   4   4   4
#     4  10  18  32  54  80 110 144 183 227 277 328
#     4   9  17  33  52  72  95 128 181 231 279 335
#     4  10  20  38  61  80 101 139 192 239 280 330
#     4  11  24  36  46  69 107 141 175 226 285 335
#     4   8  16  30  52  76  98 128 175 235 280 324
#     4  11  23  37  54  83 120 151 181 221 276 336
#     4   9  18  37  64  90 115 148 191 232 269 319
#     4   8  16  32  58  88 110 134 179 235 278 318
#
# _framework density 21.170787000000001
#
# number of rings (size 3 to 8) (size 9 to 14) (size 15 to 20)
#    0.000    2.500    0.000    4.125    1.750    3.250 
#    0.000    6.875    0.000    3.750    0.000    0.000 
#    0.000    0.000    0.000    0.000    0.000    0.000 
#
# Total GULP energy -178526.403360 kJ/mol
# GULP energy per Si atom -5578.950105 kJ/mol
# Density = 2.112260 g / cm^3
# Si number density = 21.170787 Si / 1000 Ang^3
#
#
#
# Elastic Constant Matrix: (Units=GPa)
#
#
# Indices 1 2 3 4 5 6 
#
# 1 82.0560 7.8538 28.4209 0.0000 -27.9697 0.0000
# 2 7.8538 20.2655 4.3471 0.0000 -1.0709 0.0000
# 3 28.4209 4.3471 78.8078 0.0000 -12.0345 0.0000
# 4 0.0000 0.0000 0.0000 821.0235 0.0000 34.7081
# 5 -27.9697 -1.0709 -12.0345 0.0000 34.6170 0.0000
# 6 0.0000 0.0000 0.0000 34.7081 0.0000 10.9637
#
#
#
# Elastic Compliance Matrix: (Units=1/GPa)
#
#
# Indices 1 2 3 4 5 6 
#
# 1 0.018876 -0.005650 -0.004428 0.000000 0.013537 0.000000
# 2 -0.005650 0.051640 -0.001335 0.000000 -0.003432 0.000000
# 3 -0.004428 -0.001335 0.014581 0.000000 0.001450 0.000000
# 4 0.000000 0.000000 0.000000 0.001406 0.000000 -0.004452
# 5 0.013537 -0.003432 0.001450 0.000000 0.040223 0.000000
# 6 0.000000 0.000000 0.000000 -0.004452 0.000000 0.105303
#
#
# Mechanical properties :
#
#
# Convention : Reuss Voigt Hill
#
# Bulk Modulus (GPa) = 16.05914 29.15255 22.60585
# Shear Modulus (GPa) = 18.14152 182.68799 100.41475
#
# Velocity S-wave (km/s) = 2.93048 9.29945 6.89447
# Velocity P-wave (km/s) = 4.36489 11.36250 8.60694
#
# Compressibility (1/GPa) = 0.06226983
#
# Stress axis : x y z
#
# Youngs Moduli (GPa) = 52.97873 19.36497 68.58166
#
# Poissons Ratio (x) = 0.10941 0.30371
# Poissons Ratio (y) = 0.29932 0.09155
# Poissons Ratio (z) = 0.23461 0.02585
#
# Static dielectric constant tensor:
#      x y z
#    x 1.775370 0.000000 0.002160 
#    y 0.000000 1.753560 0.000000 
#    z 0.002160 0.000000 1.811820 
# 
# From -- ./inp_files/86969.got.cif
#   From: 2010.05.17/outbox.cif.g08.bks.cpg/sg10_44_cif.got.tgz:86969.got - 2010.06.03 11:33:40.
