data_PCOD9143178
_publ_section_title
;
Structure prediction by ZEFSAII (Michael W. Deem and Ramdas Pophale) SiO2 
 PCOD9143178
Probable space group: P 2/M
;
_chemical_formula_sum "Si O2"
_cell_formula_units_Z 21
_cell_length_a 8.281241
_cell_length_b 14.713285
_cell_length_c 16.476952
_cell_angle_alpha 90.000000
_cell_angle_beta 24.662531
_cell_angle_gamma 90.000000
_cell_volume 837.726174
_symmetry_space_group_name_H-M "P 2/M"
_symmetry_group_IT_number 10
_symmetry_cell_setting 'monoclinic'
loop_
_space_group_symop_operation_xyz
x,y,z
-x,y,-z
-x,-y,-z
x,-y,z
loop_
_atom_site_type_symbol
_atom_site_label
_atom_site_fract_x
_atom_site_fract_y
_atom_site_fract_z
Si Si1 0.249632 0.000000 0.465610
Si Si2 0.465674 0.600706 0.187647
Si Si3 0.527391 0.627169 0.629774
Si Si4 0.500000 0.500000 0.500000
Si Si5 0.621563 0.180622 0.537044
Si Si6 0.487486 0.795479 0.907099
Si Si7 0.477811 0.000000 0.913926
O O1 0.485281 0.090457 0.367394
O O2 0.000000 0.000000 0.500000
O O3 0.930606 0.000000 0.681930
O O4 0.556149 0.500000 0.110773
O O5 0.576262 0.598747 0.232271
O O6 0.622425 0.693710 0.075126
O O7 0.991244 0.607210 0.405296
O O8 0.351866 0.577680 0.632669
O O9 0.445683 0.732819 0.659392
O O10 0.500000 0.173791 0.500000
O O11 0.080572 0.195258 0.327020
O O12 0.325774 0.897968 0.959217
O O13 0.500000 0.790722 0.000000
O O14 0.500000 0.000000 0.000000
#
# Coordination Sequence:
#
# PCOD9143178 Si02
#       7
#     2   4   4   1   4   4   2
#     4  10  21  31  52  85 111 134 171 230 282 309
#     4  10  18  31  47  74 107 133 172 225 261 309
#     4  10  19  29  49  76 103 136 176 216 262 317
#     4  12  16  30  48  74 102 138 176 206 272 314
#     4  10  20  33  52  80 107 136 170 222 267 315
#     4   9  19  33  54  77 101 141 184 216 257 320
#     4   8  16  33  50  73  98 138 177 210 249 321
#
# _framework density 25.067857
#
# number of rings (size 3 to 8) (size 9 to 14) (size 15 to 20)
#    0.000    2.286    2.857    0.857    8.000    0.381 
#    0.000    0.000    0.000    1.143    0.000   14.667 
#    0.000    0.000    0.000    0.000    0.000    0.000 
#
# Total GULP energy -116971.527245 kJ/mol
# GULP energy per Si atom -5570.072726 kJ/mol
# Density = 2.501080 g / cm^3
# Si number density = 25.067857 Si / 1000 Ang^3
#
#
#
# Elastic Constant Matrix: (Units=GPa)
#
#
# Indices 1 2 3 4 5 6 
#
# 1 45.7391 57.6114 6.0516 0.0000 9.8769 0.0000
# 2 57.6114 343.3142 32.1362 0.0000 17.6374 0.0000
# 3 6.0516 32.1362 106.8742 0.0000 -4.7999 0.0000
# 4 0.0000 0.0000 0.0000 -4.7974 0.0000 14.8602
# 5 9.8769 17.6374 -4.7999 0.0000 24.7832 0.0000
# 6 0.0000 0.0000 0.0000 14.8602 0.0000 36.0075
#
#
#
# Elastic Compliance Matrix: (Units=1/GPa)
#
#
# Indices 1 2 3 4 5 6 
#
# 1 0.029408 -0.004419 -0.000728 0.000000 -0.008716 0.000000
# 2 -0.004419 0.003800 -0.000943 0.000000 -0.001126 0.000000
# 3 -0.000728 -0.000943 0.009810 0.000000 0.002861 0.000000
# 4 0.000000 0.000000 0.000000 -0.091490 0.000000 0.037758
# 5 -0.008716 -0.001126 0.002861 0.000000 0.045179 0.000000
# 6 0.000000 0.000000 0.000000 0.037758 0.000000 0.012190
#
#
# Mechanical properties :
#
#
# Convention : Reuss Voigt Hill
#
# Bulk Modulus (GPa) = 32.42731 76.39176 54.40954
# Shear Modulus (GPa) = 159.45912 37.87388 98.66650
#
# Velocity S-wave (km/s) = 7.98430 3.89119 6.28054
# Velocity P-wave (km/s) = 9.89761 7.12240 8.62239
#
# Compressibility (1/GPa) = 0.03083820
#
# Stress axis : x y z
#
# Youngs Moduli (GPa) = 34.00489 263.12551 101.93566
#
# Poissons Ratio (x) = 1.16274 0.07420
# Poissons Ratio (y) = 0.15027 0.09614
# Poissons Ratio (z) = 0.02475 0.24816
#
# Static dielectric constant tensor:
#      x y z
#    x 2.114780 0.000000 -0.180520 
#    y 0.000000 2.037770 0.000000 
#    z -0.180520 0.000000 2.040900 
# 
# From -- ./inp_files/47102.got.cif
#   From: 2010.05.17/outbox.cif.g08.bks.cpg/sg10_24_cif.got.tgz:47102.got - 2010.06.03 11:33:40.
