data_PCOD9143732
_publ_section_title
;
Structure prediction by ZEFSAII (Michael W. Deem and Ramdas Pophale) SiO2 
 PCOD9143732
Probable space group: P 2/M
;
_chemical_formula_sum "Si O2"
_cell_formula_units_Z 28
_cell_length_a 8.153464
_cell_length_b 15.727836
_cell_length_c 11.737500
_cell_angle_alpha 90.000000
_cell_angle_beta 111.768947
_cell_angle_gamma 90.000000
_cell_volume 1397.835560
_symmetry_space_group_name_H-M "P 2/M"
_symmetry_group_IT_number 10
_symmetry_cell_setting 'monoclinic'
loop_
_space_group_symop_operation_xyz
x,y,z
-x,y,-z
-x,-y,-z
x,-y,z
loop_
_atom_site_type_symbol
_atom_site_label
_atom_site_fract_x
_atom_site_fract_y
_atom_site_fract_z
Si Si1 0.150488 0.683668 0.363489
Si Si2 0.171842 0.404117 0.127378
Si Si3 0.802988 0.904110 0.923443
Si Si4 0.435363 0.738808 0.110837
Si Si5 0.705472 0.092740 0.409460
Si Si6 0.227836 0.725494 0.639075
Si Si7 0.710096 0.868375 0.659735
O O1 0.156962 0.617313 0.259802
O O2 0.237992 0.681627 0.515148
O O3 0.238576 0.769549 0.336198
O O4 0.943654 0.691404 0.340742
O O5 0.244286 0.500000 0.136921
O O6 0.292841 0.330771 0.107833
O O7 0.000000 0.402156 0.000000
O O8 0.654853 0.832910 0.910549
O O9 0.805826 0.909555 0.788745
O O10 0.772550 0.000000 0.962716
O O11 0.000000 0.873030 0.000000
O O12 0.595873 0.723552 0.240435
O O13 0.500000 0.724756 0.000000
O O14 0.802485 0.172994 0.382186
O O15 0.497873 0.117243 0.368770
O O16 0.762741 0.090597 0.554937
O O17 0.723789 0.000000 0.360192
#
# Coordination Sequence:
#
# PCOD9143732 Si02
#       7
#     4   4   4   4   4   4   4
#     4  10  21  41  63  92 127 162 208 250 314 375
#     4  11  24  45  73  99 125 162 205 249 308 383
#     4  11  23  38  58  88 124 170 221 260 307 373
#     4  12  25  41  66  91 128 167 209 264 321 366
#     4  10  18  32  55  86 119 161 216 270 311 353
#     4  10  22  38  62  92 128 169 204 262 315 372
#     4  10  18  32  59  81 117 162 209 258 309 363
#
# _framework density 20.030968000000001
#
# number of rings (size 3 to 8) (size 9 to 14) (size 15 to 20)
#    0.000    1.429    2.857    3.000    2.000    1.143 
#    0.000   10.714    0.000    0.000    0.000    0.000 
#    0.000    0.000    0.000    0.000    0.000    0.000 
#
# Total GULP energy -155988.302069 kJ/mol
# GULP energy per Si atom -5571.010788 kJ/mol
# Density = 1.998538 g / cm^3
# Si number density = 20.030968 Si / 1000 Ang^3
#
#
#
# Elastic Constant Matrix: (Units=GPa)
#
#
# Indices 1 2 3 4 5 6 
#
# 1 55.6965 24.9614 42.2523 0.0000 -0.3073 0.0000
# 2 24.9614 83.8159 23.9697 0.0000 -8.2357 0.0000
# 3 42.2523 23.9697 117.6739 0.0000 8.2522 0.0000
# 4 0.0000 0.0000 0.0000 27.2355 0.0000 7.6824
# 5 -0.3073 -8.2357 8.2522 0.0000 33.4100 0.0000
# 6 0.0000 0.0000 0.0000 7.6824 0.0000 -1.7920
#
#
#
# Elastic Compliance Matrix: (Units=1/GPa)
#
#
# Indices 1 2 3 4 5 6 
#
# 1 0.026962 -0.005456 -0.008642 0.000000 0.001038 0.000000
# 2 -0.005456 0.014273 -0.001212 0.000000 0.003768 0.000000
# 3 -0.008642 -0.001212 0.012084 0.000000 -0.003363 0.000000
# 4 0.000000 0.000000 0.000000 0.016619 0.000000 0.071249
# 5 0.001038 0.003768 -0.003363 0.000000 0.031700 0.000000
# 6 0.000000 0.000000 0.000000 0.071249 0.000000 -0.252591
#
#
# Mechanical properties :
#
#
# Convention : Reuss Voigt Hill
#
# Bulk Modulus (GPa) = 44.05910 48.83922 46.44916
# Shear Modulus (GPa) = -44.33958 22.83758 -10.75100
#
# Velocity S-wave (km/s) = -4.70994 3.38022 -2.31923
# Velocity P-wave (km/s) = 2.74497 6.29836 4.00839
#
# Compressibility (1/GPa) = 0.02269679
#
# Stress axis : x y z
#
# Youngs Moduli (GPa) = 37.08980 70.06380 82.75386
#
# Poissons Ratio (x) = 0.38227 0.71519
# Poissons Ratio (y) = 0.20236 0.10034
# Poissons Ratio (z) = 0.32054 0.08495
#
# Static dielectric constant tensor:
#      x y z
#    x 1.801340 0.000000 0.119360 
#    y 0.000000 1.713330 0.000000 
#    z 0.119360 0.000000 1.864470 
# 
# From -- ./inp_files/43031.got.cif
#   From: 2010.05.17/outbox.cif.g08.bks.cpg/sg10_22_cif.got.tgz:43031.got - 2010.06.03 11:33:40.
