data_PCOD9143147
_publ_section_title
;
Structure prediction by ZEFSAII (Michael W. Deem and Ramdas Pophale) SiO2 
 PCOD9143147
Probable space group: P 2/M
;
_chemical_formula_sum "Si O2"
_cell_formula_units_Z 32
_cell_length_a 25.285687
_cell_length_b 7.753734
_cell_length_c 16.518542
_cell_angle_alpha 90.000000
_cell_angle_beta 152.924831
_cell_angle_gamma 90.000000
_cell_volume 1474.078327
_symmetry_space_group_name_H-M "P 2/M"
_symmetry_group_IT_number 10
_symmetry_cell_setting 'monoclinic'
loop_
_space_group_symop_operation_xyz
x,y,z
-x,y,-z
-x,-y,-z
x,-y,z
loop_
_atom_site_type_symbol
_atom_site_label
_atom_site_fract_x
_atom_site_fract_y
_atom_site_fract_z
Si Si1 0.828401 0.797340 0.949821
Si Si2 0.250108 0.201318 0.859924
Si Si3 0.503200 0.211413 0.256557
Si Si4 0.280746 0.791743 0.552730
Si Si5 0.411005 0.788759 0.449001
Si Si6 0.952654 0.210752 0.848316
Si Si7 0.178513 0.294944 0.586782
Si Si8 0.915506 0.700029 0.231458
O O1 0.716566 0.726142 0.751320
O O2 0.829067 0.000000 0.931524
O O3 0.951424 0.729333 0.085486
O O4 0.828880 0.779246 0.046892
O O5 0.239423 0.222172 0.749465
O O6 0.140890 0.282528 0.757392
O O7 0.245454 0.000000 0.873959
O O8 0.373236 0.271177 0.059566
O O9 0.596787 0.267233 0.316729
O O10 0.547390 0.265058 0.405528
O O11 0.501201 0.000000 0.253177
O O12 0.247295 0.741843 0.598164
O O13 0.175044 0.730851 0.351106
O O14 0.281932 0.000000 0.551740
O O15 0.500000 0.737318 0.500000
O O16 0.408939 0.000000 0.447117
O O17 0.947891 0.000000 0.841983
O O18 0.000000 0.264095 0.000000
O O19 0.171207 0.500000 0.587803
O O20 0.045627 0.225411 0.402071
O O21 0.923078 0.500000 0.220830
#
# Coordination Sequence:
#
# PCOD9143147 Si02
#       8
#     4   4   4   4   4   4   4   4
#     4  10  18  30  54  85 113 146 190 230 273 334
#     4  11  23  39  62  87 111 144 192 241 287 343
#     4   9  19  35  56  87 120 149 186 237 291 337
#     4  10  19  35  59  84 116 151 188 234 282 337
#     4   9  16  28  50  82 118 151 185 231 284 332
#     4   9  16  27  49  83 114 141 180 231 276 318
#     4  11  24  41  59  82 115 151 189 235 292 345
#     4  11  23  39  58  82 117 152 186 235 293 345
#
# _framework density 21.708480000000002
#
# number of rings (size 3 to 8) (size 9 to 14) (size 15 to 20)
#    0.000    2.000    1.250    3.000    0.000    8.500 
#    0.000    3.750    0.000    7.875    0.000    0.000 
#    0.000    0.000    0.000    0.000    0.000    0.000 
#
# Total GULP energy -178782.908864 kJ/mol
# GULP energy per Si atom -5586.965902 kJ/mol
# Density = 2.165907 g / cm^3
# Si number density = 21.708480 Si / 1000 Ang^3
#
#
#
# Elastic Constant Matrix: (Units=GPa)
#
#
# Indices 1 2 3 4 5 6 
#
# 1 120.6450 -4.1019 35.9153 0.0000 0.8556 0.0000
# 2 -4.1019 31.6223 4.9273 0.0000 8.4273 0.0000
# 3 35.9153 4.9273 105.2182 0.0000 -2.5850 0.0000
# 4 0.0000 0.0000 0.0000 120.6621 0.0000 -44.7128
# 5 0.8556 8.4273 -2.5850 0.0000 37.5590 0.0000
# 6 0.0000 0.0000 0.0000 -44.7128 0.0000 17.3830
#
#
#
# Elastic Compliance Matrix: (Units=1/GPa)
#
#
# Indices 1 2 3 4 5 6 
#
# 1 0.009345 0.001962 -0.003303 0.000000 -0.000880 0.000000
# 2 0.001962 0.034376 -0.002474 0.000000 -0.007928 0.000000
# 3 -0.003303 -0.002474 0.010781 0.000000 0.001372 0.000000
# 4 0.000000 0.000000 0.000000 0.176962 0.000000 0.455186
# 5 -0.000880 -0.007928 0.001372 0.000000 0.028518 0.000000
# 6 0.000000 0.000000 0.000000 0.455186 0.000000 1.228365
#
#
# Mechanical properties :
#
#
# Convention : Reuss Voigt Hill
#
# Bulk Modulus (GPa) = 21.33540 36.77411 29.05476
# Shear Modulus (GPa) = 3.30775 49.83714 26.57244
#
# Velocity S-wave (km/s) = 1.23573 4.79659 3.50245
# Velocity P-wave (km/s) = 3.44754 6.90313 5.45613
#
# Compressibility (1/GPa) = 0.04687045
#
# Stress axis : x y z
#
# Youngs Moduli (GPa) = 107.00787 29.09000 92.75391
#
# Poissons Ratio (x) = -0.05706 0.30640
# Poissons Ratio (y) = -0.20990 0.22949
# Poissons Ratio (z) = 0.35349 0.07197
#
# Static dielectric constant tensor:
#      x y z
#    x 1.781420 0.000000 0.014310 
#    y 0.000000 1.815620 0.000000 
#    z 0.014310 0.000000 1.778720 
# 
# From -- ./inp_files/71702.got.cif
#   From: 2010.05.17/outbox.cif.g08.bks.cpg/sg10_36_cif.got.tgz:71702.got - 2010.06.03 11:33:40.
