data_PCOD9143878
_publ_section_title
;
Structure prediction by ZEFSAII (Michael W. Deem and Ramdas Pophale) SiO2 
 PCOD9143878
Probable space group: P 2/M
;
_chemical_formula_sum "Si O2"
_cell_formula_units_Z 32
_cell_length_a 17.216944
_cell_length_b 13.834697
_cell_length_c 9.848371
_cell_angle_alpha 90.000000
_cell_angle_beta 55.212960
_cell_angle_gamma 90.000000
_cell_volume 1926.550764
_symmetry_space_group_name_H-M "P 2/M"
_symmetry_group_IT_number 10
_symmetry_cell_setting 'monoclinic'
loop_
_space_group_symop_operation_xyz
x,y,z
-x,y,-z
-x,-y,-z
x,-y,z
loop_
_atom_site_type_symbol
_atom_site_label
_atom_site_fract_x
_atom_site_fract_y
_atom_site_fract_z
Si Si1 0.927598 0.384221 0.310560
Si Si2 0.197886 0.111632 0.565727
Si Si3 0.015763 0.891861 0.135474
Si Si4 0.586075 0.614248 0.506094
Si Si5 0.215854 0.716799 0.749794
Si Si6 0.213130 0.718303 0.341229
Si Si7 0.871868 0.722504 0.871789
Si Si8 0.586982 0.385650 0.820976
O O1 0.924439 0.500000 0.307787
O O2 0.871115 0.337044 0.240183
O O3 0.866027 0.343196 0.497705
O O4 0.035556 0.346909 0.212423
O O5 0.224319 0.176673 0.671923
O O6 0.219727 0.178134 0.412605
O O7 0.084466 0.106000 0.691011
O O8 0.232892 0.000000 0.529289
O O9 0.085502 0.828943 0.152541
O O10 0.052119 0.000000 0.078043
O O11 0.000000 0.849090 0.000000
O O12 0.500000 0.650978 0.500000
O O13 0.597715 0.500000 0.466976
O O14 0.685955 0.664174 0.379512
O O15 0.561668 0.625858 0.688376
O O16 0.193772 0.710493 0.930857
O O17 0.181036 0.717906 0.217736
O O18 0.314928 0.668376 0.251746
O O19 0.601608 0.500000 0.832740
O O20 0.500000 0.351945 0.000000
#
# Coordination Sequence:
#
# PCOD9143878 Si02
#       8
#     4   4   4   4   4   4   4   4
#     4  11  22  38  54  73 113 162 194 222 270 335
#     4  10  20  36  59  80 105 150 193 226 275 337
#     4  10  18  33  55  79 110 147 189 236 278 317
#     4  10  21  38  61  87 111 140 185 239 284 327
#     4  11  21  37  59  82 113 147 189 235 281 332
#     4  11  23  37  56  81 116 151 186 231 284 337
#     4  12  23  34  51  86 118 147 190 230 274 334
#     4  10  21  39  61  84 111 145 186 232 284 335
#
# _framework density 16.609995999999999
#
# number of rings (size 3 to 8) (size 9 to 14) (size 15 to 20)
#    0.000    1.375    6.250    1.500    1.750    3.500 
#    0.000    1.250    0.000    0.750    0.000    0.000 
#    0.000    0.000    0.000    0.000    0.000    0.000 
#
# Total GULP energy -178458.586910 kJ/mol
# GULP energy per Si atom -5576.830841 kJ/mol
# Density = 1.657219 g / cm^3
# Si number density = 16.609996 Si / 1000 Ang^3
#
#
#
# Elastic Constant Matrix: (Units=GPa)
#
#
# Indices 1 2 3 4 5 6 
#
# 1 80.3835 39.9869 40.2500 0.0000 9.6651 0.0000
# 2 39.9869 106.8274 46.1680 0.0000 4.0419 0.0000
# 3 40.2500 46.1680 114.0712 0.0000 4.9678 0.0000
# 4 0.0000 0.0000 0.0000 16.4714 0.0000 -3.9155
# 5 9.6651 4.0419 4.9678 0.0000 29.8676 0.0000
# 6 0.0000 0.0000 0.0000 -3.9155 0.0000 16.1085
#
#
#
# Elastic Compliance Matrix: (Units=1/GPa)
#
#
# Indices 1 2 3 4 5 6 
#
# 1 0.017248 -0.004538 -0.004062 0.000000 -0.004292 0.000000
# 2 -0.004538 0.012557 -0.003496 0.000000 0.000351 0.000000
# 3 -0.004062 -0.003496 0.011621 0.000000 -0.000145 0.000000
# 4 0.000000 0.000000 0.000000 0.064435 0.000000 0.015662
# 5 -0.004292 0.000351 -0.000145 0.000000 0.034847 0.000000
# 6 0.000000 0.000000 0.000000 0.015662 0.000000 0.065886
#
#
# Mechanical properties :
#
#
# Convention : Reuss Voigt Hill
#
# Bulk Modulus (GPa) = 58.02827 61.56576 59.79702
# Shear Modulus (GPa) = 21.13880 24.14798 22.64339
#
# Velocity S-wave (km/s) = 3.57130 3.81704 3.69621
# Velocity P-wave (km/s) = 7.21229 7.52146 7.36850
#
# Compressibility (1/GPa) = 0.01723298
#
# Stress axis : x y z
#
# Youngs Moduli (GPa) = 57.97776 79.63477 86.04945
#
# Poissons Ratio (x) = 0.36139 0.34956
# Poissons Ratio (y) = 0.26311 0.30086
# Poissons Ratio (z) = 0.23552 0.27843
#
# Static dielectric constant tensor:
#      x y z
#    x 1.508250 0.000000 -0.013740 
#    y 0.000000 1.586490 0.000000 
#    z -0.013740 0.000000 1.535910 
# 
# From -- ./inp_files/29479.got.cif
#   From: 2010.05.17/outbox.cif.g08.bks.cpg/sg10_15_cif.got.tgz:29479.got - 2010.06.03 11:33:40.
