data_PCOD9143180
_publ_section_title
;
Structure prediction by ZEFSAII (Michael W. Deem and Ramdas Pophale) SiO2 
 PCOD9143180
Probable space group: P 2/M
;
_chemical_formula_sum "Si O2"
_cell_formula_units_Z 32
_cell_length_a 14.095723
_cell_length_b 8.554249
_cell_length_c 19.137497
_cell_angle_alpha 90.000000
_cell_angle_beta 68.825420
_cell_angle_gamma 90.000000
_cell_volume 2151.769949
_symmetry_space_group_name_H-M "P 2/M"
_symmetry_group_IT_number 10
_symmetry_cell_setting 'monoclinic'
loop_
_space_group_symop_operation_xyz
x,y,z
-x,y,-z
-x,-y,-z
x,-y,z
loop_
_atom_site_type_symbol
_atom_site_label
_atom_site_fract_x
_atom_site_fract_y
_atom_site_fract_z
Si Si1 0.629426 0.689975 0.033624
Si Si2 0.772852 0.812644 0.737123
Si Si3 0.840627 0.313186 0.039874
Si Si4 0.400367 0.310750 0.118316
Si Si5 0.007109 0.183957 0.891838
Si Si6 0.942622 0.314890 0.420327
Si Si7 0.982801 0.314218 0.745905
Si Si8 0.848941 0.184374 0.572261
O O1 0.630347 0.500000 0.033492
O O2 0.727444 0.742121 0.050659
O O3 0.518852 0.736729 0.091758
O O4 0.635434 0.735705 0.950395
O O5 0.672758 0.761438 0.804676
O O6 0.870993 0.736242 0.748517
O O7 0.773513 0.766322 0.654778
O O8 0.785258 0.000000 0.736469
O O9 0.840148 0.500000 0.049661
O O10 0.891701 0.234723 0.093595
O O11 0.914850 0.272547 0.955400
O O12 0.395112 0.500000 0.123804
O O13 0.008948 0.228864 0.810479
O O14 0.991159 0.000000 0.904848
O O15 0.962666 0.500000 0.422261
O O16 0.851752 0.268976 0.496640
O O17 0.939675 0.280117 0.338771
O O18 0.041196 0.222529 0.422377
O O19 0.982277 0.500000 0.758190
O O20 0.839417 0.000000 0.563091
#
# Coordination Sequence:
#
# PCOD9143180 Si02
#       8
#     4   4   4   4   4   4   4   4
#     4   8  16  29  46  64  81 106 142 177 209 244
#     4  10  19  28  39  61  88 114 142 173 206 245
#     4  10  18  31  48  63  83 113 144 174 209 249
#     4   9  16  29  46  63  83 109 141 175 207 245
#     4  11  21  31  43  63  87 110 140 177 211 249
#     4   9  16  25  39  57  77 102 139 175 202 238
#     4  10  19  30  43  60  82 112 144 176 211 247
#     4   9  16  25  37  53  80 112 138 163 200 245
#
# _framework density 14.871478
#
# number of rings (size 3 to 8) (size 9 to 14) (size 15 to 20)
#    0.000    2.500    0.000    6.000    0.000    4.000 
#    0.000    3.125    0.000    0.000    0.000    0.000 
#    0.000    1.000    0.000   11.250    0.000    5.625 
#
# Total GULP energy -178262.148793 kJ/mol
# GULP energy per Si atom -5570.692150 kJ/mol
# Density = 1.483763 g / cm^3
# Si number density = 14.871478 Si / 1000 Ang^3
#
#
#
# Elastic Constant Matrix: (Units=GPa)
#
#
# Indices 1 2 3 4 5 6 
#
# 1 62.6316 -1.7943 31.2745 0.0000 -2.4220 0.0000
# 2 -1.7943 17.0222 4.5432 0.0000 -0.5154 0.0000
# 3 31.2745 4.5432 108.6144 0.0000 -7.0540 0.0000
# 4 0.0000 0.0000 0.0000 21.3861 0.0000 3.0916
# 5 -2.4220 -0.5154 -7.0540 0.0000 18.7062 0.0000
# 6 0.0000 0.0000 0.0000 3.0916 0.0000 18.8529
#
#
#
# Elastic Compliance Matrix: (Units=1/GPa)
#
#
# Indices 1 2 3 4 5 6 
#
# 1 0.018852 0.003481 -0.005545 0.000000 0.000446 0.000000
# 2 0.003481 0.060062 -0.003463 0.000000 0.000800 0.000000
# 3 -0.005545 -0.003463 0.011169 0.000000 0.003398 0.000000
# 4 0.000000 0.000000 0.000000 0.047895 0.000000 -0.007854
# 5 0.000446 0.000800 0.003398 0.000000 0.054820 0.000000
# 6 0.000000 0.000000 0.000000 -0.007854 0.000000 0.054330
#
#
# Mechanical properties :
#
#
# Convention : Reuss Voigt Hill
#
# Bulk Modulus (GPa) = 12.65352 28.47946 20.56649
# Shear Modulus (GPa) = 17.57317 22.07202 19.82260
#
# Velocity S-wave (km/s) = 3.44127 3.85669 3.65489
# Velocity P-wave (km/s) = 4.93121 6.24692 5.62765
#
# Compressibility (1/GPa) = 0.07902941
#
# Stress axis : x y z
#
# Youngs Moduli (GPa) = 53.04440 16.64945 89.53320
#
# Poissons Ratio (x) = -0.05795 0.49646
# Poissons Ratio (y) = -0.18463 0.31002
# Poissons Ratio (z) = 0.29413 0.05765
#
# Static dielectric constant tensor:
#      x y z
#    x 1.470240 0.000000 -0.006710 
#    y 0.000000 1.502160 0.000000 
#    z -0.006710 0.000000 1.525700 
# 
# From -- ./inp_files/77391.got.cif
#   From: 2010.05.17/outbox.cif.g08.bks.cpg/sg10_39_cif.got.tgz:77391.got - 2010.06.03 11:33:40.
