data_PCOD9143806
_publ_section_title
;
Structure prediction by ZEFSAII (Michael W. Deem and Ramdas Pophale) SiO2 
 PCOD9143806
Probable space group: P 2/M
;
_chemical_formula_sum "Si O2"
_cell_formula_units_Z 24
_cell_length_a 14.817763
_cell_length_b 14.032035
_cell_length_c 11.639981
_cell_angle_alpha 90.000000
_cell_angle_beta 151.668985
_cell_angle_gamma 90.000000
_cell_volume 1148.553038
_symmetry_space_group_name_H-M "P 2/M"
_symmetry_group_IT_number 10
_symmetry_cell_setting 'monoclinic'
loop_
_space_group_symop_operation_xyz
x,y,z
-x,y,-z
-x,-y,-z
x,-y,z
loop_
_atom_site_type_symbol
_atom_site_label
_atom_site_fract_x
_atom_site_fract_y
_atom_site_fract_z
Si Si1 0.130497 0.610400 0.545743
Si Si2 0.792805 0.808532 0.909420
Si Si3 0.479799 0.698701 0.819508
Si Si4 0.243226 0.178530 0.394358
Si Si5 0.579737 0.897041 0.885833
Si Si6 0.771471 0.393998 0.989101
O O1 0.170365 0.500000 0.619110
O O2 0.327178 0.661618 0.739172
O O3 0.000000 0.653586 0.500000
O O4 0.987865 0.610541 0.277489
O O5 0.728215 0.834359 0.709091
O O6 0.699923 0.870823 0.906235
O O7 0.744756 0.697405 0.878539
O O8 0.020430 0.819802 0.168742
O O9 0.347268 0.727035 0.560036
O O10 0.583707 0.799531 0.963802
O O11 0.632889 0.624356 0.943200
O O12 0.361098 0.101531 0.598177
O O13 0.634215 0.000000 0.995144
O O14 0.736359 0.500000 0.902881
#
# Coordination Sequence:
#
# PCOD9143806 Si02
#       6
#     4   4   4   4   4   4
#     4  10  20  35  55  78 101 127 164 208 254 300
#     4  10  18  33  48  72 103 137 170 205 242 287
#     4   9  19  34  51  72 105 132 163 208 250 292
#     4   9  19  31  50  68 105 136 167 203 244 286
#     4   9  19  32  51  74 102 135 168 207 248 291
#     4  10  19  32  51  74 101 133 168 201 244 299
#
# _framework density 20.895856999999999
#
# number of rings (size 3 to 8) (size 9 to 14) (size 15 to 20)
#    1.000    1.500    1.667    1.000    0.000    2.667 
#    0.000    8.333    0.000    0.500    0.000    4.667 
#    0.000    0.000    0.000    0.000    0.000    0.000 
#
# Total GULP energy -133675.655826 kJ/mol
# GULP energy per Si atom -5569.818993 kJ/mol
# Density = 2.084830 g / cm^3
# Si number density = 20.895857 Si / 1000 Ang^3
#
#
#
# Elastic Constant Matrix: (Units=GPa)
#
#
# Indices 1 2 3 4 5 6 
#
# 1 78.8331 12.7344 2.3207 0.0000 32.4118 0.0000
# 2 12.7344 91.9494 -0.8071 0.0000 18.2376 0.0000
# 3 2.3207 -0.8071 52.9095 0.0000 17.7762 0.0000
# 4 0.0000 0.0000 0.0000 15.4884 0.0000 0.9431
# 5 32.4118 18.2376 17.7762 0.0000 32.5283 0.0000
# 6 0.0000 0.0000 0.0000 0.9431 0.0000 1.1140
#
#
#
# Elastic Compliance Matrix: (Units=1/GPa)
#
#
# Indices 1 2 3 4 5 6 
#
# 1 0.025023 0.002937 0.009649 0.000000 -0.031853 0.000000
# 2 0.002937 0.012997 0.004288 0.000000 -0.012557 0.000000
# 3 0.009649 0.004288 0.027659 0.000000 -0.027134 0.000000
# 4 0.000000 0.000000 0.000000 0.068073 0.000000 -0.057627
# 5 -0.031853 -0.012557 -0.027134 0.000000 0.084349 0.000000
# 6 0.000000 0.000000 0.000000 -0.057627 0.000000 0.946417
#
#
# Mechanical properties :
#
#
# Convention : Reuss Voigt Hill
#
# Bulk Modulus (GPa) = 10.05767 28.02088 19.03927
# Shear Modulus (GPa) = 4.29586 23.78908 14.04247
#
# Velocity S-wave (km/s) = 1.43538 3.37777 2.59515
# Velocity P-wave (km/s) = 2.75150 5.35269 4.25571
#
# Compressibility (1/GPa) = 0.09942662
#
# Stress axis : x y z
#
# Youngs Moduli (GPa) = 39.96391 76.94061 36.15510
#
# Poissons Ratio (x) = -0.22597 -0.34886
# Poissons Ratio (y) = -0.11737 -0.15504
# Poissons Ratio (z) = -0.38561 -0.32994
#
# Static dielectric constant tensor:
#      x y z
#    x 1.779590 0.000000 -0.022310 
#    y 0.000000 1.779020 0.000000 
#    z -0.022310 0.000000 1.769530 
# 
# From -- ./inp_files/51680.got.cif
#   From: 2010.05.17/outbox.cif.g08.bks.cpg/sg10_26_cif.got.tgz:51680.got - 2010.06.03 11:33:40.
