data_PCOD9143526
_publ_section_title
;
Structure prediction by ZEFSAII (Michael W. Deem and Ramdas Pophale) SiO2 
 PCOD9143526
Probable space group: P 2/M
;
_chemical_formula_sum "Si O2"
_cell_formula_units_Z 32
_cell_length_a 24.524252
_cell_length_b 7.620483
_cell_length_c 18.185178
_cell_angle_alpha 90.000000
_cell_angle_beta 31.445529
_cell_angle_gamma 90.000000
_cell_volume 1772.990642
_symmetry_space_group_name_H-M "P 2/M"
_symmetry_group_IT_number 10
_symmetry_cell_setting 'monoclinic'
loop_
_space_group_symop_operation_xyz
x,y,z
-x,y,-z
-x,-y,-z
x,-y,z
loop_
_atom_site_type_symbol
_atom_site_label
_atom_site_fract_x
_atom_site_fract_y
_atom_site_fract_z
Si Si1 0.944087 0.214535 0.886958
Si Si2 0.122350 0.204320 0.883246
Si Si3 0.178269 0.785373 0.663544
Si Si4 0.911549 0.212678 0.759618
Si Si5 0.684634 0.215058 0.627629
Si Si6 0.762540 0.698791 0.800439
Si Si7 0.858754 0.799616 0.541137
Si Si8 0.523692 0.788170 0.055980
O O1 0.903848 0.267963 0.853491
O O2 0.065706 0.265282 0.758503
O O3 0.943184 0.000000 0.890209
O O4 0.879026 0.278514 0.032780
O O5 0.181792 0.278595 0.743860
O O6 0.153638 0.000000 0.853434
O O7 0.000000 0.206602 0.000000
O O8 0.270287 0.731041 0.503162
O O9 0.177528 0.000000 0.666838
O O10 0.821090 0.274135 0.809650
O O11 0.025186 0.275737 0.599943
O O12 0.908693 0.000000 0.760500
O O13 0.768577 0.275375 0.592453
O O14 0.569500 0.273320 0.783807
O O15 0.682616 0.000000 0.630984
O O16 0.775960 0.500000 0.760835
O O17 0.817866 0.803863 0.671208
O O18 0.639961 0.738153 0.945450
O O19 0.870645 0.000000 0.500609
O O20 0.520353 0.000000 0.058135
O O21 0.500000 0.727306 0.000000
#
# Coordination Sequence:
#
# PCOD9143526 Si02
#       8
#     4   4   4   4   4   4   4   4
#     4   8  12  20  36  62  94 125 149 172 210 265
#     4   7  10  15  28  55  95 129 142 161 210 271
#     4   8  11  18  34  62  96 122 144 173 218 270
#     4  10  19  31  50  70  92 123 160 192 218 263
#     4   9  15  25  45  69  90 116 150 188 225 265
#     4  12  25  36  46  63  92 123 155 194 236 277
#     4  10  18  32  51  70  91 119 156 191 224 266
#     4  10  19  34  54  69  85 113 155 199 233 270
#
# _framework density 18.048601000000001
#
# number of rings (size 3 to 8) (size 9 to 14) (size 15 to 20)
#    0.000    2.750    2.500    3.000    0.000    2.250 
#    0.000    0.000    0.000    0.000    0.000    0.875 
#    0.000   13.500    0.000    0.000    0.000    0.000 
#
# Total GULP energy -178341.477295 kJ/mol
# GULP energy per Si atom -5573.171165 kJ/mol
# Density = 1.800752 g / cm^3
# Si number density = 18.048601 Si / 1000 Ang^3
#
#
#
# Elastic Constant Matrix: (Units=GPa)
#
#
# Indices 1 2 3 4 5 6 
#
# 1 116.7752 -1.6281 96.0416 0.0000 6.4089 0.0000
# 2 -1.6281 37.4389 4.1323 0.0000 -2.0341 0.0000
# 3 96.0416 4.1323 128.7292 0.0000 16.8433 0.0000
# 4 0.0000 0.0000 0.0000 19.7307 0.0000 -61.9745
# 5 6.4089 -2.0341 16.8433 0.0000 30.7526 0.0000
# 6 0.0000 0.0000 0.0000 -61.9745 0.0000 82.1460
#
#
#
# Elastic Compliance Matrix: (Units=1/GPa)
#
#
# Indices 1 2 3 4 5 6 
#
# 1 0.023232 0.003300 -0.018133 0.000000 0.005308 0.000000
# 2 0.003300 0.027442 -0.003760 0.000000 0.003187 0.000000
# 3 -0.018133 -0.003760 0.022573 0.000000 -0.008833 0.000000
# 4 0.000000 0.000000 0.000000 -0.037002 0.000000 -0.027916
# 5 0.005308 0.003187 -0.008833 0.000000 0.036460 0.000000
# 6 0.000000 0.000000 0.000000 -0.027916 0.000000 -0.008888
#
#
# Mechanical properties :
#
#
# Convention : Reuss Voigt Hill
#
# Bulk Modulus (GPa) = 27.73083 53.33722 40.53403
# Shear Modulus (GPa) = 44.23865 38.81902 41.52884
#
# Velocity S-wave (km/s) = 4.95621 4.64271 4.80202
# Velocity P-wave (km/s) = 6.93902 7.63910 7.29746
#
# Compressibility (1/GPa) = 0.03606094
#
# Stress axis : x y z
#
# Youngs Moduli (GPa) = 43.04477 36.44072 44.30015
#
# Poissons Ratio (x) = -0.12026 0.80330
# Poissons Ratio (y) = -0.14205 0.16657
# Poissons Ratio (z) = 0.78053 0.13702
#
# Static dielectric constant tensor:
#      x y z
#    x 1.604770 0.000000 0.036740 
#    y 0.000000 1.665620 0.000000 
#    z 0.036740 0.000000 1.625690 
# 
# From -- ./inp_files/56410.got.cif
#   From: 2010.05.17/outbox.cif.g08.bks.cpg/sg10_29_cif.got.tgz:56410.got - 2010.06.03 11:33:40.
