data_PCOD9143326
_publ_section_title
;
Structure prediction by ZEFSAII (Michael W. Deem and Ramdas Pophale) SiO2 
 PCOD9143326
Probable space group: P 2/M
;
_chemical_formula_sum "Si O2"
_cell_formula_units_Z 32
_cell_length_a 14.676612
_cell_length_b 7.843309
_cell_length_c 20.406563
_cell_angle_alpha 90.000000
_cell_angle_beta 46.583681
_cell_angle_gamma 90.000000
_cell_volume 1706.311232
_symmetry_space_group_name_H-M "P 2/M"
_symmetry_group_IT_number 10
_symmetry_cell_setting 'monoclinic'
loop_
_space_group_symop_operation_xyz
x,y,z
-x,y,-z
-x,-y,-z
x,-y,z
loop_
_atom_site_type_symbol
_atom_site_label
_atom_site_fract_x
_atom_site_fract_y
_atom_site_fract_z
Si Si1 0.482094 0.298594 0.682582
Si Si2 0.463922 0.197745 0.836906
Si Si3 0.250803 0.299657 0.302272
Si Si4 0.855743 0.201788 0.781069
Si Si5 0.131927 0.706209 0.642505
Si Si6 0.229541 0.708119 0.456294
Si Si7 0.375054 0.291751 0.601917
Si Si8 0.621573 0.791079 0.982204
O O1 0.493081 0.500000 0.665844
O O2 0.437044 0.273897 0.778949
O O3 0.625527 0.234031 0.607163
O O4 0.396152 0.232531 0.666150
O O5 0.613866 0.213291 0.774684
O O6 0.431642 0.000000 0.848235
O O7 0.395847 0.270150 0.934692
O O8 0.278861 0.500000 0.295754
O O9 0.166540 0.275078 0.280485
O O10 0.192777 0.241589 0.400480
O O11 0.747391 0.266013 0.883424
O O12 0.996031 0.239704 0.734255
O O13 0.838497 0.000000 0.783982
O O14 0.135027 0.500000 0.640336
O O15 0.152319 0.766808 0.557358
O O16 0.248810 0.766760 0.628537
O O17 0.226331 0.500000 0.459921
O O18 0.500000 0.243893 0.500000
O O19 0.369789 0.500000 0.603400
O O20 0.621400 0.000000 0.984083
O O21 0.500000 0.740472 0.000000
#
# Coordination Sequence:
#
# PCOD9143326 Si02
#       8
#     4   4   4   4   4   4   4   4
#     4   9  16  29  50  79 105 128 164 208 248 289
#     4  10  18  31  52  76 100 130 165 205 255 303
#     4  10  19  32  50  75 102 132 168 206 244 292
#     4  11  22  36  51  70 100 136 170 209 255 302
#     4  10  19  33  52  75 101 133 173 210 243 290
#     4   8  15  28  48  71 100 133 165 198 234 287
#     4   9  15  28  55  80  99 132 175 207 238 293
#     4   9  17  33  54  71  92 131 175 206 243 302
#
# _framework density 18.753907000000002
#
# number of rings (size 3 to 8) (size 9 to 14) (size 15 to 20)
#    0.000    2.500    2.500    1.875    0.000    0.500 
#    0.000    9.375    0.000    1.500    0.000    5.250 
#    0.000    0.000    0.000    0.000    0.000    0.000 
#
# Total GULP energy -178445.362837 kJ/mol
# GULP energy per Si atom -5576.417589 kJ/mol
# Density = 1.871122 g / cm^3
# Si number density = 18.753907 Si / 1000 Ang^3
#
#
#
# Elastic Constant Matrix: (Units=GPa)
#
#
# Indices 1 2 3 4 5 6 
#
# 1 100.0971 -8.7093 68.1997 0.0000 4.2933 0.0000
# 2 -8.7093 15.1175 -1.4961 0.0000 0.3263 0.0000
# 3 68.1997 -1.4961 127.1021 0.0000 0.6805 0.0000
# 4 0.0000 0.0000 0.0000 15.7629 0.0000 -4.4388
# 5 4.2933 0.3263 0.6805 0.0000 25.1875 0.0000
# 6 0.0000 0.0000 0.0000 -4.4388 0.0000 4.7897
#
#
#
# Elastic Compliance Matrix: (Units=1/GPa)
#
#
# Indices 1 2 3 4 5 6 
#
# 1 0.017037 0.008982 -0.009021 0.000000 -0.002777 0.000000
# 2 0.008982 0.070981 -0.003972 0.000000 -0.002343 0.000000
# 3 -0.009021 -0.003972 0.012655 0.000000 0.001247 0.000000
# 4 0.000000 0.000000 0.000000 0.085842 0.000000 0.079554
# 5 -0.002777 -0.002343 0.001247 0.000000 0.040172 0.000000
# 6 0.000000 0.000000 0.000000 0.079554 0.000000 0.282509
#
#
# Mechanical properties :
#
#
# Convention : Reuss Voigt Hill
#
# Bulk Modulus (GPa) = 10.79304 39.81170 25.30237
# Shear Modulus (GPa) = 9.12239 21.43617 15.27928
#
# Velocity S-wave (km/s) = 2.20790 3.38453 2.85744
# Velocity P-wave (km/s) = 3.50248 6.04549 4.94041
#
# Compressibility (1/GPa) = 0.09265226
#
# Stress axis : x y z
#
# Youngs Moduli (GPa) = 58.69430 14.08829 79.02125
#
# Poissons Ratio (x) = -0.12655 0.71287
# Poissons Ratio (y) = -0.52722 0.31385
# Poissons Ratio (z) = 0.52950 0.05595
#
# Static dielectric constant tensor:
#      x y z
#    x 1.652040 0.000000 0.024360 
#    y 0.000000 1.701480 0.000000 
#    z 0.024360 0.000000 1.656990 
# 
# From -- ./inp_files/69993.got.cif
#   From: 2010.05.17/outbox.cif.g08.bks.cpg/sg10_35_cif.got.tgz:69993.got - 2010.06.03 11:33:40.
