data_PCOD9143434
_publ_section_title
;
Structure prediction by ZEFSAII (Michael W. Deem and Ramdas Pophale) SiO2 
 PCOD9143434
Probable space group: P 2/M
;
_chemical_formula_sum "Si O2"
_cell_formula_units_Z 20
_cell_length_a 7.617431
_cell_length_b 14.029355
_cell_length_c 8.704740
_cell_angle_alpha 90.000000
_cell_angle_beta 110.816656
_cell_angle_gamma 90.000000
_cell_volume 869.530242
_symmetry_space_group_name_H-M "P 2/M"
_symmetry_group_IT_number 10
_symmetry_cell_setting 'monoclinic'
loop_
_space_group_symop_operation_xyz
x,y,z
-x,y,-z
-x,-y,-z
x,-y,z
loop_
_atom_site_type_symbol
_atom_site_label
_atom_site_fract_x
_atom_site_fract_y
_atom_site_fract_z
Si Si1 0.213161 0.000000 0.003019
Si Si2 0.212916 0.000000 0.631798
Si Si3 0.799097 0.604890 0.855779
Si Si4 0.293569 0.397012 0.507294
Si Si5 0.792390 0.205416 0.361087
Si Si6 0.215741 0.204502 0.009027
O O1 0.203750 0.000000 0.814944
O O2 0.302298 0.898781 0.078717
O O3 0.000000 0.000000 0.000000
O O4 0.295140 0.896472 0.613871
O O5 0.000000 0.000000 0.500000
O O6 0.707446 0.500000 0.849589
O O7 0.832418 0.616767 0.684227
O O8 0.700105 0.699351 0.891830
O O9 0.000000 0.600751 0.000000
O O10 0.500000 0.402767 0.500000
O O11 0.247154 0.500000 0.564931
O O12 0.289517 0.304547 0.608033
O O13 0.790586 0.208957 0.176371
O O14 0.000000 0.204317 0.500000
O O15 0.000000 0.201381 0.000000
#
# Coordination Sequence:
#
# PCOD9143434 Si02
#       6
#     2   2   4   4   4   4
#     4   8  14  24  40  66 101 133 158 196 255 309
#     4   8  16  28  45  76 110 135 169 222 266 305
#     4   9  17  31  51  74 100 129 167 216 260 302
#     4  10  22  39  55  75 108 145 179 220 271 322
#     4  10  18  31  54  80 107 141 181 220 264 318
#     4   9  16  27  46  74 103 129 164 211 257 302
#
# _framework density 23.000926
#
# number of rings (size 3 to 8) (size 9 to 14) (size 15 to 20)
#    0.000    2.800    0.000    2.400    0.000    2.800 
#    0.000    1.500    0.000    3.600    0.000    4.200 
#    0.000    0.000    0.000    0.000    0.000    0.000 
#
# Total GULP energy -111489.400607 kJ/mol
# GULP energy per Si atom -5574.470030 kJ/mol
# Density = 2.294857 g / cm^3
# Si number density = 23.000926 Si / 1000 Ang^3
#
#
#
# Elastic Constant Matrix: (Units=GPa)
#
#
# Indices 1 2 3 4 5 6 
#
# 1 29.9538 19.7104 16.5590 0.0000 9.3352 0.0000
# 2 19.7104 337.3870 65.4866 0.0000 -23.8803 0.0000
# 3 16.5590 65.4866 58.6044 0.0000 3.0726 0.0000
# 4 0.0000 0.0000 0.0000 32.8846 0.0000 -15.5666
# 5 9.3352 -23.8803 3.0726 0.0000 23.9529 0.0000
# 6 0.0000 0.0000 0.0000 -15.5666 0.0000 64.7921
#
#
#
# Elastic Compliance Matrix: (Units=1/GPa)
#
#
# Indices 1 2 3 4 5 6 
#
# 1 0.045979 -0.002158 -0.009593 0.000000 -0.018840 0.000000
# 2 -0.002158 0.004396 -0.004607 0.000000 0.005814 0.000000
# 3 -0.009593 -0.004607 0.025136 0.000000 -0.004079 0.000000
# 4 0.000000 0.000000 0.000000 0.034312 0.000000 0.008244
# 5 -0.018840 0.005814 -0.004079 0.000000 0.055411 0.000000
# 6 0.000000 0.000000 0.000000 0.008244 0.000000 0.017415
#
#
# Mechanical properties :
#
#
# Convention : Reuss Voigt Hill
#
# Bulk Modulus (GPa) = 23.36683 69.93970 46.65327
# Shear Modulus (GPa) = 21.77422 45.93855 33.85638
#
# Velocity S-wave (km/s) = 3.08013 4.47391 3.84077
# Velocity P-wave (km/s) = 4.77815 7.56050 6.32424
#
# Compressibility (1/GPa) = 0.04279571
#
# Stress axis : x y z
#
# Youngs Moduli (GPa) = 21.74894 227.48943 39.78323
#
# Poissons Ratio (x) = 0.49085 0.38164
# Poissons Ratio (y) = 0.04693 0.18329
# Poissons Ratio (z) = 0.20864 1.04809
#
# Static dielectric constant tensor:
#      x y z
#    x 1.881510 0.000000 0.037600 
#    y 0.000000 2.023320 0.000000 
#    z 0.037600 0.000000 1.871090 
# 
# From -- ./inp_files/18709.got.cif
#   From: 2010.05.17/outbox.cif.g08.bks.cpg/sg10_10_cif.got.tgz:18709.got - 2010.06.03 11:33:40.
