data_PCOD9143266
_publ_section_title
;
Structure prediction by ZEFSAII (Michael W. Deem and Ramdas Pophale) SiO2 
 PCOD9143266
Probable space group: P 2/M
;
_chemical_formula_sum "Si O2"
_cell_formula_units_Z 28
_cell_length_a 17.672444
_cell_length_b 7.405570
_cell_length_c 20.555099
_cell_angle_alpha 90.000000
_cell_angle_beta 30.710454
_cell_angle_gamma 90.000000
_cell_volume 1373.853303
_symmetry_space_group_name_H-M "P 2/M"
_symmetry_group_IT_number 10
_symmetry_cell_setting 'monoclinic'
loop_
_space_group_symop_operation_xyz
x,y,z
-x,y,-z
-x,-y,-z
x,-y,z
loop_
_atom_site_type_symbol
_atom_site_label
_atom_site_fract_x
_atom_site_fract_y
_atom_site_fract_z
Si Si1 0.412783 0.221636 0.499997
Si Si2 0.654527 0.212232 0.845473
Si Si3 0.913393 0.716258 0.999993
Si Si4 0.565293 0.211365 0.255679
Si Si5 0.186259 0.778637 0.148736
Si Si6 0.923343 0.788639 0.255687
Si Si7 0.483736 0.778637 0.851261
O O1 0.500000 0.279347 0.500000
O O2 0.494289 0.283884 0.374164
O O3 0.242621 0.283884 0.625829
O O4 0.414322 0.000000 0.499998
O O5 0.776552 0.283939 0.805535
O O6 0.612380 0.283939 0.805534
O O7 0.687424 0.000000 0.812577
O O8 0.500000 0.223979 0.000000
O O9 0.914815 0.500000 0.999984
O O10 0.995418 0.774441 0.873712
O O11 0.742851 0.774422 0.126277
O O12 0.000000 0.781901 0.000000
O O13 0.509681 0.285322 0.227621
O O14 0.526625 0.000000 0.283266
O O15 0.035078 0.714677 0.227619
O O16 0.185789 0.000000 0.149979
O O17 0.325118 0.727967 0.999999
O O18 0.906831 0.000000 0.283284
O O19 0.485751 0.000000 0.850018
#
# Coordination Sequence:
#
# PCOD9143266 Si02
#       7
#     4   4   4   4   4   4   4
#     4   9  18  30  45  68  94 120 153 195 239 275
#     4   7  10  16  30  57  93 119 138 174 221 270
#     4  11  23  35  47  68  95 120 150 193 243 283
#     4  10  18  31  51  71  92 120 158 195 227 272
#     4   8  12  20  37  64  91 116 147 182 224 269
#     4  10  18  31  51  71  92 120 158 195 227 272
#     4   8  12  20  37  64  91 116 147 182 224 269
#
# _framework density 20.380633
#
# number of rings (size 3 to 8) (size 9 to 14) (size 15 to 20)
#    0.000    3.000    1.429    3.000    0.000    2.286 
#    0.000    0.714    0.000    3.429    0.000    8.000 
#    0.000    0.000    0.000    2.571    0.000    2.857 
#
# Total GULP energy -156144.127844 kJ/mol
# GULP energy per Si atom -5576.575994 kJ/mol
# Density = 2.033425 g / cm^3
# Si number density = 20.380633 Si / 1000 Ang^3
#
#
#
# Elastic Constant Matrix: (Units=GPa)
#
#
# Indices 1 2 3 4 5 6 
#
# 1 268.6212 7.2897 100.6538 0.0000 -0.9133 0.0000
# 2 7.2897 65.9376 -5.4924 0.0000 -0.1137 0.0000
# 3 100.6538 -5.4924 124.9713 0.0000 -0.3272 0.0000
# 4 0.0000 0.0000 0.0000 42.4251 0.0000 0.6969
# 5 -0.9133 -0.1137 -0.3272 0.0000 31.3351 0.0000
# 6 0.0000 0.0000 0.0000 0.6969 0.0000 -38.8937
#
#
#
# Elastic Compliance Matrix: (Units=1/GPa)
#
#
# Indices 1 2 3 4 5 6 
#
# 1 0.005392 -0.000961 -0.004385 0.000000 0.000108 0.000000
# 2 -0.000961 0.015393 0.001451 0.000000 0.000043 0.000000
# 3 -0.004385 0.001451 0.011597 0.000000 -0.000001 0.000000
# 4 0.000000 0.000000 0.000000 0.023564 0.000000 0.000422
# 5 0.000108 0.000043 -0.000001 0.000000 0.031916 0.000000
# 6 0.000000 0.000000 0.000000 0.000422 0.000000 -0.025704
#
#
# Mechanical properties :
#
#
# Convention : Reuss Voigt Hill
#
# Bulk Modulus (GPa) = 40.66391 73.82584 57.24487
# Shear Modulus (GPa) = 63.98158 30.77855 47.38006
#
# Velocity S-wave (km/s) = 5.60905 3.89033 4.82681
# Velocity P-wave (km/s) = 7.87046 7.51543 7.69499
#
# Compressibility (1/GPa) = 0.02459183
#
# Stress axis : x y z
#
# Youngs Moduli (GPa) = 185.45206 64.96448 86.22695
#
# Poissons Ratio (x) = 0.06244 0.37810
# Poissons Ratio (y) = 0.17826 -0.12510
# Poissons Ratio (z) = 0.81320 -0.09425
#
# Static dielectric constant tensor:
#      x y z
#    x 1.758660 0.000000 -0.000360 
#    y 0.000000 1.753520 0.000000 
#    z -0.000360 0.000000 1.718250 
# 
# From -- ./inp_files/79250.got.cif
#   From: 2010.05.17/outbox.cif.g08.bks.cpg/sg10_40_cif.got.tgz:79250.got - 2010.06.03 11:33:40.
