data_PCOD9143672
_publ_section_title
;
Structure prediction by ZEFSAII (Michael W. Deem and Ramdas Pophale) SiO2 
 PCOD9143672
Probable space group: P 2/M
;
_chemical_formula_sum "Si O2"
_cell_formula_units_Z 26
_cell_length_a 10.123404
_cell_length_b 15.710880
_cell_length_c 17.472738
_cell_angle_alpha 90.000000
_cell_angle_beta 29.998417
_cell_angle_gamma 90.000000
_cell_volume 1389.431901
_symmetry_space_group_name_H-M "P 2/M"
_symmetry_group_IT_number 10
_symmetry_cell_setting 'monoclinic'
loop_
_space_group_symop_operation_xyz
x,y,z
-x,y,-z
-x,-y,-z
x,-y,z
loop_
_atom_site_type_symbol
_atom_site_label
_atom_site_fract_x
_atom_site_fract_y
_atom_site_fract_z
Si Si1 0.929672 0.219627 0.690106
Si Si2 0.727665 0.401439 0.272342
Si Si3 0.000000 0.297306 0.000000
Si Si4 0.245698 0.092975 0.435819
Si Si5 0.601705 0.162342 0.132762
Si Si6 0.124458 0.599448 0.625185
Si Si7 0.201134 0.907023 0.117348
O O1 0.662062 0.194397 0.779312
O O2 0.922122 0.172768 0.776268
O O3 0.173066 0.172769 0.525325
O O4 0.952778 0.321196 0.682405
O O5 0.766132 0.500000 0.233880
O O6 0.846813 0.388584 0.297613
O O7 0.413550 0.388590 0.442047
O O8 0.862164 0.348825 0.137832
O O9 0.775127 0.239591 0.074957
O O10 0.500205 0.109424 0.256272
O O11 0.000000 0.088872 0.500000
O O12 0.258353 0.000000 0.467973
O O13 0.769242 0.109429 0.987235
O O14 0.044100 0.500000 0.651972
O O15 0.079364 0.000000 0.194309
O O16 0.500000 0.911127 0.000000
#
# Coordination Sequence:
#
# PCOD9143672 Si02
#       7
#     4   4   2   4   4   4   4
#     4  10  18  32  54  80 102 129 173 217 254 300
#     4   9  19  35  55  75  98 134 176 209 247 306
#     4  12  21  34  51  72 104 142 172 208 254 300
#     4   9  17  31  51  74 101 132 168 209 249 295
#     4  10  21  32  49  74 105 138 171 206 254 308
#     4   9  18  35  57  79 102 129 165 212 261 305
#     4   9  17  31  51  74 101 132 168 209 249 295
#
# _framework density 18.712683999999999
#
# number of rings (size 3 to 8) (size 9 to 14) (size 15 to 20)
#    0.000    2.462    0.000    3.923    0.000    3.692 
#    0.000    3.077    0.000   12.000    0.000    8.615 
#    0.000    0.000    0.000    0.000    0.000    0.000 
#
# Total GULP energy -144848.380683 kJ/mol
# GULP energy per Si atom -5571.091565 kJ/mol
# Density = 1.867009 g / cm^3
# Si number density = 18.712684 Si / 1000 Ang^3
#
#
#
# Elastic Constant Matrix: (Units=GPa)
#
#
# Indices 1 2 3 4 5 6 
#
# 1 21.2258 27.3635 27.3381 0.0000 8.1204 0.0000
# 2 27.3635 135.4267 49.0165 0.0000 11.5356 0.0000
# 3 27.3381 49.0165 96.5367 0.0000 31.9812 0.0000
# 4 0.0000 0.0000 0.0000 24.1265 0.0000 3.7724
# 5 8.1204 11.5356 31.9812 0.0000 17.2694 0.0000
# 6 0.0000 0.0000 0.0000 3.7724 0.0000 17.0453
#
#
#
# Elastic Compliance Matrix: (Units=1/GPa)
#
#
# Indices 1 2 3 4 5 6 
#
# 1 0.084608 -0.010118 -0.020393 0.000000 0.004740 0.000000
# 2 -0.010118 0.010536 -0.004474 0.000000 0.006004 0.000000
# 3 -0.020393 -0.004474 0.036841 0.000000 -0.055648 0.000000
# 4 0.000000 0.000000 0.000000 0.042934 0.000000 -0.009502
# 5 0.004740 0.006004 -0.055648 0.000000 0.154721 0.000000
# 6 0.000000 0.000000 0.000000 -0.009502 0.000000 0.060770
#
#
# Mechanical properties :
#
#
# Convention : Reuss Voigt Hill
#
# Bulk Modulus (GPa) = 16.12493 51.18059 33.65276
# Shear Modulus (GPa) = 10.39389 21.65298 16.02343
#
# Velocity S-wave (km/s) = 2.35935 3.40535 2.92941
# Velocity P-wave (km/s) = 4.00722 6.54767 5.42816
#
# Compressibility (1/GPa) = 0.06201578
#
# Stress axis : x y z
#
# Youngs Moduli (GPa) = 11.81915 94.91088 27.14391
#
# Poissons Ratio (x) = 0.96032 0.55355
# Poissons Ratio (y) = 0.11959 0.12143
# Poissons Ratio (z) = 0.24103 0.42459
#
# Static dielectric constant tensor:
#      x y z
#    x 1.645690 0.000000 0.010260 
#    y 0.000000 1.647270 0.000000 
#    z 0.010260 0.000000 1.664950 
# 
# From -- ./inp_files/62039.got.cif
#   From: 2010.05.17/outbox.cif.g08.bks.cpg/sg10_32_cif.got.tgz:62039.got - 2010.06.03 11:33:40.
