data_PCOD9143856
_publ_section_title
;
Structure prediction by ZEFSAII (Michael W. Deem and Ramdas Pophale) SiO2 
 PCOD9143856
Probable space group: P 2/M
;
_chemical_formula_sum "Si O2"
_cell_formula_units_Z 28
_cell_length_a 19.285664
_cell_length_b 14.621883
_cell_length_c 10.647719
_cell_angle_alpha 90.000000
_cell_angle_beta 146.160464
_cell_angle_gamma 90.000000
_cell_volume 1672.042985
_symmetry_space_group_name_H-M "P 2/M"
_symmetry_group_IT_number 10
_symmetry_cell_setting 'monoclinic'
loop_
_space_group_symop_operation_xyz
x,y,z
-x,y,-z
-x,-y,-z
x,-y,z
loop_
_atom_site_type_symbol
_atom_site_label
_atom_site_fract_x
_atom_site_fract_y
_atom_site_fract_z
Si Si1 0.367062 0.393975 0.746451
Si Si2 0.644761 0.892260 0.563460
Si Si3 0.359826 0.107033 0.140757
Si Si4 0.028163 0.700939 0.846335
Si Si5 0.200699 0.731955 0.327360
Si Si6 0.124497 0.220044 0.742124
Si Si7 0.860991 0.601299 0.408038
O O1 0.378784 0.500000 0.721472
O O2 0.307104 0.330402 0.549647
O O3 0.268232 0.392931 0.711356
O O4 0.500000 0.363559 0.000000
O O5 0.651383 0.882258 0.724776
O O6 0.500884 0.868792 0.314531
O O7 0.738906 0.824323 0.635808
O O8 0.665823 0.000000 0.567068
O O9 0.342460 0.000000 0.087416
O O10 0.251360 0.165761 0.915902
O O11 0.908472 0.747377 0.733701
O O12 0.967415 0.619429 0.673455
O O13 0.095688 0.763114 0.844768
O O14 0.127863 0.680619 0.104594
O O15 0.133920 0.317175 0.684229
O O16 0.000000 0.173514 0.500000
O O17 0.872306 0.500000 0.370475
#
# Coordination Sequence:
#
# PCOD9143856 Si02
#       7
#     4   4   4   4   4   4   4
#     4   9  19  34  51  76 104 135 172 205 254 314
#     4   9  18  33  55  77 100 133 173 212 257 308
#     4   9  18  33  52  77 103 132 173 214 254 304
#     4   9  19  32  48  78 103 132 175 213 249 304
#     4  10  18  33  55  73 105 136 169 214 258 297
#     4  10  19  32  52  76 107 135 174 209 256 302
#     4   9  19  34  52  74 104 140 175 210 252 301
#
# _framework density 16.745981
#
# number of rings (size 3 to 8) (size 9 to 14) (size 15 to 20)
#    0.000    2.714    1.429    0.857    2.000    3.429 
#    0.000    5.000    0.000    5.571    0.000    5.000 
#    0.000    0.000    0.000    0.000    0.000    0.000 
#
# Total GULP energy -155882.025772 kJ/mol
# GULP energy per Si atom -5567.215206 kJ/mol
# Density = 1.670787 g / cm^3
# Si number density = 16.745981 Si / 1000 Ang^3
#
#
#
# Elastic Constant Matrix: (Units=GPa)
#
#
# Indices 1 2 3 4 5 6 
#
# 1 53.4994 28.0835 27.1576 0.0000 -2.7560 0.0000
# 2 28.0835 70.8254 55.6716 0.0000 6.9750 0.0000
# 3 27.1576 55.6716 136.8274 0.0000 8.9945 0.0000
# 4 0.0000 0.0000 0.0000 16.9033 0.0000 -0.8694
# 5 -2.7560 6.9750 8.9945 0.0000 19.8087 0.0000
# 6 0.0000 0.0000 0.0000 -0.8694 0.0000 21.9625
#
#
#
# Elastic Compliance Matrix: (Units=1/GPa)
#
#
# Indices 1 2 3 4 5 6 
#
# 1 0.024773 -0.009272 -0.001634 0.000000 0.007454 0.000000
# 2 -0.009272 0.024478 -0.007697 0.000000 -0.006414 0.000000
# 3 -0.001634 -0.007697 0.010928 0.000000 -0.002479 0.000000
# 4 0.000000 0.000000 0.000000 0.059281 0.000000 0.002347
# 5 0.007454 -0.006414 -0.002479 0.000000 0.054904 0.000000
# 6 0.000000 0.000000 0.000000 0.002347 0.000000 0.045625
#
#
# Mechanical properties :
#
#
# Convention : Reuss Voigt Hill
#
# Bulk Modulus (GPa) = 43.53424 53.66418 48.59921
# Shear Modulus (GPa) = 18.87843 21.75088 20.31465
#
# Velocity S-wave (km/s) = 3.36123 3.60790 3.48675
# Velocity P-wave (km/s) = 6.41226 7.03360 6.73010
#
# Compressibility (1/GPa) = 0.02297043
#
# Stress axis : x y z
#
# Youngs Moduli (GPa) = 40.36715 40.85297 91.51057
#
# Poissons Ratio (x) = 0.37880 0.14955
# Poissons Ratio (y) = 0.37429 0.70440
# Poissons Ratio (z) = 0.06597 0.31447
#
# Static dielectric constant tensor:
#      x y z
#    x 1.567520 0.000000 0.001470 
#    y 0.000000 1.549920 0.000000 
#    z 0.001470 0.000000 1.582040 
# 
# From -- ./inp_files/55876.got.cif
#   From: 2010.05.17/outbox.cif.g08.bks.cpg/sg10_28_cif.got.tgz:55876.got - 2010.06.03 11:33:40.
