data_PCOD9143583
_publ_section_title
;
Structure prediction by ZEFSAII (Michael W. Deem and Ramdas Pophale) SiO2 
 PCOD9143583
Probable space group: P 2/M
;
_chemical_formula_sum "Si O2"
_cell_formula_units_Z 28
_cell_length_a 25.467361
_cell_length_b 8.916678
_cell_length_c 19.964879
_cell_angle_alpha 90.000000
_cell_angle_beta 20.851256
_cell_angle_gamma 90.000000
_cell_volume 1613.742704
_symmetry_space_group_name_H-M "P 2/M"
_symmetry_group_IT_number 10
_symmetry_cell_setting 'monoclinic'
loop_
_space_group_symop_operation_xyz
x,y,z
-x,y,-z
-x,-y,-z
x,-y,z
loop_
_atom_site_type_symbol
_atom_site_label
_atom_site_fract_x
_atom_site_fract_y
_atom_site_fract_z
Si Si1 0.341863 0.680907 0.155859
Si Si2 0.031253 0.825657 0.542889
Si Si3 0.723062 0.319432 0.921492
Si Si4 0.593090 0.178314 0.320857
Si Si5 0.139761 0.181928 0.915890
Si Si6 0.806964 0.819122 0.299280
Si Si7 0.482525 0.321456 0.316986
O O1 0.333298 0.500000 0.171837
O O2 0.190424 0.749941 0.366801
O O3 0.330059 0.720225 0.090681
O O4 0.500000 0.726799 0.000000
O O5 0.000000 0.816157 0.500000
O O6 0.883670 0.747978 0.747091
O O7 0.037043 0.000000 0.554890
O O8 0.736073 0.500000 0.907726
O O9 0.599127 0.270967 0.122090
O O10 0.500000 0.197854 0.500000
O O11 0.756161 0.227644 0.148012
O O12 0.537136 0.268404 0.324519
O O13 0.587870 0.000000 0.311465
O O14 0.201145 0.227637 0.769648
O O15 0.142532 0.000000 0.910522
O O16 0.971040 0.226740 0.124802
O O17 0.679353 0.749010 0.495471
O O18 0.795531 0.000000 0.314606
O O19 0.472425 0.500000 0.325916
#
# Coordination Sequence:
#
# PCOD9143583 Si02
#       7
#     4   4   4   4   4   4   4
#     4   9  17  32  56  80 100 132 173 205 239 293
#     4   9  17  30  51  78 104 129 162 205 247 288
#     4   9  19  35  51  70 101 137 169 201 244 301
#     4  10  18  32  53  73  93 125 168 211 250 293
#     4   8  15  29  51  73  90 116 163 212 250 294
#     4   9  16  31  52  70  91 124 164 205 248 299
#     4  11  22  33  47  72 104 134 164 205 254 300
#
# _framework density 17.350968000000002
#
# number of rings (size 3 to 8) (size 9 to 14) (size 15 to 20)
#    0.000    2.714    1.429    1.714    0.000    3.429 
#    0.000    3.571    0.000    5.143    0.000    0.000 
#    0.000    0.000    0.000    0.000    0.000    0.000 
#
# Total GULP energy -155948.089940 kJ/mol
# GULP energy per Si atom -5569.574641 kJ/mol
# Density = 1.731148 g / cm^3
# Si number density = 17.350968 Si / 1000 Ang^3
#
#
#
# Elastic Constant Matrix: (Units=GPa)
#
#
# Indices 1 2 3 4 5 6 
#
# 1 43.8216 17.8249 47.9435 0.0000 -16.5133 0.0000
# 2 17.8249 27.8098 45.0209 0.0000 -2.5016 0.0000
# 3 47.9435 45.0209 172.1882 0.0000 -11.6369 0.0000
# 4 0.0000 0.0000 0.0000 27.6738 0.0000 -4.5400
# 5 -16.5133 -2.5016 -11.6369 0.0000 30.4513 0.0000
# 6 0.0000 0.0000 0.0000 -4.5400 0.0000 10.1612
#
#
#
# Elastic Compliance Matrix: (Units=1/GPa)
#
#
# Indices 1 2 3 4 5 6 
#
# 1 0.044200 -0.015253 -0.006963 0.000000 0.020055 0.000000
# 2 -0.015253 0.067652 -0.013986 0.000000 -0.008059 0.000000
# 3 -0.006963 -0.013986 0.011364 0.000000 -0.000582 0.000000
# 4 0.000000 0.000000 0.000000 0.038993 0.000000 0.017422
# 5 0.020055 -0.008059 -0.000582 0.000000 0.042830 0.000000
# 6 0.000000 0.000000 0.000000 0.017422 0.000000 0.106197
#
#
# Mechanical properties :
#
#
# Convention : Reuss Voigt Hill
#
# Bulk Modulus (GPa) = 19.68102 51.71091 35.69596
# Shear Modulus (GPa) = 12.48193 22.52597 17.50395
#
# Velocity S-wave (km/s) = 2.68503 3.60704 3.17963
# Velocity P-wave (km/s) = 4.58040 6.87133 5.83932
#
# Compressibility (1/GPa) = 0.05081038
#
# Stress axis : x y z
#
# Youngs Moduli (GPa) = 22.62456 14.78149 87.99782
#
# Poissons Ratio (x) = 0.22547 0.61275
# Poissons Ratio (y) = 0.34510 1.23074
# Poissons Ratio (z) = 0.15754 0.20673
#
# Static dielectric constant tensor:
#      x y z
#    x 1.590260 0.000000 -0.021060 
#    y 0.000000 1.586460 0.000000 
#    z -0.021060 0.000000 1.616050 
# 
# From -- ./inp_files/79234.got.cif
#   From: 2010.05.17/outbox.cif.g08.bks.cpg/sg10_40_cif.got.tgz:79234.got - 2010.06.03 11:33:40.
