data_PCOD9143510
_publ_section_title
;
Structure prediction by ZEFSAII (Michael W. Deem and Ramdas Pophale) SiO2 
 PCOD9143510
Probable space group: P 2/M
;
_chemical_formula_sum "Si O2"
_cell_formula_units_Z 32
_cell_length_a 12.898812
_cell_length_b 8.791122
_cell_length_c 21.779731
_cell_angle_alpha 90.000000
_cell_angle_beta 53.097277
_cell_angle_gamma 90.000000
_cell_volume 1974.921320
_symmetry_space_group_name_H-M "P 2/M"
_symmetry_group_IT_number 10
_symmetry_cell_setting 'monoclinic'
loop_
_space_group_symop_operation_xyz
x,y,z
-x,y,-z
-x,-y,-z
x,-y,z
loop_
_atom_site_type_symbol
_atom_site_label
_atom_site_fract_x
_atom_site_fract_y
_atom_site_fract_z
Si Si1 0.969085 0.681565 0.918067
Si Si2 0.284402 0.819214 0.334863
Si Si3 0.130928 0.324578 0.494818
Si Si4 0.113385 0.817172 0.180343
Si Si5 0.582253 0.818037 0.909752
Si Si6 0.029265 0.182192 0.345105
Si Si7 0.479243 0.680325 0.820061
Si Si8 0.197770 0.818049 0.915040
O O1 0.968547 0.500000 0.924702
O O2 0.943714 0.732220 0.857788
O O3 0.102582 0.749164 0.897424
O O4 0.857470 0.753048 0.001035
O O5 0.236282 0.770218 0.419348
O O6 0.165408 0.781078 0.330792
O O7 0.410697 0.732711 0.266747
O O8 0.304998 0.000000 0.324314
O O9 0.170157 0.500000 0.485168
O O10 0.000000 0.316727 0.500000
O O11 0.086067 0.259577 0.576091
O O12 0.266486 0.783768 0.133162
O O13 0.043655 0.775586 0.268964
O O14 0.101693 0.000000 0.175954
O O15 0.528302 0.731389 0.869937
O O16 0.571583 0.000000 0.901690
O O17 0.500000 0.783445 0.000000
O O18 0.014496 0.000000 0.354712
O O19 0.461122 0.500000 0.824592
O O20 0.344161 0.763807 0.854932
O O21 0.188342 0.000000 0.918709
#
# Coordination Sequence:
#
# PCOD9143510 Si02
#       8
#     4   4   4   4   4   4   4   4
#     4  11  22  37  56  80 105 129 168 222 271 305
#     4  10  18  32  50  71 100 138 176 208 249 306
#     4   9  17  28  44  69 100 133 169 211 258 301
#     4  10  19  33  51  75 105 140 178 211 251 307
#     4  10  20  34  51  71 100 140 178 208 246 307
#     4   9  17  30  48  70 100 138 177 211 245 300
#     4  12  23  34  51  77 107 134 168 216 265 305
#     4  11  22  39  59  75  97 135 178 216 259 310
#
# _framework density 16.203175999999999
#
# number of rings (size 3 to 8) (size 9 to 14) (size 15 to 20)
#    0.000    1.750    1.250    5.625    0.000    4.250 
#    0.000    0.000    0.000    0.000    0.000    0.875 
#    0.000    7.000    0.000    0.000    0.000    0.000 
#
# Total GULP energy -178687.726358 kJ/mol
# GULP energy per Si atom -5583.991449 kJ/mol
# Density = 1.616630 g / cm^3
# Si number density = 16.203176 Si / 1000 Ang^3
#
#
#
# Elastic Constant Matrix: (Units=GPa)
#
#
# Indices 1 2 3 4 5 6 
#
# 1 48.8192 36.8061 47.9071 0.0000 -1.3071 0.0000
# 2 36.8061 92.7635 51.3922 0.0000 -0.9128 0.0000
# 3 47.9071 51.3922 113.6813 0.0000 3.8090 0.0000
# 4 0.0000 0.0000 0.0000 20.2453 0.0000 -2.9513
# 5 -1.3071 -0.9128 3.8090 0.0000 13.6474 0.0000
# 6 0.0000 0.0000 0.0000 -2.9513 0.0000 18.6898
#
#
#
# Elastic Compliance Matrix: (Units=1/GPa)
#
#
# Indices 1 2 3 4 5 6 
#
# 1 0.040124 -0.008477 -0.013311 0.000000 0.006991 0.000000
# 2 -0.008477 0.016280 -0.003833 0.000000 0.001347 0.000000
# 3 -0.013311 -0.003833 0.016343 0.000000 -0.006092 0.000000
# 4 0.000000 0.000000 0.000000 0.050558 0.000000 0.007984
# 5 0.006991 0.001347 -0.006092 0.000000 0.075734 0.000000
# 6 0.000000 0.000000 0.000000 0.007984 0.000000 0.054766
#
#
# Mechanical properties :
#
#
# Convention : Reuss Voigt Hill
#
# Bulk Modulus (GPa) = 46.49881 58.60831 52.55356
# Shear Modulus (GPa) = 16.01459 18.46038 17.23749
#
# Velocity S-wave (km/s) = 3.14723 3.37902 3.26519
# Velocity P-wave (km/s) = 6.47815 7.17448 6.83519
#
# Compressibility (1/GPa) = 0.02150593
#
# Stress axis : x y z
#
# Youngs Moduli (GPa) = 24.92259 61.42475 61.18924
#
# Poissons Ratio (x) = 0.52070 0.81449
# Poissons Ratio (y) = 0.21127 0.23451
# Poissons Ratio (z) = 0.33175 0.23542
#
# Static dielectric constant tensor:
#      x y z
#    x 1.516460 0.000000 0.002430 
#    y 0.000000 1.542050 0.000000 
#    z 0.002430 0.000000 1.540060 
# 
# From -- ./inp_files/83528.got.cif
#   From: 2010.05.17/outbox.cif.g08.bks.cpg/sg10_42_cif.got.tgz:83528.got - 2010.06.03 11:33:40.
