data_PCOD9143073
_publ_section_title
;
Structure prediction by ZEFSAII (Michael W. Deem and Ramdas Pophale) SiO2 
 PCOD9143073
Probable space group: P 2/M
;
_chemical_formula_sum "Si O2"
_cell_formula_units_Z 28
_cell_length_a 26.503607
_cell_length_b 10.988285
_cell_length_c 5.196766
_cell_angle_alpha 90.000000
_cell_angle_beta 109.750943
_cell_angle_gamma 90.000000
_cell_volume 1424.414365
_symmetry_space_group_name_H-M "P 2/M"
_symmetry_group_IT_number 10
_symmetry_cell_setting 'monoclinic'
loop_
_space_group_symop_operation_xyz
x,y,z
-x,y,-z
-x,-y,-z
x,-y,z
loop_
_atom_site_type_symbol
_atom_site_label
_atom_site_fract_x
_atom_site_fract_y
_atom_site_fract_z
Si Si1 0.261394 0.743217 0.508322
Si Si2 0.063805 0.368100 0.640471
Si Si3 0.624570 0.146991 0.150730
Si Si4 0.937265 0.777576 0.862099
Si Si5 0.218168 0.361599 0.946640
Si Si6 0.560036 0.147975 0.539878
Si Si7 0.832494 0.131911 0.912100
O O1 0.317675 0.799169 0.684447
O O2 0.262373 0.670638 0.240528
O O3 0.215734 0.845438 0.374750
O O4 0.240004 0.658605 0.699670
O O5 0.087477 0.500000 0.617313
O O6 0.075891 0.266260 0.447557
O O7 0.000000 0.377799 0.500000
O O8 0.069946 0.333807 0.949314
O O9 0.582578 0.182959 0.300954
O O10 0.628780 0.000000 0.159705
O O11 0.601208 0.184587 0.834761
O O12 0.890505 0.865416 0.879400
O O13 0.000000 0.817410 0.000000
O O14 0.200581 0.500000 0.956160
O O15 0.175120 0.253721 0.927625
O O16 0.500000 0.190351 0.500000
O O17 0.558314 0.000000 0.539560
O O18 0.824693 0.000000 0.025983
#
# Coordination Sequence:
#
# PCOD9143073 Si02
#       7
#     4   4   4   4   4   4   4
#     4  10  22  39  60  86 117 153 203 246 299 356
#     4   9  18  34  55  80 110 143 185 234 285 343
#     4  10  18  30  51  79 115 159 202 242 292 350
#     4  10  21  37  55  83 113 149 193 237 292 357
#     4  10  23  42  63  86 118 155 197 251 307 359
#     4   9  17  28  45  75 120 166 201 237 288 348
#     4  10  25  42  62  89 121 158 196 244 303 361
#
# _framework density 19.657201000000001
#
# number of rings (size 3 to 8) (size 9 to 14) (size 15 to 20)
#    0.857    1.429    0.000    2.571    2.000    6.000 
#    0.000    0.000    0.000    2.571    0.000    0.000 
#    0.000   40.000    0.000    0.000    0.000    0.000 
#
# Total GULP energy -155917.170050 kJ/mol
# GULP energy per Si atom -5568.470359 kJ/mol
# Density = 1.961246 g / cm^3
# Si number density = 19.657201 Si / 1000 Ang^3
#
#
#
# Elastic Constant Matrix: (Units=GPa)
#
#
# Indices 1 2 3 4 5 6 
#
# 1 55.7224 13.5249 -11.6701 0.0000 13.1458 0.0000
# 2 13.5249 86.5978 -3.0645 0.0000 0.1884 0.0000
# 3 -11.6701 -3.0645 54.9665 0.0000 0.8280 0.0000
# 4 0.0000 0.0000 0.0000 142.6397 0.0000 135.3607
# 5 13.1458 0.1884 0.8280 0.0000 32.1094 0.0000
# 6 0.0000 0.0000 0.0000 135.3607 0.0000 159.6125
#
#
#
# Elastic Compliance Matrix: (Units=1/GPa)
#
#
# Indices 1 2 3 4 5 6 
#
# 1 0.021821 -0.003226 0.004589 0.000000 -0.009033 0.000000
# 2 -0.003226 0.012048 -0.000032 0.000000 0.001251 0.000000
# 3 0.004589 -0.000032 0.019201 0.000000 -0.002374 0.000000
# 4 0.000000 0.000000 0.000000 0.035912 0.000000 -0.030455
# 5 -0.009033 0.001251 -0.002374 0.000000 0.034896 0.000000
# 6 0.000000 0.000000 0.000000 -0.030455 0.000000 0.032093
#
#
# Mechanical properties :
#
#
# Convention : Reuss Voigt Hill
#
# Bulk Modulus (GPa) = 17.94293 21.65191 19.79742
# Shear Modulus (GPa) = 29.08904 80.10541 54.59723
#
# Velocity S-wave (km/s) = 3.85101 6.39059 5.27589
# Velocity P-wave (km/s) = 5.37787 8.09268 6.87070
#
# Compressibility (1/GPa) = 0.05573226
#
# Stress axis : x y z
#
# Youngs Moduli (GPa) = 45.82674 83.00390 52.08009
#
# Poissons Ratio (x) = 0.26777 -0.23900
# Poissons Ratio (y) = 0.14784 0.00167
# Poissons Ratio (z) = -0.21031 0.00266
#
# Static dielectric constant tensor:
#      x y z
#    x 1.705080 0.000000 0.010030 
#    y 0.000000 1.698680 0.000000 
#    z 0.010030 0.000000 1.681900 
# 
# From -- ./inp_files/13083.got.cif
#   From: 2010.05.17/outbox.cif.g08.bks.cpg/sg10_7_cif.got.tgz:13083.got - 2010.06.03 11:33:40.
