data_PCOD9143479
_publ_section_title
;
Structure prediction by ZEFSAII (Michael W. Deem and Ramdas Pophale) SiO2 
 PCOD9143479
Probable space group: P 2/M
;
_chemical_formula_sum "Si O2"
_cell_formula_units_Z 19
_cell_length_a 9.864451
_cell_length_b 11.837855
_cell_length_c 9.078281
_cell_angle_alpha 90.000000
_cell_angle_beta 66.580057
_cell_angle_gamma 90.000000
_cell_volume 972.771175
_symmetry_space_group_name_H-M "P 2/M"
_symmetry_group_IT_number 10
_symmetry_cell_setting 'monoclinic'
loop_
_space_group_symop_operation_xyz
x,y,z
-x,y,-z
-x,-y,-z
x,-y,z
loop_
_atom_site_type_symbol
_atom_site_label
_atom_site_fract_x
_atom_site_fract_y
_atom_site_fract_z
Si Si1 0.775044 0.869509 0.156624
Si Si2 0.261808 0.305240 0.579021
Si Si3 0.836091 0.129360 0.797756
Si Si4 0.000000 0.292284 0.500000
Si Si5 0.500000 0.500000 0.500000
Si Si6 0.422483 0.126081 0.300059
O O1 0.805312 0.772926 0.262689
O O2 0.597337 0.864440 0.210986
O O3 0.810344 0.000000 0.185037
O O4 0.846037 0.847729 0.966543
O O5 0.131229 0.353315 0.531078
O O6 0.373029 0.401341 0.582016
O O7 0.355455 0.217721 0.438455
O O8 0.666037 0.136378 0.814925
O O9 0.923887 0.212446 0.654528
O O10 0.883482 0.000000 0.751528
O O11 0.389502 0.000000 0.373399
#
# Coordination Sequence:
#
# PCOD9143479 Si02
#       6
#     4   4   4   2   1   4
#     4  10  18  31  56  91 123 151 190 233 277 333
#     4  11  22  38  60  86 111 153 188 242 284 341
#     4   9  18  31  54  88 126 159 183 222 280 347
#     4  10  23  39  56  80 122 156 187 223 290 352
#     4  12  24  42  66  84 104 142 206 252 284 330
#     4   9  16  31  55  87 121 152 187 229 284 341
#
# _framework density 19.531828000000001
#
# number of rings (size 3 to 8) (size 9 to 14) (size 15 to 20)
#    0.000    2.105    2.105    1.579    0.000    8.000 
#    0.000    2.105    0.000   12.632    0.000    0.000 
#    0.000    0.000    0.000    0.000    0.000    0.000 
#
# Total GULP energy -105780.963246 kJ/mol
# GULP energy per Si atom -5567.419118 kJ/mol
# Density = 1.948737 g / cm^3
# Si number density = 19.531828 Si / 1000 Ang^3
#
#
#
# Elastic Constant Matrix: (Units=GPa)
#
#
# Indices 1 2 3 4 5 6 
#
# 1 89.2299 14.1018 6.9368 0.0000 8.3694 0.0000
# 2 14.1018 86.0146 36.0533 0.0000 7.0392 0.0000
# 3 6.9368 36.0533 75.9659 0.0000 6.9073 0.0000
# 4 0.0000 0.0000 0.0000 -1.5714 0.0000 -2.8495
# 5 8.3694 7.0392 6.9073 0.0000 25.5378 0.0000
# 6 0.0000 0.0000 0.0000 -2.8495 0.0000 6.3437
#
#
#
# Elastic Compliance Matrix: (Units=1/GPa)
#
#
# Indices 1 2 3 4 5 6 
#
# 1 0.011788 -0.001663 0.000023 0.000000 -0.003411 0.000000
# 2 -0.001663 0.014868 -0.006747 0.000000 -0.001728 0.000000
# 3 0.000023 -0.006747 0.016604 0.000000 -0.002639 0.000000
# 4 0.000000 0.000000 0.000000 -0.350710 0.000000 -0.157534
# 5 -0.003411 -0.001728 -0.002639 0.000000 0.041466 0.000000
# 6 0.000000 0.000000 0.000000 -0.157534 0.000000 0.086875
#
#
# Mechanical properties :
#
#
# Convention : Reuss Voigt Hill
#
# Bulk Modulus (GPa) = 37.75697 40.59935 39.17816
# Shear Modulus (GPa) = -32.57207 19.00325 -6.78441
#
# Velocity S-wave (km/s) = -4.08811 3.12258 -1.86576
# Velocity P-wave (km/s) = 1.70602 5.81653 3.93202
#
# Compressibility (1/GPa) = 0.02648518
#
# Stress axis : x y z
#
# Youngs Moduli (GPa) = 84.83211 67.25747 60.22672
#
# Poissons Ratio (x) = 0.11186 -0.00139
# Poissons Ratio (y) = 0.14108 0.40638
# Poissons Ratio (z) = -0.00195 0.45381
#
# Static dielectric constant tensor:
#      x y z
#    x 1.781860 0.000000 0.030200 
#    y 0.000000 1.539900 0.000000 
#    z 0.030200 0.000000 1.667930 
# 
# From -- ./inp_files/23011.got.cif
#   From: 2010.05.17/outbox.cif.g08.bks.cpg/sg10_12_cif.got.tgz:23011.got - 2010.06.03 11:33:40.
