data_PCOD9143392
_publ_section_title
;
Structure prediction by ZEFSAII (Michael W. Deem and Ramdas Pophale) SiO2 
 PCOD9143392
Probable space group: P 2/M
;
_chemical_formula_sum "Si O2"
_cell_formula_units_Z 32
_cell_length_a 25.635364
_cell_length_b 8.962026
_cell_length_c 20.614650
_cell_angle_alpha 90.000000
_cell_angle_beta 22.740388
_cell_angle_gamma 90.000000
_cell_volume 1830.772370
_symmetry_space_group_name_H-M "P 2/M"
_symmetry_group_IT_number 10
_symmetry_cell_setting 'monoclinic'
loop_
_space_group_symop_operation_xyz
x,y,z
-x,y,-z
-x,-y,-z
x,-y,z
loop_
_atom_site_type_symbol
_atom_site_label
_atom_site_fract_x
_atom_site_fract_y
_atom_site_fract_z
Si Si1 0.660688 0.672561 0.331501
Si Si2 0.131916 0.678060 0.154604
Si Si3 0.404292 0.178394 0.464345
Si Si4 0.820090 0.320887 0.533174
Si Si5 0.284956 0.822049 0.862186
Si Si6 0.367909 0.179563 0.357716
Si Si7 0.342595 0.822473 0.161957
Si Si8 0.648436 0.679305 0.987522
O O1 0.500000 0.682045 0.500000
O O2 0.699463 0.500000 0.287505
O O3 0.674278 0.744333 0.386741
O O4 0.731540 0.757250 0.191063
O O5 0.140423 0.500000 0.134375
O O6 0.978765 0.714133 0.348904
O O7 0.180720 0.758298 0.033525
O O8 0.234849 0.715465 0.094584
O O9 0.563174 0.220192 0.288089
O O10 0.354949 0.215093 0.448865
O O11 0.396932 0.000000 0.481539
O O12 0.802959 0.500000 0.554035
O O13 0.747432 0.252574 0.553565
O O14 0.748339 0.249215 0.677800
O O15 0.278142 0.000000 0.868020
O O16 0.509931 0.245053 0.169946
O O17 0.368628 0.000000 0.349186
O O18 0.319331 0.000000 0.184251
O O19 0.500000 0.800054 0.000000
O O20 0.317543 0.743732 0.122056
O O21 0.632287 0.500000 0.003055
#
# Coordination Sequence:
#
# PCOD9143392 Si02
#       8
#     4   4   4   4   4   4   4   4
#     4   9  17  28  46  76 112 147 185 230 276 326
#     4  10  23  40  57  83 117 149 187 233 278 333
#     4   9  18  31  50  79 113 145 182 231 278 328
#     4  11  24  41  60  83 113 150 189 229 280 338
#     4  10  18  31  53  79 111 151 187 225 279 335
#     4  11  21  36  57  85 116 146 187 235 279 329
#     4  11  23  39  60  85 115 146 183 233 282 332
#     4  11  22  37  61  86 111 147 187 230 280 333
#
# _framework density 17.478961000000002
#
# number of rings (size 3 to 8) (size 9 to 14) (size 15 to 20)
#    0.000    1.750    2.500    2.250    0.000    5.500 
#    0.000    2.500    0.000    0.750    0.000    5.250 
#    0.000    0.000    0.000    0.000    0.000    0.000 
#
# Total GULP energy -178696.531716 kJ/mol
# GULP energy per Si atom -5584.266616 kJ/mol
# Density = 1.743918 g / cm^3
# Si number density = 17.478961 Si / 1000 Ang^3
#
#
#
# Elastic Constant Matrix: (Units=GPa)
#
#
# Indices 1 2 3 4 5 6 
#
# 1 99.9698 43.5333 48.7798 0.0000 24.5950 0.0000
# 2 43.5333 57.1531 48.8820 0.0000 11.8992 0.0000
# 3 48.7798 48.8820 84.1713 0.0000 14.9170 0.0000
# 4 0.0000 0.0000 0.0000 12.9873 0.0000 23.8651
# 5 24.5950 11.8992 14.9170 0.0000 34.7902 0.0000
# 6 0.0000 0.0000 0.0000 23.8651 0.0000 15.4342
#
#
#
# Elastic Compliance Matrix: (Units=1/GPa)
#
#
# Indices 1 2 3 4 5 6 
#
# 1 0.017457 -0.008347 -0.003883 0.000000 -0.007821 0.000000
# 2 -0.008347 0.039154 -0.017936 0.000000 0.000200 0.000000
# 3 -0.003883 -0.017936 0.024863 0.000000 -0.001781 0.000000
# 4 0.000000 0.000000 0.000000 -0.041816 0.000000 0.064658
# 5 -0.007821 0.000200 -0.001781 0.000000 0.034968 0.000000
# 6 0.000000 0.000000 0.000000 0.064658 0.000000 -0.035187
#
#
# Mechanical properties :
#
#
# Convention : Reuss Voigt Hill
#
# Bulk Modulus (GPa) = 47.30315 58.18715 52.74515
# Shear Modulus (GPa) = 46.80801 19.31561 33.06181
#
# Velocity S-wave (km/s) = 5.18052 3.32788 4.35388
# Velocity P-wave (km/s) = 7.93129 6.93747 7.45097
#
# Compressibility (1/GPa) = 0.02114024
#
# Stress axis : x y z
#
# Youngs Moduli (GPa) = 57.28375 25.54007 40.22057
#
# Poissons Ratio (x) = 0.21320 0.15618
# Poissons Ratio (y) = 0.47818 0.72141
# Poissons Ratio (z) = 0.22243 0.45810
#
# Static dielectric constant tensor:
#      x y z
#    x 1.585370 0.000000 -0.000830 
#    y 0.000000 1.583460 0.000000 
#    z -0.000830 0.000000 1.568950 
# 
# From -- ./inp_files/86908.got.cif
#   From: 2010.05.17/outbox.cif.g08.bks.cpg/sg10_44_cif.got.tgz:86908.got - 2010.06.03 11:33:40.
