data_PCOD9143987
_publ_section_title
;
Structure prediction by ZEFSAII (Michael W. Deem and Ramdas Pophale) SiO2 
 PCOD9143987
Probable space group: P 2/M
;
_chemical_formula_sum "Si O2"
_cell_formula_units_Z 32
_cell_length_a 12.566766
_cell_length_b 9.144930
_cell_length_c 24.234006
_cell_angle_alpha 90.000000
_cell_angle_beta 133.341924
_cell_angle_gamma 90.000000
_cell_volume 2025.467322
_symmetry_space_group_name_H-M "P 2/M"
_symmetry_group_IT_number 10
_symmetry_cell_setting 'monoclinic'
loop_
_space_group_symop_operation_xyz
x,y,z
-x,y,-z
-x,-y,-z
x,-y,z
loop_
_atom_site_type_symbol
_atom_site_label
_atom_site_fract_x
_atom_site_fract_y
_atom_site_fract_z
Si Si1 0.807762 0.174287 0.573519
Si Si2 0.211975 0.325864 0.318251
Si Si3 0.625887 0.677653 0.316280
Si Si4 0.555665 0.674476 0.417213
Si Si5 0.129101 0.168789 0.999764
Si Si6 0.079278 0.325360 0.154283
Si Si7 0.331483 0.324610 0.154207
Si Si8 0.043516 0.326249 0.579660
O O1 0.828994 0.235869 0.642476
O O2 0.656208 0.239548 0.495722
O O3 0.934580 0.236834 0.579198
O O4 0.804830 0.000000 0.571725
O O5 0.192416 0.500000 0.321169
O O6 0.383896 0.303640 0.366235
O O7 0.120359 0.285057 0.231200
O O8 0.622975 0.500000 0.315542
O O9 0.596702 0.720197 0.369421
O O10 0.492043 0.725611 0.230108
O O11 0.787468 0.720729 0.354842
O O12 0.585785 0.500000 0.433232
O O13 0.059392 0.245907 0.921779
O O14 0.161963 0.000000 0.000811
O O15 0.265061 0.249757 0.076507
O O16 0.000000 0.175881 0.000000
O O17 0.056949 0.500000 0.143976
O O18 0.219811 0.294076 0.165169
O O19 0.332627 0.500000 0.147087
O O20 0.030874 0.500000 0.587838
O O21 0.000000 0.309253 0.500000
#
# Coordination Sequence:
#
# PCOD9143987 Si02
#       8
#     4   4   4   4   4   4   4   4
#     4  12  25  36  47  69 103 136 168 205 248 298
#     4  10  20  34  54  75  97 129 171 211 246 292
#     4   9  16  29  53  79  96 120 162 211 254 288
#     4  10  18  34  55  74  96 127 169 210 248 291
#     4   9  17  27  40  64 100 137 164 186 227 290
#     4   9  16  28  48  72  96 125 161 201 241 283
#     4   9  15  27  47  72  99 123 157 202 245 286
#     4  10  19  35  58  74  91 124 169 214 253 293
#
# _framework density 15.798823000000001
#
# number of rings (size 3 to 8) (size 9 to 14) (size 15 to 20)
#    0.000    2.250    2.500    1.875    0.000    4.250 
#    0.000    1.250    0.000    0.000    0.000    0.875 
#    0.000    7.000    0.000    0.000    0.000    0.000 
#
# Total GULP energy -178479.792806 kJ/mol
# GULP energy per Si atom -5577.493525 kJ/mol
# Density = 1.576286 g / cm^3
# Si number density = 15.798823 Si / 1000 Ang^3
#
#
#
# Elastic Constant Matrix: (Units=GPa)
#
#
# Indices 1 2 3 4 5 6 
#
# 1 44.1278 35.6412 41.7147 0.0000 -10.6801 0.0000
# 2 35.6412 54.3058 63.9100 0.0000 -8.2829 0.0000
# 3 41.7147 63.9100 159.5026 0.0000 -2.0742 0.0000
# 4 0.0000 0.0000 0.0000 -4.6598 0.0000 -2.9871
# 5 -10.6801 -8.2829 -2.0742 0.0000 18.9514 0.0000
# 6 0.0000 0.0000 0.0000 -2.9871 0.0000 7.9831
#
#
#
# Elastic Compliance Matrix: (Units=1/GPa)
#
#
# Indices 1 2 3 4 5 6 
#
# 1 0.052274 -0.030303 -0.001320 0.000000 0.016071 0.000000
# 2 -0.030303 0.056380 -0.014588 0.000000 0.005968 0.000000
# 3 -0.001320 -0.014588 0.012385 0.000000 -0.005764 0.000000
# 4 0.000000 0.000000 0.000000 -0.173085 0.000000 -0.064766
# 5 0.016071 0.005968 -0.005764 0.000000 0.063800 0.000000
# 6 0.000000 0.000000 0.000000 -0.064766 0.000000 0.101031
#
#
# Mechanical properties :
#
#
# Convention : Reuss Voigt Hill
#
# Bulk Modulus (GPa) = 34.94414 60.05201 47.49807
# Shear Modulus (GPa) = 23.28329 12.23297 17.75813
#
# Velocity S-wave (km/s) = 3.84309 2.78564 3.35627
# Velocity P-wave (km/s) = 6.46983 6.95984 6.71930
#
# Compressibility (1/GPa) = 0.02861710
#
# Stress axis : x y z
#
# Youngs Moduli (GPa) = 19.12990 17.73678 80.74290
#
# Poissons Ratio (x) = 0.53747 0.10662
# Poissons Ratio (y) = 0.57969 1.17787
# Poissons Ratio (z) = 0.02526 0.25874
#
# Static dielectric constant tensor:
#      x y z
#    x 1.508670 0.000000 0.006490 
#    y 0.000000 1.522280 0.000000 
#    z 0.006490 0.000000 1.527460 
# 
# From -- ./inp_files/54793.got.cif
#   From: 2010.05.17/outbox.cif.g08.bks.cpg/sg10_28_cif.got.tgz:54793.got - 2010.06.03 11:33:40.
