data_PCOD9143088
_publ_section_title
;
Structure prediction by ZEFSAII (Michael W. Deem and Ramdas Pophale) SiO2 
 PCOD9143088
Probable space group: P 2/M
;
_chemical_formula_sum "Si O2"
_cell_formula_units_Z 32
_cell_length_a 14.321171
_cell_length_b 7.429775
_cell_length_c 20.503576
_cell_angle_alpha 90.000000
_cell_angle_beta 40.485395
_cell_angle_gamma 90.000000
_cell_volume 1416.441262
_symmetry_space_group_name_H-M "P 2/M"
_symmetry_group_IT_number 10
_symmetry_cell_setting 'monoclinic'
loop_
_space_group_symop_operation_xyz
x,y,z
-x,y,-z
-x,-y,-z
x,-y,z
loop_
_atom_site_type_symbol
_atom_site_label
_atom_site_fract_x
_atom_site_fract_y
_atom_site_fract_z
Si Si1 0.187879 0.280230 0.723267
Si Si2 0.566859 0.714918 0.310636
Si Si3 0.847367 0.796153 0.595544
Si Si4 0.453378 0.207304 0.954103
Si Si5 0.269986 0.281139 0.532424
Si Si6 0.953701 0.716494 0.671308
Si Si7 0.874608 0.282886 0.860619
Si Si8 0.457064 0.783621 0.234068
O O1 0.185607 0.500000 0.723962
O O2 0.296039 0.218609 0.721788
O O3 0.248694 0.227746 0.619495
O O4 0.021292 0.224023 0.818516
O O5 0.564165 0.500000 0.320854
O O6 0.417354 0.784159 0.421842
O O7 0.569096 0.749257 0.232248
O O8 0.852387 0.800313 0.671259
O O9 0.696188 0.711096 0.658253
O O10 0.000000 0.705259 0.500000
O O11 0.852990 0.000000 0.566968
O O12 0.511051 0.286738 0.855282
O O13 0.503171 0.000000 0.929580
O O14 0.500000 0.286596 0.000000
O O15 0.280874 0.211036 0.038520
O O16 0.272356 0.500000 0.530725
O O17 0.121400 0.229235 0.575424
O O18 0.946367 0.500000 0.669875
O O19 0.903220 0.764689 0.770098
O O20 0.866410 0.500000 0.869616
O O21 0.442908 0.000000 0.236772
#
# Coordination Sequence:
#
# PCOD9143088 Si02
#       8
#     4   4   4   4   4   4   4   4
#     4   8  15  29  50  77 106 133 164 204 245 284
#     4  10  18  30  52  77 100 133 173 204 235 287
#     4  10  20  33  49  69  96 133 169 197 235 292
#     4  10  21  38  58  75  94 127 168 206 248 300
#     4   8  14  26  47  76 106 134 165 200 239 286
#     4   9  17  29  47  73 102 128 156 199 252 295
#     4   9  18  33  53  77 102 125 157 206 255 292
#     4  10  22  37  50  70 102 132 160 204 256 297
#
# _framework density 22.591832
#
# number of rings (size 3 to 8) (size 9 to 14) (size 15 to 20)
#    0.000    2.750    0.000    3.375    0.000    4.500 
#    0.000    1.250    0.000    6.750    0.000    0.000 
#    0.000    0.000    0.000    0.000    0.000    0.000 
#
# Total GULP energy -178636.537484 kJ/mol
# GULP energy per Si atom -5582.391796 kJ/mol
# Density = 2.254041 g / cm^3
# Si number density = 22.591832 Si / 1000 Ang^3
#
#
#
# Elastic Constant Matrix: (Units=GPa)
#
#
# Indices 1 2 3 4 5 6 
#
# 1 153.6763 1.5663 44.1892 0.0000 1.9310 0.0000
# 2 1.5663 73.1367 2.2253 0.0000 1.6546 0.0000
# 3 44.1892 2.2253 99.0342 0.0000 -7.9978 0.0000
# 4 0.0000 0.0000 0.0000 11.1777 0.0000 7.8366
# 5 1.9310 1.6546 -7.9978 0.0000 27.3111 0.0000
# 6 0.0000 0.0000 0.0000 7.8366 0.0000 10.2137
#
#
#
# Elastic Compliance Matrix: (Units=1/GPa)
#
#
# Indices 1 2 3 4 5 6 
#
# 1 0.007529 -0.000020 -0.003484 0.000000 -0.001551 0.000000
# 2 -0.000020 0.013706 -0.000375 0.000000 -0.000939 0.000000
# 3 -0.003484 -0.000375 0.011965 0.000000 0.003773 0.000000
# 4 0.000000 0.000000 0.000000 0.193612 0.000000 -0.148552
# 5 -0.001551 -0.000939 0.003773 0.000000 0.037887 0.000000
# 6 0.000000 0.000000 0.000000 -0.148552 0.000000 0.211886
#
#
# Mechanical properties :
#
#
# Convention : Reuss Voigt Hill
#
# Bulk Modulus (GPa) = 39.30522 46.86765 43.08644
# Shear Modulus (GPa) = 10.14561 28.26494 19.20527
#
# Velocity S-wave (km/s) = 2.12146 3.54095 2.91881
# Velocity P-wave (km/s) = 4.84113 6.12439 5.52018
#
# Compressibility (1/GPa) = 0.02544192
#
# Stress axis : x y z
#
# Youngs Moduli (GPa) = 132.82420 72.96027 83.57518
#
# Poissons Ratio (x) = 0.00147 0.29119
# Poissons Ratio (y) = 0.00267 0.03132
# Poissons Ratio (z) = 0.46278 0.02735
#
# Static dielectric constant tensor:
#      x y z
#    x 1.831480 0.000000 0.004280 
#    y 0.000000 1.907050 0.000000 
#    z 0.004280 0.000000 1.863830 
# 
# From -- ./inp_files/58326.got.cif
#   From: 2010.05.17/outbox.cif.g08.bks.cpg/sg10_30_cif.got.tgz:58326.got - 2010.06.03 11:33:40.
