data_PCOD9143467
_publ_section_title
;
Structure prediction by ZEFSAII (Michael W. Deem and Ramdas Pophale) SiO2 
 PCOD9143467
Probable space group: P 2/M
;
_chemical_formula_sum "Si O2"
_cell_formula_units_Z 29
_cell_length_a 12.061202
_cell_length_b 7.466382
_cell_length_c 16.677818
_cell_angle_alpha 90.000000
_cell_angle_beta 125.187819
_cell_angle_gamma 90.000000
_cell_volume 1227.451152
_symmetry_space_group_name_H-M "P 2/M"
_symmetry_group_IT_number 10
_symmetry_cell_setting 'monoclinic'
loop_
_space_group_symop_operation_xyz
x,y,z
-x,y,-z
-x,-y,-z
x,-y,z
loop_
_atom_site_type_symbol
_atom_site_label
_atom_site_fract_x
_atom_site_fract_y
_atom_site_fract_z
Si Si1 0.312819 0.800954 0.275996
Si Si2 0.529782 0.289394 0.817904
Si Si3 0.305568 0.218355 0.454047
Si Si4 0.728886 0.718953 0.041457
Si Si5 0.743379 0.284160 0.228816
Si Si6 0.980125 0.290426 0.896843
Si Si7 0.500000 0.500000 0.500000
Si Si8 0.029571 0.209819 0.424684
O O1 0.398781 0.727513 0.237892
O O2 0.297035 0.717614 0.357367
O O3 0.157619 0.805499 0.182124
O O4 0.366521 0.000000 0.311996
O O5 0.519257 0.500000 0.830266
O O6 0.375944 0.220217 0.761427
O O7 0.626772 0.217194 0.929595
O O8 0.432119 0.340258 0.530797
O O9 0.166698 0.274423 0.439522
O O10 0.321642 0.000000 0.466058
O O11 0.728696 0.500000 0.037729
O O12 0.698878 0.769259 0.120377
O O13 0.882479 0.776282 0.086437
O O14 0.751046 0.500000 0.233355
O O15 0.893861 0.224624 0.315238
O O16 0.962101 0.500000 0.867543
O O17 0.000000 0.281482 0.000000
O O18 0.000000 0.289722 0.500000
O O19 0.056780 0.000000 0.447766
#
# Coordination Sequence:
#
# PCOD9143467 Si02
#       8
#     4   4   4   4   4   4   1   4
#     4  11  23  38  58  87 131 170 206 265 325 387
#     4  10  20  36  57  87 128 169 216 263 310 385
#     4  10  25  47  69 104 139 168 218 274 332 405
#     4   9  17  33  56  85 124 165 205 259 323 374
#     4  10  21  36  61  93 121 160 217 271 318 381
#     4  10  18  31  55  84 116 159 209 257 302 370
#     4  12  26  44  78 102 126 184 210 270 344 402
#     4  10  23  46  71  92 127 172 211 271 342 396
#
# _framework density 23.626194000000002
#
# number of rings (size 3 to 8) (size 9 to 14) (size 15 to 20)
#    0.000    1.931    1.379    1.862    2.897    3.862 
#    2.483    3.448    0.000    1.655    0.000    0.000 
#    0.000    0.000    0.000    0.000    0.000    0.000 
#
# Total GULP energy -161702.144477 kJ/mol
# GULP energy per Si atom -5575.936016 kJ/mol
# Density = 2.357242 g / cm^3
# Si number density = 23.626194 Si / 1000 Ang^3
#
#
#
# Elastic Constant Matrix: (Units=GPa)
#
#
# Indices 1 2 3 4 5 6 
#
# 1 218.9833 24.3379 48.7080 0.0000 5.0932 0.0000
# 2 24.3379 73.4537 5.5854 0.0000 -4.5534 0.0000
# 3 48.7080 5.5854 77.4019 0.0000 -6.4922 0.0000
# 4 0.0000 0.0000 0.0000 11.7509 0.0000 0.9401
# 5 5.0932 -4.5534 -6.4922 0.0000 23.5111 0.0000
# 6 0.0000 0.0000 0.0000 0.9401 0.0000 5.1399
#
#
#
# Elastic Compliance Matrix: (Units=1/GPa)
#
#
# Indices 1 2 3 4 5 6 
#
# 1 0.005628 -0.001747 -0.003630 0.000000 -0.002560 0.000000
# 2 -0.001747 0.014369 0.000336 0.000000 0.003254 0.000000
# 3 -0.003630 0.000336 0.015613 0.000000 0.005163 0.000000
# 4 0.000000 0.000000 0.000000 0.086364 0.000000 -0.015797
# 5 -0.002560 0.003254 0.005163 0.000000 0.045143 0.000000
# 6 0.000000 0.000000 0.000000 -0.015797 0.000000 0.197446
#
#
# Mechanical properties :
#
#
# Convention : Reuss Voigt Hill
#
# Bulk Modulus (GPa) = 39.17568 58.56683 48.87125
# Shear Modulus (GPa) = 13.04956 27.49422 20.27189
#
# Velocity S-wave (km/s) = 2.35273 3.41503 2.93239
# Velocity P-wave (km/s) = 4.89877 6.35552 5.67409
#
# Compressibility (1/GPa) = 0.02552604
#
# Stress axis : x y z
#
# Youngs Moduli (GPa) = 177.69160 69.59341 64.05028
#
# Poissons Ratio (x) = 0.12160 0.23251
# Poissons Ratio (y) = 0.31049 -0.02150
# Poissons Ratio (z) = 0.64503 -0.02336
#
# Static dielectric constant tensor:
#      x y z
#    x 1.908800 0.000000 0.044750 
#    y 0.000000 1.786470 0.000000 
#    z 0.044750 0.000000 2.020250 
# 
# From -- ./inp_files/63964.got.cif
#   From: 2010.05.17/outbox.cif.g08.bks.cpg/sg10_32_cif.got.tgz:63964.got - 2010.06.03 11:33:40.
