data_PCOD9143503
_publ_section_title
;
Structure prediction by ZEFSAII (Michael W. Deem and Ramdas Pophale) SiO2 
 PCOD9143503
Probable space group: P 2/M
;
_chemical_formula_sum "Si O2"
_cell_formula_units_Z 28
_cell_length_a 19.197008
_cell_length_b 14.259974
_cell_length_c 9.789686
_cell_angle_alpha 90.000000
_cell_angle_beta 137.525385
_cell_angle_gamma 90.000000
_cell_volume 1809.648846
_symmetry_space_group_name_H-M "P 2/M"
_symmetry_group_IT_number 10
_symmetry_cell_setting 'monoclinic'
loop_
_space_group_symop_operation_xyz
x,y,z
-x,y,-z
-x,-y,-z
x,-y,z
loop_
_atom_site_type_symbol
_atom_site_label
_atom_site_fract_x
_atom_site_fract_y
_atom_site_fract_z
Si Si1 0.718738 0.710867 0.786210
Si Si2 0.600881 0.108640 0.553285
Si Si3 0.462335 0.890514 0.096895
Si Si4 0.275395 0.610343 0.635097
Si Si5 0.557743 0.389055 0.361456
Si Si6 0.340848 0.286315 0.998372
Si Si7 0.121720 0.611291 0.173932
O O1 0.690672 0.818657 0.713661
O O2 0.621746 0.654092 0.580158
O O3 0.817936 0.671436 0.851568
O O4 0.722256 0.700690 0.953764
O O5 0.500000 0.130563 0.500000
O O6 0.558710 0.119788 0.338951
O O7 0.627782 0.000000 0.616927
O O8 0.431408 0.000000 0.055732
O O9 0.500000 0.865893 0.000000
O O10 0.373129 0.821157 0.017415
O O11 0.274800 0.500000 0.670183
O O12 0.371583 0.625692 0.671048
O O13 0.287859 0.670772 0.788398
O O14 0.175533 0.631048 0.397677
O O15 0.544740 0.500000 0.362253
O O16 0.449375 0.339458 0.180760
O O17 0.140489 0.500000 0.174038
O O18 0.000000 0.627684 0.000000
#
# Coordination Sequence:
#
# PCOD9143503 Si02
#       7
#     4   4   4   4   4   4   4
#     4  11  20  31  48  75  96 131 173 204 248 293
#     4  10  18  32  49  71 107 142 171 200 236 291
#     4  10  20  31  45  68 103 144 176 198 228 278
#     4   9  19  32  48  70  95 130 166 195 244 301
#     4  10  19  30  43  65 103 141 165 188 232 296
#     4  12  20  28  45  73 107 133 159 204 243 289
#     4   9  20  40  59  71  91 126 169 218 265 307
#
# _framework density 15.472614
#
# number of rings (size 3 to 8) (size 9 to 14) (size 15 to 20)
#    0.000    1.857    2.857    3.429    2.000    4.000 
#    0.000    0.714    0.000    3.000    0.000    0.000 
#    0.000    2.286    0.000    0.000    0.000    0.000 
#
# Total GULP energy -156263.576732 kJ/mol
# GULP energy per Si atom -5580.842026 kJ/mol
# Density = 1.543740 g / cm^3
# Si number density = 15.472614 Si / 1000 Ang^3
#
#
#
# Elastic Constant Matrix: (Units=GPa)
#
#
# Indices 1 2 3 4 5 6 
#
# 1 80.4285 49.3833 55.6576 0.0000 -10.9379 0.0000
# 2 49.3833 79.3851 34.1065 0.0000 -2.2799 0.0000
# 3 55.6576 34.1065 60.7625 0.0000 -6.2318 0.0000
# 4 0.0000 0.0000 0.0000 -7.0044 0.0000 19.1657
# 5 -10.9379 -2.2799 -6.2318 0.0000 30.0548 0.0000
# 6 0.0000 0.0000 0.0000 19.1657 0.0000 2.3268
#
#
#
# Elastic Compliance Matrix: (Units=1/GPa)
#
#
# Indices 1 2 3 4 5 6 
#
# 1 0.043635 -0.013309 -0.031646 0.000000 0.008309 0.000000
# 2 -0.013309 0.020673 0.000256 0.000000 -0.003222 0.000000
# 3 -0.031646 0.000256 0.045081 0.000000 -0.002150 0.000000
# 4 0.000000 0.000000 0.000000 -0.006065 0.000000 0.049960
# 5 0.008309 -0.003222 -0.002150 0.000000 0.035606 0.000000
# 6 0.000000 0.000000 0.000000 0.049960 0.000000 0.018258
#
#
# Mechanical properties :
#
#
# Convention : Reuss Voigt Hill
#
# Bulk Modulus (GPa) = 50.02293 55.43008 52.72651
# Shear Modulus (GPa) = 19.74332 10.50401 15.12367
#
# Velocity S-wave (km/s) = 3.57601 2.60835 3.12981
# Velocity P-wave (km/s) = 7.03212 6.70625 6.87111
#
# Compressibility (1/GPa) = 0.01999083
#
# Stress axis : x y z
#
# Youngs Moduli (GPa) = 22.91742 48.37134 22.18245
#
# Poissons Ratio (x) = 0.64378 0.70199
# Poissons Ratio (y) = 0.30501 -0.00569
# Poissons Ratio (z) = 0.72525 -0.01240
#
# Static dielectric constant tensor:
#      x y z
#    x 1.509270 0.000000 -0.028600 
#    y 0.000000 1.537300 0.000000 
#    z -0.028600 0.000000 1.504170 
# 
# From -- ./inp_files/28962.got.cif
#   From: 2010.05.17/outbox.cif.g08.bks.cpg/sg10_15_cif.got.tgz:28962.got - 2010.06.03 11:33:40.
