data_PCOD9143327
_publ_section_title
;
Structure prediction by ZEFSAII (Michael W. Deem and Ramdas Pophale) SiO2 
 PCOD9143327
Probable space group: P 2/M
;
_chemical_formula_sum "Si O2"
_cell_formula_units_Z 32
_cell_length_a 22.205972
_cell_length_b 7.652288
_cell_length_c 28.968693
_cell_angle_alpha 90.000000
_cell_angle_beta 18.892688
_cell_angle_gamma 90.000000
_cell_volume 1593.904820
_symmetry_space_group_name_H-M "P 2/M"
_symmetry_group_IT_number 10
_symmetry_cell_setting 'monoclinic'
loop_
_space_group_symop_operation_xyz
x,y,z
-x,y,-z
-x,-y,-z
x,-y,z
loop_
_atom_site_type_symbol
_atom_site_label
_atom_site_fract_x
_atom_site_fract_y
_atom_site_fract_z
Si Si1 0.589787 0.786007 0.833773
Si Si2 0.819944 0.210286 0.839892
Si Si3 0.009901 0.292651 0.188957
Si Si4 0.998473 0.789099 0.948414
Si Si5 0.085657 0.785715 0.331110
Si Si6 0.701800 0.203497 0.342510
Si Si7 0.684767 0.707076 0.104264
Si Si8 0.700453 0.204473 0.652309
O O1 0.746236 0.735201 0.757127
O O2 0.643748 0.722898 0.743508
O O3 0.584513 0.000000 0.836822
O O4 0.385298 0.725838 0.997010
O O5 0.960203 0.256185 0.779239
O O6 0.878964 0.273678 0.746740
O O7 0.810254 0.000000 0.844653
O O8 0.999167 0.500000 0.189429
O O9 0.830097 0.213493 0.294895
O O10 0.190237 0.226203 0.029513
O O11 0.169351 0.722732 0.792397
O O12 0.011654 0.000000 0.939714
O O13 0.000000 0.726060 0.000000
O O14 0.807877 0.745440 0.059959
O O15 0.888710 0.723102 0.493933
O O16 0.083275 0.000000 0.331944
O O17 0.500000 0.281999 0.500000
O O18 0.670855 0.000000 0.352925
O O19 0.666039 0.500000 0.113174
O O20 0.478515 0.781385 0.250767
O O21 0.738366 0.000000 0.632826
#
# Coordination Sequence:
#
# PCOD9143327 Si02
#       8
#     4   4   4   4   4   4   4   4
#     4   9  16  28  51  77 100 129 168 211 257 306
#     4  10  18  31  52  76 101 132 170 211 255 302
#     4  10  20  34  53  75 102 137 175 211 245 293
#     4   9  18  34  56  80 104 130 164 206 250 297
#     4   9  18  30  47  77 108 129 160 215 267 302
#     4   9  18  34  56  80 104 130 164 206 250 297
#     4  10  20  34  53  75 102 137 175 211 245 293
#     4  10  18  31  52  76 101 132 170 211 255 302
#
# _framework density 20.07648
#
# number of rings (size 3 to 8) (size 9 to 14) (size 15 to 20)
#    0.000    2.500    1.250    1.500    0.000    4.500 
#    2.250    0.625    0.000    4.500    0.000    0.000 
#    0.000    0.000    0.000    0.000    0.000    0.000 
#
# Total GULP energy -178588.671508 kJ/mol
# GULP energy per Si atom -5580.895985 kJ/mol
# Density = 2.003079 g / cm^3
# Si number density = 20.076480 Si / 1000 Ang^3
#
#
#
# Elastic Constant Matrix: (Units=GPa)
#
#
# Indices 1 2 3 4 5 6 
#
# 1 140.3549 -10.9938 67.4238 0.0000 15.3227 0.0000
# 2 -10.9938 37.1916 -0.3919 0.0000 7.4982 0.0000
# 3 67.4238 -0.3919 126.7826 0.0000 5.1012 0.0000
# 4 0.0000 0.0000 0.0000 -34.7652 0.0000 85.4634
# 5 15.3227 7.4982 5.1012 0.0000 26.4699 0.0000
# 6 0.0000 0.0000 0.0000 85.4634 0.0000 -207.2959
#
#
#
# Elastic Compliance Matrix: (Units=1/GPa)
#
#
# Indices 1 2 3 4 5 6 
#
# 1 0.010807 0.004439 -0.005474 0.000000 -0.006458 0.000000
# 2 0.004439 0.030362 -0.001832 0.000000 -0.010817 0.000000
# 3 -0.005474 -0.001832 0.010728 0.000000 0.001620 0.000000
# 4 0.000000 0.000000 0.000000 2.130392 0.000000 0.878312
# 5 -0.006458 -0.010817 0.001620 0.000000 0.044269 0.000000
# 6 0.000000 0.000000 0.000000 0.878312 0.000000 0.357284
#
#
# Mechanical properties :
#
#
# Convention : Reuss Voigt Hill
#
# Bulk Modulus (GPa) = 21.66212 46.26725 33.96468
# Shear Modulus (GPa) = 1.91941 -26.56552 -12.32305
#
# Velocity S-wave (km/s) = 0.97884 -3.64155 -2.48020
# Velocity P-wave (km/s) = 3.47717 2.32688 2.95847
#
# Compressibility (1/GPa) = 0.04616354
#
# Stress axis : x y z
#
# Youngs Moduli (GPa) = 92.53265 32.93645 93.21759
#
# Poissons Ratio (x) = -0.14620 0.51024
# Poissons Ratio (y) = -0.41075 0.17074
# Poissons Ratio (z) = 0.50649 0.06033
#
# Static dielectric constant tensor:
#      x y z
#    x 1.677120 0.000000 0.017130 
#    y 0.000000 1.733210 0.000000 
#    z 0.017130 0.000000 1.707750 
# 
# From -- ./inp_files/86852.got.cif
#   From: 2010.05.17/outbox.cif.g08.bks.cpg/sg10_44_cif.got.tgz:86852.got - 2010.06.03 11:33:40.
