data_PCOD9143597
_publ_section_title
;
Structure prediction by ZEFSAII (Michael W. Deem and Ramdas Pophale) SiO2 
 PCOD9143597
Probable space group: P 2/M
;
_chemical_formula_sum "Si O2"
_cell_formula_units_Z 28
_cell_length_a 15.223749
_cell_length_b 19.005997
_cell_length_c 8.806562
_cell_angle_alpha 90.000000
_cell_angle_beta 149.807287
_cell_angle_gamma 90.000000
_cell_volume 1281.471520
_symmetry_space_group_name_H-M "P 2/M"
_symmetry_group_IT_number 10
_symmetry_cell_setting 'monoclinic'
loop_
_space_group_symop_operation_xyz
x,y,z
-x,y,-z
-x,-y,-z
x,-y,z
loop_
_atom_site_type_symbol
_atom_site_label
_atom_site_fract_x
_atom_site_fract_y
_atom_site_fract_z
Si Si1 0.216670 0.922480 0.148024
Si Si2 0.728894 0.217825 0.165902
Si Si3 0.969414 0.500000 0.137934
Si Si4 0.832091 0.640859 0.857958
Si Si5 0.062992 0.217825 0.834099
Si Si6 0.431354 0.922480 0.148023
Si Si7 0.525866 0.359141 0.857958
Si Si8 0.331481 0.500000 0.862067
O O1 0.319861 0.921767 0.139723
O O2 0.368361 0.915776 0.500001
O O3 0.133534 0.000000 0.036471
O O4 0.091807 0.855320 0.963893
O O5 0.847554 0.207282 0.195108
O O6 0.859329 0.234057 0.500001
O O7 0.627916 0.144680 0.036110
O O8 0.609183 0.284023 0.947044
O O9 0.153597 0.500000 0.500001
O O10 0.866616 0.572432 0.013757
O O11 0.000000 0.500000 0.000000
O O12 0.655352 0.630681 0.500000
O O13 0.837860 0.715976 0.947043
O O14 0.000000 0.644116 0.000000
O O15 0.402936 0.000000 0.036469
O O16 0.500000 0.355885 0.000000
O O17 0.647140 0.427568 0.013756
O O18 0.500000 0.500000 0.000000
#
# Coordination Sequence:
#
# PCOD9143597 Si02
#       8
#     4   4   2   4   4   4   4   2
#     4   8  14  26  45  69  97 130 168 207 246 291
#     4  10  20  33  50  75 106 136 168 208 253 298
#     4  10  18  32  53  76 101 128 165 207 247 293
#     4  11  21  35  55  77 102 132 169 208 249 298
#     4  10  20  33  50  75 106 136 168 208 253 298
#     4   8  14  26  45  69  97 130 168 207 246 291
#     4  11  21  35  55  77 102 132 169 208 249 298
#     4  10  18  32  53  76 101 128 165 207 247 293
#
# _framework density 21.849879999999999
#
# number of rings (size 3 to 8) (size 9 to 14) (size 15 to 20)
#    0.000    2.286    0.000    7.286    0.000    2.286 
#    0.000    3.571    0.000    5.143    0.000    0.000 
#    0.000    0.000    0.000    0.000    0.000    0.000 
#
# Total GULP energy -156265.699869 kJ/mol
# GULP energy per Si atom -5580.917852 kJ/mol
# Density = 2.180015 g / cm^3
# Si number density = 21.849880 Si / 1000 Ang^3
#
#
#
# Elastic Constant Matrix: (Units=GPa)
#
#
# Indices 1 2 3 4 5 6 
#
# 1 29.1469 9.7911 7.9412 0.0000 -0.3550 0.0000
# 2 9.7911 193.7202 88.0437 0.0000 -5.9824 0.0000
# 3 7.9412 88.0437 180.9030 0.0000 -11.2461 0.0000
# 4 0.0000 0.0000 0.0000 47.5209 0.0000 -2.9284
# 5 -0.3550 -5.9824 -11.2461 0.0000 13.7587 0.0000
# 6 0.0000 0.0000 0.0000 -2.9284 0.0000 9.2054
#
#
#
# Elastic Compliance Matrix: (Units=1/GPa)
#
#
# Indices 1 2 3 4 5 6 
#
# 1 0.035010 -0.001377 -0.000893 0.000000 -0.000425 0.000000
# 2 -0.001377 0.006683 -0.003175 0.000000 0.000275 0.000000
# 3 -0.000893 -0.003175 0.007401 0.000000 0.004646 0.000000
# 4 0.000000 0.000000 0.000000 0.021464 0.000000 0.006828
# 5 -0.000425 0.000275 0.004646 0.000000 0.076588 0.000000
# 6 0.000000 0.000000 0.000000 0.006828 0.000000 0.110804
#
#
# Mechanical properties :
#
#
# Convention : Reuss Voigt Hill
#
# Bulk Modulus (GPa) = 26.17531 68.36911 47.27221
# Shear Modulus (GPa) = 17.75726 33.96326 25.86026
#
# Velocity S-wave (km/s) = 2.85387 3.94685 3.44400
# Velocity P-wave (km/s) = 4.78174 7.22001 6.12346
#
# Compressibility (1/GPa) = 0.03820394
#
# Stress axis : x y z
#
# Youngs Moduli (GPa) = 28.56356 149.62857 135.11392
#
# Poissons Ratio (x) = 0.20598 0.12070
# Poissons Ratio (y) = 0.03932 0.42900
# Poissons Ratio (z) = 0.02552 0.47509
#
# Static dielectric constant tensor:
#      x y z
#    x 1.868420 0.000000 0.006200 
#    y 0.000000 1.856350 0.000000 
#    z 0.006200 0.000000 1.787320 
# 
# From -- ./inp_files/56132.got.cif
#   From: 2010.05.17/outbox.cif.g08.bks.cpg/sg10_29_cif.got.tgz:56132.got - 2010.06.03 11:33:40.
