data_PCOD9143714
_publ_section_title
;
Structure prediction by ZEFSAII (Michael W. Deem and Ramdas Pophale) SiO2 
 PCOD9143714
Probable space group: P 2/M
;
_chemical_formula_sum "Si O2"
_cell_formula_units_Z 26
_cell_length_a 17.965695
_cell_length_b 13.266928
_cell_length_c 7.313450
_cell_angle_alpha 90.000000
_cell_angle_beta 138.010525
_cell_angle_gamma 90.000000
_cell_volume 1166.162220
_symmetry_space_group_name_H-M "P 2/M"
_symmetry_group_IT_number 10
_symmetry_cell_setting 'monoclinic'
loop_
_space_group_symop_operation_xyz
x,y,z
-x,y,-z
-x,-y,-z
x,-y,z
loop_
_atom_site_type_symbol
_atom_site_label
_atom_site_fract_x
_atom_site_fract_y
_atom_site_fract_z
Si Si1 0.657670 0.882529 0.365745
Si Si2 0.901805 0.102769 0.965736
Si Si3 0.278656 0.273486 0.812013
Si Si4 0.984958 0.500000 0.692919
Si Si5 0.616911 0.723862 0.608198
Si Si6 0.723815 0.500000 0.192721
Si Si7 0.985620 0.291303 0.686055
Si Si8 0.378303 0.500000 0.376957
O O1 0.787017 0.892077 0.652347
O O2 0.656465 0.813942 0.180324
O O3 0.614419 0.812023 0.453065
O O4 0.617181 0.000000 0.279925
O O5 0.902541 0.000000 0.083131
O O6 0.000000 0.096907 0.000000
O O7 0.930957 0.203108 0.119053
O O8 0.320385 0.387861 0.837484
O O9 0.145911 0.270088 0.521743
O O10 0.297038 0.260975 0.064661
O O11 0.852447 0.500000 0.479755
O O12 0.027376 0.395594 0.849395
O O13 0.000000 0.500000 0.500000
O O14 0.500000 0.722703 0.500000
O O15 0.633163 0.610604 0.553662
O O16 0.711414 0.500000 0.950147
O O17 0.000000 0.306045 0.500000
O O18 0.500000 0.500000 0.500000
#
# Coordination Sequence:
#
# PCOD9143714 Si02
#       8
#     4   4   4   2   4   2   4   2
#     4  11  24  40  60  86 116 156 200 241 291 345
#     4  10  20  36  54  76 110 145 185 237 278 321
#     4  10  20  37  59  85 118 153 191 239 291 348
#     4   8  16  28  45  75 112 145 179 222 275 341
#     4  10  22  41  64  90 118 150 193 243 293 350
#     4   8  16  31  54  83 113 147 189 233 284 345
#     4  10  18  32  55  80 110 149 187 228 284 342
#     4   8  16  35  62  88 114 144 183 238 299 346
#
# _framework density 22.295355000000001
#
# number of rings (size 3 to 8) (size 9 to 14) (size 15 to 20)
#    0.000    2.308    1.538    0.923    0.000    3.692 
#    0.000    1.923    0.000    5.538    0.000    0.000 
#    0.000    0.000    0.000    0.000    0.000    0.000 
#
# Total GULP energy -144744.084343 kJ/mol
# GULP energy per Si atom -5567.080167 kJ/mol
# Density = 2.224461 g / cm^3
# Si number density = 22.295355 Si / 1000 Ang^3
#
#
#
# Elastic Constant Matrix: (Units=GPa)
#
#
# Indices 1 2 3 4 5 6 
#
# 1 58.6849 46.7538 12.0385 0.0000 -13.8930 0.0000
# 2 46.7538 243.6801 40.0838 0.0000 -22.2078 0.0000
# 3 12.0385 40.0838 51.5652 0.0000 10.5815 0.0000
# 4 0.0000 0.0000 0.0000 21.2476 0.0000 -7.2549
# 5 -13.8930 -22.2078 10.5815 0.0000 31.6029 0.0000
# 6 0.0000 0.0000 0.0000 -7.2549 0.0000 96.3413
#
#
#
# Elastic Compliance Matrix: (Units=1/GPa)
#
#
# Indices 1 2 3 4 5 6 
#
# 1 0.022492 -0.002544 -0.005300 0.000000 0.009875 0.000000
# 2 -0.002544 0.005811 -0.004866 0.000000 0.004595 0.000000
# 3 -0.005300 -0.004866 0.027481 0.000000 -0.014951 0.000000
# 4 0.000000 0.000000 0.000000 0.048306 0.000000 0.003638
# 5 0.009875 0.004595 -0.014951 0.000000 0.044218 0.000000
# 6 0.000000 0.000000 0.000000 0.003638 0.000000 0.010654
#
#
# Mechanical properties :
#
#
# Convention : Reuss Voigt Hill
#
# Bulk Modulus (GPa) = 32.93377 61.29805 47.11591
# Shear Modulus (GPa) = 25.70662 46.84196 36.27429
#
# Velocity S-wave (km/s) = 3.39927 4.58861 4.03797
# Velocity P-wave (km/s) = 5.49640 7.45836 6.55124
#
# Compressibility (1/GPa) = 0.03036397
#
# Stress axis : x y z
#
# Youngs Moduli (GPa) = 44.46109 172.08953 36.38889
#
# Poissons Ratio (x) = 0.43773 0.19286
# Poissons Ratio (y) = 0.11309 0.17707
# Poissons Ratio (z) = 0.23565 0.83740
#
# Static dielectric constant tensor:
#      x y z
#    x 1.737500 0.000000 0.006470 
#    y 0.000000 2.466560 0.000000 
#    z 0.006470 0.000000 1.855640 
# 
# From -- ./inp_files/36074.got.cif
#   From: 2010.05.17/outbox.cif.g08.bks.cpg/sg10_19_cif.got.tgz:36074.got - 2010.06.03 11:33:40.
