data_PCOD9143404
_publ_section_title
;
Structure prediction by ZEFSAII (Michael W. Deem and Ramdas Pophale) SiO2 
 PCOD9143404
Probable space group: P 2/M
;
_chemical_formula_sum "Si O2"
_cell_formula_units_Z 32
_cell_length_a 19.916609
_cell_length_b 8.654574
_cell_length_c 11.365601
_cell_angle_alpha 90.000000
_cell_angle_beta 119.846785
_cell_angle_gamma 90.000000
_cell_volume 1699.231568
_symmetry_space_group_name_H-M "P 2/M"
_symmetry_group_IT_number 10
_symmetry_cell_setting 'monoclinic'
loop_
_space_group_symop_operation_xyz
x,y,z
-x,y,-z
-x,-y,-z
x,-y,z
loop_
_atom_site_type_symbol
_atom_site_label
_atom_site_fract_x
_atom_site_fract_y
_atom_site_fract_z
Si Si1 0.928025 0.817102 0.579214
Si Si2 0.089322 0.681347 0.694713
Si Si3 0.365653 0.682398 0.188823
Si Si4 0.470767 0.686280 0.752098
Si Si5 0.666217 0.317590 0.207655
Si Si6 0.238451 0.816770 0.495362
Si Si7 0.758571 0.180281 0.072953
Si Si8 0.376589 0.818277 0.449920
O O1 0.906551 0.772124 0.425935
O O2 0.852223 0.780454 0.589659
O O3 0.006581 0.727571 0.676887
O O4 0.942970 0.000000 0.597654
O O5 0.091104 0.500000 0.670520
O O6 0.162068 0.728335 0.836688
O O7 0.352669 0.500000 0.165250
O O8 0.438934 0.725659 0.170646
O O9 0.388448 0.724044 0.341594
O O10 0.289099 0.771783 0.083550
O O11 0.464665 0.500000 0.734060
O O12 0.419135 0.727584 0.820417
O O13 0.431487 0.763498 0.603926
O O14 0.666572 0.500000 0.179737
O O15 0.721791 0.283012 0.367487
O O16 0.701738 0.225206 0.130856
O O17 0.289524 0.794834 0.423674
O O18 0.245112 0.000000 0.533267
O O19 0.775578 0.000000 0.089456
O O20 0.388852 0.000000 0.438481
#
# Coordination Sequence:
#
# PCOD9143404 Si02
#       8
#     4   4   4   4   4   4   4   4
#     4  10  18  31  53  81 112 144 176 214 262 313
#     4  11  21  33  51  79 111 143 177 217 261 315
#     4  11  23  39  56  76 104 143 186 224 268 321
#     4   9  20  37  57  80 107 139 177 224 273 319
#     4  10  19  33  54  79 107 140 177 218 267 320
#     4   9  18  32  53  80 112 143 174 216 266 315
#     4  12  24  38  54  75 108 145 180 220 269 326
#     4  10  20  35  56  83 110 139 179 226 269 311
#
# _framework density 18.832041
#
# number of rings (size 3 to 8) (size 9 to 14) (size 15 to 20)
#    0.000    1.750    1.250    4.875    0.000    4.500 
#    0.000    2.500    0.000    0.750    0.000    5.250 
#    0.000    0.000    0.000    0.000    0.000    0.000 
#
# Total GULP energy -178729.235846 kJ/mol
# GULP energy per Si atom -5585.288620 kJ/mol
# Density = 1.878918 g / cm^3
# Si number density = 18.832041 Si / 1000 Ang^3
#
#
#
# Elastic Constant Matrix: (Units=GPa)
#
#
# Indices 1 2 3 4 5 6 
#
# 1 81.1879 10.8223 6.9586 0.0000 23.9167 0.0000
# 2 10.8223 30.1490 2.0835 0.0000 3.7725 0.0000
# 3 6.9586 2.0835 27.0624 0.0000 16.0579 0.0000
# 4 0.0000 0.0000 0.0000 16.3648 0.0000 2.3821
# 5 23.9167 3.7725 16.0579 0.0000 25.0456 0.0000
# 6 0.0000 0.0000 0.0000 2.3821 0.0000 25.9216
#
#
#
# Elastic Compliance Matrix: (Units=1/GPa)
#
#
# Indices 1 2 3 4 5 6 
#
# 1 0.019054 -0.004544 0.009427 0.000000 -0.023554 0.000000
# 2 -0.004544 0.034897 -0.001572 0.000000 0.000090 0.000000
# 3 0.009427 -0.001572 0.064319 0.000000 -0.050003 0.000000
# 4 0.000000 0.000000 0.000000 0.061935 0.000000 -0.005692
# 5 -0.023554 0.000090 -0.050003 0.000000 0.094466 0.000000
# 6 0.000000 0.000000 0.000000 -0.005692 0.000000 0.039101
#
#
# Mechanical properties :
#
#
# Convention : Reuss Voigt Hill
#
# Bulk Modulus (GPa) = 8.00688 19.79199 13.89943
# Shear Modulus (GPa) = 14.33570 21.36873 17.85222
#
# Velocity S-wave (km/s) = 2.76205 3.37219 3.08225
# Velocity P-wave (km/s) = 3.79906 5.06900 4.47926
#
# Compressibility (1/GPa) = 0.12489266
#
# Stress axis : x y z
#
# Youngs Moduli (GPa) = 52.48365 28.65581 15.54747
#
# Poissons Ratio (x) = 0.13020 -0.14657
# Poissons Ratio (y) = 0.23846 0.02444
# Poissons Ratio (z) = -0.49476 0.04504
#
# Static dielectric constant tensor:
#      x y z
#    x 1.684820 0.000000 0.009260 
#    y 0.000000 1.632160 0.000000 
#    z 0.009260 0.000000 1.629270 
# 
# From -- ./inp_files/54928.got.cif
#   From: 2010.05.17/outbox.cif.g08.bks.cpg/sg10_28_cif.got.tgz:54928.got - 2010.06.03 11:33:40.
