data_PCOD9143811
_publ_section_title
;
Structure prediction by ZEFSAII (Michael W. Deem and Ramdas Pophale) SiO2 
 PCOD9143811
Probable space group: P 2/M
;
_chemical_formula_sum "Si O2"
_cell_formula_units_Z 32
_cell_length_a 13.827016
_cell_length_b 18.981095
_cell_length_c 14.294351
_cell_angle_alpha 90.000000
_cell_angle_beta 148.559436
_cell_angle_gamma 90.000000
_cell_volume 1956.875690
_symmetry_space_group_name_H-M "P 2/M"
_symmetry_group_IT_number 10
_symmetry_cell_setting 'monoclinic'
loop_
_space_group_symop_operation_xyz
x,y,z
-x,y,-z
-x,-y,-z
x,-y,z
loop_
_atom_site_type_symbol
_atom_site_label
_atom_site_fract_x
_atom_site_fract_y
_atom_site_fract_z
Si Si1 0.711399 0.692513 0.823122
Si Si2 0.583918 0.580269 0.463679
Si Si3 0.885114 0.078805 0.500104
Si Si4 0.191608 0.083688 0.014350
Si Si5 0.870043 0.162055 0.661400
Si Si6 0.539112 0.160473 0.641743
Si Si7 0.108450 0.314099 0.235812
Si Si8 0.528392 0.082242 0.919091
O O1 0.563138 0.630040 0.710043
O O2 0.605515 0.766714 0.744506
O O3 0.794302 0.695333 0.785655
O O4 0.889220 0.680583 0.035471
O O5 0.500000 0.577907 0.500000
O O6 0.595508 0.500000 0.439557
O O7 0.782270 0.619441 0.631315
O O8 0.944114 0.137925 0.621991
O O9 0.671246 0.084918 0.294593
O O10 0.000000 0.083169 0.500000
O O11 0.915998 0.000000 0.566521
O O12 0.302393 0.105796 0.198822
O O13 0.320852 0.107406 0.032360
O O14 0.165969 0.000000 0.989963
O O15 0.999511 0.124966 0.844893
O O16 0.659882 0.134654 0.487633
O O17 0.860988 0.244366 0.677488
O O18 0.500000 0.173009 0.500000
O O19 0.579930 0.000000 0.976923
O O20 0.500000 0.113697 0.000000
#
# Coordination Sequence:
#
# PCOD9143811 Si02
#       8
#     4   4   4   4   4   4   4   4
#     4  10  18  33  50  71  98 139 174 206 249 302
#     4   9  17  30  48  75 105 132 166 207 246 294
#     4  10  20  34  53  76 100 129 167 215 273 325
#     4  11  24  37  50  72  97 127 174 227 269 307
#     4  12  21  34  56  75  98 134 174 218 258 318
#     4  12  22  36  55  69  96 137 181 216 261 309
#     4  10  19  30  52  73  98 135 175 204 248 302
#     4   9  17  32  51  70  94 121 154 205 266 323
#
# _framework density 16.352596999999999
#
# number of rings (size 3 to 8) (size 9 to 14) (size 15 to 20)
#    0.000    1.625    5.000    1.500    0.000    3.750 
#    0.000    3.125    0.000    0.000    0.000    0.000 
#    0.000    0.500    0.000    1.125    0.000    0.125 
#
# Total GULP energy -178368.850875 kJ/mol
# GULP energy per Si atom -5574.026590 kJ/mol
# Density = 1.631538 g / cm^3
# Si number density = 16.352597 Si / 1000 Ang^3
#
#
#
# Elastic Constant Matrix: (Units=GPa)
#
#
# Indices 1 2 3 4 5 6 
#
# 1 25.9991 20.6635 22.8066 0.0000 2.7136 0.0000
# 2 20.6635 84.5192 34.0804 0.0000 -0.4034 0.0000
# 3 22.8066 34.0804 98.7862 0.0000 11.6930 0.0000
# 4 0.0000 0.0000 0.0000 18.5634 0.0000 6.5428
# 5 2.7136 -0.4034 11.6930 0.0000 23.5393 0.0000
# 6 0.0000 0.0000 0.0000 6.5428 0.0000 7.6950
#
#
#
# Elastic Compliance Matrix: (Units=1/GPa)
#
#
# Indices 1 2 3 4 5 6 
#
# 1 0.054187 -0.009649 -0.008948 0.000000 -0.001967 0.000000
# 2 -0.009649 0.015632 -0.003536 0.000000 0.003137 0.000000
# 3 -0.008948 -0.003536 0.014124 0.000000 -0.006045 0.000000
# 4 0.000000 0.000000 0.000000 0.076921 0.000000 -0.065403
# 5 -0.001967 0.003137 -0.006045 0.000000 0.045766 0.000000
# 6 0.000000 0.000000 0.000000 -0.065403 0.000000 0.185564
#
#
# Mechanical properties :
#
#
# Convention : Reuss Voigt Hill
#
# Bulk Modulus (GPa) = 25.20474 40.48952 32.84713
# Shear Modulus (GPa) = 11.11888 18.74314 14.93101
#
# Velocity S-wave (km/s) = 2.61041 3.38921 3.02498
# Velocity P-wave (km/s) = 4.95302 6.33480 5.68604
#
# Compressibility (1/GPa) = 0.03967508
#
# Stress axis : x y z
#
# Youngs Moduli (GPa) = 18.45478 63.97302 70.79963
#
# Poissons Ratio (x) = 0.61727 0.63354
# Poissons Ratio (y) = 0.17807 0.25038
# Poissons Ratio (z) = 0.16514 0.22624
#
# Static dielectric constant tensor:
#      x y z
#    x 1.589520 0.000000 0.006430 
#    y 0.000000 1.533230 0.000000 
#    z 0.006430 0.000000 1.583160 
# 
# From -- ./inp_files/67744.got.cif
#   From: 2010.05.17/outbox.cif.g08.bks.cpg/sg10_34_cif.got.tgz:67744.got - 2010.06.03 11:33:40.
