data_PCOD9143812
_publ_section_title
;
Structure prediction by ZEFSAII (Michael W. Deem and Ramdas Pophale) SiO2 
 PCOD9143812
Probable space group: P 2/M
;
_chemical_formula_sum "Si O2"
_cell_formula_units_Z 32
_cell_length_a 8.924374
_cell_length_b 14.385670
_cell_length_c 26.149918
_cell_angle_alpha 90.000000
_cell_angle_beta 31.278722
_cell_angle_gamma 90.000000
_cell_volume 1743.068035
_symmetry_space_group_name_H-M "P 2/M"
_symmetry_group_IT_number 10
_symmetry_cell_setting 'monoclinic'
loop_
_space_group_symop_operation_xyz
x,y,z
-x,y,-z
-x,-y,-z
x,-y,z
loop_
_atom_site_type_symbol
_atom_site_label
_atom_site_fract_x
_atom_site_fract_y
_atom_site_fract_z
Si Si1 0.836130 0.733990 0.909541
Si Si2 0.244517 0.779333 0.530921
Si Si3 0.454712 0.108179 0.634448
Si Si4 0.631057 0.241034 0.765888
Si Si5 0.531658 0.397978 0.429647
Si Si6 0.288886 0.891184 0.797104
Si Si7 0.002687 0.269361 0.250455
Si Si8 0.862135 0.390275 0.096642
O O1 0.952680 0.702148 0.820556
O O2 0.001888 0.829708 0.873966
O O3 0.920272 0.657882 0.926967
O O4 0.500000 0.748869 0.000000
O O5 0.500000 0.790879 0.500000
O O6 0.280176 0.860814 0.478956
O O7 0.310250 0.683923 0.480934
O O8 0.939704 0.767027 0.647311
O O9 0.472484 0.121756 0.690640
O O10 0.200013 0.177876 0.691029
O O11 0.387781 0.000000 0.645349
O O12 0.453585 0.153379 0.796914
O O13 0.710038 0.244386 0.802537
O O14 0.435660 0.331666 0.811596
O O15 0.500000 0.405823 0.500000
O O16 0.488752 0.500000 0.419715
O O17 0.839651 0.353762 0.326151
O O18 0.233158 0.000000 0.819116
O O19 0.820820 0.500000 0.118082
O O20 0.000000 0.379165 0.000000
#
# Coordination Sequence:
#
# PCOD9143812 Si02
#       8
#     4   4   4   4   4   4   4   4
#     4  10  21  39  65  86 112 151 189 249 297 347
#     4  10  18  33  50  82 115 151 201 244 285 341
#     4   9  18  34  53  77 114 155 198 244 288 336
#     4  11  20  35  57  83 118 154 188 237 295 344
#     4   9  16  29  49  75 110 145 185 233 277 329
#     4   9  21  38  56  83 117 155 197 239 293 357
#     4  10  19  34  55  85 115 147 199 239 288 343
#     4  10  23  42  62  88 120 151 189 238 296 358
#
# _framework density 18.358433000000002
#
# number of rings (size 3 to 8) (size 9 to 14) (size 15 to 20)
#    0.000    2.250    3.750    0.750    0.000    3.750 
#    0.000    1.250    0.000   12.750    0.000    7.000 
#    0.000    0.000    0.000    0.000    0.000    0.000 
#
# Total GULP energy -178214.598057 kJ/mol
# GULP energy per Si atom -5569.206189 kJ/mol
# Density = 1.831665 g / cm^3
# Si number density = 18.358433 Si / 1000 Ang^3
#
#
#
# Elastic Constant Matrix: (Units=GPa)
#
#
# Indices 1 2 3 4 5 6 
#
# 1 98.3287 47.5140 30.5773 0.0000 1.6453 0.0000
# 2 47.5140 118.8028 33.4033 0.0000 12.8266 0.0000
# 3 30.5773 33.4033 78.2077 0.0000 -3.5902 0.0000
# 4 0.0000 0.0000 0.0000 20.0476 0.0000 16.6279
# 5 1.6453 12.8266 -3.5902 0.0000 24.7230 0.0000
# 6 0.0000 0.0000 0.0000 16.6279 0.0000 30.5146
#
#
#
# Elastic Compliance Matrix: (Units=1/GPa)
#
#
# Indices 1 2 3 4 5 6 
#
# 1 0.013352 -0.004538 -0.003237 0.000000 0.000996 0.000000
# 2 -0.004538 0.011944 -0.003622 0.000000 -0.006420 0.000000
# 3 -0.003237 -0.003622 0.015800 0.000000 0.004389 0.000000
# 4 0.000000 0.000000 0.000000 0.091018 0.000000 -0.049597
# 5 0.000996 -0.006420 0.004389 0.000000 0.044350 0.000000
# 6 0.000000 0.000000 0.000000 -0.049597 0.000000 0.059798
#
#
# Mechanical properties :
#
#
# Convention : Reuss Voigt Hill
#
# Bulk Modulus (GPa) = 54.63284 57.59206 56.11245
# Shear Modulus (GPa) = 18.85678 27.31335 23.08507
#
# Velocity S-wave (km/s) = 3.20839 3.86136 3.54992
# Velocity P-wave (km/s) = 6.59914 7.16374 6.88723
#
# Compressibility (1/GPa) = 0.01830401
#
# Stress axis : x y z
#
# Youngs Moduli (GPa) = 74.89237 83.72667 63.28962
#
# Poissons Ratio (x) = 0.37992 0.20485
# Poissons Ratio (y) = 0.33983 0.22923
# Poissons Ratio (z) = 0.24241 0.30325
#
# Static dielectric constant tensor:
#      x y z
#    x 1.651880 0.000000 0.015900 
#    y 0.000000 1.624780 0.000000 
#    z 0.015900 0.000000 1.680550 
# 
# From -- ./inp_files/92368.got.cif
#   From: 2010.05.17/outbox.cif.g08.bks.cpg/sg10_47_cif.got.tgz:92368.got - 2010.06.03 11:33:40.
