data_PCOD9143696
_publ_section_title
;
Structure prediction by ZEFSAII (Michael W. Deem and Ramdas Pophale) SiO2 
 PCOD9143696
Probable space group: P 2/M
;
_chemical_formula_sum "Si O2"
_cell_formula_units_Z 32
_cell_length_a 23.740132
_cell_length_b 7.625440
_cell_length_c 12.562005
_cell_angle_alpha 90.000000
_cell_angle_beta 135.768018
_cell_angle_gamma 90.000000
_cell_volume 1586.323601
_symmetry_space_group_name_H-M "P 2/M"
_symmetry_group_IT_number 10
_symmetry_cell_setting 'monoclinic'
loop_
_space_group_symop_operation_xyz
x,y,z
-x,y,-z
-x,-y,-z
x,-y,z
loop_
_atom_site_type_symbol
_atom_site_label
_atom_site_fract_x
_atom_site_fract_y
_atom_site_fract_z
Si Si1 0.996727 0.212786 0.617464
Si Si2 0.182035 0.295816 0.602322
Si Si3 0.743667 0.704509 0.079462
Si Si4 0.905799 0.784903 0.882501
Si Si5 0.402808 0.215070 0.752203
Si Si6 0.760374 0.198429 0.541511
Si Si7 0.853090 0.792778 0.043011
Si Si8 0.584816 0.211381 0.985693
O O1 0.912586 0.279862 0.547050
O O2 0.000000 0.268820 0.500000
O O3 0.073944 0.277333 0.785780
O O4 0.995204 0.000000 0.618587
O O5 0.206355 0.500000 0.630984
O O6 0.204211 0.222835 0.749506
O O7 0.223818 0.195481 0.563303
O O8 0.761282 0.500000 0.099322
O O9 0.772398 0.771564 0.003727
O O10 0.651795 0.731073 0.992048
O O11 0.840292 0.725432 0.705437
O O12 0.909448 0.000000 0.881417
O O13 0.866429 0.727640 0.941586
O O14 0.000000 0.728073 0.000000
O O15 0.329412 0.279083 0.578730
O O16 0.394508 0.269938 0.865299
O O17 0.400259 0.000000 0.748377
O O18 0.492837 0.267009 0.838994
O O19 0.753518 0.000000 0.574554
O O20 0.865702 0.000000 0.050728
O O21 0.585907 0.000000 0.989077
#
# Coordination Sequence:
#
# PCOD9143696 Si02
#       8
#     4   4   4   4   4   4   4   4
#     4  10  19  31  49  70  92 126 169 206 245 298
#     4  11  22  32  45  71 106 136 164 203 252 299
#     4  11  22  33  47  73 107 138 166 202 251 306
#     4   9  18  33  54  79 103 128 165 215 255 287
#     4   8  15  27  49  78 102 129 165 208 252 299
#     4  10  18  32  55  76  99 132 171 208 248 300
#     4  10  20  35  54  75  99 131 171 211 255 301
#     4   9  16  30  50  74 104 132 164 205 255 305
#
# _framework density 20.172428
#
# number of rings (size 3 to 8) (size 9 to 14) (size 15 to 20)
#    0.000    2.250    2.500    2.250    0.000    3.750 
#    0.000    2.500    0.000    2.250    0.000    5.250 
#    0.000    0.000    0.000    0.000    0.000    0.000 
#
# Total GULP energy -178397.876828 kJ/mol
# GULP energy per Si atom -5574.933651 kJ/mol
# Density = 2.012651 g / cm^3
# Si number density = 20.172428 Si / 1000 Ang^3
#
#
#
# Elastic Constant Matrix: (Units=GPa)
#
#
# Indices 1 2 3 4 5 6 
#
# 1 130.7185 -7.0682 61.0058 0.0000 15.2905 0.0000
# 2 -7.0682 38.1975 2.6714 0.0000 -2.7723 0.0000
# 3 61.0058 2.6714 119.2806 0.0000 22.4580 0.0000
# 4 0.0000 0.0000 0.0000 10.2379 0.0000 31.1584
# 5 15.2905 -2.7723 22.4580 0.0000 37.0273 0.0000
# 6 0.0000 0.0000 0.0000 31.1584 0.0000 71.0252
#
#
#
# Elastic Compliance Matrix: (Units=1/GPa)
#
#
# Indices 1 2 3 4 5 6 
#
# 1 0.010271 0.002188 -0.005119 0.000000 -0.000973 0.000000
# 2 0.002188 0.026914 -0.002180 0.000000 0.002434 0.000000
# 3 -0.005119 -0.002180 0.012061 0.000000 -0.005364 0.000000
# 4 0.000000 0.000000 0.000000 -0.291451 0.000000 0.127858
# 5 -0.000973 0.002434 -0.005364 0.000000 0.030845 0.000000
# 6 0.000000 0.000000 0.000000 0.127858 0.000000 -0.042011
#
#
# Mechanical properties :
#
#
# Convention : Reuss Voigt Hill
#
# Bulk Modulus (GPa) = 25.62569 44.60162 35.11365
# Shear Modulus (GPa) = -21.72566 39.09725 8.68580
#
# Velocity S-wave (km/s) = -3.28532 4.40722 2.07729
# Velocity P-wave (km/s) = 1.28850 6.93227 4.81643
#
# Compressibility (1/GPa) = 0.03902334
#
# Stress axis : x y z
#
# Youngs Moduli (GPa) = 97.36012 37.15577 82.91526
#
# Poissons Ratio (x) = -0.08130 0.42444
# Poissons Ratio (y) = -0.21302 0.18076
# Poissons Ratio (z) = 0.49839 0.08100
#
# Static dielectric constant tensor:
#      x y z
#    x 1.749810 0.000000 0.022890 
#    y 0.000000 1.740220 0.000000 
#    z 0.022890 0.000000 1.739190 
# 
# From -- ./inp_files/55321.got.cif
#   From: 2010.05.17/outbox.cif.g08.bks.cpg/sg10_28_cif.got.tgz:55321.got - 2010.06.03 11:33:40.
