data_PCOD9143042
_publ_section_title
;
Structure prediction by ZEFSAII (Michael W. Deem and Ramdas Pophale) SiO2 
 PCOD9143042
Probable space group: P 2/M
;
_chemical_formula_sum "Si O2"
_cell_formula_units_Z 28
_cell_length_a 5.447996
_cell_length_b 20.803541
_cell_length_c 11.001870
_cell_angle_alpha 90.000000
_cell_angle_beta 113.031647
_cell_angle_gamma 90.000000
_cell_volume 1147.531811
_symmetry_space_group_name_H-M "P 2/M"
_symmetry_group_IT_number 10
_symmetry_cell_setting 'monoclinic'
loop_
_space_group_symop_operation_xyz
x,y,z
-x,y,-z
-x,-y,-z
x,-y,z
loop_
_atom_site_type_symbol
_atom_site_label
_atom_site_fract_x
_atom_site_fract_y
_atom_site_fract_z
Si Si1 0.604561 0.074456 0.838911
Si Si2 0.252876 0.573819 0.695972
Si Si3 0.881445 0.575105 0.854601
Si Si4 0.873057 0.874166 0.134089
Si Si5 0.994434 0.257176 0.209571
Si Si6 0.419914 0.701057 0.688803
Si Si7 0.762539 0.179469 0.517221
O O1 0.335763 0.115769 0.797340
O O2 0.830861 0.098515 0.790816
O O3 0.543673 0.000000 0.811912
O O4 0.746964 0.086647 0.997325
O O5 0.210733 0.500000 0.643820
O O6 0.026041 0.589743 0.752616
O O7 0.292407 0.634555 0.612141
O O8 0.559824 0.575446 0.803605
O O9 0.959123 0.500000 0.874734
O O10 0.000000 0.606934 0.000000
O O11 0.894997 0.799399 0.102903
O O12 0.259697 0.297505 0.228024
O O13 0.108698 0.214439 0.342874
O O14 0.733576 0.290553 0.213397
O O15 0.337709 0.760689 0.587381
O O16 0.500000 0.141532 0.500000
O O17 0.000000 0.142533 0.500000
#
# Coordination Sequence:
#
# PCOD9143042 Si02
#       7
#     4   4   4   4   4   4   4
#     4  10  19  33  53  78 112 144 170 203 249 290
#     4  10  19  31  51  73  93 128 172 218 271 326
#     4   9  17  30  49  68  90 119 161 212 254 306
#     4  10  18  30  51  75 104 142 176 209 234 295
#     4  10  19  32  52  73 100 136 175 210 258 304
#     4  10  19  33  51  71 103 128 168 223 271 318
#     4   8  16  30  49  70  92 124 163 213 262 306
#
# _framework density 24.400195
#
# number of rings (size 3 to 8) (size 9 to 14) (size 15 to 20)
#    0.000    2.429    0.000    4.286    0.000    1.714 
#    0.000    0.000   31.429    7.714    0.000    0.000 
#    0.000  174.857    0.000    0.000    0.000    0.000 
#
# Total GULP energy -155938.190050 kJ/mol
# GULP energy per Si atom -5569.221073 kJ/mol
# Density = 2.434466 g / cm^3
# Si number density = 24.400195 Si / 1000 Ang^3
#
#
#
# Elastic Constant Matrix: (Units=GPa)
#
#
# Indices 1 2 3 4 5 6 
#
# 1 239.5475 41.6477 12.6528 0.0000 7.6473 0.0000
# 2 41.6477 100.5792 -3.4072 0.0000 1.3228 0.0000
# 3 12.6528 -3.4072 33.2320 0.0000 10.6055 0.0000
# 4 0.0000 0.0000 0.0000 115.3054 0.0000 -54.3833
# 5 7.6473 1.3228 10.6055 0.0000 13.7491 0.0000
# 6 0.0000 0.0000 0.0000 -54.3833 0.0000 65.1096
#
#
#
# Elastic Compliance Matrix: (Units=1/GPa)
#
#
# Indices 1 2 3 4 5 6 
#
# 1 0.004636 -0.001959 -0.001596 0.000000 -0.001159 0.000000
# 2 -0.001959 0.010861 0.002448 0.000000 -0.001843 0.000000
# 3 -0.001596 0.002448 0.040781 0.000000 -0.030805 0.000000
# 4 0.000000 0.000000 0.000000 0.014310 0.000000 0.011953
# 5 -0.001159 -0.001843 -0.030805 0.000000 0.097316 0.000000
# 6 0.000000 0.000000 0.000000 0.011953 0.000000 0.025342
#
#
# Mechanical properties :
#
#
# Convention : Reuss Voigt Hill
#
# Bulk Modulus (GPa) = 18.49677 52.79392 35.64534
# Shear Modulus (GPa) = 23.42123 60.33051 41.87587
#
# Velocity S-wave (km/s) = 3.10155 4.97786 4.14721
# Velocity P-wave (km/s) = 4.51920 7.39746 6.12967
#
# Compressibility (1/GPa) = 0.05406348
#
# Stress axis : x y z
#
# Youngs Moduli (GPa) = 215.68548 92.07585 24.52121
#
# Poissons Ratio (x) = 0.18034 0.03914
# Poissons Ratio (y) = 0.42245 -0.06002
# Poissons Ratio (z) = 0.34427 -0.22536
#
# Static dielectric constant tensor:
#      x y z
#    x 2.013550 0.000000 -0.005400 
#    y 0.000000 2.040360 0.000000 
#    z -0.005400 0.000000 1.970820 
# 
# From -- ./inp_files/59338.got.cif
#   From: 2010.05.17/outbox.cif.g08.bks.cpg/sg10_30_cif.got.tgz:59338.got - 2010.06.03 11:33:40.
