data_PCOD9143116
_publ_section_title
;
Structure prediction by ZEFSAII (Michael W. Deem and Ramdas Pophale) SiO2 
 PCOD9143116
Probable space group: P 2/M
;
_chemical_formula_sum "Si O2"
_cell_formula_units_Z 24
_cell_length_a 12.544141
_cell_length_b 7.435162
_cell_length_c 24.021252
_cell_angle_alpha 90.000000
_cell_angle_beta 31.053477
_cell_angle_gamma 90.000000
_cell_volume 1155.687029
_symmetry_space_group_name_H-M "P 2/M"
_symmetry_group_IT_number 10
_symmetry_cell_setting 'monoclinic'
loop_
_space_group_symop_operation_xyz
x,y,z
-x,y,-z
-x,-y,-z
x,-y,z
loop_
_atom_site_type_symbol
_atom_site_label
_atom_site_fract_x
_atom_site_fract_y
_atom_site_fract_z
Si Si1 0.435870 0.780796 0.718966
Si Si2 0.008436 0.792598 0.110065
Si Si3 0.108079 0.219711 0.509698
Si Si4 0.733063 0.708331 0.899019
Si Si5 0.198242 0.782601 0.256254
Si Si6 0.383173 0.219649 0.871089
O O1 0.654364 0.719816 0.596606
O O2 0.419180 0.729287 0.791312
O O3 0.223380 0.718350 0.785489
O O4 0.445717 0.000000 0.712302
O O5 0.123899 0.789774 0.117381
O O6 0.981955 0.000000 0.104593
O O7 0.169096 0.714628 0.993339
O O8 0.000000 0.273656 0.500000
O O9 0.973799 0.277835 0.622686
O O10 0.105183 0.000000 0.511231
O O11 0.711781 0.500000 0.924207
O O12 0.828730 0.723284 0.794964
O O13 0.500000 0.785975 0.000000
O O14 0.422863 0.723580 0.178122
O O15 0.197925 0.000000 0.256421
O O16 0.380956 0.000000 0.873383
#
# Coordination Sequence:
#
# PCOD9143116 Si02
#       6
#     4   4   4   4   4   4
#     4   9  16  27  46  78 112 135 158 197 252 302
#     4  10  19  31  51  77 105 134 166 205 247 297
#     4   9  15  26  47  78 110 133 158 199 248 294
#     4  11  23  37  52  70  98 134 171 212 254 296
#     4  10  18  30  53  80 102 128 166 207 245 292
#     4   9  15  25  46  78 108 129 155 200 252 297
#
# _framework density 20.766869
#
# number of rings (size 3 to 8) (size 9 to 14) (size 15 to 20)
#    0.000    2.333    3.333    1.000    0.000    2.667 
#    0.000    0.833    0.000    9.500    0.000    0.000 
#    0.000    0.000    0.000    0.000    0.000    0.000 
#
# Total GULP energy -134024.017325 kJ/mol
# GULP energy per Si atom -5584.334055 kJ/mol
# Density = 2.071960 g / cm^3
# Si number density = 20.766869 Si / 1000 Ang^3
#
#
#
# Elastic Constant Matrix: (Units=GPa)
#
#
# Indices 1 2 3 4 5 6 
#
# 1 50.5319 -11.7354 43.4422 0.0000 -4.5939 0.0000
# 2 -11.7354 63.1309 0.4939 0.0000 -5.2055 0.0000
# 3 43.4422 0.4939 172.9323 0.0000 -10.5430 0.0000
# 4 0.0000 0.0000 0.0000 60.3308 0.0000 165.9444
# 5 -4.5939 -5.2055 -10.5430 0.0000 39.7174 0.0000
# 6 0.0000 0.0000 0.0000 165.9444 0.0000 411.3321
#
#
#
# Elastic Compliance Matrix: (Units=1/GPa)
#
#
# Indices 1 2 3 4 5 6 
#
# 1 0.026903 0.005220 -0.006649 0.000000 0.002031 0.000000
# 2 0.005220 0.017027 -0.001207 0.000000 0.002515 0.000000
# 3 -0.006649 -0.001207 0.007522 0.000000 0.001069 0.000000
# 4 0.000000 0.000000 0.000000 -0.151139 0.000000 0.060974
# 5 0.002031 0.002515 0.001069 0.000000 0.026026 0.000000
# 6 0.000000 0.000000 0.000000 0.060974 0.000000 -0.022168
#
#
# Mechanical properties :
#
#
# Convention : Reuss Voigt Hill
#
# Bulk Modulus (GPa) = 21.65406 38.99961 30.32684
# Shear Modulus (GPa) = -66.52176 119.23568 26.35696
#
# Velocity S-wave (km/s) = -5.66588 7.58557 3.56642
# Velocity P-wave (km/s) = 5.68797 9.77455 5.62089
#
# Compressibility (1/GPa) = 0.04618071
#
# Stress axis : x y z
#
# Youngs Moduli (GPa) = 37.17068 58.72893 132.94978
#
# Poissons Ratio (x) = -0.30659 0.88403
# Poissons Ratio (y) = -0.19405 0.16043
# Poissons Ratio (z) = 0.24716 0.07087
#
# Static dielectric constant tensor:
#      x y z
#    x 1.698010 0.000000 -0.022200 
#    y 0.000000 1.808530 0.000000 
#    z -0.022200 0.000000 1.740580 
# 
# From -- ./inp_files/44994.got.cif
#   From: 2010.05.17/outbox.cif.g08.bks.cpg/sg10_23_cif.got.tgz:44994.got - 2010.06.03 11:33:40.
