data_PCOD9143019
_publ_section_title
;
Structure prediction by ZEFSAII (Michael W. Deem and Ramdas Pophale) SiO2 
 PCOD9143019
Probable space group: P 2/M
;
_chemical_formula_sum "Si O2"
_cell_formula_units_Z 30
_cell_length_a 11.056631
_cell_length_b 9.716545
_cell_length_c 14.986406
_cell_angle_alpha 90.000000
_cell_angle_beta 104.678547
_cell_angle_gamma 90.000000
_cell_volume 1557.476538
_symmetry_space_group_name_H-M "P 2/M"
_symmetry_group_IT_number 10
_symmetry_cell_setting 'monoclinic'
loop_
_space_group_symop_operation_xyz
x,y,z
-x,y,-z
-x,-y,-z
x,-y,z
loop_
_atom_site_type_symbol
_atom_site_label
_atom_site_fract_x
_atom_site_fract_y
_atom_site_fract_z
Si Si1 0.701301 0.667318 0.737947
Si Si2 0.647867 0.834442 0.548815
Si Si3 0.138446 0.832629 0.556225
Si Si4 0.241581 0.648492 0.921002
Si Si5 0.113186 0.339772 0.078478
Si Si6 0.482793 0.848654 0.186272
Si Si7 0.500000 0.248865 0.000000
Si Si8 0.216719 0.158101 0.762047
O O1 0.697802 0.500000 0.731418
O O2 0.689620 0.743637 0.641318
O O3 0.825372 0.709725 0.818365
O O4 0.586421 0.727833 0.774627
O O5 0.500000 0.809236 0.500000
O O6 0.744523 0.798866 0.486497
O O7 0.659332 0.000000 0.567619
O O8 0.160503 0.782503 0.660996
O O9 0.000000 0.788940 0.500000
O O10 0.138230 0.000000 0.559636
O O11 0.195059 0.500000 0.883637
O O12 0.389624 0.660589 0.940065
O O13 0.184233 0.761420 0.845771
O O14 0.217814 0.662087 0.021377
O O15 0.078523 0.500000 0.088730
O O16 0.000000 0.274391 0.000000
O O17 0.632776 0.840287 0.222778
O O18 0.443671 0.000000 0.213394
O O19 0.454732 0.840034 0.075344
O O20 0.178431 0.000000 0.765106
#
# Coordination Sequence:
#
# PCOD9143019 Si02
#       8
#     4   4   4   4   4   4   2   4
#     4  11  22  36  56  84 113 148 192 239 282 329
#     4  10  21  39  62  86 114 152 193 235 293 358
#     4   9  18  35  59  83 109 144 188 238 287 337
#     4  10  19  32  52  77 106 141 177 217 264 320
#     4   9  19  36  53  72 106 152 191 219 263 331
#     4  10  19  32  52  78 111 147 182 221 274 333
#     4  10  18  30  50  80 106 138 178 224 264 316
#     4   9  19  34  53  80 109 140 177 223 278 335
#
# _framework density 19.261928999999999
#
# number of rings (size 3 to 8) (size 9 to 14) (size 15 to 20)
#    0.000    2.267    1.333    1.600    0.000    6.133 
#    0.000    0.667    0.000    3.600    0.000    0.000 
#    0.000    0.000    0.000    0.000    0.000    0.000 
#
# Total GULP energy -167008.525293 kJ/mol
# GULP energy per Si atom -5566.950843 kJ/mol
# Density = 1.921809 g / cm^3
# Si number density = 19.261929 Si / 1000 Ang^3
#
#
#
# Elastic Constant Matrix: (Units=GPa)
#
#
# Indices 1 2 3 4 5 6 
#
# 1 50.2860 18.0819 16.8388 0.0000 9.8689 0.0000
# 2 18.0819 60.5317 45.6956 0.0000 3.9321 0.0000
# 3 16.8388 45.6956 134.7659 0.0000 13.2517 0.0000
# 4 0.0000 0.0000 0.0000 28.0666 0.0000 -5.1609
# 5 9.8689 3.9321 13.2517 0.0000 27.6957 0.0000
# 6 0.0000 0.0000 0.0000 -5.1609 0.0000 -2.0153
#
#
#
# Elastic Compliance Matrix: (Units=1/GPa)
#
#
# Indices 1 2 3 4 5 6 
#
# 1 0.023736 -0.006614 0.000017 0.000000 -0.007527 0.000000
# 2 -0.006614 0.024053 -0.007582 0.000000 0.002570 0.000000
# 3 0.000017 -0.007582 0.010372 0.000000 -0.003892 0.000000
# 4 0.000000 0.000000 0.000000 0.024223 0.000000 -0.062032
# 5 -0.007527 0.002570 -0.003892 0.000000 0.040286 0.000000
# 6 0.000000 0.000000 0.000000 -0.062032 0.000000 -0.337351
#
#
# Mechanical properties :
#
#
# Convention : Reuss Voigt Hill
#
# Bulk Modulus (GPa) = 33.55448 45.20178 39.37813
# Shear Modulus (GPa) = -28.34653 21.74721 -3.29966
#
# Velocity S-wave (km/s) = -3.84035 3.36374 -1.31025
# Velocity P-wave (km/s) = 1.48542 6.21323 4.26601
#
# Compressibility (1/GPa) = 0.02980228
#
# Stress axis : x y z
#
# Youngs Moduli (GPa) = 42.12983 41.57522 96.41627
#
# Poissons Ratio (x) = 0.27500 -0.00165
# Poissons Ratio (y) = 0.27866 0.73102
# Poissons Ratio (z) = -0.00072 0.31522
#
# Static dielectric constant tensor:
#      x y z
#    x 1.724180 0.000000 0.010500 
#    y 0.000000 1.677980 0.000000 
#    z 0.010500 0.000000 1.689000 
# 
# From -- ./inp_files/63870.got.cif
#   From: 2010.05.17/outbox.cif.g08.bks.cpg/sg10_32_cif.got.tgz:63870.got - 2010.06.03 11:33:40.
