data_PCOD9143534
_publ_section_title
;
Structure prediction by ZEFSAII (Michael W. Deem and Ramdas Pophale) SiO2 
 PCOD9143534
Probable space group: P 2/M
;
_chemical_formula_sum "Si O2"
_cell_formula_units_Z 32
_cell_length_a 18.132373
_cell_length_b 8.780076
_cell_length_c 24.576953
_cell_angle_alpha 90.000000
_cell_angle_beta 149.385271
_cell_angle_gamma 90.000000
_cell_volume 1992.612272
_symmetry_space_group_name_H-M "P 2/M"
_symmetry_group_IT_number 10
_symmetry_cell_setting 'monoclinic'
loop_
_space_group_symop_operation_xyz
x,y,z
-x,y,-z
-x,-y,-z
x,-y,z
loop_
_atom_site_type_symbol
_atom_site_label
_atom_site_fract_x
_atom_site_fract_y
_atom_site_fract_z
Si Si1 0.781560 0.183565 0.095687
Si Si2 0.666810 0.180446 0.828004
Si Si3 0.383344 0.318761 0.693818
Si Si4 0.103918 0.316965 0.940595
Si Si5 0.068212 0.183876 0.484412
Si Si6 0.131175 0.675438 0.127318
Si Si7 0.450338 0.183483 0.854849
Si Si8 0.820043 0.814798 0.243127
O O1 0.871584 0.260174 0.104665
O O2 0.824026 0.234947 0.183177
O O3 0.797663 0.000000 0.102399
O O4 0.611858 0.217656 0.977658
O O5 0.509102 0.251613 0.735579
O O6 0.742931 0.226367 0.819685
O O7 0.660131 0.000000 0.829812
O O8 0.769702 0.246888 0.941261
O O9 0.387179 0.500000 0.694852
O O10 0.224892 0.257733 0.578246
O O11 0.418734 0.260612 0.777216
O O12 0.114208 0.500000 0.950722
O O13 0.949308 0.272459 0.868950
O O14 0.000000 0.222515 0.500000
O O15 0.955619 0.231854 0.366205
O O16 0.082977 0.000000 0.492253
O O17 0.179116 0.500000 0.163344
O O18 0.000000 0.676296 0.000000
O O19 0.328441 0.230180 0.820942
O O20 0.439663 0.000000 0.840724
O O21 0.819305 0.000000 0.241875
#
# Coordination Sequence:
#
# PCOD9143534 Si02
#       8
#     4   4   4   4   4   4   4   4
#     4  10  19  30  50  76 102 134 172 208 243 296
#     4  11  20  31  49  73  99 129 168 208 247 294
#     4  12  23  33  49  73 103 133 167 208 256 302
#     4  10  19  31  47  70 104 139 164 195 245 299
#     4  10  19  35  56  73  95 129 173 215 254 298
#     4   8  16  30  46  67  99 135 163 193 242 298
#     4  10  18  32  51  72  99 133 171 206 249 298
#     4   9  18  33  52  74  98 130 172 216 254 289
#
# _framework density 16.05932
#
# number of rings (size 3 to 8) (size 9 to 14) (size 15 to 20)
#    0.000    2.000    2.500    3.750    0.000    4.500 
#    0.000    1.250    0.000    1.500    0.000    0.875 
#    0.000    7.000    0.000    0.000    0.000    0.000 
#
# Total GULP energy -178543.522311 kJ/mol
# GULP energy per Si atom -5579.485072 kJ/mol
# Density = 1.602277 g / cm^3
# Si number density = 16.059320 Si / 1000 Ang^3
#
#
#
# Elastic Constant Matrix: (Units=GPa)
#
#
# Indices 1 2 3 4 5 6 
#
# 1 160.4402 52.4502 79.5992 0.0000 12.0410 0.0000
# 2 52.4502 46.8639 34.2652 0.0000 3.8498 0.0000
# 3 79.5992 34.2652 83.4553 0.0000 -3.6345 0.0000
# 4 0.0000 0.0000 0.0000 10.5943 0.0000 12.5219
# 5 12.0410 3.8498 -3.6345 0.0000 20.6652 0.0000
# 6 0.0000 0.0000 0.0000 12.5219 0.0000 31.4151
#
#
#
# Elastic Compliance Matrix: (Units=1/GPa)
#
#
# Indices 1 2 3 4 5 6 
#
# 1 0.015405 -0.007716 -0.011945 0.000000 -0.009639 0.000000
# 2 -0.007716 0.035708 -0.007453 0.000000 -0.003467 0.000000
# 3 -0.011945 -0.007453 0.027006 0.000000 0.013098 0.000000
# 4 0.000000 0.000000 0.000000 0.178471 0.000000 -0.071138
# 5 -0.009639 -0.003467 0.013098 0.000000 0.056957 0.000000
# 6 0.000000 0.000000 0.000000 -0.071138 0.000000 0.060187
#
#
# Mechanical properties :
#
#
# Convention : Reuss Voigt Hill
#
# Bulk Modulus (GPa) = 41.85550 69.26539 55.56045
# Shear Modulus (GPa) = 11.46987 20.83124 16.15055
#
# Velocity S-wave (km/s) = 2.67539 3.60550 3.17469
# Velocity P-wave (km/s) = 5.97187 7.78186 6.93616
#
# Compressibility (1/GPa) = 0.02389172
#
# Stress axis : x y z
#
# Youngs Moduli (GPa) = 64.91422 28.00514 37.02870
#
# Poissons Ratio (x) = 0.21608 0.44231
# Poissons Ratio (y) = 0.50085 0.27597
# Poissons Ratio (z) = 0.77541 0.20872
#
# Static dielectric constant tensor:
#      x y z
#    x 1.552600 0.000000 0.005010 
#    y 0.000000 1.537660 0.000000 
#    z 0.005010 0.000000 1.511380 
# 
# From -- ./inp_files/79961.got.cif
#   From: 2010.05.17/outbox.cif.g08.bks.cpg/sg10_40_cif.got.tgz:79961.got - 2010.06.03 11:33:40.
