data_PCOD9143016
_publ_section_title
;
Structure prediction by ZEFSAII (Michael W. Deem and Ramdas Pophale) SiO2 
 PCOD9143016
Probable space group: P 2/M
;
_chemical_formula_sum "Si O2"
_cell_formula_units_Z 28
_cell_length_a 12.373504
_cell_length_b 7.533950
_cell_length_c 14.474571
_cell_angle_alpha 90.000000
_cell_angle_beta 110.634004
_cell_angle_gamma 90.000000
_cell_volume 1262.779846
_symmetry_space_group_name_H-M "P 2/M"
_symmetry_group_IT_number 10
_symmetry_cell_setting 'monoclinic'
loop_
_space_group_symop_operation_xyz
x,y,z
-x,y,-z
-x,-y,-z
x,-y,z
loop_
_atom_site_type_symbol
_atom_site_label
_atom_site_fract_x
_atom_site_fract_y
_atom_site_fract_z
Si Si1 0.773933 0.214626 0.287326
Si Si2 0.458084 0.782682 0.884060
Si Si3 0.209755 0.701478 0.327831
Si Si4 0.660434 0.210627 0.810888
Si Si5 0.874066 0.215744 0.991899
Si Si6 0.960008 0.786439 0.208176
Si Si7 0.877931 0.709156 0.503878
O O1 0.667389 0.273717 0.191620
O O2 0.895358 0.275088 0.279905
O O3 0.781234 0.270934 0.395470
O O4 0.773278 0.000000 0.284791
O O5 0.546873 0.724890 0.829911
O O6 0.455530 0.000000 0.887052
O O7 0.500000 0.727092 0.000000
O O8 0.241652 0.500000 0.357228
O O9 0.308762 0.766883 0.287803
O O10 0.172609 0.785986 0.415141
O O11 0.087640 0.711551 0.236658
O O12 0.657565 0.000000 0.824337
O O13 0.768851 0.284756 0.901160
O O14 0.872495 0.256045 0.099271
O O15 0.873783 0.000000 0.981789
O O16 0.000000 0.277672 0.000000
O O17 0.974106 0.000000 0.212559
O O18 0.898843 0.500000 0.526895
O O19 0.000000 0.783790 0.500000
#
# Coordination Sequence:
#
# PCOD9143016 Si02
#       7
#     4   4   4   4   4   4   4
#     4  10  20  33  56  87 111 137 183 235 273 318
#     4   9  18  35  59  87 116 146 182 224 273 328
#     4  11  22  35  52  76 108 141 180 227 275 328
#     4  10  19  34  56  78 109 149 182 221 271 324
#     4   9  15  25  45  74 104 135 173 208 253 324
#     4  10  18  30  50  78 110 139 173 218 271 326
#     4  10  21  38  56  76 108 150 187 224 281 340
#
# _framework density 22.173302
#
# number of rings (size 3 to 8) (size 9 to 14) (size 15 to 20)
#    0.000    2.143    2.857    1.286    0.000    4.857 
#    0.000    2.857    0.000    7.714    0.000    0.000 
#    0.000    0.000    0.000    0.000    0.000    0.000 
#
# Total GULP energy -156103.356910 kJ/mol
# GULP energy per Si atom -5575.119890 kJ/mol
# Density = 2.212283 g / cm^3
# Si number density = 22.173302 Si / 1000 Ang^3
#
#
#
# Elastic Constant Matrix: (Units=GPa)
#
#
# Indices 1 2 3 4 5 6 
#
# 1 121.8916 1.9857 42.0514 0.0000 -22.8028 0.0000
# 2 1.9857 52.0787 -1.2884 0.0000 -2.9169 0.0000
# 3 42.0514 -1.2884 111.9693 0.0000 -14.7154 0.0000
# 4 0.0000 0.0000 0.0000 30.8533 0.0000 -0.8484
# 5 -22.8028 -2.9169 -14.7154 0.0000 33.5860 0.0000
# 6 0.0000 0.0000 0.0000 -0.8484 0.0000 -0.6991
#
#
#
# Elastic Compliance Matrix: (Units=1/GPa)
#
#
# Indices 1 2 3 4 5 6 
#
# 1 0.010346 -0.000157 -0.003147 0.000000 0.005632 0.000000
# 2 -0.000157 0.019321 0.000518 0.000000 0.001798 0.000000
# 3 -0.003147 0.000518 0.010445 0.000000 0.002485 0.000000
# 4 0.000000 0.000000 0.000000 0.031365 0.000000 -0.038063
# 5 0.005632 0.001798 0.002485 0.000000 0.034843 0.000000
# 6 0.000000 0.000000 0.000000 -0.038063 0.000000 -1.384205
#
#
# Mechanical properties :
#
#
# Convention : Reuss Voigt Hill
#
# Bulk Modulus (GPa) = 28.95230 41.27078 35.11154
# Shear Modulus (GPa) = -3.96574 28.96078 12.49752
#
# Velocity S-wave (km/s) = -1.33881 3.61794 2.37666
# Velocity P-wave (km/s) = 3.27044 6.00881 4.83744
#
# Compressibility (1/GPa) = 0.03453957
#
# Stress axis : x y z
#
# Youngs Moduli (GPa) = 96.65712 51.75659 95.73507
#
# Poissons Ratio (x) = 0.00812 0.30130
# Poissons Ratio (y) = 0.01517 -0.04955
# Poissons Ratio (z) = 0.30420 -0.02679
#
# Static dielectric constant tensor:
#      x y z
#    x 1.824150 0.000000 -0.057430 
#    y 0.000000 1.848250 0.000000 
#    z -0.057430 0.000000 1.861840 
# 
# From -- ./inp_files/50099.got.cif
#   From: 2010.05.17/outbox.cif.g08.bks.cpg/sg10_26_cif.got.tgz:50099.got - 2010.06.03 11:33:40.
