data_PCOD9143270
_publ_section_title
;
Structure prediction by ZEFSAII (Michael W. Deem and Ramdas Pophale) SiO2 
 PCOD9143270
Probable space group: P 2/M
;
_chemical_formula_sum "Si O2"
_cell_formula_units_Z 32
_cell_length_a 13.020527
_cell_length_b 8.757792
_cell_length_c 21.974467
_cell_angle_alpha 90.000000
_cell_angle_beta 53.160724
_cell_angle_gamma 90.000000
_cell_volume 2005.420776
_symmetry_space_group_name_H-M "P 2/M"
_symmetry_group_IT_number 10
_symmetry_cell_setting 'monoclinic'
loop_
_space_group_symop_operation_xyz
x,y,z
-x,y,-z
-x,-y,-z
x,-y,z
loop_
_atom_site_type_symbol
_atom_site_label
_atom_site_fract_x
_atom_site_fract_y
_atom_site_fract_z
Si Si1 0.505130 0.315927 0.183950
Si Si2 0.893421 0.684423 0.819293
Si Si3 0.196052 0.683665 0.922410
Si Si4 0.130006 0.676481 0.494706
Si Si5 0.983054 0.182197 0.912072
Si Si6 0.721574 0.819344 0.663352
Si Si7 0.595961 0.314112 0.912855
Si Si8 0.047033 0.684654 0.338881
O O1 0.494151 0.500000 0.190451
O O2 0.654645 0.276428 0.136249
O O3 0.414770 0.245737 0.267440
O O4 0.452182 0.265793 0.136601
O O5 0.899238 0.500000 0.824260
O O6 0.743052 0.729855 0.872165
O O7 0.950404 0.723841 0.732900
O O8 0.964011 0.762791 0.850183
O O9 0.184075 0.500000 0.928764
O O10 0.110174 0.748980 0.898215
O O11 0.134071 0.751810 0.005759
O O12 0.170889 0.500000 0.484647
O O13 0.234142 0.768836 0.419705
O O14 0.000000 0.679621 0.500000
O O15 0.078954 0.732304 0.578218
O O16 0.985073 0.000000 0.915893
O O17 0.827901 0.751103 0.672031
O O18 0.723190 0.000000 0.667446
O O19 0.593335 0.500000 0.913872
O O20 0.500000 0.261887 0.000000
O O21 0.055671 0.500000 0.340998
#
# Coordination Sequence:
#
# PCOD9143270 Si02
#       8
#     4   4   4   4   4   4   4   4
#     4  10  19  33  52  72  95 126 165 207 245 283
#     4  10  18  31  51  71  97 129 168 205 237 287
#     4  10  20  36  58  75  90 122 173 216 245 284
#     4   8  15  28  46  65  90 126 168 203 238 280
#     4  11  22  35  51  72 103 131 158 203 256 297
#     4  11  20  28  43  69 103 134 159 193 241 299
#     4   9  16  27  46  70  94 122 157 198 241 282
#     4   9  17  31  49  68  93 130 169 208 241 277
#
# _framework density 15.95675
#
# number of rings (size 3 to 8) (size 9 to 14) (size 15 to 20)
#    0.000    2.250    1.250    4.875    0.000    5.750 
#    0.000    0.000    0.000    1.500    0.000    0.875 
#    0.000    7.000    0.000    0.000    0.000    0.000 
#
# Total GULP energy -178480.702122 kJ/mol
# GULP energy per Si atom -5577.521941 kJ/mol
# Density = 1.592043 g / cm^3
# Si number density = 15.956750 Si / 1000 Ang^3
#
#
#
# Elastic Constant Matrix: (Units=GPa)
#
#
# Indices 1 2 3 4 5 6 
#
# 1 58.1794 28.8857 50.0022 0.0000 5.7182 0.0000
# 2 28.8857 43.2623 36.8246 0.0000 1.0316 0.0000
# 3 50.0022 36.8246 128.1657 0.0000 9.3119 0.0000
# 4 0.0000 0.0000 0.0000 -0.9822 0.0000 5.3759
# 5 5.7182 1.0316 9.3119 0.0000 18.5785 0.0000
# 6 0.0000 0.0000 0.0000 5.3759 0.0000 1.9243
#
#
#
# Elastic Compliance Matrix: (Units=1/GPa)
#
#
# Indices 1 2 3 4 5 6 
#
# 1 0.031470 -0.014231 -0.007827 0.000000 -0.004972 0.000000
# 2 -0.014231 0.037175 -0.005498 0.000000 0.005071 0.000000
# 3 -0.007827 -0.005498 0.012701 0.000000 -0.003652 0.000000
# 4 0.000000 0.000000 0.000000 -0.062496 0.000000 0.174598
# 5 -0.004972 0.005071 -0.003652 0.000000 0.056905 0.000000
# 6 0.000000 0.000000 0.000000 0.174598 0.000000 0.031899
#
#
# Mechanical properties :
#
#
# Convention : Reuss Voigt Hill
#
# Bulk Modulus (GPa) = 38.11810 51.22583 44.67196
# Shear Modulus (GPa) = 29.15290 11.49711 20.32501
#
# Velocity S-wave (km/s) = 4.27897 2.68716 3.57284
# Velocity P-wave (km/s) = 6.95364 6.46532 6.71392
#
# Compressibility (1/GPa) = 0.02623426
#
# Stress axis : x y z
#
# Youngs Moduli (GPa) = 31.77667 26.89966 78.73335
#
# Poissons Ratio (x) = 0.38280 0.61628
# Poissons Ratio (y) = 0.45220 0.43286
# Poissons Ratio (z) = 0.24873 0.14789
#
# Static dielectric constant tensor:
#      x y z
#    x 1.506270 0.000000 0.003520 
#    y 0.000000 1.530450 0.000000 
#    z 0.003520 0.000000 1.553760 
# 
# From -- ./inp_files/83369.got.cif
#   From: 2010.05.17/outbox.cif.g08.bks.cpg/sg10_42_cif.got.tgz:83369.got - 2010.06.03 11:33:40.
