data_PCOD9143854
_publ_section_title
;
Structure prediction by ZEFSAII (Michael W. Deem and Ramdas Pophale) SiO2 
 PCOD9143854
Probable space group: P 2/M
;
_chemical_formula_sum "Si O2"
_cell_formula_units_Z 32
_cell_length_a 9.392364
_cell_length_b 19.627356
_cell_length_c 15.329719
_cell_angle_alpha 90.000000
_cell_angle_beta 141.212110
_cell_angle_gamma 90.000000
_cell_volume 1770.311743
_symmetry_space_group_name_H-M "P 2/M"
_symmetry_group_IT_number 10
_symmetry_cell_setting 'monoclinic'
loop_
_space_group_symop_operation_xyz
x,y,z
-x,y,-z
-x,-y,-z
x,-y,z
loop_
_atom_site_type_symbol
_atom_site_label
_atom_site_fract_x
_atom_site_fract_y
_atom_site_fract_z
Si Si1 0.084607 0.647767 0.710345
Si Si2 0.261685 0.921277 0.155504
Si Si3 0.563819 0.677142 0.432380
Si Si4 0.336985 0.175748 0.352623
Si Si5 0.508781 0.816203 0.858229
Si Si6 0.159827 0.209259 0.822112
Si Si7 0.727785 0.577347 0.048856
Si Si8 0.505863 0.339113 0.794908
O O1 0.191358 0.712033 0.812722
O O2 0.262937 0.634132 0.717503
O O3 0.836930 0.669111 0.558536
O O4 0.079825 0.593341 0.786759
O O5 0.281155 0.876429 0.250843
O O6 0.417542 0.880154 0.162685
O O7 0.326455 0.000000 0.196817
O O8 0.000000 0.919068 0.000000
O O9 0.500000 0.651321 0.500000
O O10 0.468190 0.754980 0.386733
O O11 0.469856 0.645715 0.296655
O O12 0.500000 0.141091 0.500000
O O13 0.101723 0.197061 0.284716
O O14 0.268409 0.828014 0.790947
O O15 0.506841 0.743366 0.807395
O O16 0.693969 0.807724 0.023355
O O17 0.747134 0.500000 0.026371
O O18 0.691405 0.627396 0.948981
O O19 0.500000 0.582708 0.000000
#
# Coordination Sequence:
#
# PCOD9143854 Si02
#       8
#     4   4   4   4   4   4   4   4
#     4  10  18  33  54  86 116 143 190 234 293 341
#     4  11  23  39  58  82 116 154 193 234 287 348
#     4  11  21  33  52  85 112 147 186 238 281 342
#     4  11  21  36  56  84 113 147 187 237 290 346
#     4  10  19  33  58  85 113 145 187 251 283 335
#     4  10  18  33  55  88 114 140 190 239 293 334
#     4   9  18  34  58  87 118 150 191 242 289 338
#     4  10  19  32  57  85 112 147 189 243 287 334
#
# _framework density 18.075913
#
# number of rings (size 3 to 8) (size 9 to 14) (size 15 to 20)
#    0.000    1.750    6.250    0.375    0.000    0.250 
#    0.000    5.000    0.000    6.000    0.000    0.000 
#    0.000    0.000    0.000    0.000    0.000    0.000 
#
# Total GULP energy -178195.666666 kJ/mol
# GULP energy per Si atom -5568.614583 kJ/mol
# Density = 1.803477 g / cm^3
# Si number density = 18.075913 Si / 1000 Ang^3
#
#
#
# Elastic Constant Matrix: (Units=GPa)
#
#
# Indices 1 2 3 4 5 6 
#
# 1 75.8602 29.4247 30.8498 0.0000 -20.5837 0.0000
# 2 29.4247 56.1502 21.2362 0.0000 -6.1629 0.0000
# 3 30.8498 21.2362 74.5359 0.0000 -10.5317 0.0000
# 4 0.0000 0.0000 0.0000 27.3719 0.0000 -22.1254
# 5 -20.5837 -6.1629 -10.5317 0.0000 34.9451 0.0000
# 6 0.0000 0.0000 0.0000 -22.1254 0.0000 46.2660
#
#
#
# Elastic Compliance Matrix: (Units=1/GPa)
#
#
# Indices 1 2 3 4 5 6 
#
# 1 0.020878 -0.008008 -0.005036 0.000000 0.009368 0.000000
# 2 -0.008008 0.023152 -0.003521 0.000000 -0.001695 0.000000
# 3 -0.005036 -0.003521 0.016709 0.000000 0.001448 0.000000
# 4 0.000000 0.000000 0.000000 0.059556 0.000000 0.028481
# 5 0.009368 -0.001695 0.001448 0.000000 0.034272 0.000000
# 6 0.000000 0.000000 0.000000 0.028481 0.000000 0.035234
#
#
# Mechanical properties :
#
#
# Convention : Reuss Voigt Hill
#
# Bulk Modulus (GPa) = 36.22186 41.06308 38.64247
# Shear Modulus (GPa) = 21.53936 30.05231 25.79583
#
# Velocity S-wave (km/s) = 3.45571 4.08187 3.78177
# Velocity P-wave (km/s) = 6.00040 6.70686 6.36344
#
# Compressibility (1/GPa) = 0.02760764
#
# Stress axis : x y z
#
# Youngs Moduli (GPa) = 47.89700 43.19361 59.84940
#
# Poissons Ratio (x) = 0.34590 0.30140
# Poissons Ratio (y) = 0.38356 0.21074
# Poissons Ratio (z) = 0.24121 0.15209
#
# Static dielectric constant tensor:
#      x y z
#    x 1.669930 0.000000 -0.013050 
#    y 0.000000 1.609390 0.000000 
#    z -0.013050 0.000000 1.649030 
# 
# From -- ./inp_files/30301.got.cif
#   From: 2010.05.17/outbox.cif.g08.bks.cpg/sg10_16_cif.got.tgz:30301.got - 2010.06.03 11:33:40.
