data_PCOD9143202
_publ_section_title
;
Structure prediction by ZEFSAII (Michael W. Deem and Ramdas Pophale) SiO2 
 PCOD9143202
Probable space group: P 2/M
;
_chemical_formula_sum "Si O2"
_cell_formula_units_Z 32
_cell_length_a 28.202894
_cell_length_b 8.584988
_cell_length_c 20.000729
_cell_angle_alpha 90.000000
_cell_angle_beta 21.788520
_cell_angle_gamma 90.000000
_cell_volume 1797.487415
_symmetry_space_group_name_H-M "P 2/M"
_symmetry_group_IT_number 10
_symmetry_cell_setting 'monoclinic'
loop_
_space_group_symop_operation_xyz
x,y,z
-x,y,-z
-x,-y,-z
x,-y,z
loop_
_atom_site_type_symbol
_atom_site_label
_atom_site_fract_x
_atom_site_fract_y
_atom_site_fract_z
Si Si1 0.168373 0.816105 0.418529
Si Si2 0.616729 0.309172 0.300991
Si Si3 0.423461 0.682257 0.030781
Si Si4 0.423128 0.817557 0.292091
Si Si5 0.830929 0.687266 0.431629
Si Si6 0.897331 0.319693 0.772693
Si Si7 0.106138 0.680240 0.059974
Si Si8 0.384893 0.688542 0.852154
O O1 0.277280 0.729868 0.233874
O O2 0.184845 0.759880 0.473875
O O3 0.023814 0.772560 0.586956
O O4 0.187883 0.000000 0.389355
O O5 0.500000 0.258360 0.500000
O O6 0.620567 0.500000 0.297461
O O7 0.599741 0.265875 0.245597
O O8 0.757280 0.251846 0.139782
O O9 0.432870 0.500000 0.000349
O O10 0.500000 0.704595 0.000000
O O11 0.491001 0.781509 0.885382
O O12 0.289228 0.731374 0.455609
O O13 0.503023 0.754995 0.249892
O O14 0.399848 0.000000 0.328402
O O15 0.837746 0.500000 0.431115
O O16 0.967126 0.745555 0.224338
O O17 0.911944 0.500000 0.732947
O O18 0.892865 0.319111 0.859988
O O19 0.756512 0.261460 0.937093
O O20 0.106087 0.500000 0.038013
O O21 0.384932 0.500000 0.854894
#
# Coordination Sequence:
#
# PCOD9143202 Si02
#       8
#     4   4   4   4   4   4   4   4
#     4  11  20  30  49  76 103 127 162 216 264 297
#     4   8  13  25  51  85 111 129 158 206 255 293
#     4  11  22  36  54  72  96 133 173 212 256 307
#     4  12  24  35  50  73 102 133 169 216 262 303
#     4  10  18  31  49  69  97 135 176 210 248 301
#     4   8  15  30  50  69  95 133 172 206 245 299
#     4   7  12  23  43  72 101 127 160 204 246 288
#     4   9  18  34  54  76 104 138 172 205 248 307
#
# _framework density 17.802629
#
# number of rings (size 3 to 8) (size 9 to 14) (size 15 to 20)
#    0.000    2.500    1.250    5.250    0.000    1.000 
#    0.000    0.625    0.000    4.875    0.000    5.250 
#    0.000    0.000    0.000    0.000    0.000    0.000 
#
# Total GULP energy -178374.160426 kJ/mol
# GULP energy per Si atom -5574.192513 kJ/mol
# Density = 1.776211 g / cm^3
# Si number density = 17.802629 Si / 1000 Ang^3
#
#
#
# Elastic Constant Matrix: (Units=GPa)
#
#
# Indices 1 2 3 4 5 6 
#
# 1 35.1188 3.3069 29.9790 0.0000 -17.7008 0.0000
# 2 3.3069 24.0535 -1.2679 0.0000 -2.7528 0.0000
# 3 29.9790 -1.2679 137.7726 0.0000 -17.4567 0.0000
# 4 0.0000 0.0000 0.0000 346.5552 0.0000 261.0878
# 5 -17.7008 -2.7528 -17.4567 0.0000 23.6032 0.0000
# 6 0.0000 0.0000 0.0000 261.0878 0.0000 214.8279
#
#
#
# Elastic Compliance Matrix: (Units=1/GPa)
#
#
# Indices 1 2 3 4 5 6 
#
# 1 0.051441 -0.003675 -0.007055 0.000000 0.032931 0.000000
# 2 -0.003675 0.042555 0.001623 0.000000 0.003407 0.000000
# 3 -0.007055 0.001623 0.009006 0.000000 0.001559 0.000000
# 4 0.000000 0.000000 0.000000 0.034193 0.000000 -0.041556
# 5 0.032931 0.003407 0.001559 0.000000 0.068614 0.000000
# 6 0.000000 0.000000 0.000000 -0.041556 0.000000 0.055159
#
#
# Mechanical properties :
#
#
# Convention : Reuss Voigt Hill
#
# Bulk Modulus (GPa) = 11.79414 28.99790 20.39602
# Shear Modulus (GPa) = 16.26313 127.99239 72.12776
#
# Velocity S-wave (km/s) = 3.02574 8.48830 6.37206
# Velocity P-wave (km/s) = 4.34121 10.60152 8.10057
#
# Compressibility (1/GPa) = 0.08478788
#
# Stress axis : x y z
#
# Youngs Moduli (GPa) = 19.43968 23.49912 111.03763
#
# Poissons Ratio (x) = 0.08637 0.78334
# Poissons Ratio (y) = 0.07145 -0.18022
# Poissons Ratio (z) = 0.13714 -0.03814
#
# Static dielectric constant tensor:
#      x y z
#    x 1.591640 0.000000 -0.022730 
#    y 0.000000 1.593480 0.000000 
#    z -0.022730 0.000000 1.646450 
# 
# From -- ./inp_files/86827.got.cif
#   From: 2010.05.17/outbox.cif.g08.bks.cpg/sg10_44_cif.got.tgz:86827.got - 2010.06.03 11:33:40.
