data_PCOD9143260
_publ_section_title
;
Structure prediction by ZEFSAII (Michael W. Deem and Ramdas Pophale) SiO2 
 PCOD9143260
Probable space group: P 2/M
;
_chemical_formula_sum "Si O2"
_cell_formula_units_Z 24
_cell_length_a 24.605135
_cell_length_b 7.730812
_cell_length_c 16.735615
_cell_angle_alpha 90.000000
_cell_angle_beta 23.670914
_cell_angle_gamma 90.000000
_cell_volume 1278.084549
_symmetry_space_group_name_H-M "P 2/M"
_symmetry_group_IT_number 10
_symmetry_cell_setting 'monoclinic'
loop_
_space_group_symop_operation_xyz
x,y,z
-x,y,-z
-x,-y,-z
x,-y,z
loop_
_atom_site_type_symbol
_atom_site_label
_atom_site_fract_x
_atom_site_fract_y
_atom_site_fract_z
Si Si1 0.532639 0.704680 0.831497
Si Si2 0.279545 0.800760 0.276797
Si Si3 0.995353 0.700567 0.594950
Si Si4 0.243782 0.712130 0.971539
Si Si5 0.652690 0.702239 0.330747
Si Si6 0.536729 0.288476 0.646551
O O1 0.506471 0.500000 0.862330
O O2 0.652538 0.734675 0.733067
O O3 0.563854 0.768038 0.700333
O O4 0.397164 0.784580 0.051818
O O5 0.144206 0.706687 0.431839
O O6 0.244369 0.000000 0.334434
O O7 0.953844 0.500000 0.639982
O O8 0.000000 0.780161 0.500000
O O9 0.883979 0.774046 0.805610
O O10 0.241368 0.500000 0.970602
O O11 0.254856 0.775130 0.864822
O O12 0.383339 0.758246 0.828435
O O13 0.500000 0.706438 0.500000
O O14 0.689727 0.500000 0.289852
O O15 0.636090 0.775442 0.442241
O O16 0.542762 0.500000 0.636602
#
# Coordination Sequence:
#
# PCOD9143260 Si02
#       6
#     4   4   4   4   4   4
#     4  10  18  31  51  70  89 115 151 191 228 266
#     4  11  22  34  46  64  92 122 152 185 227 272
#     4  10  19  31  48  69  93 121 154 187 220 264
#     4   8  13  22  39  65  96 123 143 174 223 270
#     4   7  10  18  34  61  95 120 138 170 222 272
#     4   8  13  22  41  69  94 115 142 180 225 269
#
# _framework density 18.778100999999999
#
# number of rings (size 3 to 8) (size 9 to 14) (size 15 to 20)
#    0.000    3.000    0.000    6.000    0.000    3.000 
#    0.000    0.000    0.000    1.000    0.000    9.333 
#    0.000   11.333    0.000    0.000    0.000    0.000 
#
# Total GULP energy -133697.757257 kJ/mol
# GULP energy per Si atom -5570.739886 kJ/mol
# Density = 1.873536 g / cm^3
# Si number density = 18.778101 Si / 1000 Ang^3
#
#
#
# Elastic Constant Matrix: (Units=GPa)
#
#
# Indices 1 2 3 4 5 6 
#
# 1 138.5895 -3.9568 84.7909 0.0000 48.3199 0.0000
# 2 -3.9568 26.4270 -3.2914 0.0000 1.0008 0.0000
# 3 84.7909 -3.2914 129.4623 0.0000 35.2271 0.0000
# 4 0.0000 0.0000 0.0000 -26.0021 0.0000 16.0023
# 5 48.3199 1.0008 35.2271 0.0000 30.3257 0.0000
# 6 0.0000 0.0000 0.0000 16.0023 0.0000 -57.6787
#
#
#
# Elastic Compliance Matrix: (Units=1/GPa)
#
#
# Indices 1 2 3 4 5 6 
#
# 1 0.019352 0.003039 -0.006111 0.000000 -0.023836 0.000000
# 2 0.003039 0.038689 0.000962 0.000000 -0.007237 0.000000
# 3 -0.006111 0.000962 0.013321 0.000000 -0.005768 0.000000
# 4 0.000000 0.000000 0.000000 -0.046377 0.000000 -0.012867
# 5 -0.023836 -0.007237 -0.005768 0.000000 0.077893 0.000000
# 6 0.000000 0.000000 0.000000 -0.012867 0.000000 -0.020907
#
#
# Mechanical properties :
#
#
# Convention : Reuss Voigt Hill
#
# Bulk Modulus (GPa) = 14.89387 49.95158 32.42273
# Shear Modulus (GPa) = 46.05281 3.79139 24.92210
#
# Velocity S-wave (km/s) = 4.95762 1.42247 3.64701
# Velocity P-wave (km/s) = 6.38117 5.41818 5.91929
#
# Compressibility (1/GPa) = 0.06714170
#
# Stress axis : x y z
#
# Youngs Moduli (GPa) = 51.67504 25.84710 75.07050
#
# Poissons Ratio (x) = -0.07855 0.45878
# Poissons Ratio (y) = -0.15704 -0.07225
# Poissons Ratio (z) = 0.31580 -0.02488
#
# Static dielectric constant tensor:
#      x y z
#    x 1.672720 0.000000 0.046560 
#    y 0.000000 1.678420 0.000000 
#    z 0.046560 0.000000 1.658100 
# 
# From -- ./inp_files/54593.got.cif
#   From: 2010.05.17/outbox.cif.g08.bks.cpg/sg10_28_cif.got.tgz:54593.got - 2010.06.03 11:33:40.
