data_PCOD9143483
_publ_section_title
;
Structure prediction by ZEFSAII (Michael W. Deem and Ramdas Pophale) SiO2 
 PCOD9143483
Probable space group: P 2/M
;
_chemical_formula_sum "Si O2"
_cell_formula_units_Z 32
_cell_length_a 13.518462
_cell_length_b 15.029982
_cell_length_c 8.938180
_cell_angle_alpha 90.000000
_cell_angle_beta 114.351259
_cell_angle_gamma 90.000000
_cell_volume 1654.511487
_symmetry_space_group_name_H-M "P 2/M"
_symmetry_group_IT_number 10
_symmetry_cell_setting 'monoclinic'
loop_
_space_group_symop_operation_xyz
x,y,z
-x,y,-z
-x,-y,-z
x,-y,z
loop_
_atom_site_type_symbol
_atom_site_label
_atom_site_fract_x
_atom_site_fract_y
_atom_site_fract_z
Si Si1 0.724325 0.596614 0.817801
Si Si2 0.394760 0.103802 0.039066
Si Si3 0.940526 0.657169 0.806048
Si Si4 0.023547 0.094022 0.693220
Si Si5 0.787875 0.790196 0.252248
Si Si6 0.185588 0.173418 0.390555
Si Si7 0.393431 0.781314 0.332168
Si Si8 0.158765 0.598016 0.789340
O O1 0.671170 0.500000 0.759660
O O2 0.835432 0.600846 0.790272
O O3 0.650654 0.682974 0.741350
O O4 0.768277 0.600146 0.014949
O O5 0.418132 0.154364 0.208541
O O6 0.360066 0.000000 0.038048
O O7 0.500000 0.101846 0.000000
O O8 0.308343 0.167155 0.901979
O O9 0.884403 0.737891 0.684420
O O10 0.033970 0.611987 0.764715
O O11 0.000000 0.683893 0.000000
O O12 0.104470 0.175220 0.766857
O O13 0.000000 0.095731 0.500000
O O14 0.907102 0.100956 0.698072
O O15 0.077345 0.000000 0.763127
O O16 0.783275 0.829421 0.415978
O O17 0.800094 0.684144 0.273860
O O18 0.292427 0.175169 0.358424
O O19 0.500000 0.772714 0.500000
O O20 0.169538 0.500000 0.725940
#
# Coordination Sequence:
#
# PCOD9143483 Si02
#       8
#     4   4   4   4   4   4   4   4
#     4   9  18  34  57  86 121 160 203 244 295 356
#     4  11  25  45  68  90 114 152 199 251 308 360
#     4   9  17  31  52  84 123 165 203 242 291 347
#     4   9  18  32  54  82 115 154 192 233 291 352
#     4  11  20  38  59  89 125 160 199 246 294 358
#     4  10  21  35  59  85 126 160 199 243 302 352
#     4  11  23  41  63  91 117 155 198 252 303 357
#     4  10  18  31  57  87 122 165 204 243 290 350
#
# _framework density 19.341055999999998
#
# number of rings (size 3 to 8) (size 9 to 14) (size 15 to 20)
#    0.000    2.000    2.500    1.500    0.000    3.000 
#    0.000    3.750    0.000    4.875    0.000    0.000 
#    0.000    0.000    0.000    0.000    0.000    0.000 
#
# Total GULP energy -178319.863540 kJ/mol
# GULP energy per Si atom -5572.495736 kJ/mol
# Density = 1.929704 g / cm^3
# Si number density = 19.341056 Si / 1000 Ang^3
#
#
#
# Elastic Constant Matrix: (Units=GPa)
#
#
# Indices 1 2 3 4 5 6 
#
# 1 87.3793 32.8783 23.8988 0.0000 8.5990 0.0000
# 2 32.8783 115.0012 22.4896 0.0000 7.9016 0.0000
# 3 23.8988 22.4896 54.0939 0.0000 11.1979 0.0000
# 4 0.0000 0.0000 0.0000 8.6169 0.0000 -1.8252
# 5 8.5990 7.9016 11.1979 0.0000 22.4438 0.0000
# 6 0.0000 0.0000 0.0000 -1.8252 0.0000 18.7119
#
#
#
# Elastic Compliance Matrix: (Units=1/GPa)
#
#
# Indices 1 2 3 4 5 6 
#
# 1 0.014005 -0.002978 -0.004523 0.000000 -0.002061 0.000000
# 2 -0.002978 0.010145 -0.002675 0.000000 -0.001096 0.000000
# 3 -0.004523 -0.002675 0.023467 0.000000 -0.009034 0.000000
# 4 0.000000 0.000000 0.000000 0.118500 0.000000 0.011559
# 5 -0.002061 -0.001096 -0.009034 0.000000 0.050238 0.000000
# 6 0.000000 0.000000 0.000000 0.011559 0.000000 0.054570
#
#
# Mechanical properties :
#
#
# Convention : Reuss Voigt Hill
#
# Bulk Modulus (GPa) = 36.67702 46.11198 41.39450
# Shear Modulus (GPa) = 16.64646 21.76837 19.20742
#
# Velocity S-wave (km/s) = 2.93692 3.35849 3.15475
# Velocity P-wave (km/s) = 5.52314 6.23959 5.89227
#
# Compressibility (1/GPa) = 0.02726503
#
# Stress axis : x y z
#
# Youngs Moduli (GPa) = 71.40521 98.56659 42.61335
#
# Poissons Ratio (x) = 0.29351 0.19272
# Poissons Ratio (y) = 0.21263 0.11401
# Poissons Ratio (z) = 0.32294 0.26371
#
# Static dielectric constant tensor:
#      x y z
#    x 1.677610 0.000000 -0.010250 
#    y 0.000000 1.720790 0.000000 
#    z -0.010250 0.000000 1.661910 
# 
# From -- ./inp_files/29561.got.cif
#   From: 2010.05.17/outbox.cif.g08.bks.cpg/sg10_15_cif.got.tgz:29561.got - 2010.06.03 11:33:40.
