data_PCOD9143887
_publ_section_title
;
Structure prediction by ZEFSAII (Michael W. Deem and Ramdas Pophale) SiO2 
 PCOD9143887
Probable space group: P 2/M
;
_chemical_formula_sum "Si O2"
_cell_formula_units_Z 32
_cell_length_a 9.408021
_cell_length_b 13.354587
_cell_length_c 28.713878
_cell_angle_alpha 90.000000
_cell_angle_beta 27.461348
_cell_angle_gamma 90.000000
_cell_volume 1663.653672
_symmetry_space_group_name_H-M "P 2/M"
_symmetry_group_IT_number 10
_symmetry_cell_setting 'monoclinic'
loop_
_space_group_symop_operation_xyz
x,y,z
-x,y,-z
-x,-y,-z
x,-y,z
loop_
_atom_site_type_symbol
_atom_site_label
_atom_site_fract_x
_atom_site_fract_y
_atom_site_fract_z
Si Si1 0.763677 0.708620 0.755971
Si Si2 0.123747 0.619936 0.563932
Si Si3 0.222809 0.117067 0.185545
Si Si4 0.771159 0.882214 0.231525
Si Si5 0.442363 0.315877 0.322591
Si Si6 0.189477 0.382690 0.875769
Si Si7 0.716126 0.771520 0.979049
Si Si8 0.274929 0.381485 0.662443
O O1 0.781057 0.824396 0.764604
O O2 0.424478 0.666454 0.844542
O O3 0.966825 0.677024 0.652390
O O4 0.938166 0.658847 0.748828
O O5 0.112612 0.500000 0.576125
O O6 0.469942 0.649660 0.450164
O O7 0.904204 0.647164 0.584200
O O8 0.924042 0.130344 0.238605
O O9 0.265140 0.000000 0.179812
O O10 0.504570 0.163575 0.074433
O O11 0.491754 0.804175 0.305906
O O12 0.029387 0.842256 0.120011
O O13 0.706393 0.000000 0.243635
O O14 0.632534 0.367520 0.225283
O O15 0.596333 0.349212 0.325512
O O16 0.141319 0.500000 0.898837
O O17 0.884902 0.316946 0.957537
O O18 0.500000 0.731858 0.000000
O O19 0.263995 0.500000 0.663574
#
# Coordination Sequence:
#
# PCOD9143887 Si02
#       8
#     4   4   4   4   4   4   4   4
#     4  11  21  36  54  80 111 148 182 221 274 328
#     4  10  21  36  54  79 117 150 177 225 276 320
#     4  10  20  37  59  81 107 141 185 234 275 317
#     4   9  17  33  58  84 111 142 179 230 283 321
#     4  10  18  33  55  85 110 143 186 227 271 319
#     4  10  21  37  54  78 121 154 173 218 276 327
#     4   9  19  36  59  85 109 141 185 225 271 327
#     4  11  20  33  57  84 108 143 190 226 266 327
#
# _framework density 19.234772
#
# number of rings (size 3 to 8) (size 9 to 14) (size 15 to 20)
#    0.000    2.000    1.250    4.125    0.000    4.250 
#    0.000    9.375    0.000    4.500    0.000    0.000 
#    0.000    0.000    0.000    0.000    0.000    0.000 
#
# Total GULP energy -178596.086615 kJ/mol
# GULP energy per Si atom -5581.127707 kJ/mol
# Density = 1.919099 g / cm^3
# Si number density = 19.234772 Si / 1000 Ang^3
#
#
#
# Elastic Constant Matrix: (Units=GPa)
#
#
# Indices 1 2 3 4 5 6 
#
# 1 101.5068 42.8918 26.2959 0.0000 -10.1013 0.0000
# 2 42.8918 116.9262 27.8984 0.0000 -14.4244 0.0000
# 3 26.2959 27.8984 35.2326 0.0000 -10.6342 0.0000
# 4 0.0000 0.0000 0.0000 21.0844 0.0000 -4.0764
# 5 -10.1013 -14.4244 -10.6342 0.0000 24.4286 0.0000
# 6 0.0000 0.0000 0.0000 -4.0764 0.0000 38.2757
#
#
#
# Elastic Compliance Matrix: (Units=1/GPa)
#
#
# Indices 1 2 3 4 5 6 
#
# 1 0.013035 -0.003003 -0.007206 0.000000 0.000480 0.000000
# 2 -0.003003 0.011429 -0.005925 0.000000 0.002927 0.000000
# 3 -0.007206 -0.005925 0.042018 0.000000 0.011813 0.000000
# 4 0.000000 0.000000 0.000000 0.048425 0.000000 0.005157
# 5 0.000480 0.002927 0.011813 0.000000 0.048005 0.000000
# 6 0.000000 0.000000 0.000000 0.005157 0.000000 0.026675
#
#
# Mechanical properties :
#
#
# Convention : Reuss Voigt Hill
#
# Bulk Modulus (GPa) = 29.22765 49.75975 39.49370
# Shear Modulus (GPa) = 21.43531 27.19638 24.31585
#
# Velocity S-wave (km/s) = 3.34189 3.76429 3.55936
# Velocity P-wave (km/s) = 5.48809 6.69470 6.12120
#
# Compressibility (1/GPa) = 0.03421417
#
# Stress axis : x y z
#
# Youngs Moduli (GPa) = 76.71659 87.49819 23.79940
#
# Poissons Ratio (x) = 0.26276 0.17150
# Poissons Ratio (y) = 0.23039 0.14101
# Poissons Ratio (z) = 0.55281 0.51841
#
# Static dielectric constant tensor:
#      x y z
#    x 1.717050 0.000000 -0.002380 
#    y 0.000000 1.651610 0.000000 
#    z -0.002380 0.000000 1.703040 
# 
# From -- ./inp_files/94654.got.cif
#   From: 2010.05.17/outbox.cif.g08.bks.cpg/sg10_48_cif.got.tgz:94654.got - 2010.06.03 11:33:40.
