data_PCOD9143528
_publ_section_title
;
Structure prediction by ZEFSAII (Michael W. Deem and Ramdas Pophale) SiO2 
 PCOD9143528
Probable space group: P 2/M
;
_chemical_formula_sum "Si O2"
_cell_formula_units_Z 32
_cell_length_a 23.767208
_cell_length_b 8.782079
_cell_length_c 33.594595
_cell_angle_alpha 90.000000
_cell_angle_beta 14.611577
_cell_angle_gamma 90.000000
_cell_volume 1768.893631
_symmetry_space_group_name_H-M "P 2/M"
_symmetry_group_IT_number 10
_symmetry_cell_setting 'monoclinic'
loop_
_space_group_symop_operation_xyz
x,y,z
-x,y,-z
-x,-y,-z
x,-y,z
loop_
_atom_site_type_symbol
_atom_site_label
_atom_site_fract_x
_atom_site_fract_y
_atom_site_fract_z
Si Si1 0.189253 0.176425 0.039638
Si Si2 0.888707 0.672315 0.119412
Si Si3 0.645843 0.814309 0.753550
Si Si4 0.950069 0.816428 0.470135
Si Si5 0.727101 0.319523 0.546265
Si Si6 0.374267 0.314837 0.470597
Si Si7 0.702989 0.172062 0.124886
Si Si8 0.283709 0.316351 0.622247
O O1 0.956016 0.263137 0.197974
O O2 0.141604 0.000000 0.082285
O O3 0.389457 0.238206 0.930341
O O4 0.304323 0.178578 0.917544
O O5 0.888815 0.500000 0.136542
O O6 0.635710 0.724859 0.288991
O O7 0.000000 0.664715 0.000000
O O8 0.046430 0.782321 0.035904
O O9 0.775633 0.767223 0.624203
O O10 0.806543 0.770999 0.680004
O O11 0.638818 0.000000 0.757301
O O12 0.881798 0.754511 0.473975
O O13 0.940581 0.000000 0.475337
O O14 0.760727 0.500000 0.523604
O O15 0.746317 0.262908 0.487391
O O16 0.474163 0.282641 0.733424
O O17 0.363453 0.500000 0.477448
O O18 0.295766 0.264304 0.567854
O O19 0.651543 0.000000 0.173033
O O20 0.500000 0.264693 0.500000
O O21 0.290831 0.500000 0.617781
#
# Coordination Sequence:
#
# PCOD9143528 Si02
#       8
#     4   4   4   4   4   4   4   4
#     4  10  20  35  54  77 105 136 173 217 262 304
#     4  10  18  32  51  70  97 134 170 207 257 312
#     4   8  15  30  53  76 105 142 170 203 259 319
#     4   9  16  31  53  77 106 140 172 203 257 320
#     4  11  20  32  50  74 107 140 168 207 258 312
#     4   9  19  35  52  72 101 137 172 209 264 320
#     4  11  21  32  48  74 106 136 170 211 256 311
#     4  10  21  38  58  76  98 135 182 224 258 303
#
# _framework density 18.090402000000001
#
# number of rings (size 3 to 8) (size 9 to 14) (size 15 to 20)
#    0.000    2.250    2.500    2.250    0.000    2.500 
#    0.000    3.750    0.000    0.750    0.000    5.250 
#    0.000    0.000    0.000    0.000    0.000    0.000 
#
# Total GULP energy -178321.683272 kJ/mol
# GULP energy per Si atom -5572.552602 kJ/mol
# Density = 1.804923 g / cm^3
# Si number density = 18.090402 Si / 1000 Ang^3
#
#
#
# Elastic Constant Matrix: (Units=GPa)
#
#
# Indices 1 2 3 4 5 6 
#
# 1 128.4100 20.6339 35.4746 0.0000 -21.6724 0.0000
# 2 20.6339 13.1089 8.3204 0.0000 -5.5555 0.0000
# 3 35.4746 8.3204 62.6719 0.0000 -18.5974 0.0000
# 4 0.0000 0.0000 0.0000 11.8170 0.0000 -5.6997
# 5 -21.6724 -5.5555 -18.5974 0.0000 33.0879 0.0000
# 6 0.0000 0.0000 0.0000 -5.6997 0.0000 26.2327
#
#
#
# Elastic Compliance Matrix: (Units=1/GPa)
#
#
# Indices 1 2 3 4 5 6 
#
# 1 0.011717 -0.014749 -0.003758 0.000000 0.003086 0.000000
# 2 -0.014749 0.104340 -0.003807 0.000000 0.005718 0.000000
# 3 -0.003758 -0.003807 0.021205 0.000000 0.008818 0.000000
# 4 0.000000 0.000000 0.000000 0.094530 0.000000 0.020539
# 5 0.003086 0.005718 0.008818 0.000000 0.038160 0.000000
# 6 0.000000 0.000000 0.000000 0.020539 0.000000 0.042583
#
#
# Mechanical properties :
#
#
# Convention : Reuss Voigt Hill
#
# Bulk Modulus (GPa) = 10.79524 37.00542 23.90033
# Shear Modulus (GPa) = 12.88520 23.54499 18.21509
#
# Velocity S-wave (km/s) = 2.67173 3.61157 3.17660
# Velocity P-wave (km/s) = 3.93673 6.15561 5.16669
#
# Compressibility (1/GPa) = 0.09263342
#
# Stress axis : x y z
#
# Youngs Moduli (GPa) = 85.34873 9.58402 47.15761
#
# Poissons Ratio (x) = 0.14136 0.17723
# Poissons Ratio (y) = 1.25885 0.17952
# Poissons Ratio (z) = 0.32076 0.03648
#
# Static dielectric constant tensor:
#      x y z
#    x 1.679010 0.000000 -0.017220 
#    y 0.000000 1.621780 0.000000 
#    z -0.017220 0.000000 1.615630 
# 
# From -- ./inp_files/95650.got.cif
#   From: 2010.05.17/outbox.cif.g08.bks.cpg/sg10_48_cif.got.tgz:95650.got - 2010.06.03 11:33:40.
