data_PCOD9143167
_publ_section_title
;
Structure prediction by ZEFSAII (Michael W. Deem and Ramdas Pophale) SiO2 
 PCOD9143167
Probable space group: P 2/M
;
_chemical_formula_sum "Si O2"
_cell_formula_units_Z 28
_cell_length_a 13.477778
_cell_length_b 9.582494
_cell_length_c 17.134636
_cell_angle_alpha 90.000000
_cell_angle_beta 33.756031
_cell_angle_gamma 90.000000
_cell_volume 1229.643205
_symmetry_space_group_name_H-M "P 2/M"
_symmetry_group_IT_number 10
_symmetry_cell_setting 'monoclinic'
loop_
_space_group_symop_operation_xyz
x,y,z
-x,y,-z
-x,-y,-z
x,-y,z
loop_
_atom_site_type_symbol
_atom_site_label
_atom_site_fract_x
_atom_site_fract_y
_atom_site_fract_z
Si Si1 0.788196 0.659449 0.660531
Si Si2 0.267415 0.838757 0.450337
Si Si3 0.832248 0.847822 0.231242
Si Si4 0.342429 0.343213 0.539572
Si Si5 0.842763 0.160266 0.770302
Si Si6 0.217029 0.656541 0.872756
Si Si7 0.240987 0.155138 0.992371
O O1 0.722591 0.500000 0.698536
O O2 0.713146 0.767215 0.646189
O O3 0.764866 0.727534 0.760956
O O4 0.000000 0.654652 0.500000
O O5 0.372139 0.745157 0.443367
O O6 0.057736 0.833358 0.614884
O O7 0.319092 0.000000 0.417310
O O8 0.809908 0.737147 0.314160
O O9 0.746102 0.780492 0.211955
O O10 0.042710 0.863283 0.085630
O O11 0.755598 0.000000 0.301304
O O12 0.500000 0.344617 0.500000
O O13 0.292177 0.500000 0.552296
O O14 0.785094 0.181894 0.898058
O O15 0.791052 0.000000 0.783885
O O16 0.287405 0.500000 0.808146
O O17 0.291794 0.710621 0.907055
O O18 0.000000 0.642420 0.000000
O O19 0.327881 0.000000 0.926804
#
# Coordination Sequence:
#
# PCOD9143167 Si02
#       7
#     4   4   4   4   4   4   4
#     4   9  17  27  40  62  87 115 147 180 220 266
#     4  10  18  31  47  62  83 116 152 187 225 264
#     4  10  18  31  47  62  83 116 152 187 225 264
#     4  11  23  35  47  65  89 117 151 193 234 269
#     4   9  16  27  42  63  89 118 150 182 218 262
#     4   9  17  27  40  62  87 115 147 180 220 266
#     4   9  16  27  42  63  89 118 150 182 218 262
#
# _framework density 22.770831999999999
#
# number of rings (size 3 to 8) (size 9 to 14) (size 15 to 20)
#    0.000    2.429    1.429    2.143    0.000    6.286 
#    0.000    0.000    0.000    0.000    0.000    0.000 
#    0.000    1.143    0.000   12.000    0.000    5.143 
#
# Total GULP energy -156142.306431 kJ/mol
# GULP energy per Si atom -5576.510944 kJ/mol
# Density = 2.271900 g / cm^3
# Si number density = 22.770832 Si / 1000 Ang^3
#
#
#
# Elastic Constant Matrix: (Units=GPa)
#
#
# Indices 1 2 3 4 5 6 
#
# 1 70.0833 73.9596 19.0573 0.0000 42.4892 0.0000
# 2 73.9596 205.7984 20.1947 0.0000 33.0340 0.0000
# 3 19.0573 20.1947 32.3778 0.0000 16.3658 0.0000
# 4 0.0000 0.0000 0.0000 5.2213 0.0000 15.7098
# 5 42.4892 33.0340 16.3658 0.0000 40.3364 0.0000
# 6 0.0000 0.0000 0.0000 15.7098 0.0000 34.4026
#
#
#
# Elastic Compliance Matrix: (Units=1/GPa)
#
#
# Indices 1 2 3 4 5 6 
#
# 1 0.059731 -0.013058 -0.000773 0.000000 -0.051912 0.000000
# 2 -0.013058 0.008506 -0.001322 0.000000 0.007325 0.000000
# 3 -0.000773 -0.001322 0.039257 0.000000 -0.014030 0.000000
# 4 0.000000 0.000000 0.000000 -0.512174 0.000000 0.233882
# 5 -0.051912 0.007325 -0.014030 0.000000 0.079168 0.000000
# 6 0.000000 0.000000 0.000000 0.233882 0.000000 -0.077733
#
#
# Mechanical properties :
#
#
# Convention : Reuss Voigt Hill
#
# Bulk Modulus (GPa) = 12.95545 59.40920 36.18233
# Shear Modulus (GPa) = -14.40048 28.99526 7.29739
#
# Velocity S-wave (km/s) = -2.51750 3.57228 1.79211
# Velocity P-wave (km/s) = 1.65789 6.56975 4.49516
#
# Compressibility (1/GPa) = 0.07718759
#
# Stress axis : x y z
#
# Youngs Moduli (GPa) = 16.74166 117.56841 25.47310
#
# Poissons Ratio (x) = 1.53516 0.01970
# Poissons Ratio (y) = 0.21861 0.03368
# Poissons Ratio (z) = 0.01295 0.15545
#
# Static dielectric constant tensor:
#      x y z
#    x 1.859530 0.000000 0.009670 
#    y 0.000000 1.871240 0.000000 
#    z 0.009670 0.000000 1.986640 
# 
# From -- ./inp_files/68614.got.cif
#   From: 2010.05.17/outbox.cif.g08.bks.cpg/sg10_35_cif.got.tgz:68614.got - 2010.06.03 11:33:40.
