data_PCOD9143636
_publ_section_title
;
Structure prediction by ZEFSAII (Michael W. Deem and Ramdas Pophale) SiO2 
 PCOD9143636
Probable space group: P 2/M
;
_chemical_formula_sum "Si O2"
_cell_formula_units_Z 20
_cell_length_a 11.775046
_cell_length_b 7.930973
_cell_length_c 13.957016
_cell_angle_alpha 90.000000
_cell_angle_beta 53.920839
_cell_angle_gamma 90.000000
_cell_volume 1053.422824
_symmetry_space_group_name_H-M "P 2/M"
_symmetry_group_IT_number 10
_symmetry_cell_setting 'monoclinic'
loop_
_space_group_symop_operation_xyz
x,y,z
-x,y,-z
-x,-y,-z
x,-y,z
loop_
_atom_site_type_symbol
_atom_site_label
_atom_site_fract_x
_atom_site_fract_y
_atom_site_fract_z
Si Si1 0.407727 0.694360 0.906563
Si Si2 0.994170 0.704047 0.613330
Si Si3 0.430972 0.293891 0.682030
Si Si4 0.305372 0.807722 0.157406
Si Si5 0.284098 0.705738 0.561608
O O1 0.361274 0.500000 0.930991
O O2 0.391471 0.764343 0.807650
O O3 0.573235 0.700644 0.851115
O O4 0.328592 0.785726 0.032262
O O5 0.996315 0.500000 0.612414
O O6 0.849743 0.759663 0.733438
O O7 0.000000 0.760108 0.500000
O O8 0.133263 0.763611 0.599835
O O9 0.431504 0.500000 0.684731
O O10 0.588135 0.242894 0.571853
O O11 0.327732 0.242472 0.647244
O O12 0.334583 0.000000 0.169090
O O13 0.283239 0.500000 0.561651
#
# Coordination Sequence:
#
# PCOD9143636 Si02
#       5
#     4   4   4   4   4
#     4  10  18  32  54  75  95 124 166 207 242 285
#     4  10  19  32  52  76 100 128 162 200 241 286
#     4   8  14  26  48  76 100 123 153 198 249 287
#     4  11  22  34  48  70 101 132 162 199 246 293
#     4   8  14  26  46  75 105 124 150 197 247 289
#
# _framework density 18.985728000000002
#
# number of rings (size 3 to 8) (size 9 to 14) (size 15 to 20)
#    0.000    2.600    0.000    6.000    0.000    3.600 
#    0.000    1.000    0.000    8.400    0.000    8.400 
#    0.000    0.000    0.000    0.000    0.000    0.000 
#
# Total GULP energy -111584.767416 kJ/mol
# GULP energy per Si atom -5579.238371 kJ/mol
# Density = 1.894252 g / cm^3
# Si number density = 18.985728 Si / 1000 Ang^3
#
#
#
# Elastic Constant Matrix: (Units=GPa)
#
#
# Indices 1 2 3 4 5 6 
#
# 1 102.3811 0.8444 87.9838 0.0000 -1.3642 0.0000
# 2 0.8444 25.3708 0.1136 0.0000 -0.7632 0.0000
# 3 87.9838 0.1136 132.4009 0.0000 4.2619 0.0000
# 4 0.0000 0.0000 0.0000 -163.9215 0.0000 -7.4059
# 5 -1.3642 -0.7632 4.2619 0.0000 33.4863 0.0000
# 6 0.0000 0.0000 0.0000 -7.4059 0.0000 -9.9793
#
#
#
# Elastic Compliance Matrix: (Units=1/GPa)
#
#
# Indices 1 2 3 4 5 6 
#
# 1 0.023059 -0.000612 -0.015415 0.000000 0.002887 0.000000
# 2 -0.000612 0.039459 0.000346 0.000000 0.000830 0.000000
# 3 -0.015415 0.000346 0.017890 0.000000 -0.002897 0.000000
# 4 0.000000 0.000000 0.000000 -0.006312 0.000000 0.004684
# 5 0.002887 0.000830 -0.002897 0.000000 0.030368 0.000000
# 6 0.000000 0.000000 0.000000 0.004684 0.000000 -0.103684
#
#
# Mechanical properties :
#
#
# Convention : Reuss Voigt Hill
#
# Bulk Modulus (GPa) = 20.38937 48.67070 34.53003
# Shear Modulus (GPa) = 103.11371 -16.66882 43.22245
#
# Velocity S-wave (km/s) = 7.37761 -2.96626 4.77652
# Velocity P-wave (km/s) = 9.12879 3.73623 6.97475
#
# Compressibility (1/GPa) = 0.04904515
#
# Stress axis : x y z
#
# Youngs Moduli (GPa) = 43.36778 25.34264 55.89797
#
# Poissons Ratio (x) = 0.01550 0.86169
# Poissons Ratio (y) = 0.02652 -0.01933
# Poissons Ratio (z) = 0.66853 -0.00876
#
# Static dielectric constant tensor:
#      x y z
#    x 1.647900 0.000000 0.021280 
#    y 0.000000 1.667280 0.000000 
#    z 0.021280 0.000000 1.636360 
# 
# From -- ./inp_files/44244.got.cif
#   From: 2010.05.17/outbox.cif.g08.bks.cpg/sg10_23_cif.got.tgz:44244.got - 2010.06.03 11:33:40.
