data_PCOD9143763
_publ_section_title
;
Structure prediction by ZEFSAII (Michael W. Deem and Ramdas Pophale) SiO2 
 PCOD9143763
Probable space group: P 2/M
;
_chemical_formula_sum "Si O2"
_cell_formula_units_Z 32
_cell_length_a 26.886364
_cell_length_b 7.895470
_cell_length_c 21.558025
_cell_angle_alpha 90.000000
_cell_angle_beta 20.436220
_cell_angle_gamma 90.000000
_cell_volume 1597.898173
_symmetry_space_group_name_H-M "P 2/M"
_symmetry_group_IT_number 10
_symmetry_cell_setting 'monoclinic'
loop_
_space_group_symop_operation_xyz
x,y,z
-x,y,-z
-x,-y,-z
x,-y,z
loop_
_atom_site_type_symbol
_atom_site_label
_atom_site_fract_x
_atom_site_fract_y
_atom_site_fract_z
Si Si1 0.376907 0.800394 0.947048
Si Si2 0.641217 0.297215 0.300236
Si Si3 0.531456 0.795651 0.295153
Si Si4 0.674946 0.304240 0.641973
Si Si5 0.942922 0.699864 0.001250
Si Si6 0.342011 0.292893 0.202068
Si Si7 0.157375 0.295176 0.300874
Si Si8 0.774195 0.197208 0.392690
O O1 0.388126 0.746167 0.862320
O O2 0.503503 0.706518 0.835515
O O3 0.410699 0.000000 0.909607
O O4 0.229734 0.768705 0.153589
O O5 0.500000 0.229109 0.500000
O O6 0.643088 0.500000 0.306777
O O7 0.612262 0.264506 0.261648
O O8 0.792592 0.231371 0.150189
O O9 0.366448 0.735544 0.479725
O O10 0.525933 0.000000 0.303656
O O11 0.719285 0.500000 0.586518
O O12 0.708001 0.234611 0.671619
O O13 0.737834 0.214805 0.507965
O O14 0.918106 0.500000 0.040496
O O15 0.076666 0.718658 0.798844
O O16 0.000000 0.773090 0.000000
O O17 0.342689 0.500000 0.204613
O O18 0.247833 0.241112 0.254489
O O19 0.500000 0.237202 0.000000
O O20 0.158692 0.500000 0.296118
O O21 0.000000 0.237245 0.500000
O O22 0.787998 0.000000 0.361090
#
# Coordination Sequence:
#
# PCOD9143763 Si02
#       8
#     4   4   4   4   4   4   4   4
#     4  10  20  35  54  78 111 143 182 226 273 330
#     4  10  21  37  59  87 113 140 182 230 270 317
#     4   9  20  37  56  79 109 147 185 223 268 326
#     4  10  18  32  57  81 107 142 183 229 277 322
#     4  10  21  38  60  86 115 146 182 225 273 324
#     4   9  16  30  53  79 105 133 176 230 275 319
#     4  10  20  35  54  77 104 140 185 228 276 331
#     4  10  21  37  56  82 116 148 185 226 273 331
#
# _framework density 20.026308
#
# number of rings (size 3 to 8) (size 9 to 14) (size 15 to 20)
#    0.000    2.250    1.250    2.625    0.000    5.250 
#    2.250    1.875    0.000    0.000    0.000    0.000 
#    0.000    0.000    0.000    0.000    0.000    0.000 
#
# Total GULP energy -178519.259927 kJ/mol
# GULP energy per Si atom -5578.726873 kJ/mol
# Density = 1.998073 g / cm^3
# Si number density = 20.026308 Si / 1000 Ang^3
#
#
#
# Elastic Constant Matrix: (Units=GPa)
#
#
# Indices 1 2 3 4 5 6 
#
# 1 140.3165 7.0925 82.3750 0.0000 -10.6204 0.0000
# 2 7.0925 23.6471 1.4606 0.0000 -5.7916 0.0000
# 3 82.3750 1.4606 145.9709 0.0000 -12.5298 0.0000
# 4 0.0000 0.0000 0.0000 2.7093 0.0000 5.2801
# 5 -10.6204 -5.7916 -12.5298 0.0000 28.8752 0.0000
# 6 0.0000 0.0000 0.0000 5.2801 0.0000 24.0967
#
#
#
# Elastic Compliance Matrix: (Units=1/GPa)
#
#
# Indices 1 2 3 4 5 6 
#
# 1 0.010868 -0.002681 -0.006034 0.000000 0.000841 0.000000
# 2 -0.002681 0.045150 0.001822 0.000000 0.008860 0.000000
# 3 -0.006034 0.001822 0.010469 0.000000 0.002689 0.000000
# 4 0.000000 0.000000 0.000000 0.644179 0.000000 -0.141152
# 5 0.000841 0.008860 0.002689 0.000000 0.037885 0.000000
# 6 0.000000 0.000000 0.000000 -0.141152 0.000000 0.072429
#
#
# Mechanical properties :
#
#
# Convention : Reuss Voigt Hill
#
# Bulk Modulus (GPa) = 18.97531 54.64339 36.80935
# Shear Modulus (GPa) = 5.86625 25.73667 15.80146
#
# Velocity S-wave (km/s) = 1.71337 3.58878 2.81202
# Velocity P-wave (km/s) = 3.66196 6.67214 5.38179
#
# Compressibility (1/GPa) = 0.05270007
#
# Stress axis : x y z
#
# Youngs Moduli (GPa) = 92.00928 22.14828 95.52426
#
# Poissons Ratio (x) = 0.05938 0.57642
# Poissons Ratio (y) = 0.24668 -0.17402
# Poissons Ratio (z) = 0.55521 -0.04035
#
# Static dielectric constant tensor:
#      x y z
#    x 1.703700 0.000000 0.008020 
#    y 0.000000 1.734000 0.000000 
#    z 0.008020 0.000000 1.694470 
# 
# From -- ./inp_files/86741.got.cif
#   From: 2010.05.17/outbox.cif.g08.bks.cpg/sg10_44_cif.got.tgz:86741.got - 2010.06.03 11:33:40.
