data_PCOD9143758
_publ_section_title
;
Structure prediction by ZEFSAII (Michael W. Deem and Ramdas Pophale) SiO2 
 PCOD9143758
Probable space group: P 2/M
;
_chemical_formula_sum "Si O2"
_cell_formula_units_Z 24
_cell_length_a 8.100580
_cell_length_b 13.989183
_cell_length_c 9.048783
_cell_angle_alpha 90.000000
_cell_angle_beta 105.331654
_cell_angle_gamma 90.000000
_cell_volume 988.919672
_symmetry_space_group_name_H-M "P 2/M"
_symmetry_group_IT_number 10
_symmetry_cell_setting 'monoclinic'
loop_
_space_group_symop_operation_xyz
x,y,z
-x,y,-z
-x,-y,-z
x,-y,z
loop_
_atom_site_type_symbol
_atom_site_label
_atom_site_fract_x
_atom_site_fract_y
_atom_site_fract_z
Si Si1 0.804291 0.777973 0.898882
Si Si2 0.284875 0.107235 0.856693
Si Si3 0.370531 0.201126 0.604150
Si Si4 0.881423 0.607537 0.710089
Si Si5 0.751585 0.607311 0.339473
Si Si6 0.108013 0.892346 0.345359
O O1 0.788846 0.682835 0.794977
O O2 0.796975 0.865523 0.782788
O O3 0.698782 0.810814 0.016195
O O4 0.000000 0.770735 0.000000
O O5 0.397266 0.124414 0.738410
O O6 0.090167 0.114856 0.746621
O O7 0.304323 0.000000 0.920567
O O8 0.500000 0.198162 0.500000
O O9 0.371825 0.302437 0.688331
O O10 0.185833 0.179661 0.484078
O O11 0.868567 0.500000 0.768013
O O12 0.806447 0.604941 0.525963
O O13 0.083049 0.627984 0.724871
O O14 0.688848 0.500000 0.288891
O O15 0.143000 0.000000 0.404321
#
# Coordination Sequence:
#
# PCOD9143758 Si02
#       6
#     4   4   4   4   4   4
#     4  10  18  32  56  86 118 145 180 231 285 340
#     4  10  22  38  58  85 116 152 190 235 287 336
#     4  12  24  37  57  84 113 153 195 239 282 333
#     4   9  17  31  58  91 117 143 182 235 286 333
#     4   9  18  34  57  85 115 147 186 232 283 337
#     4  10  20  36  59  82 109 147 190 236 286 337
#
# _framework density 24.268910000000002
#
# number of rings (size 3 to 8) (size 9 to 14) (size 15 to 20)
#    0.000    2.000    1.667    4.500    2.333    5.333 
#    0.000    1.667    0.000    2.000    0.000    2.333 
#    0.000    0.000    0.000    0.000    0.000    0.000 
#
# Total GULP energy -134046.504435 kJ/mol
# GULP energy per Si atom -5585.271018 kJ/mol
# Density = 2.421367 g / cm^3
# Si number density = 24.268910 Si / 1000 Ang^3
#
#
#
# Elastic Constant Matrix: (Units=GPa)
#
#
# Indices 1 2 3 4 5 6 
#
# 1 90.9747 38.6840 33.2490 0.0000 -11.5593 0.0000
# 2 38.6840 169.0382 48.4068 0.0000 -33.8615 0.0000
# 3 33.2490 48.4068 79.5555 0.0000 -25.8134 0.0000
# 4 0.0000 0.0000 0.0000 37.3795 0.0000 -13.9352
# 5 -11.5593 -33.8615 -25.8134 0.0000 51.4143 0.0000
# 6 0.0000 0.0000 0.0000 -13.9352 0.0000 -10.5127
#
#
#
# Elastic Compliance Matrix: (Units=1/GPa)
#
#
# Indices 1 2 3 4 5 6 
#
# 1 0.013409 -0.001843 -0.004657 0.000000 -0.000537 0.000000
# 2 -0.001843 0.007833 -0.002935 0.000000 0.003271 0.000000
# 3 -0.004657 -0.002935 0.018319 0.000000 0.006218 0.000000
# 4 0.000000 0.000000 0.000000 0.017905 0.000000 -0.023734
# 5 -0.000537 0.003271 0.006218 0.000000 0.024605 0.000000
# 6 0.000000 0.000000 0.000000 -0.023734 0.000000 -0.063663
#
#
# Mechanical properties :
#
#
# Convention : Reuss Voigt Hill
#
# Bulk Modulus (GPa) = 48.32615 64.47198 56.39906
# Shear Modulus (GPa) = 113.18245 30.27146 71.72695
#
# Velocity S-wave (km/s) = 6.83652 3.53559 5.44236
# Velocity P-wave (km/s) = 9.07047 6.57956 7.92351
#
# Compressibility (1/GPa) = 0.02069273
#
# Stress axis : x y z
#
# Youngs Moduli (GPa) = 74.57405 127.66177 54.58684
#
# Poissons Ratio (x) = 0.23523 0.25423
# Poissons Ratio (y) = 0.13741 0.16020
# Poissons Ratio (z) = 0.34732 0.37465
#
# Static dielectric constant tensor:
#      x y z
#    x 1.988940 0.000000 0.052940 
#    y 0.000000 1.925590 0.000000 
#    z 0.052940 0.000000 1.920970 
# 
# From -- ./inp_files/18922.got.cif
#   From: 2010.05.17/outbox.cif.g08.bks.cpg/sg10_10_cif.got.tgz:18922.got - 2010.06.03 11:33:40.
