data_PCOD9143177
_publ_section_title
;
Structure prediction by ZEFSAII (Michael W. Deem and Ramdas Pophale) SiO2 
 PCOD9143177
Probable space group: P 2/M
;
_chemical_formula_sum "Si O2"
_cell_formula_units_Z 32
_cell_length_a 9.138039
_cell_length_b 18.427224
_cell_length_c 7.800771
_cell_angle_alpha 90.000000
_cell_angle_beta 86.798639
_cell_angle_gamma 90.000000
_cell_volume 1311.511727
_symmetry_space_group_name_H-M "P 2/M"
_symmetry_group_IT_number 10
_symmetry_cell_setting 'monoclinic'
loop_
_space_group_symop_operation_xyz
x,y,z
-x,y,-z
-x,-y,-z
x,-y,z
loop_
_atom_site_type_symbol
_atom_site_label
_atom_site_fract_x
_atom_site_fract_y
_atom_site_fract_z
Si Si1 0.404528 0.919126 0.681158
Si Si2 0.245061 0.580573 0.676956
Si Si3 0.253494 0.226871 0.392875
Si Si4 0.218089 0.580569 0.088958
Si Si5 0.487095 0.338761 0.232722
Si Si6 0.289973 0.222918 0.801583
Si Si7 0.015473 0.306380 0.750297
Si Si8 0.838386 0.920392 0.568685
O O1 0.500000 0.902193 0.500000
O O2 0.373383 0.854342 0.818619
O O3 0.245996 0.927609 0.604804
O O4 0.453089 0.000000 0.738024
O O5 0.230716 0.500000 0.603282
O O6 0.405951 0.614813 0.651040
O O7 0.124086 0.639949 0.636188
O O8 0.225221 0.575350 0.883850
O O9 0.380453 0.277966 0.316353
O O10 0.281124 0.224311 0.594057
O O11 0.243721 0.143870 0.326301
O O12 0.098016 0.258497 0.347874
O O13 0.182027 0.500000 0.158216
O O14 0.376672 0.605858 0.147883
O O15 0.093872 0.637633 0.147954
O O16 0.608111 0.287058 0.132452
O O17 0.124180 0.251574 0.849546
O O18 0.000000 0.898182 0.500000
O O19 0.840790 0.000000 0.651789
#
# Coordination Sequence:
#
# PCOD9143177 Si02
#       8
#     4   4   4   4   4   4   4   4
#     4   9  16  26  43  67  95 130 168 200 229 261
#     4  10  20  36  56  74  92 113 146 206 269 298
#     4  10  18  31  47  68 104 140 162 186 224 271
#     4  10  20  36  56  74  92 113 146 206 269 298
#     4  10  20  30  50  75  96 124 161 190 234 299
#     4  10  18  31  47  68 104 140 162 186 224 271
#     4  10  20  30  50  75  96 124 161 190 234 299
#     4   9  16  26  43  67  95 130 168 200 229 261
#
# _framework density 24.399324
#
# number of rings (size 3 to 8) (size 9 to 14) (size 15 to 20)
#    0.000    2.250    0.000    5.250    0.000    2.000 
#    0.000    0.000    0.000   52.500    0.000    0.000 
#    0.000   70.000    0.000    0.000    0.000    0.000 
#
# Total GULP energy -178421.091147 kJ/mol
# GULP energy per Si atom -5575.659098 kJ/mol
# Density = 2.434379 g / cm^3
# Si number density = 24.399324 Si / 1000 Ang^3
#
#
#
# Elastic Constant Matrix: (Units=GPa)
#
#
# Indices 1 2 3 4 5 6 
#
# 1 135.8423 28.4342 15.3554 0.0000 5.4649 0.0000
# 2 28.4342 204.9711 17.1794 0.0000 -8.5949 0.0000
# 3 15.3554 17.1794 26.8040 0.0000 -4.0747 0.0000
# 4 0.0000 0.0000 0.0000 18.5566 0.0000 -3.2137
# 5 5.4649 -8.5949 -4.0747 0.0000 32.2860 0.0000
# 6 0.0000 0.0000 0.0000 -3.2137 0.0000 30.7704
#
#
#
# Elastic Compliance Matrix: (Units=1/GPa)
#
#
# Indices 1 2 3 4 5 6 
#
# 1 0.008128 -0.000846 -0.004443 0.000000 -0.002162 0.000000
# 2 -0.000846 0.005274 -0.002713 0.000000 0.001205 0.000000
# 3 -0.004443 -0.002713 0.042410 0.000000 0.005382 0.000000
# 4 0.000000 0.000000 0.000000 0.054882 0.000000 0.005732
# 5 -0.002162 0.001205 0.005382 0.000000 0.032339 0.000000
# 6 0.000000 0.000000 0.000000 0.005732 0.000000 0.033097
#
#
# Mechanical properties :
#
#
# Convention : Reuss Voigt Hill
#
# Bulk Modulus (GPa) = 25.11976 54.39503 39.75740
# Shear Modulus (GPa) = 24.34260 36.76583 30.55422
#
# Velocity S-wave (km/s) = 3.16203 3.88601 3.54256
# Velocity P-wave (km/s) = 4.86301 6.51743 5.75003
#
# Compressibility (1/GPa) = 0.03980929
#
# Stress axis : x y z
#
# Youngs Moduli (GPa) = 123.03658 189.61191 23.57956
#
# Poissons Ratio (x) = 0.16037 0.10476
# Poissons Ratio (y) = 0.10406 0.06396
# Poissons Ratio (z) = 0.54661 0.51433
#
# Static dielectric constant tensor:
#      x y z
#    x 1.964360 0.000000 -0.039050 
#    y 0.000000 2.109940 0.000000 
#    z -0.039050 0.000000 1.988780 
# 
# From -- ./inp_files/43281.got.cif
#   From: 2010.05.17/outbox.cif.g08.bks.cpg/sg10_22_cif.got.tgz:43281.got - 2010.06.03 11:33:40.
