data_PCOD9143466
_publ_section_title
;
Structure prediction by ZEFSAII (Michael W. Deem and Ramdas Pophale) SiO2 
 PCOD9143466
Probable space group: P 2/M
;
_chemical_formula_sum "Si O2"
_cell_formula_units_Z 28
_cell_length_a 14.356787
_cell_length_b 19.577317
_cell_length_c 8.552484
_cell_angle_alpha 90.000000
_cell_angle_beta 25.780922
_cell_angle_gamma 90.000000
_cell_volume 1045.498361
_symmetry_space_group_name_H-M "P 2/M"
_symmetry_group_IT_number 10
_symmetry_cell_setting 'monoclinic'
loop_
_space_group_symop_operation_xyz
x,y,z
-x,y,-z
-x,-y,-z
x,-y,z
loop_
_atom_site_type_symbol
_atom_site_label
_atom_site_fract_x
_atom_site_fract_y
_atom_site_fract_z
Si Si1 0.816908 0.219293 0.644279
Si Si2 0.248405 0.371412 0.641051
Si Si3 0.608065 0.221865 0.507663
Si Si4 0.737378 0.422348 0.044912
Si Si5 0.815822 0.073152 0.643967
Si Si6 0.218213 0.628382 0.351700
Si Si7 0.387686 0.073616 0.499334
O O1 0.836250 0.146229 0.529600
O O2 0.834305 0.291620 0.535457
O O3 0.000000 0.219927 0.500000
O O4 0.585430 0.219571 0.075754
O O5 0.265890 0.290773 0.651373
O O6 0.328597 0.392499 0.347488
O O7 0.334455 0.407515 0.667437
O O8 0.000000 0.389466 0.000000
O O9 0.500000 0.227931 0.500000
O O10 0.721156 0.147805 0.344273
O O11 0.695778 0.500000 0.062451
O O12 0.689111 0.374769 0.966012
O O13 0.995318 0.411630 0.673481
O O14 0.000000 0.073185 0.500000
O O15 0.835061 0.000000 0.531308
O O16 0.584602 0.073265 0.078256
O O17 0.500000 0.073715 0.500000
O O18 0.274448 0.000000 0.658151
#
# Coordination Sequence:
#
# PCOD9143466 Si02
#       7
#     4   4   4   4   4   4   4
#     4  10  18  31  55  84 116 154 201 247 295 353
#     4  10  23  38  58  91 126 158 199 248 300 362
#     4  10  20  33  57  86 119 163 206 251 305 359
#     4  10  20  37  63  93 119 154 200 243 301 368
#     4   8  14  24  41  71 110 147 187 242 295 341
#     4  10  19  34  59  87 122 155 193 241 298 357
#     4   8  14  26  45  74 109 150 202 251 295 348
#
# _framework density 26.781486999999998
#
# number of rings (size 3 to 8) (size 9 to 14) (size 15 to 20)
#    0.000    2.571    1.429    1.714    2.000    3.714 
#    0.000    0.000    0.000    6.000    0.000   21.000 
#    0.000    0.000    0.000    0.000    0.000    0.000 
#
# Total GULP energy -156461.079744 kJ/mol
# GULP energy per Si atom -5587.895705 kJ/mol
# Density = 2.672053 g / cm^3
# Si number density = 26.781487 Si / 1000 Ang^3
#
#
#
# Elastic Constant Matrix: (Units=GPa)
#
#
# Indices 1 2 3 4 5 6 
#
# 1 194.2499 32.5160 16.7397 0.0000 19.7865 0.0000
# 2 32.5160 178.2631 -3.6838 0.0000 15.2191 0.0000
# 3 16.7397 -3.6838 88.5555 0.0000 30.9906 0.0000
# 4 0.0000 0.0000 0.0000 12.8692 0.0000 3.2895
# 5 19.7865 15.2191 30.9906 0.0000 31.7632 0.0000
# 6 0.0000 0.0000 0.0000 3.2895 0.0000 -58.3231
#
#
#
# Elastic Compliance Matrix: (Units=1/GPa)
#
#
# Indices 1 2 3 4 5 6 
#
# 1 0.005592 -0.000753 0.000007 0.000000 -0.003130 0.000000
# 2 -0.000753 0.006159 0.001924 0.000000 -0.004359 0.000000
# 3 0.000007 0.001924 0.017759 0.000000 -0.018253 0.000000
# 4 0.000000 0.000000 0.000000 0.076601 0.000000 0.004320
# 5 -0.003130 -0.004359 -0.018253 0.000000 0.053330 0.000000
# 6 0.000000 0.000000 0.000000 0.004320 0.000000 -0.016902
#
#
# Mechanical properties :
#
#
# Convention : Reuss Voigt Hill
#
# Bulk Modulus (GPa) = 31.38101 61.35691 46.36896
# Shear Modulus (GPa) = 33.15550 24.96162 29.05856
#
# Velocity S-wave (km/s) = 3.52234 3.05626 3.29754
# Velocity P-wave (km/s) = 5.31840 5.95098 5.64356
#
# Compressibility (1/GPa) = 0.03186641
#
# Stress axis : x y z
#
# Youngs Moduli (GPa) = 178.82037 162.36594 56.30974
#
# Poissons Ratio (x) = 0.12222 -0.00038
# Poissons Ratio (y) = 0.13460 -0.10834
# Poissons Ratio (z) = -0.00122 -0.31241
#
# Static dielectric constant tensor:
#      x y z
#    x 2.109380 0.000000 0.052590 
#    y 0.000000 2.063350 0.000000 
#    z 0.052590 0.000000 2.203280 
# 
# From -- ./inp_files/30408.got.cif
#   From: 2010.05.17/outbox.cif.g08.bks.cpg/sg10_16_cif.got.tgz:30408.got - 2010.06.03 11:33:40.
