data_PCOD9143349
_publ_section_title
;
Structure prediction by ZEFSAII (Michael W. Deem and Ramdas Pophale) SiO2 
 PCOD9143349
Probable space group: P 2/M
;
_chemical_formula_sum "Si O2"
_cell_formula_units_Z 28
_cell_length_a 12.376271
_cell_length_b 8.558415
_cell_length_c 15.817003
_cell_angle_alpha 90.000000
_cell_angle_beta 129.716270
_cell_angle_gamma 90.000000
_cell_volume 1288.714943
_symmetry_space_group_name_H-M "P 2/M"
_symmetry_group_IT_number 10
_symmetry_cell_setting 'monoclinic'
loop_
_space_group_symop_operation_xyz
x,y,z
-x,y,-z
-x,-y,-z
x,-y,z
loop_
_atom_site_type_symbol
_atom_site_label
_atom_site_fract_x
_atom_site_fract_y
_atom_site_fract_z
Si Si1 0.006958 0.326476 0.104132
Si Si2 0.105218 0.189672 0.724470
Si Si3 0.256360 0.180530 0.957722
Si Si4 0.202472 0.313917 0.417542
Si Si5 0.667421 0.319780 0.680402
Si Si6 0.234107 0.182554 0.618080
Si Si7 0.556909 0.818196 0.797623
O O1 0.957800 0.500000 0.108419
O O2 0.900885 0.196354 0.083834
O O3 0.168436 0.312028 0.210408
O O4 0.000000 0.323868 0.000000
O O5 0.229371 0.244444 0.849805
O O6 0.132818 0.239997 0.641906
O O7 0.953225 0.247970 0.677814
O O8 0.106127 0.000000 0.725814
O O9 0.300215 0.000000 0.969386
O O10 0.355702 0.252846 0.079901
O O11 0.198282 0.500000 0.405337
O O12 0.319839 0.254473 0.409052
O O13 0.231767 0.270379 0.528531
O O14 0.620893 0.500000 0.652088
O O15 0.586597 0.246769 0.718868
O O16 0.391999 0.190969 0.732404
O O17 0.200639 0.000000 0.583906
O O18 0.598929 0.000000 0.814190
#
# Coordination Sequence:
#
# PCOD9143349 Si02
#       7
#     4   4   4   4   4   4   4
#     4  10  18  31  52  79 112 149 182 222 280 336
#     4  10  21  38  61  86 113 147 186 232 285 335
#     4  10  20  33  55  87 115 143 183 229 276 330
#     4  11  23  39  61  87 112 143 189 241 285 328
#     4  10  21  36  56  83 115 149 184 228 284 338
#     4  10  23  42  59  79 113 154 192 231 279 332
#     4  10  22  38  57  84 117 152 188 227 273 333
#
# _framework density 21.727070000000001
#
# number of rings (size 3 to 8) (size 9 to 14) (size 15 to 20)
#    0.000    1.857    2.857    0.857    0.000    6.000 
#    0.000    5.714    0.000    0.000    0.000    4.000 
#    0.000    0.000    0.000    0.000    0.000    0.000 
#
# Total GULP energy -156188.009843 kJ/mol
# GULP energy per Si atom -5578.143209 kJ/mol
# Density = 2.167762 g / cm^3
# Si number density = 21.727070 Si / 1000 Ang^3
#
#
#
# Elastic Constant Matrix: (Units=GPa)
#
#
# Indices 1 2 3 4 5 6 
#
# 1 57.3112 7.1985 22.0008 0.0000 -18.2194 0.0000
# 2 7.1985 16.4657 12.9305 0.0000 -5.8869 0.0000
# 3 22.0008 12.9305 85.9959 0.0000 -27.7401 0.0000
# 4 0.0000 0.0000 0.0000 183.2175 0.0000 478.8827
# 5 -18.2194 -5.8869 -27.7401 0.0000 29.3544 0.0000
# 6 0.0000 0.0000 0.0000 478.8827 0.0000 1374.6756
#
#
#
# Elastic Compliance Matrix: (Units=1/GPa)
#
#
# Indices 1 2 3 4 5 6 
#
# 1 0.022216 -0.004566 -0.001215 0.000000 0.011725 0.000000
# 2 -0.004566 0.070493 -0.008322 0.000000 0.003439 0.000000
# 3 -0.001215 -0.008322 0.017850 0.000000 0.014446 0.000000
# 4 0.000000 0.000000 0.000000 0.060999 0.000000 -0.021250
# 5 0.011725 0.003439 0.014446 0.000000 0.055685 0.000000
# 6 0.000000 0.000000 0.000000 -0.021250 0.000000 0.008130
#
#
# Mechanical properties :
#
#
# Convention : Reuss Voigt Hill
#
# Bulk Modulus (GPa) = 12.14281 27.11471 19.62876
# Shear Modulus (GPa) = 17.18029 325.29235 171.23632
#
# Velocity S-wave (km/s) = 2.81505 12.24919 8.88727
# Velocity P-wave (km/s) = 4.02081 14.57956 10.69417
#
# Compressibility (1/GPa) = 0.08235325
#
# Stress axis : x y z
#
# Youngs Moduli (GPa) = 45.01274 14.18575 56.02110
#
# Poissons Ratio (x) = 0.06478 0.06806
# Poissons Ratio (y) = 0.20554 0.46621
# Poissons Ratio (z) = 0.05468 0.11805
#
# Static dielectric constant tensor:
#      x y z
#    x 1.766950 0.000000 -0.026050 
#    y 0.000000 1.784120 0.000000 
#    z -0.026050 0.000000 1.878040 
# 
# From -- ./inp_files/50091.got.cif
#   From: 2010.05.17/outbox.cif.g08.bks.cpg/sg10_26_cif.got.tgz:50091.got - 2010.06.03 11:33:40.
