data_PCOD9143738
_publ_section_title
;
Structure prediction by ZEFSAII (Michael W. Deem and Ramdas Pophale) SiO2 
 PCOD9143738
Probable space group: P 2/M
;
_chemical_formula_sum "Si O2"
_cell_formula_units_Z 22
_cell_length_a 11.581900
_cell_length_b 7.503198
_cell_length_c 12.005844
_cell_angle_alpha 90.000000
_cell_angle_beta 109.060332
_cell_angle_gamma 90.000000
_cell_volume 986.123358
_symmetry_space_group_name_H-M "P 2/M"
_symmetry_group_IT_number 10
_symmetry_cell_setting 'monoclinic'
loop_
_space_group_symop_operation_xyz
x,y,z
-x,y,-z
-x,-y,-z
x,-y,z
loop_
_atom_site_type_symbol
_atom_site_label
_atom_site_fract_x
_atom_site_fract_y
_atom_site_fract_z
Si Si1 0.773778 0.717900 0.566149
Si Si2 0.119106 0.211155 0.974911
Si Si3 0.828495 0.789228 0.256741
Si Si4 0.682827 0.285301 0.778632
Si Si5 0.594330 0.285671 0.312356
Si Si6 0.000000 0.748767 0.500000
O O1 0.793207 0.500000 0.568450
O O2 0.746376 0.771966 0.683458
O O3 0.659355 0.760494 0.450010
O O4 0.892911 0.808848 0.551397
O O5 0.235509 0.236509 0.090334
O O6 0.099412 0.000000 0.955301
O O7 0.141843 0.277322 0.857151
O O8 0.000000 0.285990 0.000000
O O9 0.686577 0.773797 0.244691
O O10 0.905527 0.685959 0.374510
O O11 0.860677 0.000000 0.279092
O O12 0.677744 0.500000 0.771572
O O13 0.543653 0.219172 0.740597
O O14 0.590276 0.500000 0.307379
#
# Coordination Sequence:
#
# PCOD9143738 Si02
#       6
#     4   4   4   4   4   2
#     4   9  17  31  53  81 110 138 171 213 262 311
#     4  10  22  39  55  75 106 141 174 211 261 315
#     4  10  21  36  55  78 105 137 174 217 262 310
#     4  10  20  35  56  80 106 139 177 215 256 305
#     4   9  19  35  55  79 107 138 173 216 262 307
#     4  10  18  32  56  80 105 134 173 218 263 308
#
# _framework density 22.309581999999999
#
# number of rings (size 3 to 8) (size 9 to 14) (size 15 to 20)
#    0.000    2.364    0.000    2.182    0.000    5.455 
#    0.000    7.273    0.000    5.455    0.000    0.000 
#    0.000    0.000    0.000    0.000    0.000    0.000 
#
# Total GULP energy -122659.788455 kJ/mol
# GULP energy per Si atom -5575.444930 kJ/mol
# Density = 2.225880 g / cm^3
# Si number density = 22.309582 Si / 1000 Ang^3
#
#
#
# Elastic Constant Matrix: (Units=GPa)
#
#
# Indices 1 2 3 4 5 6 
#
# 1 168.8211 5.6526 98.3106 0.0000 -9.7039 0.0000
# 2 5.6526 71.2670 4.0176 0.0000 -7.5208 0.0000
# 3 98.3106 4.0176 149.6931 0.0000 -35.1882 0.0000
# 4 0.0000 0.0000 0.0000 23.3427 0.0000 2.4860
# 5 -9.7039 -7.5208 -35.1882 0.0000 42.1489 0.0000
# 6 0.0000 0.0000 0.0000 2.4860 0.0000 11.9888
#
#
#
# Elastic Compliance Matrix: (Units=1/GPa)
#
#
# Indices 1 2 3 4 5 6 
#
# 1 0.010152 -0.000816 -0.007627 0.000000 -0.004176 0.000000
# 2 -0.000816 0.014375 0.000882 0.000000 0.003113 0.000000
# 3 -0.007627 0.000882 0.014047 0.000000 0.010128 0.000000
# 4 0.000000 0.000000 0.000000 0.043807 0.000000 -0.009084
# 5 -0.004176 0.003113 0.010128 0.000000 0.031775 0.000000
# 6 0.000000 0.000000 0.000000 -0.009084 0.000000 0.085295
#
#
# Mechanical properties :
#
#
# Convention : Reuss Voigt Hill
#
# Bulk Modulus (GPa) = 42.64060 67.30475 54.97267
# Shear Modulus (GPa) = 22.48290 34.28279 28.38285
#
# Velocity S-wave (km/s) = 3.17798 3.92431 3.57070
# Velocity P-wave (km/s) = 5.71145 7.12514 6.45710
#
# Compressibility (1/GPa) = 0.02345183
#
# Stress axis : x y z
#
# Youngs Moduli (GPa) = 98.49946 69.56370 71.19115
#
# Poissons Ratio (x) = 0.05676 0.54299
# Poissons Ratio (y) = 0.08037 -0.06279
# Poissons Ratio (z) = 0.75128 -0.06135
#
# Static dielectric constant tensor:
#      x y z
#    x 1.798590 0.000000 -0.009610 
#    y 0.000000 1.976150 0.000000 
#    z -0.009610 0.000000 1.760500 
# 
# From -- ./inp_files/45013.got.cif
#   From: 2010.05.17/outbox.cif.g08.bks.cpg/sg10_23_cif.got.tgz:45013.got - 2010.06.03 11:33:40.
