data_PCOD9143745
_publ_section_title
;
Structure prediction by ZEFSAII (Michael W. Deem and Ramdas Pophale) SiO2 
 PCOD9143745
Probable space group: P 2/M
;
_chemical_formula_sum "Si O2"
_cell_formula_units_Z 26
_cell_length_a 25.966926
_cell_length_b 7.878678
_cell_length_c 9.744237
_cell_angle_alpha 90.000000
_cell_angle_beta 42.761221
_cell_angle_gamma 90.000000
_cell_volume 1353.493059
_symmetry_space_group_name_H-M "P 2/M"
_symmetry_group_IT_number 10
_symmetry_cell_setting 'monoclinic'
loop_
_space_group_symop_operation_xyz
x,y,z
-x,y,-z
-x,-y,-z
x,-y,z
loop_
_atom_site_type_symbol
_atom_site_label
_atom_site_fract_x
_atom_site_fract_y
_atom_site_fract_z
Si Si1 0.512104 0.500000 0.720078
Si Si2 0.220441 0.201035 0.740707
Si Si3 0.263935 0.194974 0.962409
Si Si4 0.619767 0.500000 0.247626
Si Si5 0.500000 0.252175 0.000000
Si Si6 0.800468 0.294565 0.639937
Si Si7 0.914994 0.704129 0.184935
Si Si8 0.337556 0.699655 0.288253
O O1 0.578857 0.500000 0.476609
O O2 0.438799 0.500000 0.764663
O O3 0.513379 0.346689 0.826771
O O4 0.228022 0.237779 0.885796
O O5 0.140684 0.254998 0.831884
O O6 0.288078 0.287397 0.523060
O O7 0.228923 0.000000 0.703493
O O8 0.329272 0.331933 0.862181
O O9 0.291403 0.000000 0.904385
O O10 0.204054 0.215692 0.201963
O O11 0.586126 0.190278 0.855882
O O12 0.802970 0.500000 0.644972
O O13 0.869785 0.236333 0.408775
O O14 0.722062 0.252722 0.713526
O O15 0.919091 0.500000 0.187730
O O16 0.000000 0.770405 0.000000
O O17 0.359730 0.500000 0.226430
#
# Coordination Sequence:
#
# PCOD9143745 Si02
#       8
#     2   4   4   2   2   4   4   4
#     4  10  20  32  52  84 104 146 192 236 292 354
#     4  10  22  36  53  82 114 149 191 231 280 340
#     4  11  23  36  56  84 113 149 196 235 275 338
#     4  11  22  38  58  76 111 152 192 232 297 340
#     4  11  18  30  55  86 111 134 191 249 282 338
#     4   9  18  33  56  83 115 147 187 231 280 341
#     4   9  19  37  62  89 114 144 185 227 279 342
#     4  10  18  32  56  82 107 143 189 234 287 337
#
# _framework density 19.209555999999999
#
# number of rings (size 3 to 8) (size 9 to 14) (size 15 to 20)
#    0.000    2.000    2.308    3.231    2.154    2.769 
#    0.000    2.692    0.000   10.154    0.000    1.077 
#    0.000    0.000    0.000    0.000    0.000    0.000 
#
# Total GULP energy -144958.039912 kJ/mol
# GULP energy per Si atom -5575.309227 kJ/mol
# Density = 1.916583 g / cm^3
# Si number density = 19.209556 Si / 1000 Ang^3
#
#
#
# Elastic Constant Matrix: (Units=GPa)
#
#
# Indices 1 2 3 4 5 6 
#
# 1 55.5475 14.1571 63.3591 0.0000 1.9918 0.0000
# 2 14.1571 38.8197 28.8086 0.0000 -2.1790 0.0000
# 3 63.3591 28.8086 122.5102 0.0000 6.3740 0.0000
# 4 0.0000 0.0000 0.0000 -25.1983 0.0000 -11.6469
# 5 1.9918 -2.1790 6.3740 0.0000 47.9586 0.0000
# 6 0.0000 0.0000 0.0000 -11.6469 0.0000 6.1711
#
#
#
# Elastic Compliance Matrix: (Units=1/GPa)
#
#
# Indices 1 2 3 4 5 6 
#
# 1 0.044011 0.001168 -0.023103 0.000000 0.001296 0.000000
# 2 0.001168 0.031516 -0.008143 0.000000 0.002466 0.000000
# 3 -0.023103 -0.008143 0.022148 0.000000 -0.002354 0.000000
# 4 0.000000 0.000000 0.000000 -0.021195 0.000000 -0.040003
# 5 0.001296 0.002466 -0.002354 0.000000 0.021222 0.000000
# 6 0.000000 0.000000 0.000000 -0.040003 0.000000 0.086547
#
#
# Mechanical properties :
#
#
# Convention : Reuss Voigt Hill
#
# Bulk Modulus (GPa) = 26.65429 47.72523 37.18976
# Shear Modulus (GPa) = 19.46190 13.15645 16.30918
#
# Velocity S-wave (km/s) = 3.18643 2.61988 2.91695
# Velocity P-wave (km/s) = 5.23865 5.83525 5.54498
#
# Compressibility (1/GPa) = 0.03751742
#
# Stress axis : x y z
#
# Youngs Moduli (GPa) = 22.72174 31.73008 45.15010
#
# Poissons Ratio (x) = -0.03705 1.04311
# Poissons Ratio (y) = -0.02653 0.36767
# Poissons Ratio (z) = 0.52494 0.25838
#
# Static dielectric constant tensor:
#      x y z
#    x 1.654410 0.000000 -0.009880 
#    y 0.000000 1.705490 0.000000 
#    z -0.009880 0.000000 1.686090 
# 
# From -- ./inp_files/36711.got.cif
#   From: 2010.05.17/outbox.cif.g08.bks.cpg/sg10_19_cif.got.tgz:36711.got - 2010.06.03 11:33:40.
