data_PCOD9143608
_publ_section_title
;
Structure prediction by ZEFSAII (Michael W. Deem and Ramdas Pophale) SiO2 
 PCOD9143608
Probable space group: P 2/M
;
_chemical_formula_sum "Si O2"
_cell_formula_units_Z 32
_cell_length_a 20.653862
_cell_length_b 9.081085
_cell_length_c 25.765155
_cell_angle_alpha 90.000000
_cell_angle_beta 157.423518
_cell_angle_gamma 90.000000
_cell_volume 1855.275338
_symmetry_space_group_name_H-M "P 2/M"
_symmetry_group_IT_number 10
_symmetry_cell_setting 'monoclinic'
loop_
_space_group_symop_operation_xyz
x,y,z
-x,y,-z
-x,-y,-z
x,-y,z
loop_
_atom_site_type_symbol
_atom_site_label
_atom_site_fract_x
_atom_site_fract_y
_atom_site_fract_z
Si Si1 0.845279 0.175825 0.345934
Si Si2 0.478342 0.675086 0.605935
Si Si3 0.149017 0.176438 0.859785
Si Si4 0.861816 0.325592 0.713314
Si Si5 0.367896 0.677043 0.637479
Si Si6 0.327964 0.830695 0.338297
Si Si7 0.029311 0.676503 0.664931
Si Si8 0.476887 0.176505 0.824305
O O1 0.878510 0.262901 0.317829
O O2 0.673010 0.219079 0.247291
O O3 0.000000 0.202501 0.500000
O O4 0.840655 0.000000 0.331742
O O5 0.512051 0.500000 0.628868
O O6 0.297690 0.697131 0.443619
O O7 0.457198 0.722039 0.649822
O O8 0.618251 0.759977 0.676382
O O9 0.102716 0.249046 0.770670
O O10 0.019803 0.241142 0.806342
O O11 0.131273 0.000000 0.843495
O O12 0.340240 0.211882 0.017461
O O13 0.893252 0.500000 0.739164
O O14 0.805026 0.262331 0.726826
O O15 0.379197 0.500000 0.649405
O O16 0.445704 0.748963 0.745927
O O17 0.169390 0.714505 0.486840
O O18 0.500000 0.828111 0.500000
O O19 0.275168 0.000000 0.293917
O O20 0.042794 0.500000 0.678662
O O21 0.465794 0.000000 0.809566
#
# Coordination Sequence:
#
# PCOD9143608 Si02
#       8
#     4   4   4   4   4   4   4   4
#     4  10  20  37  60  83 109 145 185 228 278 331
#     4   9  17  31  50  77 110 143 179 225 274 322
#     4  11  23  38  56  80 113 149 185 229 276 329
#     4  10  18  32  53  77 110 148 183 224 274 328
#     4  10  20  35  56  82 111 143 183 229 275 326
#     4   9  17  28  45  77 112 143 182 224 269 323
#     4  11  22  37  58  85 112 143 185 229 276 330
#     4  10  23  40  57  81 111 145 186 228 278 334
#
# _framework density 17.248113
#
# number of rings (size 3 to 8) (size 9 to 14) (size 15 to 20)
#    0.000    2.000    2.500    1.500    0.000    5.250 
#    0.000    2.500    0.000    0.750    0.000    5.250 
#    0.000    0.000    0.000    0.000    0.000    0.000 
#
# Total GULP energy -178631.624595 kJ/mol
# GULP energy per Si atom -5582.238269 kJ/mol
# Density = 1.720886 g / cm^3
# Si number density = 17.248113 Si / 1000 Ang^3
#
#
#
# Elastic Constant Matrix: (Units=GPa)
#
#
# Indices 1 2 3 4 5 6 
#
# 1 165.6524 61.0789 66.7081 0.0000 9.6926 0.0000
# 2 61.0789 60.2766 54.2734 0.0000 3.2363 0.0000
# 3 66.7081 54.2734 90.9488 0.0000 1.0356 0.0000
# 4 0.0000 0.0000 0.0000 10.2170 0.0000 5.4930
# 5 9.6926 3.2363 1.0356 0.0000 20.6221 0.0000
# 6 0.0000 0.0000 0.0000 5.4930 0.0000 35.9231
#
#
#
# Elastic Compliance Matrix: (Units=1/GPa)
#
#
# Indices 1 2 3 4 5 6 
#
# 1 0.010190 -0.007446 -0.002991 0.000000 -0.003471 0.000000
# 2 -0.007446 0.041730 -0.019417 0.000000 -0.002074 0.000000
# 3 -0.002991 -0.019417 0.024740 0.000000 0.003211 0.000000
# 4 0.000000 0.000000 0.000000 0.106643 0.000000 -0.016307
# 5 -0.003471 -0.002074 0.003211 0.000000 0.050287 0.000000
# 6 0.000000 0.000000 0.000000 -0.016307 0.000000 0.030331
#
#
# Mechanical properties :
#
#
# Convention : Reuss Voigt Hill
#
# Bulk Modulus (GPa) = 58.99361 75.66651 67.33006
# Shear Modulus (GPa) = 15.18470 22.34027 18.76249
#
# Velocity S-wave (km/s) = 2.97032 3.60283 3.30176
# Velocity P-wave (km/s) = 6.78535 7.82764 7.32505
#
# Compressibility (1/GPa) = 0.01695099
#
# Stress axis : x y z
#
# Youngs Moduli (GPa) = 98.13819 23.96358 40.42091
#
# Poissons Ratio (x) = 0.17843 0.12090
# Poissons Ratio (y) = 0.73073 0.78486
# Poissons Ratio (z) = 0.29353 0.46531
#
# Static dielectric constant tensor:
#      x y z
#    x 1.568670 0.000000 0.008900 
#    y 0.000000 1.575950 0.000000 
#    z 0.008900 0.000000 1.562250 
# 
# From -- ./inp_files/93724.got.cif
#   From: 2010.05.17/outbox.cif.g08.bks.cpg/sg10_47_cif.got.tgz:93724.got - 2010.06.03 11:33:40.
