data_PCOD9143634
_publ_section_title
;
Structure prediction by ZEFSAII (Michael W. Deem and Ramdas Pophale) SiO2 
 PCOD9143634
Probable space group: P 2/M
;
_chemical_formula_sum "Si O2"
_cell_formula_units_Z 28
_cell_length_a 14.991581
_cell_length_b 7.554508
_cell_length_c 12.269906
_cell_angle_alpha 90.000000
_cell_angle_beta 112.878949
_cell_angle_gamma 90.000000
_cell_volume 1280.292712
_symmetry_space_group_name_H-M "P 2/M"
_symmetry_group_IT_number 10
_symmetry_cell_setting 'monoclinic'
loop_
_space_group_symop_operation_xyz
x,y,z
-x,y,-z
-x,-y,-z
x,-y,z
loop_
_atom_site_type_symbol
_atom_site_label
_atom_site_fract_x
_atom_site_fract_y
_atom_site_fract_z
Si Si1 0.858324 0.784154 0.358477
Si Si2 0.400857 0.787834 0.507094
Si Si3 0.673658 0.785414 0.134178
Si Si4 0.693966 0.798828 0.900501
Si Si5 0.934379 0.215627 0.627765
Si Si6 0.518051 0.297491 0.229342
Si Si7 0.780941 0.217527 0.722530
O O1 0.761529 0.724694 0.252950
O O2 0.873936 0.730126 0.491319
O O3 0.955118 0.729336 0.339367
O O4 0.856186 0.000000 0.357919
O O5 0.500000 0.720006 0.500000
O O6 0.408540 0.747604 0.638268
O O7 0.306889 0.724935 0.398183
O O8 0.400460 0.000000 0.496570
O O9 0.573301 0.733928 0.142895
O O10 0.673563 0.000000 0.131120
O O11 0.689188 0.718457 0.018764
O O12 0.582404 0.805603 0.807597
O O13 0.757541 0.719857 0.833347
O O14 0.729467 0.000000 0.932151
O O15 0.879992 0.272326 0.711101
O O16 0.934784 0.000000 0.627733
O O17 0.489976 0.500000 0.225439
O O18 0.779450 0.000000 0.724597
#
# Coordination Sequence:
#
# PCOD9143634 Si02
#       7
#     4   4   4   4   4   4   4
#     4   8  14  26  45  73 101 126 160 205 253 297
#     4  10  18  32  54  75 100 132 167 202 241 297
#     4  10  20  34  53  72  96 132 176 214 247 296
#     4  10  20  35  51  70  98 135 175 211 246 296
#     4   8  13  23  44  73 104 128 153 199 256 306
#     4  12  24  35  50  73 102 132 168 213 258 300
#     4   9  16  28  48  74 102 133 165 199 247 301
#
# _framework density 21.869999
#
# number of rings (size 3 to 8) (size 9 to 14) (size 15 to 20)
#    0.000    2.429    1.429    3.429    0.000    4.857 
#    0.000    0.714    0.000    4.286    0.000    9.000 
#    0.000    2.286    0.000    0.000    0.000    0.000 
#
# Total GULP energy -156362.488999 kJ/mol
# GULP energy per Si atom -5584.374607 kJ/mol
# Density = 2.182022 g / cm^3
# Si number density = 21.869999 Si / 1000 Ang^3
#
#
#
# Elastic Constant Matrix: (Units=GPa)
#
#
# Indices 1 2 3 4 5 6 
#
# 1 105.2499 -6.5359 22.6172 0.0000 -43.0712 0.0000
# 2 -6.5359 52.5680 -12.7015 0.0000 1.4407 0.0000
# 3 22.6172 -12.7015 54.0111 0.0000 -30.3907 0.0000
# 4 0.0000 0.0000 0.0000 -37.7353 0.0000 14.9867
# 5 -43.0712 1.4407 -30.3907 0.0000 41.5061 0.0000
# 6 0.0000 0.0000 0.0000 14.9867 0.0000 -35.2795
#
#
#
# Elastic Compliance Matrix: (Units=1/GPa)
#
#
# Indices 1 2 3 4 5 6 
#
# 1 0.017662 0.003043 0.006076 0.000000 0.022672 0.000000
# 2 0.003043 0.021251 0.008648 0.000000 0.008752 0.000000
# 3 0.006076 0.008648 0.036365 0.000000 0.032631 0.000000
# 4 0.000000 0.000000 0.000000 -0.031879 0.000000 -0.013542
# 5 0.022672 0.008752 0.032631 0.000000 0.071208 0.000000
# 6 0.000000 0.000000 0.000000 -0.013542 0.000000 -0.034098
#
#
# Mechanical properties :
#
#
# Convention : Reuss Voigt Hill
#
# Bulk Modulus (GPa) = 9.02436 24.28762 16.65599
# Shear Modulus (GPa) = 61.04007 7.59488 34.31747
#
# Velocity S-wave (km/s) = 5.28876 1.86555 3.96556
# Velocity P-wave (km/s) = 6.43661 3.97114 5.34789
#
# Compressibility (1/GPa) = 0.11081118
#
# Stress axis : x y z
#
# Youngs Moduli (GPa) = 56.61779 47.05680 27.49919
#
# Poissons Ratio (x) = -0.14318 -0.16709
# Poissons Ratio (y) = -0.17228 -0.23780
# Poissons Ratio (z) = -0.34402 -0.40693
#
# Static dielectric constant tensor:
#      x y z
#    x 1.780120 0.000000 -0.022630 
#    y 0.000000 1.832090 0.000000 
#    z -0.022630 0.000000 1.796760 
# 
# From -- ./inp_files/49090.got.cif
#   From: 2010.05.17/outbox.cif.g08.bks.cpg/sg10_25_cif.got.tgz:49090.got - 2010.06.03 11:33:40.
