data_PCOD9143397
_publ_section_title
;
Structure prediction by ZEFSAII (Michael W. Deem and Ramdas Pophale) SiO2 
 PCOD9143397
Probable space group: P 2/M
;
_chemical_formula_sum "Si O2"
_cell_formula_units_Z 24
_cell_length_a 13.124433
_cell_length_b 13.849095
_cell_length_c 12.840703
_cell_angle_alpha 90.000000
_cell_angle_beta 32.748741
_cell_angle_gamma 90.000000
_cell_volume 1262.561901
_symmetry_space_group_name_H-M "P 2/M"
_symmetry_group_IT_number 10
_symmetry_cell_setting 'monoclinic'
loop_
_space_group_symop_operation_xyz
x,y,z
-x,y,-z
-x,-y,-z
x,-y,z
loop_
_atom_site_type_symbol
_atom_site_label
_atom_site_fract_x
_atom_site_fract_y
_atom_site_fract_z
Si Si1 0.569169 0.112958 0.599328
Si Si2 0.719242 0.389667 0.782967
Si Si3 0.337865 0.610853 0.776662
Si Si4 0.309228 0.705441 0.410486
Si Si5 0.222016 0.804857 0.782845
Si Si6 0.958277 0.611023 0.783317
O O1 0.629017 0.183916 0.639972
O O2 0.703317 0.146597 0.387750
O O3 0.354735 0.140677 0.753236
O O4 0.587704 0.000000 0.601064
O O5 0.766906 0.500000 0.713819
O O6 0.746010 0.327411 0.657325
O O7 0.833292 0.366071 0.788997
O O8 0.500000 0.385884 0.000000
O O9 0.353602 0.500000 0.725890
O O10 0.521295 0.642527 0.685276
O O11 0.290085 0.692791 0.733080
O O12 0.167732 0.615629 0.005884
O O13 0.129775 0.683809 0.636286
O O14 0.000000 0.812732 0.000000
O O15 0.026109 0.500000 0.714558
#
# Coordination Sequence:
#
# PCOD9143397 Si02
#       6
#     4   4   4   4   4   4
#     4  10  23  40  57  78 100 130 179 233 273 306
#     4  10  18  31  53  80 111 145 174 204 245 303
#     4  10  20  33  50  79 116 144 169 206 252 310
#     4  11  20  34  54  77 106 142 180 216 259 306
#     4  10  20  37  59  81 103 136 175 214 265 318
#     4  10  19  31  52  81 112 146 177 202 242 307
#
# _framework density 19.008970999999999
#
# number of rings (size 3 to 8) (size 9 to 14) (size 15 to 20)
#    0.000    1.833    1.667    4.000    0.000    3.000 
#    0.000    8.333    0.000    2.500    0.000    0.000 
#    0.000    0.000    0.000    0.000    0.000    0.000 
#
# Total GULP energy -134047.525840 kJ/mol
# GULP energy per Si atom -5585.313577 kJ/mol
# Density = 1.896571 g / cm^3
# Si number density = 19.008971 Si / 1000 Ang^3
#
#
#
# Elastic Constant Matrix: (Units=GPa)
#
#
# Indices 1 2 3 4 5 6 
#
# 1 33.7637 21.7476 8.4766 0.0000 6.2434 0.0000
# 2 21.7476 120.5663 32.9814 0.0000 -7.5971 0.0000
# 3 8.4766 32.9814 82.7532 0.0000 -17.9975 0.0000
# 4 0.0000 0.0000 0.0000 10.2016 0.0000 -2.2233
# 5 6.2434 -7.5971 -17.9975 0.0000 26.7908 0.0000
# 6 0.0000 0.0000 0.0000 -2.2233 0.0000 12.9628
#
#
#
# Elastic Compliance Matrix: (Units=1/GPa)
#
#
# Indices 1 2 3 4 5 6 
#
# 1 0.037253 -0.006423 -0.004146 0.000000 -0.013288 0.000000
# 2 -0.006423 0.010417 -0.002958 0.000000 0.002464 0.000000
# 3 -0.004146 -0.002958 0.016062 0.000000 0.010918 0.000000
# 4 0.000000 0.000000 0.000000 0.101830 0.000000 0.017465
# 5 -0.013288 0.002464 0.010918 0.000000 0.048456 0.000000
# 6 0.000000 0.000000 0.000000 0.017465 0.000000 0.080139
#
#
# Mechanical properties :
#
#
# Convention : Reuss Voigt Hill
#
# Bulk Modulus (GPa) = 27.26411 40.38828 33.82620
# Shear Modulus (GPa) = 14.99534 21.58287 18.28910
#
# Velocity S-wave (km/s) = 2.81170 3.37323 3.10519
# Velocity P-wave (km/s) = 4.99147 6.03860 5.53983
#
# Compressibility (1/GPa) = 0.03667825
#
# Stress axis : x y z
#
# Youngs Moduli (GPa) = 26.84380 95.99562 62.25810
#
# Poissons Ratio (x) = 0.61655 0.25812
# Poissons Ratio (y) = 0.17241 0.18416
# Poissons Ratio (z) = 0.11130 0.28396
#
# Static dielectric constant tensor:
#      x y z
#    x 1.672810 0.000000 0.008480 
#    y 0.000000 1.650470 0.000000 
#    z 0.008480 0.000000 1.685730 
# 
# From -- ./inp_files/67227.got.cif
#   From: 2010.05.17/outbox.cif.g08.bks.cpg/sg10_34_cif.got.tgz:67227.got - 2010.06.03 11:33:40.
