data_PCOD9143083
_publ_section_title
;
Structure prediction by ZEFSAII (Michael W. Deem and Ramdas Pophale) SiO2 
 PCOD9143083
Probable space group: P 2/M
;
_chemical_formula_sum "Si O2"
_cell_formula_units_Z 32
_cell_length_a 22.071754
_cell_length_b 7.619007
_cell_length_c 17.369343
_cell_angle_alpha 90.000000
_cell_angle_beta 152.585523
_cell_angle_gamma 90.000000
_cell_volume 1344.858694
_symmetry_space_group_name_H-M "P 2/M"
_symmetry_group_IT_number 10
_symmetry_cell_setting 'monoclinic'
loop_
_space_group_symop_operation_xyz
x,y,z
-x,y,-z
-x,-y,-z
x,-y,z
loop_
_atom_site_type_symbol
_atom_site_label
_atom_site_fract_x
_atom_site_fract_y
_atom_site_fract_z
Si Si1 0.366750 0.710344 0.809912
Si Si2 0.656560 0.706033 0.670340
Si Si3 0.105952 0.210598 0.334594
Si Si4 0.793663 0.710057 0.145368
Si Si5 0.918191 0.793284 0.517468
Si Si6 0.814913 0.291059 0.993192
Si Si7 0.348027 0.296616 0.502218
Si Si8 0.496090 0.715289 0.183169
O O1 0.373466 0.500000 0.819341
O O2 0.222347 0.751105 0.679164
O O3 0.391204 0.771291 0.749608
O O4 0.500000 0.776153 0.000000
O O5 0.500000 0.713277 0.500000
O O6 0.698352 0.500000 0.716474
O O7 0.722429 0.781044 0.821512
O O8 0.685256 0.782862 0.618185
O O9 0.097591 0.280823 0.413116
O O10 0.222132 0.289037 0.415259
O O11 0.121424 0.000000 0.354031
O O12 0.965305 0.257600 0.139892
O O13 0.786204 0.500000 0.136855
O O14 0.934549 0.746941 0.343720
O O15 0.801685 0.777525 0.065744
O O16 0.648861 0.770610 0.008263
O O17 0.921282 0.000000 0.526286
O O18 0.789757 0.500000 0.971924
O O19 0.384566 0.500000 0.528224
O O20 0.466152 0.224088 0.688534
O O21 0.497911 0.500000 0.186175
#
# Coordination Sequence:
#
# PCOD9143083 Si02
#       8
#     4   4   4   4   4   4   4   4
#     4  10  20  35  57  83 109 136 167 208 257 309
#     4   9  17  29  47  73 100 126 163 213 264 306
#     4  10  20  33  49  71  99 133 172 212 252 297
#     4   9  17  31  54  78 102 136 174 215 257 301
#     4  10  20  35  54  77 106 139 175 212 253 305
#     4   9  17  30  49  72  99 130 168 210 256 305
#     4  10  18  30  52  75  99 131 168 213 258 304
#     4   9  17  31  53  81 105 129 171 216 256 305
#
# _framework density 23.794322999999999
#
# number of rings (size 3 to 8) (size 9 to 14) (size 15 to 20)
#    0.000    2.500    1.250    1.500    0.000    4.750 
#    0.000    5.000    0.000    6.750    0.000    0.000 
#    0.000    0.000    0.000    0.000    0.000    0.000 
#
# Total GULP energy -178548.563407 kJ/mol
# GULP energy per Si atom -5579.642606 kJ/mol
# Density = 2.374017 g / cm^3
# Si number density = 23.794323 Si / 1000 Ang^3
#
#
#
# Elastic Constant Matrix: (Units=GPa)
#
#
# Indices 1 2 3 4 5 6 
#
# 1 73.1855 -2.9305 36.7803 0.0000 13.6517 0.0000
# 2 -2.9305 52.7196 -3.2919 0.0000 -3.5371 0.0000
# 3 36.7803 -3.2919 172.9029 0.0000 8.4010 0.0000
# 4 0.0000 0.0000 0.0000 244.5812 0.0000 103.2132
# 5 13.6517 -3.5371 8.4010 0.0000 35.8554 0.0000
# 6 0.0000 0.0000 0.0000 103.2132 0.0000 40.4353
#
#
#
# Elastic Compliance Matrix: (Units=1/GPa)
#
#
# Indices 1 2 3 4 5 6 
#
# 1 0.016295 0.000342 -0.003196 0.000000 -0.005422 0.000000
# 2 0.000342 0.019115 0.000208 0.000000 0.001707 0.000000
# 3 -0.003196 0.000208 0.006481 0.000000 -0.000281 0.000000
# 4 0.000000 0.000000 0.000000 -0.052977 0.000000 0.135227
# 5 -0.005422 0.001707 -0.000281 0.000000 0.030188 0.000000
# 6 0.000000 0.000000 0.000000 0.135227 0.000000 -0.320443
#
#
# Mechanical properties :
#
#
# Convention : Reuss Voigt Hill
#
# Bulk Modulus (GPa) = 27.32261 39.99152 33.65706
# Shear Modulus (GPa) = -17.61502 82.05770 32.22134
#
# Velocity S-wave (km/s) = -2.72380 5.87887 3.68388
# Velocity P-wave (km/s) = 1.27107 7.93254 5.68070
#
# Compressibility (1/GPa) = 0.03659973
#
# Stress axis : x y z
#
# Youngs Moduli (GPa) = 61.36718 52.31542 154.29336
#
# Poissons Ratio (x) = -0.01792 0.49319
# Poissons Ratio (y) = -0.02102 -0.03212
# Poissons Ratio (z) = 0.19616 -0.01089
#
# Static dielectric constant tensor:
#      x y z
#    x 1.940020 0.000000 -0.045820 
#    y 0.000000 1.883130 0.000000 
#    z -0.045820 0.000000 1.979890 
# 
# From -- ./inp_files/86772.got.cif
#   From: 2010.05.17/outbox.cif.g08.bks.cpg/sg10_44_cif.got.tgz:86772.got - 2010.06.03 11:33:40.
