data_PCOD9143867
_publ_section_title
;
Structure prediction by ZEFSAII (Michael W. Deem and Ramdas Pophale) SiO2 
 PCOD9143867
Probable space group: P 2/M
;
_chemical_formula_sum "Si O2"
_cell_formula_units_Z 32
_cell_length_a 12.640224
_cell_length_b 8.505217
_cell_length_c 20.717150
_cell_angle_alpha 90.000000
_cell_angle_beta 125.902876
_cell_angle_gamma 90.000000
_cell_volume 1804.104720
_symmetry_space_group_name_H-M "P 2/M"
_symmetry_group_IT_number 10
_symmetry_cell_setting 'monoclinic'
loop_
_space_group_symop_operation_xyz
x,y,z
-x,y,-z
-x,-y,-z
x,-y,z
loop_
_atom_site_type_symbol
_atom_site_label
_atom_site_fract_x
_atom_site_fract_y
_atom_site_fract_z
Si Si1 0.611975 0.687899 0.877677
Si Si2 0.147645 0.191985 0.290377
Si Si3 0.322220 0.811608 0.235275
Si Si4 0.316658 0.689242 0.737582
Si Si5 0.643800 0.810209 0.028550
Si Si6 0.146790 0.810317 0.790297
Si Si7 0.606632 0.311588 0.375145
Si Si8 0.356002 0.810037 0.472598
O O1 0.613166 0.500000 0.879238
O O2 0.684741 0.745389 0.839433
O O3 0.459853 0.739418 0.815263
O O4 0.665982 0.753507 0.963814
O O5 0.209037 0.240476 0.243824
O O6 0.246311 0.241443 0.382500
O O7 0.000284 0.245633 0.249744
O O8 0.147126 0.000000 0.290437
O O9 0.460887 0.757036 0.314372
O O10 0.322270 0.000000 0.232417
O O11 0.311326 0.500000 0.739182
O O12 0.205556 0.758601 0.742978
O O13 0.315015 0.734964 0.661601
O O14 0.753284 0.755597 0.118186
O O15 0.643202 0.000000 0.028670
O O16 0.500000 0.756071 0.000000
O O17 0.145557 0.000000 0.791636
O O18 0.596850 0.500000 0.371946
O O19 0.664906 0.252475 0.462933
O O20 0.500000 0.759742 0.500000
O O21 0.356078 0.000000 0.474389
#
# Coordination Sequence:
#
# PCOD9143867 Si02
#       8
#     4   4   4   4   4   4   4   4
#     4  10  20  33  52  79 108 137 173 218 263 306
#     4   9  19  35  54  78 106 136 171 214 265 311
#     4  10  18  33  55  77 105 139 174 214 262 309
#     4   9  19  34  50  73 106 138 170 209 257 313
#     4  10  19  32  52  81 105 131 177 222 257 304
#     4  10  20  35  55  77 105 136 172 217 260 310
#     4  10  20  33  51  80 110 136 172 217 263 307
#     4  10  18  33  55  79 103 134 177 219 257 304
#
# _framework density 17.73733
#
# number of rings (size 3 to 8) (size 9 to 14) (size 15 to 20)
#    0.000    2.250    2.500    1.875    0.000    3.500 
#    0.000    3.125    0.000    7.500    0.000    0.000 
#    0.000    0.000    0.000    0.000    0.000    0.000 
#
# Total GULP energy -178533.799695 kJ/mol
# GULP energy per Si atom -5579.181240 kJ/mol
# Density = 1.769696 g / cm^3
# Si number density = 17.737330 Si / 1000 Ang^3
#
#
#
# Elastic Constant Matrix: (Units=GPa)
#
#
# Indices 1 2 3 4 5 6 
#
# 1 169.3985 18.2888 88.2654 0.0000 -9.4486 0.0000
# 2 18.2888 9.4763 15.1617 0.0000 2.0800 0.0000
# 3 88.2654 15.1617 113.6848 0.0000 -8.8544 0.0000
# 4 0.0000 0.0000 0.0000 52.1514 0.0000 -102.5715
# 5 -9.4486 2.0800 -8.8544 0.0000 29.5469 0.0000
# 6 0.0000 0.0000 0.0000 -102.5715 0.0000 270.4634
#
#
#
# Elastic Compliance Matrix: (Units=1/GPa)
#
#
# Indices 1 2 3 4 5 6 
#
# 1 0.010627 -0.010211 -0.006726 0.000000 0.002102 0.000000
# 2 -0.010211 0.150939 -0.013602 0.000000 -0.017967 0.000000
# 3 -0.006726 -0.013602 0.016115 0.000000 0.003636 0.000000
# 4 0.000000 0.000000 0.000000 0.075461 0.000000 0.028618
# 5 0.002102 -0.017967 0.003636 0.000000 0.036871 0.000000
# 6 0.000000 0.000000 0.000000 0.028618 0.000000 0.014551
#
#
# Mechanical properties :
#
#
# Convention : Reuss Voigt Hill
#
# Bulk Modulus (GPa) = 8.57597 59.55460 34.06528
# Shear Modulus (GPa) = 12.36070 81.82194 47.09132
#
# Velocity S-wave (km/s) = 2.64270 6.79926 5.15819
# Velocity P-wave (km/s) = 3.76262 9.76159 7.39750
#
# Compressibility (1/GPa) = 0.11660494
#
# Stress axis : x y z
#
# Youngs Moduli (GPa) = 94.09802 6.62521 62.05314
#
# Poissons Ratio (x) = 0.06765 0.41734
# Poissons Ratio (y) = 0.96080 0.84403
# Poissons Ratio (z) = 0.63286 0.09011
#
# Static dielectric constant tensor:
#      x y z
#    x 1.600710 0.000000 -0.005760 
#    y 0.000000 1.601940 0.000000 
#    z -0.005760 0.000000 1.594460 
# 
# From -- ./inp_files/52833.got.cif
#   From: 2010.05.17/outbox.cif.g08.bks.cpg/sg10_27_cif.got.tgz:52833.got - 2010.06.03 11:33:40.
