data_PCOD9143120
_publ_section_title
;
Structure prediction by ZEFSAII (Michael W. Deem and Ramdas Pophale) SiO2 
 PCOD9143120
Probable space group: P 2/M
;
_chemical_formula_sum "Si O2"
_cell_formula_units_Z 26
_cell_length_a 11.600443
_cell_length_b 17.826085
_cell_length_c 15.291372
_cell_angle_alpha 90.000000
_cell_angle_beta 151.149890
_cell_angle_gamma 90.000000
_cell_volume 1525.781079
_symmetry_space_group_name_H-M "P 2/M"
_symmetry_group_IT_number 10
_symmetry_cell_setting 'monoclinic'
loop_
_space_group_symop_operation_xyz
x,y,z
-x,y,-z
-x,-y,-z
x,-y,z
loop_
_atom_site_type_symbol
_atom_site_label
_atom_site_fract_x
_atom_site_fract_y
_atom_site_fract_z
Si Si1 0.920720 0.412387 0.542015
Si Si2 0.328499 0.085172 0.469541
Si Si3 0.000000 0.296747 0.000000
Si Si4 0.044120 0.798719 0.856956
Si Si5 0.357686 0.413520 0.153038
Si Si6 0.254193 0.085784 0.116307
Si Si7 0.729715 0.339615 0.090394
O O1 0.990829 0.500000 0.590598
O O2 0.636750 0.407417 0.360548
O O3 0.000000 0.381925 0.500000
O O4 0.057146 0.372504 0.710217
O O5 0.500000 0.079981 0.500000
O O6 0.514205 0.101925 0.670927
O O7 0.142846 0.150641 0.321810
O O8 0.226111 0.000000 0.414020
O O9 0.941933 0.245999 0.875379
O O10 0.787891 0.352313 0.888264
O O11 0.178965 0.738657 0.887698
O O12 0.230834 0.856435 0.022970
O O13 0.281604 0.500000 0.117629
O O14 0.325352 0.392546 0.029426
O O15 0.270729 0.000000 0.097528
O O16 0.000000 0.090498 0.000000
O O17 0.500000 0.333415 0.000000
#
# Coordination Sequence:
#
# PCOD9143120 Si02
#       7
#     4   4   2   4   4   4   4
#     4  10  20  36  59  82 103 136 185 241 278 308
#     4  10  18  30  53  80 107 142 181 219 260 312
#     4  10  21  36  53  82 118 152 176 210 285 346
#     4  11  21  34  52  78 117 145 171 221 273 330
#     4  10  21  38  59  78 109 146 185 232 271 326
#     4  10  18  32  53  78 106 138 181 219 252 311
#     4  11  23  37  55  83 107 140 186 229 279 326
#
# _framework density 17.040452999999999
#
# number of rings (size 3 to 8) (size 9 to 14) (size 15 to 20)
#    0.000    1.692    3.846    1.154    0.000    4.308 
#    0.000    2.308    0.000   10.154    0.000    2.154 
#    0.000    0.000    0.000    0.000    0.000    0.000 
#
# Total GULP energy -144958.718322 kJ/mol
# GULP energy per Si atom -5575.335320 kJ/mol
# Density = 1.700167 g / cm^3
# Si number density = 17.040453 Si / 1000 Ang^3
#
#
#
# Elastic Constant Matrix: (Units=GPa)
#
#
# Indices 1 2 3 4 5 6 
#
# 1 55.5565 36.0157 31.6289 0.0000 -8.2275 0.0000
# 2 36.0157 123.0546 77.5431 0.0000 -9.6235 0.0000
# 3 31.6289 77.5431 124.4525 0.0000 -22.5306 0.0000
# 4 0.0000 0.0000 0.0000 33.4319 0.0000 -5.8508
# 5 -8.2275 -9.6235 -22.5306 0.0000 19.1648 0.0000
# 6 0.0000 0.0000 0.0000 -5.8508 0.0000 37.1367
#
#
#
# Elastic Compliance Matrix: (Units=1/GPa)
#
#
# Indices 1 2 3 4 5 6 
#
# 1 0.023175 -0.005377 -0.001559 0.000000 0.005416 0.000000
# 2 -0.005377 0.014863 -0.008843 0.000000 -0.005241 0.000000
# 3 -0.001559 -0.008843 0.016535 0.000000 0.014330 0.000000
# 4 0.000000 0.000000 0.000000 0.030760 0.000000 0.004846
# 5 0.005416 -0.005241 0.014330 0.000000 0.068719 0.000000
# 6 0.000000 0.000000 0.000000 0.004846 0.000000 0.027691
#
#
# Mechanical properties :
#
#
# Convention : Reuss Voigt Hill
#
# Bulk Modulus (GPa) = 43.44896 65.93766 54.69331
# Shear Modulus (GPa) = 22.62733 28.47175 25.54954
#
# Velocity S-wave (km/s) = 3.64793 4.09202 3.87634
# Velocity P-wave (km/s) = 6.57998 7.81696 7.22499
#
# Compressibility (1/GPa) = 0.02301551
#
# Stress axis : x y z
#
# Youngs Moduli (GPa) = 43.14991 67.28287 60.47638
#
# Poissons Ratio (x) = 0.36177 0.09429
# Poissons Ratio (y) = 0.23201 0.53478
# Poissons Ratio (z) = 0.06727 0.59497
#
# Static dielectric constant tensor:
#      x y z
#    x 1.516060 0.000000 0.028510 
#    y 0.000000 1.595770 0.000000 
#    z 0.028510 0.000000 1.531270 
# 
# From -- ./inp_files/65283.got.cif
#   From: 2010.05.17/outbox.cif.g08.bks.cpg/sg10_33_cif.got.tgz:65283.got - 2010.06.03 11:33:40.
