data_PCOD9143542
_publ_section_title
;
Structure prediction by ZEFSAII (Michael W. Deem and Ramdas Pophale) SiO2 
 PCOD9143542
Probable space group: P 2/M
;
_chemical_formula_sum "Si O2"
_cell_formula_units_Z 26
_cell_length_a 11.742909
_cell_length_b 14.395042
_cell_length_c 8.288296
_cell_angle_alpha 90.000000
_cell_angle_beta 84.042408
_cell_angle_gamma 90.000000
_cell_volume 1393.483718
_symmetry_space_group_name_H-M "P 2/M"
_symmetry_group_IT_number 10
_symmetry_cell_setting 'monoclinic'
loop_
_space_group_symop_operation_xyz
x,y,z
-x,y,-z
-x,-y,-z
x,-y,z
loop_
_atom_site_type_symbol
_atom_site_label
_atom_site_fract_x
_atom_site_fract_y
_atom_site_fract_z
Si Si1 0.190833 0.397485 0.457663
Si Si2 0.135176 0.606487 0.833817
Si Si3 0.500000 0.279640 0.000000
Si Si4 0.085517 0.106708 0.830640
Si Si5 0.056092 0.259884 0.272968
Si Si6 0.751044 0.769157 0.004052
Si Si7 0.454094 0.608554 0.332523
O O1 0.145653 0.500000 0.416207
O O2 0.195247 0.395646 0.649675
O O3 0.107738 0.316996 0.412025
O O4 0.316209 0.386613 0.364234
O O5 0.117083 0.500000 0.887286
O O6 0.216976 0.665957 0.936541
O O7 0.018115 0.664927 0.820550
O O8 0.617912 0.222872 0.989736
O O9 0.494761 0.339484 0.166042
O O10 0.200379 0.157692 0.873332
O O11 0.027378 0.171685 0.704290
O O12 0.100836 0.000000 0.783088
O O13 0.000000 0.110050 0.000000
O O14 0.167869 0.222993 0.162888
O O15 0.500000 0.643543 0.500000
O O16 0.487830 0.500000 0.316049
#
# Coordination Sequence:
#
# PCOD9143542 Si02
#       7
#     4   4   2   4   4   4   4
#     4  10  19  32  48  72 106 141 179 216 253 311
#     4  10  20  32  49  72 104 143 175 213 266 313
#     4  12  21  36  53  74 108 142 184 232 262 306
#     4   8  16  33  56  78 103 129 160 213 273 325
#     4  10  18  32  51  78 103 131 169 216 264 321
#     4  10  21  33  51  76 103 134 177 218 261 314
#     4  10  21  35  50  71 104 150 195 225 257 302
#
# _framework density 18.658273000000001
#
# number of rings (size 3 to 8) (size 9 to 14) (size 15 to 20)
#    0.000    2.154    1.538    3.462    0.000    5.538 
#    0.000    0.385    0.000    7.385    0.000    0.000 
#    0.000    6.769    0.000    0.000    0.000    0.000 
#
# Total GULP energy -145044.561229 kJ/mol
# GULP energy per Si atom -5578.636970 kJ/mol
# Density = 1.861581 g / cm^3
# Si number density = 18.658273 Si / 1000 Ang^3
#
#
#
# Elastic Constant Matrix: (Units=GPa)
#
#
# Indices 1 2 3 4 5 6 
#
# 1 108.6871 35.2861 10.9854 0.0000 -2.2420 0.0000
# 2 35.2861 113.1308 10.6822 0.0000 12.0398 0.0000
# 3 10.9854 10.6822 57.6906 0.0000 0.9130 0.0000
# 4 0.0000 0.0000 0.0000 14.5501 0.0000 5.0431
# 5 -2.2420 12.0398 0.9130 0.0000 28.6761 0.0000
# 6 0.0000 0.0000 0.0000 5.0431 0.0000 9.8547
#
#
#
# Elastic Compliance Matrix: (Units=1/GPa)
#
#
# Indices 1 2 3 4 5 6 
#
# 1 0.010488 -0.003381 -0.001407 0.000000 0.002284 0.000000
# 2 -0.003381 0.010503 -0.001228 0.000000 -0.004635 0.000000
# 3 -0.001407 -0.001228 0.017832 0.000000 -0.000162 0.000000
# 4 0.000000 0.000000 0.000000 0.083547 0.000000 -0.042755
# 5 0.002284 -0.004635 -0.000162 0.000000 0.037002 0.000000
# 6 0.000000 0.000000 0.000000 -0.042755 0.000000 0.123354
#
#
# Mechanical properties :
#
#
# Convention : Reuss Voigt Hill
#
# Bulk Modulus (GPa) = 37.32675 43.71287 40.51981
# Shear Modulus (GPa) = 16.46425 25.45317 20.95871
#
# Velocity S-wave (km/s) = 2.97376 3.69748 3.35519
# Velocity P-wave (km/s) = 5.64269 6.45814 6.06413
#
# Compressibility (1/GPa) = 0.02679044
#
# Stress axis : x y z
#
# Youngs Moduli (GPa) = 95.34800 95.20880 56.08000
#
# Poissons Ratio (x) = 0.32195 0.07891
# Poissons Ratio (y) = 0.32242 0.06884
# Poissons Ratio (z) = 0.13417 0.11687
#
# Static dielectric constant tensor:
#      x y z
#    x 1.659560 0.000000 -0.011000 
#    y 0.000000 1.627920 0.000000 
#    z -0.011000 0.000000 1.696430 
# 
# From -- ./inp_files/24625.got.cif
#   From: 2010.05.17/outbox.cif.g08.bks.cpg/sg10_13_cif.got.tgz:24625.got - 2010.06.03 11:33:40.
