data_PCOD9143819
_publ_section_title
;
Structure prediction by ZEFSAII (Michael W. Deem and Ramdas Pophale) SiO2 
 PCOD9143819
Probable space group: P 2/M
;
_chemical_formula_sum "Si O2"
_cell_formula_units_Z 30
_cell_length_a 12.025814
_cell_length_b 17.846215
_cell_length_c 8.143001
_cell_angle_alpha 90.000000
_cell_angle_beta 84.462690
_cell_angle_gamma 90.000000
_cell_volume 1739.457192
_symmetry_space_group_name_H-M "P 2/M"
_symmetry_group_IT_number 10
_symmetry_cell_setting 'monoclinic'
loop_
_space_group_symop_operation_xyz
x,y,z
-x,y,-z
-x,-y,-z
x,-y,z
loop_
_atom_site_type_symbol
_atom_site_label
_atom_site_fract_x
_atom_site_fract_y
_atom_site_fract_z
Si Si1 0.207249 0.674051 0.456337
Si Si2 0.869469 0.342144 0.178650
Si Si3 0.718865 0.915769 0.327816
Si Si4 0.476361 0.918951 0.193973
Si Si5 0.618582 0.202368 0.577401
Si Si6 0.000000 0.789335 0.500000
Si Si7 0.079274 0.833802 0.835373
Si Si8 0.881744 0.589076 0.836246
O O1 0.200083 0.644338 0.644833
O O2 0.320981 0.719086 0.408872
O O3 0.106272 0.734787 0.460930
O O4 0.183158 0.614625 0.317291
O O5 0.880181 0.252643 0.152345
O O6 0.993924 0.375037 0.191032
O O7 0.830345 0.378940 0.013541
O O8 0.596570 0.917525 0.264188
O O9 0.703758 0.850781 0.463942
O O10 0.814974 0.888408 0.191712
O O11 0.743065 0.000000 0.384317
O O12 0.407860 0.847112 0.259612
O O13 0.423711 0.000000 0.246595
O O14 0.500000 0.917560 0.000000
O O15 0.500000 0.210216 0.500000
O O16 0.018821 0.835149 0.665352
O O17 0.000000 0.850809 0.000000
O O18 0.891179 0.500000 0.844916
#
# Coordination Sequence:
#
# PCOD9143819 Si02
#       8
#     4   4   4   4   4   2   4   4
#     4  11  19  35  56  80 113 144 183 221 276 333
#     4  10  18  33  51  79 112 150 177 217 271 331
#     4  10  20  35  54  77 110 149 186 233 283 323
#     4   9  19  35  54  81 109 138 186 243 293 323
#     4  10  20  36  58  81 107 144 191 234 276 328
#     4  10  18  34  52  78 102 148 184 216 270 330
#     4  11  19  33  55  75 112 152 189 222 272 331
#     4  11  21  33  54  86 115 141 181 226 276 330
#
# _framework density 17.246759000000001
#
# number of rings (size 3 to 8) (size 9 to 14) (size 15 to 20)
#    0.000    1.733    6.667    1.200    0.000    5.600 
#    0.000    0.333    0.000    0.400    0.000    0.933 
#    0.000    0.000    0.000    0.000    0.000    0.000 
#
# Total GULP energy -167195.506992 kJ/mol
# GULP energy per Si atom -5573.183566 kJ/mol
# Density = 1.720750 g / cm^3
# Si number density = 17.246759 Si / 1000 Ang^3
#
#
#
# Elastic Constant Matrix: (Units=GPa)
#
#
# Indices 1 2 3 4 5 6 
#
# 1 35.6349 21.7227 13.1926 0.0000 -14.0918 0.0000
# 2 21.7227 66.7280 21.1173 0.0000 -6.8327 0.0000
# 3 13.1926 21.1173 93.0600 0.0000 -15.6872 0.0000
# 4 0.0000 0.0000 0.0000 16.7723 0.0000 0.5321
# 5 -14.0918 -6.8327 -15.6872 0.0000 15.4681 0.0000
# 6 0.0000 0.0000 0.0000 0.5321 0.0000 6.6114
#
#
#
# Elastic Compliance Matrix: (Units=1/GPa)
#
#
# Indices 1 2 3 4 5 6 
#
# 1 0.053342 -0.013706 0.003280 0.000000 0.045868 0.000000
# 2 -0.013706 0.019888 -0.003853 0.000000 -0.007609 0.000000
# 3 0.003280 -0.003853 0.013717 0.000000 0.015198 0.000000
# 4 0.000000 0.000000 0.000000 0.059775 0.000000 -0.004811
# 5 0.045868 -0.007609 0.015198 0.000000 0.118488 0.000000
# 6 0.000000 0.000000 0.000000 -0.004811 0.000000 0.151642
#
#
# Mechanical properties :
#
#
# Convention : Reuss Voigt Hill
#
# Bulk Modulus (GPa) = 17.12639 34.16534 25.64587
# Shear Modulus (GPa) = 10.75566 17.06303 13.90935
#
# Velocity S-wave (km/s) = 2.49997 3.14880 2.84296
# Velocity P-wave (km/s) = 4.27609 5.75088 5.06742
#
# Compressibility (1/GPa) = 0.05838941
#
# Stress axis : x y z
#
# Youngs Moduli (GPa) = 18.74710 50.28078 72.90295
#
# Poissons Ratio (x) = 0.68916 -0.23914
# Poissons Ratio (y) = 0.25695 0.28087
# Poissons Ratio (z) = -0.06150 0.19371
#
# Static dielectric constant tensor:
#      x y z
#    x 1.464920 0.000000 -0.082120 
#    y 0.000000 1.583760 0.000000 
#    z -0.082120 0.000000 1.557490 
# 
# From -- ./inp_files/25004.got.cif
#   From: 2010.05.17/outbox.cif.g08.bks.cpg/sg10_13_cif.got.tgz:25004.got - 2010.06.03 11:33:40.
