data_PCOD9143106
_publ_section_title
;
Structure prediction by ZEFSAII (Michael W. Deem and Ramdas Pophale) SiO2 
 PCOD9143106
Probable space group: P 2/M
;
_chemical_formula_sum "Si O2"
_cell_formula_units_Z 32
_cell_length_a 12.895759
_cell_length_b 7.696084
_cell_length_c 29.613813
_cell_angle_alpha 90.000000
_cell_angle_beta 29.745019
_cell_angle_gamma 90.000000
_cell_volume 1458.196921
_symmetry_space_group_name_H-M "P 2/M"
_symmetry_group_IT_number 10
_symmetry_cell_setting 'monoclinic'
loop_
_space_group_symop_operation_xyz
x,y,z
-x,y,-z
-x,-y,-z
x,-y,z
loop_
_atom_site_type_symbol
_atom_site_label
_atom_site_fract_x
_atom_site_fract_y
_atom_site_fract_z
Si Si1 0.695817 0.287730 0.237126
Si Si2 0.267462 0.703369 0.674702
Si Si3 0.490189 0.708222 0.146804
Si Si4 0.079822 0.802010 0.515574
Si Si5 0.051448 0.287211 0.032165
Si Si6 0.356644 0.290387 0.295290
Si Si7 0.030892 0.794807 0.285971
Si Si8 0.701186 0.793653 0.483977
O O1 0.699412 0.500000 0.236365
O O2 0.721065 0.223717 0.278769
O O3 0.479997 0.238420 0.293804
O O4 0.881015 0.231579 0.133384
O O5 0.305577 0.500000 0.663614
O O6 0.453869 0.773693 0.572323
O O7 0.048403 0.730289 0.732488
O O8 0.493157 0.500000 0.143165
O O9 0.484319 0.753888 0.202158
O O10 0.271288 0.761345 0.207336
O O11 0.713449 0.770078 0.044123
O O12 0.865792 0.800183 0.624890
O O13 0.000000 0.713162 0.500000
O O14 0.247567 0.719666 0.485322
O O15 0.142702 0.000000 0.480667
O O16 0.046438 0.500000 0.033791
O O17 0.000000 0.234449 0.000000
O O18 0.328663 0.500000 0.306300
O O19 0.865739 0.721006 0.385602
O O20 0.000846 0.000000 0.296816
O O21 0.741794 0.000000 0.471527
#
# Coordination Sequence:
#
# PCOD9143106 Si02
#       8
#     4   4   4   4   4   4   4   4
#     4   9  18  33  53  83 118 146 174 219 280 332
#     4  11  23  37  56  82 111 142 184 234 275 317
#     4  10  19  32  57  89 111 135 179 228 269 318
#     4  10  20  33  49  73 108 148 185 217 260 325
#     4   9  15  29  56  87 116 144 175 216 270 331
#     4  10  18  30  52  81 112 140 172 218 273 325
#     4  11  23  40  59  76 107 151 189 227 272 323
#     4  10  21  37  55  77 105 144 189 226 270 326
#
# _framework density 21.944908999999999
#
# number of rings (size 3 to 8) (size 9 to 14) (size 15 to 20)
#    0.000    2.000    2.500    1.875    0.000    3.250 
#    0.000    1.250    0.000    6.375    0.000    0.000 
#    0.000    0.000    0.000    0.000    0.000    0.000 
#
# Total GULP energy -178632.928696 kJ/mol
# GULP energy per Si atom -5582.279022 kJ/mol
# Density = 2.189496 g / cm^3
# Si number density = 21.944909 Si / 1000 Ang^3
#
#
#
# Elastic Constant Matrix: (Units=GPa)
#
#
# Indices 1 2 3 4 5 6 
#
# 1 133.6857 4.1507 38.3941 0.0000 -18.1542 0.0000
# 2 4.1507 39.8501 5.1654 0.0000 2.8909 0.0000
# 3 38.3941 5.1654 102.4811 0.0000 -11.3698 0.0000
# 4 0.0000 0.0000 0.0000 24.5661 0.0000 -4.1462
# 5 -18.1542 2.8909 -11.3698 0.0000 28.1103 0.0000
# 6 0.0000 0.0000 0.0000 -4.1462 0.0000 6.8928
#
#
#
# Elastic Compliance Matrix: (Units=1/GPa)
#
#
# Indices 1 2 3 4 5 6 
#
# 1 0.008953 -0.000917 -0.002781 0.000000 0.004751 0.000000
# 2 -0.000917 0.025641 -0.001369 0.000000 -0.003783 0.000000
# 3 -0.002781 -0.001369 0.011187 0.000000 0.002870 0.000000
# 4 0.000000 0.000000 0.000000 0.045306 0.000000 0.027253
# 5 0.004751 -0.003783 0.002870 0.000000 0.040192 0.000000
# 6 0.000000 0.000000 0.000000 0.027253 0.000000 0.161473
#
#
# Mechanical properties :
#
#
# Convention : Reuss Voigt Hill
#
# Bulk Modulus (GPa) = 28.05144 41.27082 34.66113
# Shear Modulus (GPa) = 15.88472 27.13426 21.50949
#
# Velocity S-wave (km/s) = 2.69336 3.52016 3.13415
# Velocity P-wave (km/s) = 4.74159 5.94722 5.37829
#
# Compressibility (1/GPa) = 0.03564879
#
# Stress axis : x y z
#
# Youngs Moduli (GPa) = 111.70046 38.99954 89.38919
#
# Poissons Ratio (x) = 0.03575 0.24856
# Poissons Ratio (y) = 0.10240 0.12234
# Poissons Ratio (z) = 0.31060 0.05338
#
# Static dielectric constant tensor:
#      x y z
#    x 1.840170 0.000000 0.019470 
#    y 0.000000 1.813120 0.000000 
#    z 0.019470 0.000000 1.818500 
# 
# From -- ./inp_files/63793.got.cif
#   From: 2010.05.17/outbox.cif.g08.bks.cpg/sg10_32_cif.got.tgz:63793.got - 2010.06.03 11:33:40.
