data_PCOD9143443
_publ_section_title
;
Structure prediction by ZEFSAII (Michael W. Deem and Ramdas Pophale) SiO2 
 PCOD9143443
Probable space group: P 2/M
;
_chemical_formula_sum "Si O2"
_cell_formula_units_Z 28
_cell_length_a 9.775352
_cell_length_b 11.044002
_cell_length_c 22.476147
_cell_angle_alpha 90.000000
_cell_angle_beta 43.752805
_cell_angle_gamma 90.000000
_cell_volume 1678.043977
_symmetry_space_group_name_H-M "P 2/M"
_symmetry_group_IT_number 10
_symmetry_cell_setting 'monoclinic'
loop_
_space_group_symop_operation_xyz
x,y,z
-x,y,-z
-x,-y,-z
x,-y,z
loop_
_atom_site_type_symbol
_atom_site_label
_atom_site_fract_x
_atom_site_fract_y
_atom_site_fract_z
Si Si1 0.357787 0.646423 0.096731
Si Si2 0.041624 0.000000 0.588035
Si Si3 0.070317 0.739764 0.631696
Si Si4 0.897997 0.646528 0.247598
Si Si5 0.535500 0.746612 0.292914
Si Si6 0.375109 0.644883 0.226576
Si Si7 0.188915 0.359254 0.475753
Si Si8 0.668183 0.000000 0.615700
O O1 0.367318 0.500000 0.092880
O O2 0.417684 0.681092 0.145003
O O3 0.126768 0.676313 0.161375
O O4 0.500000 0.692687 0.000000
O O5 0.045771 0.881996 0.628212
O O6 0.221869 0.000000 0.483183
O O7 0.843630 0.000000 0.609785
O O8 0.142114 0.697946 0.673589
O O9 0.208159 0.697463 0.534405
O O10 0.856222 0.675862 0.689820
O O11 0.875872 0.500000 0.254520
O O12 0.749717 0.709566 0.248705
O O13 0.503069 0.717619 0.233939
O O14 0.379723 0.660604 0.376181
O O15 0.463813 0.880782 0.332860
O O16 0.401986 0.500000 0.224945
O O17 0.148578 0.500000 0.496912
O O18 0.000000 0.303243 0.500000
#
# Coordination Sequence:
#
# PCOD9143443 Si02
#       8
#     4   2   4   4   4   4   4   2
#     4   8  16  34  59  84 111 140 168 211 274 340
#     4  11  20  37  55  73 100 145 206 248 252 302
#     4  11  20  34  52  75 103 148 192 226 270 304
#     4  10  22  37  54  82 117 140 173 227 279 333
#     4  12  22  35  51  78 109 149 182 227 277 311
#     4  10  18  31  54  82 109 138 183 226 266 329
#     4  11  19  29  49  73 101 140 189 226 265 318
#     4  11  22  37  53  73 106 146 194 242 262 305
#
# _framework density 16.686094000000001
#
# number of rings (size 3 to 8) (size 9 to 14) (size 15 to 20)
#    0.000    1.571    4.286    3.429    0.000    1.143 
#    0.000    2.857    0.000    3.429    0.000   19.000 
#    0.000    0.000    0.000    0.000    0.000    0.000 
#
# Total GULP energy -156229.083181 kJ/mol
# GULP energy per Si atom -5579.610114 kJ/mol
# Density = 1.664812 g / cm^3
# Si number density = 16.686094 Si / 1000 Ang^3
#
#
#
# Elastic Constant Matrix: (Units=GPa)
#
#
# Indices 1 2 3 4 5 6 
#
# 1 118.0340 27.0979 49.1546 0.0000 8.6654 0.0000
# 2 27.0979 79.7819 15.3526 0.0000 1.3041 0.0000
# 3 49.1546 15.3526 97.7935 0.0000 12.5802 0.0000
# 4 0.0000 0.0000 0.0000 4.9214 0.0000 -3.3434
# 5 8.6654 1.3041 12.5802 0.0000 13.4070 0.0000
# 6 0.0000 0.0000 0.0000 -3.3434 0.0000 18.1560
#
#
#
# Elastic Compliance Matrix: (Units=1/GPa)
#
#
# Indices 1 2 3 4 5 6 
#
# 1 0.011372 -0.002870 -0.004954 0.000000 -0.002423 0.000000
# 2 -0.002870 0.013655 -0.000875 0.000000 0.001347 0.000000
# 3 -0.004954 -0.000875 0.014136 0.000000 -0.009978 0.000000
# 4 0.000000 0.000000 0.000000 0.232250 0.000000 0.042768
# 5 -0.002423 0.001347 -0.009978 0.000000 0.085385 0.000000
# 6 0.000000 0.000000 0.000000 0.042768 0.000000 0.062954
#
#
# Mechanical properties :
#
#
# Convention : Reuss Voigt Hill
#
# Bulk Modulus (GPa) = 45.94035 53.20219 49.57127
# Shear Modulus (GPa) = 11.25103 20.89715 16.07409
#
# Velocity S-wave (km/s) = 2.59950 3.54272 3.10711
# Velocity P-wave (km/s) = 6.04994 6.97767 6.53030
#
# Compressibility (1/GPa) = 0.02176736
#
# Stress axis : x y z
#
# Youngs Moduli (GPa) = 87.93752 73.23268 70.73928
#
# Poissons Ratio (x) = 0.21014 0.35042
# Poissons Ratio (y) = 0.25234 0.06187
# Poissons Ratio (z) = 0.43562 0.06406
#
# Static dielectric constant tensor:
#      x y z
#    x 1.588730 0.000000 0.011900 
#    y 0.000000 1.565860 0.000000 
#    z 0.011900 0.000000 1.551300 
# 
# From -- ./inp_files/60779.got.cif
#   From: 2010.05.17/outbox.cif.g08.bks.cpg/sg10_31_cif.got.tgz:60779.got - 2010.06.03 11:33:40.
