data_PCOD9143991
_publ_section_title
;
Structure prediction by ZEFSAII (Michael W. Deem and Ramdas Pophale) SiO2 
 PCOD9143991
Probable space group: P 2/M
;
_chemical_formula_sum "Si O2"
_cell_formula_units_Z 28
_cell_length_a 14.913120
_cell_length_b 7.940029
_cell_length_c 14.747882
_cell_angle_alpha 90.000000
_cell_angle_beta 120.208865
_cell_angle_gamma 90.000000
_cell_volume 1509.152025
_symmetry_space_group_name_H-M "P 2/M"
_symmetry_group_IT_number 10
_symmetry_cell_setting 'monoclinic'
loop_
_space_group_symop_operation_xyz
x,y,z
-x,y,-z
-x,-y,-z
x,-y,z
loop_
_atom_site_type_symbol
_atom_site_label
_atom_site_fract_x
_atom_site_fract_y
_atom_site_fract_z
Si Si1 0.795240 0.700159 0.566123
Si Si2 0.988309 0.705818 0.388539
Si Si3 0.346231 0.806414 0.664437
Si Si4 0.427038 0.307157 0.219835
Si Si5 0.602172 0.802736 0.998529
Si Si6 0.389715 0.706854 0.399164
Si Si7 0.239650 0.302810 0.784918
O O1 0.801313 0.500000 0.584604
O O2 0.745928 0.733764 0.442732
O O3 0.709209 0.765301 0.592874
O O4 0.912597 0.765579 0.619166
O O5 0.991070 0.500000 0.390600
O O6 0.878220 0.756043 0.289780
O O7 0.000000 0.758841 0.500000
O O8 0.449475 0.701172 0.700939
O O9 0.312567 0.793058 0.751074
O O10 0.366259 0.000000 0.650477
O O11 0.393520 0.500000 0.192350
O O12 0.408037 0.219393 0.114332
O O13 0.381011 0.237699 0.290202
O O14 0.607914 0.000000 0.021942
O O15 0.500000 0.734195 0.000000
O O16 0.706335 0.720295 0.090906
O O17 0.500000 0.758838 0.500000
O O18 0.391227 0.500000 0.399881
O O19 0.242771 0.500000 0.762045
#
# Coordination Sequence:
#
# PCOD9143991 Si02
#       7
#     4   4   4   4   4   4   4
#     4  10  18  34  55  76 109 144 175 215 263 307
#     4   9  17  30  53  83 106 134 175 219 259 305
#     4  12  22  31  47  78 113 143 175 213 259 311
#     4  11  21  35  55  78 105 141 182 214 256 313
#     4  11  23  37  53  78 110 137 171 216 268 316
#     4   9  17  30  53  83 106 134 175 219 259 305
#     4  11  21  35  55  78 105 141 182 214 256 313
#
# _framework density 18.553464999999999
#
# number of rings (size 3 to 8) (size 9 to 14) (size 15 to 20)
#    0.000    1.571    4.286    2.571    0.000    0.571 
#    0.000    4.286    0.000    0.857    0.000    6.000 
#    0.000    0.000    0.000    0.000    0.000    0.000 
#
# Total GULP energy -156246.746958 kJ/mol
# GULP energy per Si atom -5580.240963 kJ/mol
# Density = 1.851124 g / cm^3
# Si number density = 18.553465 Si / 1000 Ang^3
#
#
#
# Elastic Constant Matrix: (Units=GPa)
#
#
# Indices 1 2 3 4 5 6 
#
# 1 94.8203 20.0316 45.0637 0.0000 -6.7040 0.0000
# 2 20.0316 21.2951 1.9063 0.0000 3.8779 0.0000
# 3 45.0637 1.9063 89.6440 0.0000 4.1695 0.0000
# 4 0.0000 0.0000 0.0000 -3.7365 0.0000 1.6677
# 5 -6.7040 3.8779 4.1695 0.0000 29.5450 0.0000
# 6 0.0000 0.0000 0.0000 1.6677 0.0000 -7.3907
#
#
#
# Elastic Compliance Matrix: (Units=1/GPa)
#
#
# Indices 1 2 3 4 5 6 
#
# 1 0.020056 -0.019519 -0.010064 0.000000 0.008533 0.000000
# 2 -0.019519 0.067154 0.009060 0.000000 -0.014522 0.000000
# 3 -0.010064 0.009060 0.016290 0.000000 -0.005772 0.000000
# 4 0.000000 0.000000 0.000000 -0.297606 0.000000 -0.067155
# 5 0.008533 -0.014522 -0.005772 0.000000 0.038504 0.000000
# 6 0.000000 0.000000 0.000000 -0.067155 0.000000 -0.150459
#
#
# Mechanical properties :
#
#
# Convention : Reuss Voigt Hill
#
# Bulk Modulus (GPa) = 16.01202 37.75139 26.88170
# Shear Modulus (GPa) = -20.47534 12.93409 -3.77063
#
# Velocity S-wave (km/s) = -3.32563 2.64318 -1.42714
# Velocity P-wave (km/s) = 2.46931 5.45039 3.43578
#
# Compressibility (1/GPa) = 0.06245309
#
# Stress axis : x y z
#
# Youngs Moduli (GPa) = 49.86015 14.89119 61.38684
#
# Poissons Ratio (x) = 0.29066 0.61779
# Poissons Ratio (y) = 0.97323 -0.55614
# Poissons Ratio (z) = 0.50179 -0.13491
#
# Static dielectric constant tensor:
#      x y z
#    x 1.651670 0.000000 -0.009160 
#    y 0.000000 1.652360 0.000000 
#    z -0.009160 0.000000 1.625540 
# 
# From -- ./inp_files/66236.got.cif
#   From: 2010.05.17/outbox.cif.g08.bks.cpg/sg10_34_cif.got.tgz:66236.got - 2010.06.03 11:33:40.
