data_PCOD9143540
_publ_section_title
;
Structure prediction by ZEFSAII (Michael W. Deem and Ramdas Pophale) SiO2 
 PCOD9143540
Probable space group: P 2/M
;
_chemical_formula_sum "Si O2"
_cell_formula_units_Z 28
_cell_length_a 9.133085
_cell_length_b 13.136092
_cell_length_c 14.781947
_cell_angle_alpha 90.000000
_cell_angle_beta 120.358034
_cell_angle_gamma 90.000000
_cell_volume 1530.268992
_symmetry_space_group_name_H-M "P 2/M"
_symmetry_group_IT_number 10
_symmetry_cell_setting 'monoclinic'
loop_
_space_group_symop_operation_xyz
x,y,z
-x,y,-z
-x,-y,-z
x,-y,z
loop_
_atom_site_type_symbol
_atom_site_label
_atom_site_fract_x
_atom_site_fract_y
_atom_site_fract_z
Si Si1 0.276696 0.000000 0.562733
Si Si2 0.059904 0.000000 0.669288
Si Si3 0.458602 0.384902 0.693670
Si Si4 0.651032 0.781208 0.477773
Si Si5 0.169736 0.318540 0.165855
Si Si6 0.256322 0.381491 0.808012
Si Si7 0.798900 0.614580 0.012276
Si Si8 0.968705 0.213574 0.709566
O O1 0.109601 0.000000 0.446375
O O2 0.370390 0.895123 0.568617
O O3 0.213542 0.000000 0.646123
O O4 0.052143 0.896964 0.724335
O O5 0.412327 0.500000 0.653303
O O6 0.360219 0.301740 0.604341
O O7 0.659803 0.369509 0.743575
O O8 0.405560 0.370692 0.781902
O O9 0.500000 0.760407 0.500000
O O10 0.825694 0.776223 0.587849
O O11 0.118585 0.229759 0.219415
O O12 0.996925 0.384087 0.105310
O O13 0.211860 0.304828 0.072415
O O14 0.199558 0.500000 0.784886
O O15 0.301390 0.363961 0.927236
O O16 0.107580 0.301936 0.739815
O O17 0.756535 0.500000 0.966139
#
# Coordination Sequence:
#
# PCOD9143540 Si02
#       8
#     2   2   4   4   4   4   4   4
#     4   9  19  34  58  74 102 133 180 226 258 297
#     4   9  18  34  56  81  97 136 176 221 263 301
#     4  11  22  34  49  77 113 143 176 212 259 317
#     4  11  21  36  51  80 107 142 175 215 263 305
#     4  10  18  32  51  76 103 136 171 218 258 308
#     4   9  20  35  53  77 105 141 180 219 258 307
#     4   9  17  32  54  75  98 136 181 221 263 301
#     4  10  20  36  55  76 108 139 177 214 257 317
#
# _framework density 18.297436999999999
#
# number of rings (size 3 to 8) (size 9 to 14) (size 15 to 20)
#    0.000    2.143    1.429    2.786    0.000    4.286 
#    0.000    3.571    0.000    6.857    0.000    0.000 
#    0.000   22.857    0.000    0.000    0.000    0.000 
#
# Total GULP energy -156014.469460 kJ/mol
# GULP energy per Si atom -5571.945338 kJ/mol
# Density = 1.825579 g / cm^3
# Si number density = 18.297437 Si / 1000 Ang^3
#
#
#
# Elastic Constant Matrix: (Units=GPa)
#
#
# Indices 1 2 3 4 5 6 
#
# 1 69.1929 33.8642 25.8161 0.0000 -18.2156 0.0000
# 2 33.8642 97.5630 47.1078 0.0000 -20.4677 0.0000
# 3 25.8161 47.1078 73.1038 0.0000 -20.3532 0.0000
# 4 0.0000 0.0000 0.0000 -2.7336 0.0000 -7.9455
# 5 -18.2156 -20.4677 -20.3532 0.0000 40.7260 0.0000
# 6 0.0000 0.0000 0.0000 -7.9455 0.0000 26.1601
#
#
#
# Elastic Compliance Matrix: (Units=1/GPa)
#
#
# Indices 1 2 3 4 5 6 
#
# 1 0.018790 -0.004268 -0.002489 0.000000 0.005015 0.000000
# 2 -0.004268 0.016198 -0.008359 0.000000 0.002054 0.000000
# 3 -0.002489 -0.008359 0.021449 0.000000 0.005405 0.000000
# 4 0.000000 0.000000 0.000000 -0.194292 0.000000 -0.059011
# 5 0.005015 0.002054 0.005405 0.000000 0.030531 0.000000
# 6 0.000000 0.000000 0.000000 -0.059011 0.000000 0.020303
#
#
# Mechanical properties :
#
#
# Convention : Reuss Voigt Hill
#
# Bulk Modulus (GPa) = 38.15896 50.38177 44.27036
# Shear Modulus (GPa) = -104.05327 21.70194 -41.17567
#
# Velocity S-wave (km/s) = -7.54925 3.44767 -4.74893
# Velocity P-wave (km/s) = 7.42214 6.59114 2.41298
#
# Compressibility (1/GPa) = 0.02620617
#
# Stress axis : x y z
#
# Youngs Moduli (GPa) = 53.21920 61.73492 46.62115
#
# Poissons Ratio (x) = 0.26350 0.11603
# Poissons Ratio (y) = 0.22715 0.38970
# Poissons Ratio (z) = 0.13245 0.51604
#
# Static dielectric constant tensor:
#      x y z
#    x 1.666630 0.000000 -0.009170 
#    y 0.000000 1.600660 0.000000 
#    z -0.009170 0.000000 1.660570 
# 
# From -- ./inp_files/61053.got.cif
#   From: 2010.05.17/outbox.cif.g08.bks.cpg/sg10_31_cif.got.tgz:61053.got - 2010.06.03 11:33:40.
