data_PCOD9143615
_publ_section_title
;
Structure prediction by ZEFSAII (Michael W. Deem and Ramdas Pophale) SiO2 
 PCOD9143615
Probable space group: P 2/M
;
_chemical_formula_sum "Si O2"
_cell_formula_units_Z 30
_cell_length_a 14.282963
_cell_length_b 21.916244
_cell_length_c 15.540116
_cell_angle_alpha 90.000000
_cell_angle_beta 19.167299
_cell_angle_gamma 90.000000
_cell_volume 1597.151398
_symmetry_space_group_name_H-M "P 2/M"
_symmetry_group_IT_number 10
_symmetry_cell_setting 'monoclinic'
loop_
_space_group_symop_operation_xyz
x,y,z
-x,y,-z
-x,-y,-z
x,-y,z
loop_
_atom_site_type_symbol
_atom_site_label
_atom_site_fract_x
_atom_site_fract_y
_atom_site_fract_z
Si Si1 0.091237 0.321799 0.614492
Si Si2 0.465302 0.263039 0.155078
Si Si3 0.667183 0.271730 0.434803
Si Si4 0.311661 0.867492 0.998492
Si Si5 0.832323 0.186670 0.062192
Si Si6 0.500000 0.644394 0.000000
Si Si7 0.899943 0.928439 0.491045
Si Si8 0.253151 0.568645 0.350561
O O1 0.245079 0.320971 0.571807
O O2 0.153495 0.384014 0.509461
O O3 0.765286 0.299715 0.906485
O O4 0.258872 0.270399 0.414739
O O5 0.554310 0.193125 0.072867
O O6 0.314961 0.302134 0.209002
O O7 0.500000 0.298919 0.500000
O O8 0.955096 0.240219 0.152082
O O9 0.461146 0.218230 0.651429
O O10 0.220489 0.851655 0.979282
O O11 0.058412 0.891006 0.278787
O O12 0.564126 0.916460 0.776874
O O13 0.000000 0.158186 0.000000
O O14 0.488949 0.596656 0.930063
O O15 0.000000 0.909316 0.500000
O O16 0.967336 0.000000 0.423049
O O17 0.308973 0.500000 0.331673
O O18 0.000000 0.567385 0.500000
#
# Coordination Sequence:
#
# PCOD9143615 Si02
#       8
#     4   4   4   4   4   2   4   4
#     4  11  19  36  49  77 112 140 180 232 266 327
#     4  11  22  32  53  81 115 139 171 227 286 327
#     4  10  18  32  53  78 114 148 176 222 289 345
#     4  12  21  39  63  86 115 151 186 237 286 340
#     4  10  20  34  56  89 118 145 180 226 284 353
#     4  10  21  34  48  78 113 144 180 236 278 330
#     4  11  26  44  61  83 114 156 200 231 266 326
#     4  10  20  34  51  70 103 154 194 223 270 329
#
# _framework density 18.783441
#
# number of rings (size 3 to 8) (size 9 to 14) (size 15 to 20)
#    0.000    1.333    4.000    2.600    1.867    1.067 
#    0.000    0.000    0.000    2.800    0.000    0.000 
#    0.000    6.667    0.000    0.000    0.000    0.933 
#
# Total GULP energy -167049.664540 kJ/mol
# GULP energy per Si atom -5568.322151 kJ/mol
# Density = 1.874069 g / cm^3
# Si number density = 18.783441 Si / 1000 Ang^3
#
#
#
# Elastic Constant Matrix: (Units=GPa)
#
#
# Indices 1 2 3 4 5 6 
#
# 1 113.5708 15.4231 6.5393 0.0000 6.2757 0.0000
# 2 15.4231 62.6592 1.2789 0.0000 5.1824 0.0000
# 3 6.5393 1.2789 81.1606 0.0000 2.6104 0.0000
# 4 0.0000 0.0000 0.0000 13.0494 0.0000 -2.1338
# 5 6.2757 5.1824 2.6104 0.0000 20.1979 0.0000
# 6 0.0000 0.0000 0.0000 -2.1338 0.0000 16.5733
#
#
#
# Elastic Compliance Matrix: (Units=1/GPa)
#
#
# Indices 1 2 3 4 5 6 
#
# 1 0.009249 -0.002077 -0.000640 0.000000 -0.002258 0.000000
# 2 -0.002077 0.016773 0.000021 0.000000 -0.003661 0.000000
# 3 -0.000640 0.000021 0.012418 0.000000 -0.001411 0.000000
# 4 0.000000 0.000000 0.000000 0.078280 0.000000 0.010078
# 5 -0.002258 -0.003661 -0.001411 0.000000 0.051333 0.000000
# 6 0.000000 0.000000 0.000000 0.010078 0.000000 0.061636
#
#
# Mechanical properties :
#
#
# Convention : Reuss Voigt Hill
#
# Bulk Modulus (GPa) = 30.25904 33.76369 32.01136
# Shear Modulus (GPa) = 20.31727 25.57407 22.94567
#
# Velocity S-wave (km/s) = 3.29243 3.69388 3.49892
# Velocity P-wave (km/s) = 5.53153 6.01725 5.77949
#
# Compressibility (1/GPa) = 0.03304798
#
# Stress axis : x y z
#
# Youngs Moduli (GPa) = 108.12312 59.62009 80.52911
#
# Poissons Ratio (x) = 0.12381 0.05153
# Poissons Ratio (y) = 0.22454 -0.00167
# Poissons Ratio (z) = 0.06918 -0.00124
#
# Static dielectric constant tensor:
#      x y z
#    x 1.788990 0.000000 -0.029200 
#    y 0.000000 1.639360 0.000000 
#    z -0.029200 0.000000 1.700090 
# 
# From -- ./inp_files/67860.got.cif
#   From: 2010.05.17/outbox.cif.g08.bks.cpg/sg10_34_cif.got.tgz:67860.got - 2010.06.03 11:33:40.
