data_PCOD9143131
_publ_section_title
;
Structure prediction by ZEFSAII (Michael W. Deem and Ramdas Pophale) SiO2 
 PCOD9143131
Probable space group: P 2/M
;
_chemical_formula_sum "Si O2"
_cell_formula_units_Z 24
_cell_length_a 14.231769
_cell_length_b 12.391697
_cell_length_c 9.986280
_cell_angle_alpha 90.000000
_cell_angle_beta 36.247609
_cell_angle_gamma 90.000000
_cell_volume 1041.318676
_symmetry_space_group_name_H-M "P 2/M"
_symmetry_group_IT_number 10
_symmetry_cell_setting 'monoclinic'
loop_
_space_group_symop_operation_xyz
x,y,z
-x,y,-z
-x,-y,-z
x,-y,z
loop_
_atom_site_type_symbol
_atom_site_label
_atom_site_fract_x
_atom_site_fract_y
_atom_site_fract_z
Si Si1 0.089176 0.621850 0.542001
Si Si2 0.712172 0.000000 0.847508
Si Si3 0.369634 0.000000 0.373777
Si Si4 0.167275 0.619287 0.926406
Si Si5 0.680488 0.223245 0.833220
Si Si6 0.651762 0.788243 0.427035
Si Si7 0.547659 0.618269 0.199256
O O1 0.158041 0.500000 0.464925
O O2 0.212805 0.719961 0.400117
O O3 0.000000 0.630733 0.500000
O O4 0.968704 0.628285 0.805007
O O5 0.699691 0.000000 0.697714
O O6 0.770905 0.122677 0.798065
O O7 0.557816 0.000000 0.122303
O O8 0.325521 0.104718 0.511378
O O9 0.152934 0.500000 0.873982
O O10 0.194463 0.731524 0.816777
O O11 0.333278 0.610522 0.813750
O O12 0.500000 0.186201 0.000000
O O13 0.643419 0.319590 0.976303
O O14 0.500000 0.809741 0.500000
O O15 0.592015 0.692477 0.590602
O O16 0.499609 0.500000 0.210786
#
# Coordination Sequence:
#
# PCOD9143131 Si02
#       7
#     4   2   2   4   4   4   4
#     4  10  20  36  58  84 122 159 187 235 300 354
#     4  11  22  40  60  78 114 158 196 248 302 338
#     4  11  19  38  55  78 110 156 193 237 305 340
#     4   9  18  34  54  81 118 156 181 222 298 356
#     4  12  21  36  58  85 112 153 203 243 287 340
#     4  10  19  31  54  86 115 146 193 241 283 346
#     4  10  18  30  53  83 116 147 186 235 286 347
#
# _framework density 23.047698
#
# number of rings (size 3 to 8) (size 9 to 14) (size 15 to 20)
#    0.000    1.667    5.000    1.250    0.000    3.333 
#    0.000    1.250    0.000    5.000    0.000   10.500 
#    0.000    0.000    0.000    0.000    0.000    0.000 
#
# Total GULP energy -133828.229499 kJ/mol
# GULP energy per Si atom -5576.176229 kJ/mol
# Density = 2.299524 g / cm^3
# Si number density = 23.047698 Si / 1000 Ang^3
#
#
#
# Elastic Constant Matrix: (Units=GPa)
#
#
# Indices 1 2 3 4 5 6 
#
# 1 60.9135 11.7396 2.3028 0.0000 1.9379 0.0000
# 2 11.7396 208.4495 76.3870 0.0000 14.4683 0.0000
# 3 2.3028 76.3870 112.2181 0.0000 7.1187 0.0000
# 4 0.0000 0.0000 0.0000 44.0680 0.0000 15.1695
# 5 1.9379 14.4683 7.1187 0.0000 20.8161 0.0000
# 6 0.0000 0.0000 0.0000 15.1695 0.0000 14.2238
#
#
#
# Elastic Compliance Matrix: (Units=1/GPa)
#
#
# Indices 1 2 3 4 5 6 
#
# 1 0.016629 -0.001021 0.000416 0.000000 -0.000981 0.000000
# 2 -0.001021 0.006646 -0.004309 0.000000 -0.003050 0.000000
# 3 0.000416 -0.004309 0.011907 0.000000 -0.001115 0.000000
# 4 0.000000 0.000000 0.000000 0.035855 0.000000 -0.038239
# 5 -0.000981 -0.003050 -0.001115 0.000000 0.050633 0.000000
# 6 0.000000 0.000000 0.000000 -0.038239 0.000000 0.111086
#
#
# Mechanical properties :
#
#
# Convention : Reuss Voigt Hill
#
# Bulk Modulus (GPa) = 39.44322 62.49333 50.96828
# Shear Modulus (GPa) = 19.91751 35.23169 27.57460
#
# Velocity S-wave (km/s) = 2.94289 3.91403 3.46267
# Velocity P-wave (km/s) = 5.35709 6.89926 6.17649
#
# Compressibility (1/GPa) = 0.02535290
#
# Stress axis : x y z
#
# Youngs Moduli (GPa) = 60.13612 150.47338 83.98576
#
# Poissons Ratio (x) = 0.15361 -0.03493
# Poissons Ratio (y) = 0.06139 0.36192
# Poissons Ratio (z) = -0.02501 0.64843
#
# Static dielectric constant tensor:
#      x y z
#    x 1.979640 0.000000 0.015410 
#    y 0.000000 1.902430 0.000000 
#    z 0.015410 0.000000 1.895290 
# 
# From -- ./inp_files/55642.got.cif
#   From: 2010.05.17/outbox.cif.g08.bks.cpg/sg10_28_cif.got.tgz:55642.got - 2010.06.03 11:33:40.
