data_PCOD9143087
_publ_section_title
;
Structure prediction by ZEFSAII (Michael W. Deem and Ramdas Pophale) SiO2 
 PCOD9143087
Probable space group: P 2/M
;
_chemical_formula_sum "Si O2"
_cell_formula_units_Z 28
_cell_length_a 16.558564
_cell_length_b 7.704964
_cell_length_c 19.783075
_cell_angle_alpha 90.000000
_cell_angle_beta 32.601006
_cell_angle_gamma 90.000000
_cell_volume 1359.887693
_symmetry_space_group_name_H-M "P 2/M"
_symmetry_group_IT_number 10
_symmetry_cell_setting 'monoclinic'
loop_
_space_group_symop_operation_xyz
x,y,z
-x,y,-z
-x,-y,-z
x,-y,z
loop_
_atom_site_type_symbol
_atom_site_label
_atom_site_fract_x
_atom_site_fract_y
_atom_site_fract_z
Si Si1 0.836128 0.205066 0.596740
Si Si2 0.074537 0.293404 0.053313
Si Si3 0.628436 0.787620 0.621520
Si Si4 0.215983 0.291154 0.806367
Si Si5 0.428249 0.697262 0.117636
Si Si6 0.463454 0.803546 0.453536
Si Si7 0.625890 0.201504 0.097268
O O1 0.756394 0.271798 0.584054
O O2 0.716140 0.225588 0.742159
O O3 0.000000 0.277463 0.500000
O O4 0.855400 0.000000 0.571439
O O5 0.071732 0.500000 0.065542
O O6 0.902469 0.235335 0.168027
O O7 0.142350 0.260803 0.931054
O O8 0.197285 0.218087 0.016887
O O9 0.632718 0.726172 0.540605
O O10 0.471507 0.738509 0.769004
O O11 0.631647 0.000000 0.615663
O O12 0.239106 0.500000 0.784190
O O13 0.370278 0.192594 0.694286
O O14 0.385730 0.500000 0.130335
O O15 0.559932 0.699664 0.080156
O O16 0.500000 0.780650 0.000000
O O17 0.500000 0.716255 0.500000
O O18 0.408122 0.000000 0.506232
O O19 0.586994 0.000000 0.114636
#
# Coordination Sequence:
#
# PCOD9143087 Si02
#       7
#     4   4   4   4   4   4   4
#     4   9  18  34  57  81 105 136 176 224 272 319
#     4   9  17  30  48  71  98 128 162 205 253 298
#     4   8  15  29  47  70  96 124 166 211 252 302
#     4   9  18  31  47  68  97 130 165 204 248 299
#     4  10  21  36  54  78 110 144 176 216 266 321
#     4  10  19  31  47  67  97 134 170 212 256 298
#     4  10  18  30  52  77 100 130 172 217 257 307
#
# _framework density 20.589936000000002
#
# number of rings (size 3 to 8) (size 9 to 14) (size 15 to 20)
#    0.000    2.714    1.429    2.571    0.000    2.286 
#    0.000    2.857    0.000    1.714    0.000    0.000 
#    0.000    0.000    0.000    0.000    0.000    0.000 
#
# Total GULP energy -155896.295329 kJ/mol
# GULP energy per Si atom -5567.724833 kJ/mol
# Density = 2.054307 g / cm^3
# Si number density = 20.589936 Si / 1000 Ang^3
#
#
#
# Elastic Constant Matrix: (Units=GPa)
#
#
# Indices 1 2 3 4 5 6 
#
# 1 153.2504 -0.9986 56.7971 0.0000 2.3379 0.0000
# 2 -0.9986 26.8204 1.0973 0.0000 0.0441 0.0000
# 3 56.7971 1.0973 35.5760 0.0000 2.7754 0.0000
# 4 0.0000 0.0000 0.0000 29.5138 0.0000 -28.9579
# 5 2.3379 0.0441 2.7754 0.0000 42.8168 0.0000
# 6 0.0000 0.0000 0.0000 -28.9579 0.0000 57.8674
#
#
#
# Elastic Compliance Matrix: (Units=1/GPa)
#
#
# Indices 1 2 3 4 5 6 
#
# 1 0.016080 0.001652 -0.025785 0.000000 0.000792 0.000000
# 2 0.001652 0.037502 -0.003804 0.000000 0.000118 0.000000
# 3 -0.025785 -0.003804 0.069634 0.000000 -0.003102 0.000000
# 4 0.000000 0.000000 0.000000 0.066565 0.000000 0.033311
# 5 0.000792 0.000118 -0.003102 0.000000 0.023513 0.000000
# 6 0.000000 0.000000 0.000000 0.033311 0.000000 0.033950
#
#
# Mechanical properties :
#
#
# Convention : Reuss Voigt Hill
#
# Bulk Modulus (GPa) = 14.84928 36.60426 25.72677
# Shear Modulus (GPa) = 15.35790 36.62302 25.99046
#
# Velocity S-wave (km/s) = 2.73407 4.22202 3.55673
# Velocity P-wave (km/s) = 4.14661 6.44854 5.42116
#
# Compressibility (1/GPa) = 0.06734334
#
# Stress axis : x y z
#
# Youngs Moduli (GPa) = 62.18793 26.66524 14.36082
#
# Poissons Ratio (x) = -0.04406 0.37029
# Poissons Ratio (y) = -0.10276 0.05463
# Poissons Ratio (z) = 1.60351 0.10143
#
# Static dielectric constant tensor:
#      x y z
#    x 1.782500 0.000000 0.001830 
#    y 0.000000 1.771900 0.000000 
#    z 0.001830 0.000000 1.734070 
# 
# From -- ./inp_files/77728.got.cif
#   From: 2010.05.17/outbox.cif.g08.bks.cpg/sg10_39_cif.got.tgz:77728.got - 2010.06.03 11:33:40.
