data_PCOD9143454
_publ_section_title
;
Structure prediction by ZEFSAII (Michael W. Deem and Ramdas Pophale) SiO2 
 PCOD9143454
Probable space group: P 2/M
;
_chemical_formula_sum "Si O2"
_cell_formula_units_Z 32
_cell_length_a 24.149308
_cell_length_b 7.437000
_cell_length_c 14.963926
_cell_angle_alpha 90.000000
_cell_angle_beta 149.184197
_cell_angle_gamma 90.000000
_cell_volume 1376.750428
_symmetry_space_group_name_H-M "P 2/M"
_symmetry_group_IT_number 10
_symmetry_cell_setting 'monoclinic'
loop_
_space_group_symop_operation_xyz
x,y,z
-x,y,-z
-x,-y,-z
x,-y,z
loop_
_atom_site_type_symbol
_atom_site_label
_atom_site_fract_x
_atom_site_fract_y
_atom_site_fract_z
Si Si1 0.506232 0.280421 0.771859
Si Si2 0.996163 0.292154 0.394652
Si Si3 0.256684 0.717464 0.430624
Si Si4 0.395077 0.718792 0.909931
Si Si5 0.837891 0.788587 0.031873
Si Si6 0.412674 0.716792 0.307717
Si Si7 0.176291 0.719619 0.508472
Si Si8 0.087262 0.209846 0.051848
O O1 0.504718 0.500000 0.770629
O O2 0.381427 0.225196 0.612241
O O3 0.583435 0.223116 0.959406
O O4 0.552015 0.220037 0.740995
O O5 0.030172 0.500000 0.452748
O O6 0.077582 0.215805 0.432665
O O7 0.000000 0.213680 0.500000
O O8 0.881109 0.287867 0.185381
O O9 0.256654 0.500000 0.429935
O O10 0.187611 0.778334 0.421264
O O11 0.200456 0.778131 0.261604
O O12 0.392939 0.500000 0.905799
O O13 0.500000 0.774669 0.000000
O O14 0.285510 0.774981 0.710805
O O15 0.858601 0.000000 0.064632
O O16 0.710576 0.763035 0.842681
O O17 0.899225 0.713026 0.028936
O O18 0.500000 0.782541 0.500000
O O19 0.418478 0.500000 0.315308
O O20 0.172488 0.500000 0.499672
O O21 0.059380 0.000000 0.001866
O O22 0.000000 0.290275 0.000000
#
# Coordination Sequence:
#
# PCOD9143454 Si02
#       8
#     4   4   4   4   4   4   4   4
#     4   9  17  28  48  78 110 142 175 215 273 334
#     4  10  22  38  58  85 115 150 193 238 283 333
#     4  10  18  31  54  85 112 136 175 227 278 327
#     4   9  14  24  44  75 112 144 173 215 270 330
#     4  11  24  41  60  82 112 151 193 235 281 337
#     4  10  21  37  58  85 116 148 185 233 285 336
#     4   9  17  29  49  81 116 145 180 227 279 329
#     4  10  22  39  57  77 104 142 185 223 273 334
#
# _framework density 23.243137000000001
#
# number of rings (size 3 to 8) (size 9 to 14) (size 15 to 20)
#    0.000    2.250    1.250    1.875    1.750    2.750 
#    0.000    0.625    0.000    0.000    0.000    0.875 
#    0.000    0.000    0.000    0.000    0.000    0.000 
#
# Total GULP energy -178854.882464 kJ/mol
# GULP energy per Si atom -5589.215077 kJ/mol
# Density = 2.319023 g / cm^3
# Si number density = 23.243137 Si / 1000 Ang^3
#
#
#
# Elastic Constant Matrix: (Units=GPa)
#
#
# Indices 1 2 3 4 5 6 
#
# 1 149.6298 8.8755 41.1973 0.0000 -24.3271 0.0000
# 2 8.8755 75.3690 -8.8473 0.0000 -1.1513 0.0000
# 3 41.1973 -8.8473 108.4733 0.0000 -19.2633 0.0000
# 4 0.0000 0.0000 0.0000 19.1583 0.0000 6.8429
# 5 -24.3271 -1.1513 -19.2633 0.0000 48.3575 0.0000
# 6 0.0000 0.0000 0.0000 6.8429 0.0000 -0.9759
#
#
#
# Elastic Compliance Matrix: (Units=1/GPa)
#
#
# Indices 1 2 3 4 5 6 
#
# 1 0.007945 -0.001195 -0.002594 0.000000 0.002935 0.000000
# 2 -0.001195 0.013606 0.001630 0.000000 0.000372 0.000000
# 3 -0.002594 0.001630 0.010882 0.000000 0.003069 0.000000
# 4 0.000000 0.000000 0.000000 0.014894 0.000000 0.104438
# 5 0.002935 0.000372 0.003069 0.000000 0.023387 0.000000
# 6 0.000000 0.000000 0.000000 0.104438 0.000000 -0.292398
#
#
# Mechanical properties :
#
#
# Convention : Reuss Voigt Hill
#
# Bulk Modulus (GPa) = 35.56911 46.21368 40.89140
# Shear Modulus (GPa) = -24.03920 32.79109 4.37594
#
# Velocity S-wave (km/s) = -3.21946 3.76012 1.37360
# Velocity P-wave (km/s) = 1.23140 6.22713 4.48852
#
# Compressibility (1/GPa) = 0.02811428
#
# Stress axis : x y z
#
# Youngs Moduli (GPa) = 125.85811 73.49808 91.89603
#
# Poissons Ratio (x) = 0.08785 0.23836
# Poissons Ratio (y) = 0.15044 -0.14976
# Poissons Ratio (z) = 0.32645 -0.11978
#
# Static dielectric constant tensor:
#      x y z
#    x 1.866340 0.000000 -0.010190 
#    y 0.000000 1.911790 0.000000 
#    z -0.010190 0.000000 1.850530 
# 
# From -- ./inp_files/71707.got.cif
#   From: 2010.05.17/outbox.cif.g08.bks.cpg/sg10_36_cif.got.tgz:71707.got - 2010.06.03 11:33:40.
