data_PCOD9143647
_publ_section_title
;
Structure prediction by ZEFSAII (Michael W. Deem and Ramdas Pophale) SiO2 
 PCOD9143647
Probable space group: P 2/M
;
_chemical_formula_sum "Si O2"
_cell_formula_units_Z 32
_cell_length_a 22.597064
_cell_length_b 7.914152
_cell_length_c 29.234417
_cell_angle_alpha 90.000000
_cell_angle_beta 161.212763
_cell_angle_gamma 90.000000
_cell_volume 1683.761740
_symmetry_space_group_name_H-M "P 2/M"
_symmetry_group_IT_number 10
_symmetry_cell_setting 'monoclinic'
loop_
_space_group_symop_operation_xyz
x,y,z
-x,y,-z
-x,-y,-z
x,-y,z
loop_
_atom_site_type_symbol
_atom_site_label
_atom_site_fract_x
_atom_site_fract_y
_atom_site_fract_z
Si Si1 0.881060 0.704203 0.055200
Si Si2 0.197489 0.707514 0.663646
Si Si3 0.169232 0.701975 0.342453
Si Si4 0.942794 0.203382 0.908359
Si Si5 0.704917 0.296342 0.162676
Si Si6 0.570672 0.302279 0.894256
Si Si7 0.854552 0.197598 0.177686
Si Si8 0.449107 0.201466 0.412698
O O1 0.878732 0.500000 0.055665
O O2 0.052364 0.762042 0.212411
O O3 0.916130 0.756294 0.029103
O O4 0.696144 0.768317 0.944948
O O5 0.200997 0.500000 0.666013
O O6 0.231818 0.761891 0.741094
O O7 0.370703 0.767873 0.760107
O O8 0.000000 0.759901 0.500000
O O9 0.173301 0.500000 0.344194
O O10 0.375454 0.767369 0.490707
O O11 0.049823 0.757280 0.298459
O O12 0.742656 0.269737 0.746622
O O13 0.930815 0.000000 0.902782
O O14 0.000000 0.268226 0.000000
O O15 0.697915 0.500000 0.159079
O O16 0.834855 0.245403 0.215987
O O17 0.500000 0.234828 0.000000
O O18 0.543675 0.500000 0.864292
O O19 0.698682 0.289689 0.033184
O O20 0.821198 0.000000 0.147558
O O21 0.500000 0.272264 0.500000
O O22 0.425674 0.000000 0.400523
#
# Coordination Sequence:
#
# PCOD9143647 Si02
#       8
#     4   4   4   4   4   4   4   4
#     4   9  18  31  51  76 103 134 171 221 264 310
#     4   9  17  31  54  80 105 138 179 219 259 313
#     4  10  20  34  54  80 108 137 175 222 271 314
#     4  10  21  36  53  75 107 144 177 212 258 317
#     4  10  18  32  54  77 105 141 175 214 264 311
#     4   9  17  33  53  77 106 136 175 218 267 316
#     4  11  21  32  51  79 110 140 176 221 268 315
#     4  10  19  33  54  79 106 138 175 214 258 311
#
# _framework density 19.005063
#
# number of rings (size 3 to 8) (size 9 to 14) (size 15 to 20)
#    0.000    2.250    2.500    2.250    0.000    3.250 
#    0.000    1.250    0.000    3.000    0.000    0.000 
#    0.000    0.000    0.000    0.000    0.000    0.000 
#
# Total GULP energy -178539.505205 kJ/mol
# GULP energy per Si atom -5579.359538 kJ/mol
# Density = 1.896181 g / cm^3
# Si number density = 19.005063 Si / 1000 Ang^3
#
#
#
# Elastic Constant Matrix: (Units=GPa)
#
#
# Indices 1 2 3 4 5 6 
#
# 1 164.6185 -3.6636 96.5112 0.0000 4.4333 0.0000
# 2 -3.6636 13.4390 5.4001 0.0000 -8.0853 0.0000
# 3 96.5112 5.4001 130.8140 0.0000 11.6045 0.0000
# 4 0.0000 0.0000 0.0000 7.3551 0.0000 11.1758
# 5 4.4333 -8.0853 11.6045 0.0000 27.9682 0.0000
# 6 0.0000 0.0000 0.0000 11.1758 0.0000 33.1543
#
#
#
# Elastic Compliance Matrix: (Units=1/GPa)
#
#
# Indices 1 2 3 4 5 6 
#
# 1 0.011747 0.010030 -0.009523 0.000000 0.004989 0.000000
# 2 0.010030 0.103864 -0.014753 0.000000 0.034557 0.000000
# 3 -0.009523 -0.014753 0.016117 0.000000 -0.009443 0.000000
# 4 0.000000 0.000000 0.000000 0.278719 0.000000 -0.093952
# 5 0.004989 0.034557 -0.009443 0.000000 0.048872 0.000000
# 6 0.000000 0.000000 0.000000 -0.093952 0.000000 0.061832
#
#
# Mechanical properties :
#
#
# Convention : Reuss Voigt Hill
#
# Bulk Modulus (GPa) = 9.68661 56.15187 32.91924
# Shear Modulus (GPa) = 8.56087 27.73710 18.14898
#
# Velocity S-wave (km/s) = 2.12469 3.82443 3.09359
# Velocity P-wave (km/s) = 3.33571 7.00796 5.48810
#
# Compressibility (1/GPa) = 0.10323526
#
# Stress axis : x y z
#
# Youngs Moduli (GPa) = 85.13163 9.62801 62.04686
#
# Poissons Ratio (x) = -0.09657 0.59087
# Poissons Ratio (y) = -0.85388 0.91538
# Poissons Ratio (z) = 0.81070 0.14204
#
# Static dielectric constant tensor:
#      x y z
#    x 1.661780 0.000000 0.013510 
#    y 0.000000 1.677040 0.000000 
#    z 0.013510 0.000000 1.656410 
# 
# From -- ./inp_files/86834.got.cif
#   From: 2010.05.17/outbox.cif.g08.bks.cpg/sg10_44_cif.got.tgz:86834.got - 2010.06.03 11:33:40.
