data_PCOD9143721
_publ_section_title
;
Structure prediction by ZEFSAII (Michael W. Deem and Ramdas Pophale) SiO2 
 PCOD9143721
Probable space group: P 2/M
;
_chemical_formula_sum "Si O2"
_cell_formula_units_Z 32
_cell_length_a 15.596672
_cell_length_b 7.338123
_cell_length_c 13.218394
_cell_angle_alpha 90.000000
_cell_angle_beta 68.354873
_cell_angle_gamma 90.000000
_cell_volume 1406.172472
_symmetry_space_group_name_H-M "P 2/M"
_symmetry_group_IT_number 10
_symmetry_cell_setting 'monoclinic'
loop_
_space_group_symop_operation_xyz
x,y,z
-x,y,-z
-x,-y,-z
x,-y,z
loop_
_atom_site_type_symbol
_atom_site_label
_atom_site_fract_x
_atom_site_fract_y
_atom_site_fract_z
Si Si1 0.228589 0.277908 0.541157
Si Si2 0.901057 0.277426 0.585277
Si Si3 0.907700 0.793739 0.991263
Si Si4 0.396307 0.722751 0.012747
Si Si5 0.802186 0.712180 0.830468
Si Si6 0.409015 0.279102 0.777880
Si Si7 0.438090 0.277758 0.431792
Si Si8 0.779488 0.720295 0.233928
O O1 0.228603 0.500000 0.542591
O O2 0.171159 0.222938 0.469392
O O3 0.333799 0.216809 0.485089
O O4 0.190280 0.221547 0.667534
O O5 0.905471 0.500000 0.587436
O O6 0.864206 0.214734 0.710979
O O7 0.000000 0.217066 0.500000
O O8 0.857493 0.719437 0.912946
O O9 0.932865 0.000000 0.951755
O O10 0.836564 0.791659 0.114899
O O11 0.000000 0.707245 0.000000
O O12 0.395697 0.500000 0.017611
O O13 0.302738 0.785383 0.110218
O O14 0.500000 0.778075 0.000000
O O15 0.386459 0.779672 0.900361
O O16 0.788416 0.500000 0.812288
O O17 0.410483 0.500000 0.779409
O O18 0.507198 0.220366 0.692155
O O19 0.326977 0.228671 0.737919
O O20 0.500000 0.222683 0.500000
O O21 0.435793 0.500000 0.433919
O O22 0.785316 0.500000 0.226543
#
# Coordination Sequence:
#
# PCOD9143721 Si02
#       8
#     4   4   4   4   4   4   4   4
#     4   9  17  27  44  74 111 144 174 211 262 315
#     4   9  19  32  46  72 108 141 173 214 261 309
#     4  11  25  41  57  78 105 137 177 230 287 334
#     4   9  17  27  43  73 110 143 173 214 263 310
#     4  10  20  36  58  83 111 143 181 221 267 324
#     4   9  15  24  40  68 107 139 171 211 255 311
#     4   9  14  21  35  63 105 143 165 197 252 308
#     4  10  18  32  55  82 108 137 177 222 268 322
#
# _framework density 22.756809000000001
#
# number of rings (size 3 to 8) (size 9 to 14) (size 15 to 20)
#    0.000    2.500    2.500    0.375    3.500    1.000 
#    0.000    0.000    0.000    1.500    0.000    1.750 
#    0.000    0.000    0.000    0.000    0.000    0.000 
#
# Total GULP energy -178622.593640 kJ/mol
# GULP energy per Si atom -5581.956051 kJ/mol
# Density = 2.270501 g / cm^3
# Si number density = 22.756809 Si / 1000 Ang^3
#
#
#
# Elastic Constant Matrix: (Units=GPa)
#
#
# Indices 1 2 3 4 5 6 
#
# 1 148.7817 -0.4031 91.4155 0.0000 -14.9160 0.0000
# 2 -0.4031 82.5250 -0.0799 0.0000 -1.7703 0.0000
# 3 91.4155 -0.0799 209.8859 0.0000 -4.8909 0.0000
# 4 0.0000 0.0000 0.0000 -21.5212 0.0000 -22.8699
# 5 -14.9160 -1.7703 -4.8909 0.0000 27.5716 0.0000
# 6 0.0000 0.0000 0.0000 -22.8699 0.0000 -17.2023
#
#
#
# Elastic Compliance Matrix: (Units=1/GPa)
#
#
# Indices 1 2 3 4 5 6 
#
# 1 0.009709 0.000141 -0.004123 0.000000 0.004530 0.000000
# 2 0.000141 0.012136 -0.000037 0.000000 0.000849 0.000000
# 3 -0.004123 -0.000037 0.006535 0.000000 -0.001074 0.000000
# 4 0.000000 0.000000 0.000000 0.112566 0.000000 -0.149654
# 5 0.004530 0.000849 -0.001074 0.000000 0.038584 0.000000
# 6 0.000000 0.000000 0.000000 -0.149654 0.000000 0.140828
#
#
# Mechanical properties :
#
#
# Convention : Reuss Voigt Hill
#
# Bulk Modulus (GPa) = 49.15924 69.22860 59.19392
# Shear Modulus (GPa) = 14.91739 21.12029 18.01884
#
# Velocity S-wave (km/s) = 2.56308 3.04976 2.81695
# Velocity P-wave (km/s) = 5.51435 6.54893 6.05378
#
# Compressibility (1/GPa) = 0.02034205
#
# Stress axis : x y z
#
# Youngs Moduli (GPa) = 102.99478 82.39672 153.01467
#
# Poissons Ratio (x) = -0.01159 0.63091
# Poissons Ratio (y) = -0.01448 0.00564
# Poissons Ratio (z) = 0.42467 0.00304
#
# Static dielectric constant tensor:
#      x y z
#    x 1.818960 0.000000 -0.017850 
#    y 0.000000 1.888500 0.000000 
#    z -0.017850 0.000000 1.819500 
# 
# From -- ./inp_files/66502.got.cif
#   From: 2010.05.17/outbox.cif.g08.bks.cpg/sg10_34_cif.got.tgz:66502.got - 2010.06.03 11:33:40.
