data_PCOD9143500
_publ_section_title
;
Structure prediction by ZEFSAII (Michael W. Deem and Ramdas Pophale) SiO2 
 PCOD9143500
Probable space group: P 2/M
;
_chemical_formula_sum "Si O2"
_cell_formula_units_Z 22
_cell_length_a 30.381707
_cell_length_b 7.999249
_cell_length_c 13.693858
_cell_angle_alpha 90.000000
_cell_angle_beta 159.086562
_cell_angle_gamma 90.000000
_cell_volume 1187.963852
_symmetry_space_group_name_H-M "P 2/M"
_symmetry_group_IT_number 10
_symmetry_cell_setting 'monoclinic'
loop_
_space_group_symop_operation_xyz
x,y,z
-x,y,-z
-x,-y,-z
x,-y,z
loop_
_atom_site_type_symbol
_atom_site_label
_atom_site_fract_x
_atom_site_fract_y
_atom_site_fract_z
Si Si1 0.141268 0.683281 0.878769
Si Si2 0.069515 0.809386 0.442915
Si Si3 0.704788 0.687239 0.597693
Si Si4 0.716799 0.000000 0.890582
Si Si5 0.938160 0.797262 0.972529
Si Si6 0.560643 0.000000 0.366696
Si Si7 0.691453 0.000000 0.052171
O O1 0.163865 0.500000 0.883589
O O2 0.999002 0.706130 0.615638
O O3 0.214959 0.691509 0.135413
O O4 0.195816 0.837458 0.932378
O O5 0.017742 0.000000 0.348856
O O6 0.024235 0.750950 0.243113
O O7 0.215210 0.842071 0.744427
O O8 0.653941 0.500000 0.482334
O O9 0.803522 0.725904 0.717543
O O10 0.606184 0.834819 0.404673
O O11 0.631658 0.000000 0.618678
O O12 0.646346 0.000000 0.847105
O O13 0.928995 0.000000 0.951704
O O14 0.000000 0.742412 0.000000
O O15 0.417220 0.000000 0.096004
#
# Coordination Sequence:
#
# PCOD9143500 Si02
#       7
#     4   4   4   2   4   2   2
#     4   9  16  29  50  72  96 123 150 190 244 289
#     4   8  16  30  46  67  99 126 148 185 235 290
#     4   9  17  30  50  74  96 123 157 192 233 278
#     4  10  18  32  49  69  92 118 163 209 231 268
#     4   9  15  27  51  79 101 115 145 192 236 284
#     4  10  19  34  50  65  90 131 168 198 225 262
#     4  10  20  32  49  64  92 133 161 194 238 268
#
# _framework density 18.519081
#
# number of rings (size 3 to 8) (size 9 to 14) (size 15 to 20)
#    0.545    2.364    1.818    0.273    0.000    1.818 
#    0.000    3.636    0.000    6.545    0.000    1.273 
#    0.000    0.000    0.000    0.000    0.000    0.000 
#
# Total GULP energy -122545.778160 kJ/mol
# GULP energy per Si atom -5570.262644 kJ/mol
# Density = 1.847693 g / cm^3
# Si number density = 18.519081 Si / 1000 Ang^3
#
#
#
# Elastic Constant Matrix: (Units=GPa)
#
#
# Indices 1 2 3 4 5 6 
#
# 1 83.9779 35.3782 19.1567 0.0000 29.5590 0.0000
# 2 35.3782 105.2150 28.9979 0.0000 26.4229 0.0000
# 3 19.1567 28.9979 60.7383 0.0000 30.1530 0.0000
# 4 0.0000 0.0000 0.0000 5.5895 0.0000 -1.9868
# 5 29.5590 26.4229 30.1530 0.0000 31.9409 0.0000
# 6 0.0000 0.0000 0.0000 -1.9868 0.0000 3.9887
#
#
#
# Elastic Compliance Matrix: (Units=1/GPa)
#
#
# Indices 1 2 3 4 5 6 
#
# 1 0.019045 -0.002764 0.005510 0.000000 -0.020539 0.000000
# 2 -0.002764 0.012472 -0.002316 0.000000 -0.005573 0.000000
# 3 0.005510 -0.002316 0.032770 0.000000 -0.034119 0.000000
# 4 0.000000 0.000000 0.000000 0.217400 0.000000 0.108290
# 5 -0.020539 -0.005573 -0.034119 0.000000 0.087134 0.000000
# 6 0.000000 0.000000 0.000000 0.108290 0.000000 0.304651
#
#
# Mechanical properties :
#
#
# Convention : Reuss Voigt Hill
#
# Bulk Modulus (GPa) = 15.35025 46.33298 30.84161
# Shear Modulus (GPa) = 7.20120 19.39703 13.29912
#
# Velocity S-wave (km/s) = 1.97408 3.23988 2.68270
# Velocity P-wave (km/s) = 3.67462 6.25053 5.12699
#
# Compressibility (1/GPa) = 0.06514553
#
# Stress axis : x y z
#
# Youngs Moduli (GPa) = 52.50675 80.18242 30.51580
#
# Poissons Ratio (x) = 0.22164 -0.16813
# Poissons Ratio (y) = 0.14514 0.07067
# Poissons Ratio (z) = -0.28929 0.18569
#
# Static dielectric constant tensor:
#      x y z
#    x 1.638940 0.000000 -0.033300 
#    y 0.000000 1.661050 0.000000 
#    z -0.033300 0.000000 1.647870 
# 
# From -- ./inp_files/72613.got.cif
#   From: 2010.05.17/outbox.cif.g08.bks.cpg/sg10_37_cif.got.tgz:72613.got - 2010.06.03 11:33:40.
