data_PCOD9143996
_publ_section_title
;
Structure prediction by ZEFSAII (Michael W. Deem and Ramdas Pophale) SiO2 
 PCOD9143996
Probable space group: P 2/M
;
_chemical_formula_sum "Si O2"
_cell_formula_units_Z 22
_cell_length_a 12.045053
_cell_length_b 13.788141
_cell_length_c 14.889446
_cell_angle_alpha 90.000000
_cell_angle_beta 151.513466
_cell_angle_gamma 90.000000
_cell_volume 1179.418209
_symmetry_space_group_name_H-M "P 2/M"
_symmetry_group_IT_number 10
_symmetry_cell_setting 'monoclinic'
loop_
_space_group_symop_operation_xyz
x,y,z
-x,y,-z
-x,-y,-z
x,-y,z
loop_
_atom_site_type_symbol
_atom_site_label
_atom_site_fract_x
_atom_site_fract_y
_atom_site_fract_z
Si Si1 0.957207 0.884951 0.862661
Si Si2 0.797711 0.282442 0.046917
Si Si3 0.500000 0.764143 0.500000
Si Si4 0.146913 0.389711 0.741893
Si Si5 0.816803 0.612051 0.788686
Si Si6 0.357537 0.609158 0.691005
O O1 0.718392 0.837455 0.655920
O O2 0.150551 0.826988 0.943980
O O3 0.959670 0.000000 0.852808
O O4 0.000000 0.864603 0.000000
O O5 0.763288 0.309544 0.126045
O O6 0.024821 0.345848 0.179742
O O7 0.571027 0.319416 0.834193
O O8 0.596851 0.684221 0.640955
O O9 0.186772 0.500000 0.805378
O O10 0.265377 0.386640 0.728466
O O11 0.871723 0.375068 0.530780
O O12 0.751345 0.500000 0.730079
O O13 0.000000 0.618481 0.000000
O O14 0.443942 0.500000 0.734771
#
# Coordination Sequence:
#
# PCOD9143996 Si02
#       6
#     4   4   2   4   4   4
#     4  10  23  41  56  73  98 129 173 227 276 317
#     4  11  19  30  52  75  95 130 174 210 248 297
#     4  10  18  34  56  72  92 132 174 208 248 300
#     4   9  18  31  49  76 108 139 168 197 237 296
#     4  10  21  33  46  74 114 145 167 198 246 305
#     4   9  18  32  49  74 109 141 166 197 239 295
#
# _framework density 18.653265000000001
#
# number of rings (size 3 to 8) (size 9 to 14) (size 15 to 20)
#    0.000    2.182    0.000    6.000    0.000    7.273 
#    0.000    3.636    0.000    2.182    0.000    2.545 
#    0.000    0.000    0.000    0.000    0.000    0.000 
#
# Total GULP energy -122613.661604 kJ/mol
# GULP energy per Si atom -5573.348255 kJ/mol
# Density = 1.861081 g / cm^3
# Si number density = 18.653265 Si / 1000 Ang^3
#
#
#
# Elastic Constant Matrix: (Units=GPa)
#
#
# Indices 1 2 3 4 5 6 
#
# 1 30.2535 18.2060 11.0860 0.0000 -6.3828 0.0000
# 2 18.2060 140.5077 51.6256 0.0000 6.0205 0.0000
# 3 11.0860 51.6256 101.8117 0.0000 13.5562 0.0000
# 4 0.0000 0.0000 0.0000 70.6321 0.0000 -88.1340
# 5 -6.3828 6.0205 13.5562 0.0000 28.5076 0.0000
# 6 0.0000 0.0000 0.0000 -88.1340 0.0000 210.6879
#
#
#
# Elastic Compliance Matrix: (Units=1/GPa)
#
#
# Indices 1 2 3 4 5 6 
#
# 1 0.039366 -0.004248 -0.003657 0.000000 0.011450 0.000000
# 2 -0.004248 0.009207 -0.004079 0.000000 -0.000956 0.000000
# 3 -0.003657 -0.004079 0.013113 0.000000 -0.006193 0.000000
# 4 0.000000 0.000000 0.000000 0.029617 0.000000 0.012389
# 5 0.011450 -0.000956 -0.006193 0.000000 0.040789 0.000000
# 6 0.000000 0.000000 0.000000 0.012389 0.000000 0.009929
#
#
# Mechanical properties :
#
#
# Convention : Reuss Voigt Hill
#
# Bulk Modulus (GPa) = 26.51191 48.26756 37.38973
# Shear Modulus (GPa) = 28.00156 74.74254 51.37205
#
# Velocity S-wave (km/s) = 3.87869 6.33691 5.25360
# Velocity P-wave (km/s) = 5.85686 8.91483 7.54245
#
# Compressibility (1/GPa) = 0.03771890
#
# Stress axis : x y z
#
# Youngs Moduli (GPa) = 25.40258 108.61267 76.25951
#
# Poissons Ratio (x) = 0.46135 0.27890
# Poissons Ratio (y) = 0.10790 0.31105
# Poissons Ratio (z) = 0.09290 0.44301
#
# Static dielectric constant tensor:
#      x y z
#    x 1.715210 0.000000 0.005460 
#    y 0.000000 1.618480 0.000000 
#    z 0.005460 0.000000 1.697400 
# 
# From -- ./inp_files/64875.got.cif
#   From: 2010.05.17/outbox.cif.g08.bks.cpg/sg10_33_cif.got.tgz:64875.got - 2010.06.03 11:33:40.
