data_PCOD9143351
_publ_section_title
;
Structure prediction by ZEFSAII (Michael W. Deem and Ramdas Pophale) SiO2 
 PCOD9143351
Probable space group: P 2/M
;
_chemical_formula_sum "Si O2"
_cell_formula_units_Z 28
_cell_length_a 9.472061
_cell_length_b 12.795390
_cell_length_c 18.397233
_cell_angle_alpha 90.000000
_cell_angle_beta 147.198424
_cell_angle_gamma 90.000000
_cell_volume 1207.909721
_symmetry_space_group_name_H-M "P 2/M"
_symmetry_group_IT_number 10
_symmetry_cell_setting 'monoclinic'
loop_
_space_group_symop_operation_xyz
x,y,z
-x,y,-z
-x,-y,-z
x,-y,z
loop_
_atom_site_type_symbol
_atom_site_label
_atom_site_fract_x
_atom_site_fract_y
_atom_site_fract_z
Si Si1 0.323735 0.614308 0.079079
Si Si2 0.174272 0.387236 0.803754
Si Si3 0.755715 0.885037 0.283024
Si Si4 0.720720 0.684979 0.369772
Si Si5 0.651961 0.621011 0.492575
Si Si6 0.148816 0.155333 0.993588
Si Si7 0.811416 0.838596 0.144096
O O1 0.198411 0.500000 0.023552
O O2 0.543301 0.618027 0.110799
O O3 0.502324 0.627418 0.228227
O O4 0.151836 0.717622 0.997929
O O5 0.140348 0.500000 0.825246
O O6 0.142037 0.285353 0.836815
O O7 0.955069 0.380654 0.646691
O O8 0.789541 0.790748 0.354587
O O9 0.447541 0.878459 0.133058
O O10 0.882465 0.871073 0.257187
O O11 0.824318 0.000000 0.340573
O O12 0.614475 0.692770 0.406054
O O13 0.000000 0.628463 0.500000
O O14 0.500000 0.652886 0.500000
O O15 0.575682 0.500000 0.443121
O O16 0.061689 0.120561 0.875391
O O17 0.000000 0.118010 0.000000
O O18 0.500000 0.858235 0.000000
#
# Coordination Sequence:
#
# PCOD9143351 Si02
#       7
#     4   4   4   4   4   4   4
#     4  10  19  32  52  82 114 147 185 220 259 317
#     4  10  18  31  52  80 110 144 186 222 255 316
#     4  10  22  39  58  82 105 134 184 235 282 338
#     4  11  19  35  58  80 109 145 184 230 272 320
#     4  10  21  34  52  82 117 152 185 217 262 316
#     4  10  22  37  56  82 112 145 181 225 277 328
#     4  10  18  36  55  78 106 141 179 224 274 324
#
# _framework density 23.180541999999999
#
# number of rings (size 3 to 8) (size 9 to 14) (size 15 to 20)
#    0.000    1.857    5.714    0.429    0.000    7.143 
#    0.000    1.429    0.000    0.429    0.000    0.000 
#    0.000    0.000    0.000    0.000    0.000    0.000 
#
# Total GULP energy -156308.109209 kJ/mol
# GULP energy per Si atom -5582.432472 kJ/mol
# Density = 2.312778 g / cm^3
# Si number density = 23.180542 Si / 1000 Ang^3
#
#
#
# Elastic Constant Matrix: (Units=GPa)
#
#
# Indices 1 2 3 4 5 6 
#
# 1 155.8357 41.3937 31.8505 0.0000 -43.9923 0.0000
# 2 41.3937 137.9368 9.0679 0.0000 -19.9998 0.0000
# 3 31.8505 9.0679 49.5405 0.0000 -32.3121 0.0000
# 4 0.0000 0.0000 0.0000 -50.2892 0.0000 6.0136
# 5 -43.9923 -19.9998 -32.3121 0.0000 38.0964 0.0000
# 6 0.0000 0.0000 0.0000 6.0136 0.0000 -7.8050
#
#
#
# Elastic Compliance Matrix: (Units=1/GPa)
#
#
# Indices 1 2 3 4 5 6 
#
# 1 0.009848 -0.001292 0.001969 0.000000 0.012364 0.000000
# 2 -0.001292 0.008194 0.002604 0.000000 0.005018 0.000000
# 3 0.001969 0.002604 0.046593 0.000000 0.043160 0.000000
# 4 0.000000 0.000000 0.000000 -0.021903 0.000000 -0.016876
# 5 0.012364 0.005018 0.043160 0.000000 0.079769 0.000000
# 6 0.000000 0.000000 0.000000 -0.016876 0.000000 -0.141125
#
#
# Mechanical properties :
#
#
# Convention : Reuss Voigt Hill
#
# Bulk Modulus (GPa) = 14.04535 56.43747 35.24141
# Shear Modulus (GPa) = -3439.75448 13.40048 -1713.17700
#
# Velocity S-wave (km/s) = -38.56318 2.40696 -27.21512
# Velocity P-wave (km/s) = 44.46069 5.66784 31.18195
#
# Compressibility (1/GPa) = 0.07119796
#
# Stress axis : x y z
#
# Youngs Moduli (GPa) = 101.54195 122.04288 21.46223
#
# Poissons Ratio (x) = 0.15769 -0.04227
# Poissons Ratio (y) = 0.13120 -0.05588
# Poissons Ratio (z) = -0.19998 -0.31778
#
# Static dielectric constant tensor:
#      x y z
#    x 1.938790 0.000000 -0.036690 
#    y 0.000000 1.904470 0.000000 
#    z -0.036690 0.000000 1.873600 
# 
# From -- ./inp_files/75314.got.cif
#   From: 2010.05.17/outbox.cif.g08.bks.cpg/sg10_38_cif.got.tgz:75314.got - 2010.06.03 11:33:40.
