data_PCOD9143249
_publ_section_title
;
Structure prediction by ZEFSAII (Michael W. Deem and Ramdas Pophale) SiO2 
 PCOD9143249
Probable space group: P 2/M
;
_chemical_formula_sum "Si O2"
_cell_formula_units_Z 32
_cell_length_a 20.792048
_cell_length_b 7.510448
_cell_length_c 25.539891
_cell_angle_alpha 90.000000
_cell_angle_beta 156.557929
_cell_angle_gamma 90.000000
_cell_volume 1586.611465
_symmetry_space_group_name_H-M "P 2/M"
_symmetry_group_IT_number 10
_symmetry_cell_setting 'monoclinic'
loop_
_space_group_symop_operation_xyz
x,y,z
-x,y,-z
-x,-y,-z
x,-y,z
loop_
_atom_site_type_symbol
_atom_site_label
_atom_site_fract_x
_atom_site_fract_y
_atom_site_fract_z
Si Si1 0.412216 0.215904 0.126287
Si Si2 0.252263 0.712631 0.178940
Si Si3 0.558960 0.213203 0.345246
Si Si4 0.239926 0.217736 0.814406
Si Si5 0.036853 0.717918 0.112001
Si Si6 0.461464 0.783476 0.888378
Si Si7 0.964112 0.292063 0.171550
Si Si8 0.919238 0.205840 0.627392
O O1 0.478744 0.280646 0.231529
O O2 0.520967 0.274319 0.158239
O O3 0.411368 0.000000 0.126375
O O4 0.228594 0.273135 0.978949
O O5 0.235893 0.500000 0.167462
O O6 0.434346 0.753050 0.299195
O O7 0.182171 0.774718 0.182307
O O8 0.128199 0.775454 0.040851
O O9 0.739968 0.283666 0.488327
O O10 0.568702 0.000000 0.347991
O O11 0.309392 0.273705 0.809914
O O12 0.065163 0.283955 0.701828
O O13 0.236745 0.000000 0.812623
O O14 0.376326 0.268900 0.958850
O O15 0.034320 0.500000 0.111939
O O16 0.039461 0.779496 0.173685
O O17 0.459113 0.000000 0.886516
O O18 0.004274 0.500000 0.205807
O O19 0.023621 0.208005 0.269756
O O20 0.906646 0.000000 0.601306
#
# Coordination Sequence:
#
# PCOD9143249 Si02
#       8
#     4   4   4   4   4   4   4   4
#     4  10  18  31  50  74 102 130 161 203 248 290
#     4   9  16  32  54  72  96 130 162 200 248 289
#     4  10  21  33  48  74 106 134 163 197 244 302
#     4   8  13  24  45  70  94 126 165 201 238 284
#     4   8  16  30  51  76  97 121 161 209 247 283
#     4   8  13  23  45  73  94 120 165 207 239 282
#     4  11  20  32  52  78  99 122 166 212 243 288
#     4  10  20  35  50  69 103 140 164 196 247 296
#
# _framework density 20.168769000000001
#
# number of rings (size 3 to 8) (size 9 to 14) (size 15 to 20)
#    0.000    2.750    2.500    1.875    0.000    0.500 
#    0.000    3.750    0.000    9.000    0.000    0.000 
#    0.000    3.000    0.000    0.000    0.000    0.000 
#
# Total GULP energy -178477.353293 kJ/mol
# GULP energy per Si atom -5577.417290 kJ/mol
# Density = 2.012286 g / cm^3
# Si number density = 20.168769 Si / 1000 Ang^3
#
#
#
# Elastic Constant Matrix: (Units=GPa)
#
#
# Indices 1 2 3 4 5 6 
#
# 1 143.6677 -6.2256 58.4093 0.0000 33.5939 0.0000
# 2 -6.2256 51.4918 -6.3358 0.0000 2.5146 0.0000
# 3 58.4093 -6.3358 113.0430 0.0000 28.6344 0.0000
# 4 0.0000 0.0000 0.0000 -2.8404 0.0000 23.9416
# 5 33.5939 2.5146 28.6344 0.0000 30.9845 0.0000
# 6 0.0000 0.0000 0.0000 23.9416 0.0000 0.7636
#
#
#
# Elastic Compliance Matrix: (Units=1/GPa)
#
#
# Indices 1 2 3 4 5 6 
#
# 1 0.010222 0.001260 -0.003105 0.000000 -0.008316 0.000000
# 2 0.001260 0.019988 0.001601 0.000000 -0.004468 0.000000
# 3 -0.003105 0.001601 0.012691 0.000000 -0.008493 0.000000
# 4 0.000000 0.000000 0.000000 -0.001327 0.000000 0.041611
# 5 -0.008316 -0.004468 -0.008493 0.000000 0.049501 0.000000
# 6 0.000000 0.000000 0.000000 0.041611 0.000000 0.004937
#
#
# Mechanical properties :
#
#
# Convention : Reuss Voigt Hill
#
# Bulk Modulus (GPa) = 23.57714 44.43314 34.00514
# Shear Modulus (GPa) = 45.19272 23.27183 34.23228
#
# Velocity S-wave (km/s) = 4.73877 3.40053 4.12429
# Velocity P-wave (km/s) = 6.45419 6.12345 6.29099
#
# Compressibility (1/GPa) = 0.04241396
#
# Stress axis : x y z
#
# Youngs Moduli (GPa) = 97.83038 50.02981 78.79449
#
# Poissons Ratio (x) = -0.06304 0.24462
# Poissons Ratio (y) = -0.12326 -0.12615
# Poissons Ratio (z) = 0.30372 -0.08010
#
# Static dielectric constant tensor:
#      x y z
#    x 1.734820 0.000000 0.023900 
#    y 0.000000 1.782040 0.000000 
#    z 0.023900 0.000000 1.685610 
# 
# From -- ./inp_files/86136.got.cif
#   From: 2010.05.17/outbox.cif.g08.bks.cpg/sg10_44_cif.got.tgz:86136.got - 2010.06.03 11:33:40.
