data_PCOD9143960
_publ_section_title
;
Structure prediction by ZEFSAII (Michael W. Deem and Ramdas Pophale) SiO2 
 PCOD9143960
Probable space group: P 2/M
;
_chemical_formula_sum "Si O2"
_cell_formula_units_Z 32
_cell_length_a 15.772621
_cell_length_b 7.571821
_cell_length_c 12.062782
_cell_angle_alpha 90.000000
_cell_angle_beta 92.021987
_cell_angle_gamma 90.000000
_cell_volume 1439.730459
_symmetry_space_group_name_H-M "P 2/M"
_symmetry_group_IT_number 10
_symmetry_cell_setting 'monoclinic'
loop_
_space_group_symop_operation_xyz
x,y,z
-x,y,-z
-x,-y,-z
x,-y,z
loop_
_atom_site_type_symbol
_atom_site_label
_atom_site_fract_x
_atom_site_fract_y
_atom_site_fract_z
Si Si1 0.750812 0.204894 0.324539
Si Si2 0.887296 0.295614 0.753078
Si Si3 0.141122 0.285883 0.000472
Si Si4 0.742532 0.715063 0.580746
Si Si5 0.335158 0.284753 0.016528
Si Si6 0.926169 0.204416 0.235533
Si Si7 0.580020 0.295112 0.195997
Si Si8 0.598792 0.284634 0.739374
O O1 0.748769 0.219069 0.456428
O O2 0.839469 0.281105 0.282666
O O3 0.666496 0.288229 0.269244
O O4 0.748152 0.000000 0.290407
O O5 0.861527 0.500000 0.764619
O O6 0.821778 0.223682 0.660041
O O7 0.985242 0.287108 0.723720
O O8 0.879864 0.220345 0.876983
O O9 0.133695 0.500000 0.998123
O O10 0.238899 0.235779 0.982933
O O11 0.083902 0.219606 0.897579
O O12 0.743434 0.500000 0.574979
O O13 0.656914 0.772895 0.639986
O O14 0.337300 0.500000 0.015740
O O15 0.398437 0.219058 0.924147
O O16 0.358837 0.231626 0.141748
O O17 0.930710 0.000000 0.267961
O O18 0.558470 0.500000 0.174266
O O19 0.498576 0.223147 0.257168
O O20 0.600794 0.500000 0.734117
#
# Coordination Sequence:
#
# PCOD9143960 Si02
#       8
#     4   4   4   4   4   4   4   4
#     4  11  25  42  56  75 110 152 193 236 278 322
#     4  10  21  37  60  88 115 143 178 228 283 333
#     4  10  18  33  59  88 117 145 177 222 277 334
#     4  10  21  39  61  83 110 144 186 234 279 328
#     4   9  15  28  55  89 119 143 172 219 276 330
#     4  11  24  39  56  80 113 151 188 229 275 328
#     4  10  19  33  60  90 114 146 184 224 272 331
#     4   9  17  32  57  91 120 140 176 229 280 328
#
# _framework density 22.226383999999999
#
# number of rings (size 3 to 8) (size 9 to 14) (size 15 to 20)
#    0.000    2.000    2.500    1.500    0.000    6.500 
#    0.000    5.625    0.000    3.000    0.000    0.000 
#    0.000    0.000    0.000    0.000    0.000    0.000 
#
# Total GULP energy -178780.938489 kJ/mol
# GULP energy per Si atom -5586.904328 kJ/mol
# Density = 2.217580 g / cm^3
# Si number density = 22.226384 Si / 1000 Ang^3
#
#
#
# Elastic Constant Matrix: (Units=GPa)
#
#
# Indices 1 2 3 4 5 6 
#
# 1 88.2596 -12.0797 11.5901 0.0000 -9.7168 0.0000
# 2 -12.0797 48.0075 -15.1423 0.0000 -1.8348 0.0000
# 3 11.5901 -15.1423 92.1446 0.0000 -13.0350 0.0000
# 4 0.0000 0.0000 0.0000 51.1077 0.0000 7.5735
# 5 -9.7168 -1.8348 -13.0350 0.0000 12.5778 0.0000
# 6 0.0000 0.0000 0.0000 7.5735 0.0000 -10.9220
#
#
#
# Elastic Compliance Matrix: (Units=1/GPa)
#
#
# Indices 1 2 3 4 5 6 
#
# 1 0.013023 0.003893 0.000592 0.000000 0.011242 0.000000
# 2 0.003893 0.023868 0.005098 0.000000 0.011773 0.000000
# 3 0.000592 0.005098 0.013810 0.000000 0.015513 0.000000
# 4 0.000000 0.000000 0.000000 0.017743 0.000000 0.012304
# 5 0.011242 0.011773 0.015513 0.000000 0.105985 0.000000
# 6 0.000000 0.000000 0.000000 0.012304 0.000000 -0.083027
#
#
# Mechanical properties :
#
#
# Convention : Reuss Voigt Hill
#
# Bulk Modulus (GPa) = 14.31280 21.90532 18.10906
# Shear Modulus (GPa) = 52.34246 26.82227 39.58236
#
# Velocity S-wave (km/s) = 4.85807 3.47764 4.22462
# Velocity P-wave (km/s) = 6.15803 5.09924 5.65347
#
# Compressibility (1/GPa) = 0.06986755
#
# Stress axis : x y z
#
# Youngs Moduli (GPa) = 76.78704 41.89778 72.40958
#
# Poissons Ratio (x) = -0.16312 -0.04287
# Poissons Ratio (y) = -0.29895 -0.36914
# Poissons Ratio (z) = -0.04547 -0.21359
#
# Static dielectric constant tensor:
#      x y z
#    x 1.823950 0.000000 -0.029230 
#    y 0.000000 1.881120 0.000000 
#    z -0.029230 0.000000 1.776730 
# 
# From -- ./inp_files/49861.got.cif
#   From: 2010.05.17/outbox.cif.g08.bks.cpg/sg10_25_cif.got.tgz:49861.got - 2010.06.03 11:33:40.
