data_PCOD9143140
_publ_section_title
;
Structure prediction by ZEFSAII (Michael W. Deem and Ramdas Pophale) SiO2 
 PCOD9143140
Probable space group: P 2/M
;
_chemical_formula_sum "Si O2"
_cell_formula_units_Z 28
_cell_length_a 13.816433
_cell_length_b 7.552570
_cell_length_c 15.094263
_cell_angle_alpha 90.000000
_cell_angle_beta 124.765856
_cell_angle_gamma 90.000000
_cell_volume 1293.911127
_symmetry_space_group_name_H-M "P 2/M"
_symmetry_group_IT_number 10
_symmetry_cell_setting 'monoclinic'
loop_
_space_group_symop_operation_xyz
x,y,z
-x,y,-z
-x,-y,-z
x,-y,z
loop_
_atom_site_type_symbol
_atom_site_label
_atom_site_fract_x
_atom_site_fract_y
_atom_site_fract_z
Si Si1 0.798021 0.716166 0.545266
Si Si2 0.714245 0.715510 0.315261
Si Si3 0.930576 0.285285 0.307498
Si Si4 0.066490 0.285557 0.892640
Si Si5 0.289662 0.203240 0.121466
Si Si6 0.480417 0.794026 0.087432
Si Si7 0.800656 0.708387 0.742157
O O1 0.795337 0.500000 0.541706
O O2 0.722844 0.773900 0.421768
O O3 0.762318 0.776254 0.625430
O O4 0.935048 0.769704 0.604237
O O5 0.710022 0.500000 0.310477
O O6 0.832856 0.772694 0.325969
O O7 0.601369 0.783734 0.204466
O O8 0.932253 0.500000 0.310919
O O9 0.898932 0.236227 0.190007
O O10 0.068708 0.500000 0.901435
O O11 0.931848 0.222547 0.833851
O O12 0.160360 0.216828 0.011175
O O13 0.379427 0.286898 0.097505
O O14 0.283400 0.272783 0.217992
O O15 0.324235 0.000000 0.148948
O O16 0.446305 0.000000 0.054742
O O17 0.500000 0.714836 0.000000
O O18 0.818919 0.500000 0.738190
#
# Coordination Sequence:
#
# PCOD9143140 Si02
#       7
#     4   4   4   4   4   4   4
#     4   8  15  29  50  78 108 132 156 193 245 298
#     4  10  18  30  54  82 101 125 166 209 242 279
#     4   8  14  26  48  79 109 131 155 194 244 296
#     4   9  17  30  50  76 104 133 161 193 243 300
#     4  11  22  34  50  71  95 129 171 210 247 286
#     4  10  23  41  54  67  96 135 167 200 249 300
#     4   9  18  33  52  74 103 135 161 192 242 300
#
# _framework density 21.639818000000002
#
# number of rings (size 3 to 8) (size 9 to 14) (size 15 to 20)
#    0.000    2.714    0.000    3.857    0.000    5.429 
#    0.000    1.429    0.000    7.714    0.000    0.000 
#    0.000    0.000    0.000    0.000    0.000    0.000 
#
# Total GULP energy -156250.987740 kJ/mol
# GULP energy per Si atom -5580.392419 kJ/mol
# Density = 2.159056 g / cm^3
# Si number density = 21.639818 Si / 1000 Ang^3
#
#
#
# Elastic Constant Matrix: (Units=GPa)
#
#
# Indices 1 2 3 4 5 6 
#
# 1 125.0003 3.4720 67.1922 0.0000 -43.8373 0.0000
# 2 3.4720 42.6879 -9.9493 0.0000 -2.2127 0.0000
# 3 67.1922 -9.9493 136.2945 0.0000 -31.6411 0.0000
# 4 0.0000 0.0000 0.0000 4.4718 0.0000 10.3967
# 5 -43.8373 -2.2127 -31.6411 0.0000 25.4172 0.0000
# 6 0.0000 0.0000 0.0000 10.3967 0.0000 10.2702
#
#
#
# Elastic Compliance Matrix: (Units=1/GPa)
#
#
# Indices 1 2 3 4 5 6 
#
# 1 0.020961 -0.000673 -0.002818 0.000000 0.032585 0.000000
# 2 -0.000673 0.024513 0.003301 0.000000 0.005084 0.000000
# 3 -0.002818 0.003301 0.011119 0.000000 0.009269 0.000000
# 4 0.000000 0.000000 0.000000 -0.165203 0.000000 0.167240
# 5 0.032585 0.005084 0.009269 0.000000 0.107525 0.000000
# 6 0.000000 0.000000 0.000000 0.167240 0.000000 -0.071932
#
#
# Mechanical properties :
#
#
# Convention : Reuss Voigt Hill
#
# Bulk Modulus (GPa) = 17.78895 47.26807 32.52851
# Shear Modulus (GPa) = -92.76414 24.24966 -34.25724
#
# Velocity S-wave (km/s) = -6.55442 3.35117 -3.98309
# Velocity P-wave (km/s) = 7.00301 6.07160 2.46758
#
# Compressibility (1/GPa) = 0.05621467
#
# Stress axis : x y z
#
# Youngs Moduli (GPa) = 47.70793 40.79389 89.93520
#
# Poissons Ratio (x) = 0.02744 0.25344
# Poissons Ratio (y) = 0.03209 -0.29689
# Poissons Ratio (z) = 0.13444 -0.13467
#
# Static dielectric constant tensor:
#      x y z
#    x 1.811690 0.000000 -0.037110 
#    y 0.000000 1.825970 0.000000 
#    z -0.037110 0.000000 1.755610 
# 
# From -- ./inp_files/50057.got.cif
#   From: 2010.05.17/outbox.cif.g08.bks.cpg/sg10_26_cif.got.tgz:50057.got - 2010.06.03 11:33:40.
