data_PCOD9143029
_publ_section_title
;
Structure prediction by ZEFSAII (Michael W. Deem and Ramdas Pophale) SiO2 
 PCOD9143029
Probable space group: P 2/M
;
_chemical_formula_sum "Si O2"
_cell_formula_units_Z 24
_cell_length_a 12.201454
_cell_length_b 7.699388
_cell_length_c 27.303997
_cell_angle_alpha 90.000000
_cell_angle_beta 28.845792
_cell_angle_gamma 90.000000
_cell_volume 1237.513161
_symmetry_space_group_name_H-M "P 2/M"
_symmetry_group_IT_number 10
_symmetry_cell_setting 'monoclinic'
loop_
_space_group_symop_operation_xyz
x,y,z
-x,y,-z
-x,-y,-z
x,-y,z
loop_
_atom_site_type_symbol
_atom_site_label
_atom_site_fract_x
_atom_site_fract_y
_atom_site_fract_z
Si Si1 0.146122 0.792799 0.488150
Si Si2 0.386983 0.209067 0.119867
Si Si3 0.150075 0.212706 0.111834
Si Si4 0.067879 0.704215 0.324541
Si Si5 0.655053 0.197320 0.299913
Si Si6 0.275161 0.299851 0.619850
O O1 0.406127 0.722755 0.387211
O O2 0.000000 0.723112 0.500000
O O3 0.006958 0.768604 0.593108
O O4 0.169458 0.000000 0.472899
O O5 0.220771 0.266254 0.139796
O O6 0.310678 0.268857 0.203657
O O7 0.383700 0.000000 0.120873
O O8 0.639167 0.264099 0.004818
O O9 0.903153 0.275265 0.190261
O O10 0.141379 0.000000 0.116121
O O11 0.019782 0.500000 0.344865
O O12 0.907017 0.782003 0.345343
O O13 0.675680 0.196065 0.350622
O O14 0.652755 0.000000 0.281417
O O15 0.500000 0.308806 0.500000
O O16 0.215877 0.500000 0.656666
#
# Coordination Sequence:
#
# PCOD9143029 Si02
#       6
#     4   4   4   4   4   4
#     4  10  22  37  52  72  96 125 165 211 249 283
#     4   9  16  29  48  71 102 132 160 194 236 286
#     4   8  15  27  46  73 101 130 160 193 236 286
#     4  11  21  32  49  73 102 133 163 196 239 294
#     4  10  18  30  51  73  96 127 163 197 237 293
#     4  10  19  30  43  68 104 132 155 190 239 291
#
# _framework density 19.393733000000001
#
# number of rings (size 3 to 8) (size 9 to 14) (size 15 to 20)
#    0.000    2.333    3.333    1.500    0.000    1.333 
#    0.000    2.500    0.000    1.000    0.000    7.000 
#    0.000    0.000    0.000    0.000    0.000    0.000 
#
# Total GULP energy -133638.729386 kJ/mol
# GULP energy per Si atom -5568.280391 kJ/mol
# Density = 1.934959 g / cm^3
# Si number density = 19.393733 Si / 1000 Ang^3
#
#
#
# Elastic Constant Matrix: (Units=GPa)
#
#
# Indices 1 2 3 4 5 6 
#
# 1 104.0131 1.8352 69.8840 0.0000 -15.7617 0.0000
# 2 1.8352 37.3030 -0.2802 0.0000 -6.0965 0.0000
# 3 69.8840 -0.2802 161.8220 0.0000 -18.6192 0.0000
# 4 0.0000 0.0000 0.0000 12.8140 0.0000 -2.9940
# 5 -15.7617 -6.0965 -18.6192 0.0000 14.1998 0.0000
# 6 0.0000 0.0000 0.0000 -2.9940 0.0000 -4.0179
#
#
#
# Elastic Compliance Matrix: (Units=1/GPa)
#
#
# Indices 1 2 3 4 5 6 
#
# 1 0.014540 0.000837 -0.005158 0.000000 0.009736 0.000000
# 2 0.000837 0.029299 0.001464 0.000000 0.015428 0.000000
# 3 -0.005158 0.001464 0.009213 0.000000 0.006984 0.000000
# 4 0.000000 0.000000 0.000000 0.066467 0.000000 -0.049529
# 5 0.009736 0.015428 0.006984 0.000000 0.097012 0.000000
# 6 0.000000 0.000000 0.000000 -0.049529 0.000000 -0.211978
#
#
# Mechanical properties :
#
#
# Convention : Reuss Voigt Hill
#
# Bulk Modulus (GPa) = 21.12385 49.55737 35.34061
# Shear Modulus (GPa) = 191.97465 20.04579 106.01022
#
# Velocity S-wave (km/s) = 9.96006 3.21849 7.40140
# Velocity P-wave (km/s) = 11.96605 6.27856 9.55527
#
# Compressibility (1/GPa) = 0.04733985
#
# Stress axis : x y z
#
# Youngs Moduli (GPa) = 68.77592 34.13108 108.54116
#
# Poissons Ratio (x) = -0.02857 0.55980
# Poissons Ratio (y) = -0.05757 -0.15895
# Poissons Ratio (z) = 0.35471 -0.04998
#
# Static dielectric constant tensor:
#      x y z
#    x 1.668520 0.000000 -0.045030 
#    y 0.000000 1.729990 0.000000 
#    z -0.045030 0.000000 1.778400 
# 
# From -- ./inp_files/45678.got.cif
#   From: 2010.05.17/outbox.cif.g08.bks.cpg/sg10_23_cif.got.tgz:45678.got - 2010.06.03 11:33:40.
