data_PCOD9143686
_publ_section_title
;
Structure prediction by ZEFSAII (Michael W. Deem and Ramdas Pophale) SiO2 
 PCOD9143686
Probable space group: P 2/M
;
_chemical_formula_sum "Si O2"
_cell_formula_units_Z 28
_cell_length_a 12.083476
_cell_length_b 8.233307
_cell_length_c 15.373221
_cell_angle_alpha 90.000000
_cell_angle_beta 61.890949
_cell_angle_gamma 90.000000
_cell_volume 1349.042010
_symmetry_space_group_name_H-M "P 2/M"
_symmetry_group_IT_number 10
_symmetry_cell_setting 'monoclinic'
loop_
_space_group_symop_operation_xyz
x,y,z
-x,y,-z
-x,-y,-z
x,-y,z
loop_
_atom_site_type_symbol
_atom_site_label
_atom_site_fract_x
_atom_site_fract_y
_atom_site_fract_z
Si Si1 0.881754 0.307496 0.484178
Si Si2 0.262038 0.319077 0.211340
Si Si3 0.635716 0.184494 0.993930
Si Si4 0.000928 0.808638 0.278469
Si Si5 0.629400 0.813210 0.665618
Si Si6 0.362639 0.198601 0.808117
Si Si7 0.077638 0.197955 0.885274
O O1 0.896514 0.500000 0.468190
O O2 0.888915 0.222921 0.387261
O O3 0.747179 0.273872 0.577783
O O4 0.000000 0.248119 0.500000
O O5 0.298990 0.500000 0.223069
O O6 0.339519 0.196795 0.242624
O O7 0.115828 0.288666 0.277778
O O8 0.284126 0.289323 0.101714
O O9 0.627012 0.247151 0.094589
O O10 0.687562 0.000000 0.977863
O O11 0.500000 0.179075 0.000000
O O12 0.978136 0.755486 0.187745
O O13 0.031690 0.000000 0.266019
O O14 0.487274 0.746750 0.710559
O O15 0.631049 0.000000 0.636607
O O16 0.223597 0.248935 0.831579
O O17 0.367544 0.000000 0.804186
O O18 0.076627 0.000000 0.888434
O O19 0.000000 0.251929 0.000000
#
# Coordination Sequence:
#
# PCOD9143686 Si02
#       7
#     4   4   4   4   4   4   4
#     4  11  23  39  59  86 120 157 191 242 303 355
#     4  12  23  34  51  81 121 157 189 236 296 352
#     4  10  18  32  54  82 112 149 193 238 288 346
#     4  11  22  37  62  89 113 152 202 245 289 347
#     4  11  21  36  59  86 115 151 194 241 291 352
#     4   9  18  34  57  86 119 150 190 248 300 341
#     4   9  18  35  61  91 120 151 193 245 295 341
#
# _framework density 20.755469000000002
#
# number of rings (size 3 to 8) (size 9 to 14) (size 15 to 20)
#    0.000    1.571    2.857    3.429    0.000    3.143 
#    0.000    0.714    0.000   15.429    0.000    0.000 
#    0.000    0.000    0.000    0.000    0.000    0.000 
#
# Total GULP energy -156272.895055 kJ/mol
# GULP energy per Si atom -5581.174823 kJ/mol
# Density = 2.070823 g / cm^3
# Si number density = 20.755469 Si / 1000 Ang^3
#
#
#
# Elastic Constant Matrix: (Units=GPa)
#
#
# Indices 1 2 3 4 5 6 
#
# 1 85.7170 -0.9319 29.4532 0.0000 -17.7191 0.0000
# 2 -0.9319 29.9624 6.4249 0.0000 -2.0742 0.0000
# 3 29.4532 6.4249 114.3837 0.0000 -16.1755 0.0000
# 4 0.0000 0.0000 0.0000 -72.4689 0.0000 9.4651
# 5 -17.7191 -2.0742 -16.1755 0.0000 35.4400 0.0000
# 6 0.0000 0.0000 0.0000 9.4651 0.0000 -0.3928
#
#
#
# Elastic Compliance Matrix: (Units=1/GPa)
#
#
# Indices 1 2 3 4 5 6 
#
# 1 0.013836 0.001434 -0.002836 0.000000 0.005707 0.000000
# 2 0.001434 0.033977 -0.002026 0.000000 0.001781 0.000000
# 3 -0.002836 -0.002026 0.010016 0.000000 0.003035 0.000000
# 4 0.000000 0.000000 0.000000 0.006426 0.000000 0.154848
# 5 0.005707 0.001781 0.003035 0.000000 0.032559 0.000000
# 6 0.000000 0.000000 0.000000 0.154848 0.000000 1.185580
#
#
# Mechanical properties :
#
#
# Convention : Reuss Voigt Hill
#
# Bulk Modulus (GPa) = 19.61844 33.32838 26.47341
# Shear Modulus (GPa) = 3.82777 5.52347 4.67562
#
# Velocity S-wave (km/s) = 1.35950 1.63309 1.50253
# Velocity P-wave (km/s) = 3.45500 4.43266 3.97401
#
# Compressibility (1/GPa) = 0.05097246
#
# Stress axis : x y z
#
# Youngs Moduli (GPa) = 72.27430 29.43135 99.84259
#
# Poissons Ratio (x) = -0.04219 0.28317
# Poissons Ratio (y) = -0.10361 0.20226
# Poissons Ratio (z) = 0.20498 0.05962
#
# Static dielectric constant tensor:
#      x y z
#    x 1.754070 0.000000 -0.043640 
#    y 0.000000 1.718800 0.000000 
#    z -0.043640 0.000000 1.796210 
# 
# From -- ./inp_files/50082.got.cif
#   From: 2010.05.17/outbox.cif.g08.bks.cpg/sg10_26_cif.got.tgz:50082.got - 2010.06.03 11:33:40.
