data_PCOD9143207
_publ_section_title
;
Structure prediction by ZEFSAII (Michael W. Deem and Ramdas Pophale) SiO2 
 PCOD9143207
Probable space group: P 2/M
;
_chemical_formula_sum "Si O2"
_cell_formula_units_Z 24
_cell_length_a 20.923203
_cell_length_b 7.623257
_cell_length_c 9.912128
_cell_angle_alpha 90.000000
_cell_angle_beta 49.683310
_cell_angle_gamma 90.000000
_cell_volume 1205.491148
_symmetry_space_group_name_H-M "P 2/M"
_symmetry_group_IT_number 10
_symmetry_cell_setting 'monoclinic'
loop_
_space_group_symop_operation_xyz
x,y,z
-x,y,-z
-x,-y,-z
x,-y,z
loop_
_atom_site_type_symbol
_atom_site_label
_atom_site_fract_x
_atom_site_fract_y
_atom_site_fract_z
Si Si1 0.764287 0.284494 0.117173
Si Si2 0.765568 0.202078 0.525206
Si Si3 0.094616 0.289247 0.869793
Si Si4 0.372895 0.699808 0.490613
Si Si5 0.281961 0.711614 0.113052
Si Si6 0.473411 0.285024 0.885424
O O1 0.763334 0.500000 0.122782
O O2 0.845876 0.226892 0.089186
O O3 0.681834 0.223923 0.312509
O O4 0.760278 0.229095 0.968054
O O5 0.853635 0.248440 0.336250
O O6 0.692022 0.304120 0.546953
O O7 0.761976 0.233721 0.688750
O O8 0.747469 0.000000 0.522206
O O9 0.090443 0.500000 0.887069
O O10 0.000000 0.220916 0.000000
O O11 0.392824 0.500000 0.503893
O O12 0.458502 0.778558 0.316480
O O13 0.282803 0.500000 0.110347
O O14 0.378789 0.770138 0.985631
O O15 0.475843 0.500000 0.880335
O O16 0.500000 0.231535 0.000000
#
# Coordination Sequence:
#
# PCOD9143207 Si02
#       6
#     4   4   4   4   4   4
#     4   8  16  29  50  77  99 124 160 203 252 296
#     4  11  21  32  49  74 101 132 168 199 241 293
#     4   9  18  36  60  80  97 121 157 201 247 299
#     4   9  16  31  50  70  98 131 172 211 245 287
#     4  10  18  31  49  71 102 134 165 205 247 287
#     4   9  15  24  45  73  97 129 171 208 243 281
#
# _framework density 19.908897
#
# number of rings (size 3 to 8) (size 9 to 14) (size 15 to 20)
#    0.000    2.667    1.667    2.500    0.000    1.000 
#    0.000    9.167    0.000    5.000    0.000    5.833 
#    0.000    0.000    0.000    0.000    0.000    0.000 
#
# Total GULP energy -133895.086396 kJ/mol
# GULP energy per Si atom -5578.961933 kJ/mol
# Density = 1.986358 g / cm^3
# Si number density = 19.908897 Si / 1000 Ang^3
#
#
#
# Elastic Constant Matrix: (Units=GPa)
#
#
# Indices 1 2 3 4 5 6 
#
# 1 100.1329 3.0582 90.2217 0.0000 -4.8245 0.0000
# 2 3.0582 42.6268 -9.1543 0.0000 -4.7473 0.0000
# 3 90.2217 -9.1543 144.2082 0.0000 -5.7439 0.0000
# 4 0.0000 0.0000 0.0000 52.5295 0.0000 -4.7543
# 5 -4.8245 -4.7473 -5.7439 0.0000 36.9304 0.0000
# 6 0.0000 0.0000 0.0000 -4.7543 0.0000 -10.3454
#
#
#
# Elastic Compliance Matrix: (Units=1/GPa)
#
#
# Indices 1 2 3 4 5 6 
#
# 1 0.023895 -0.004980 -0.015261 0.000000 0.000108 0.000000
# 2 -0.004980 0.025231 0.004850 0.000000 0.003347 0.000000
# 3 -0.015261 0.004850 0.016840 0.000000 0.001249 0.000000
# 4 0.000000 0.000000 0.000000 0.018277 0.000000 -0.008399
# 5 0.000108 0.003347 0.001249 0.000000 0.027717 0.000000
# 6 0.000000 0.000000 0.000000 -0.008399 0.000000 -0.092802
#
#
# Mechanical properties :
#
#
# Convention : Reuss Voigt Hill
#
# Bulk Modulus (GPa) = 28.42123 50.57990 39.50057
# Shear Modulus (GPa) = 81.08160 29.34572 55.21366
#
# Velocity S-wave (km/s) = 6.38864 3.84344 5.27194
# Velocity P-wave (km/s) = 8.29013 6.71988 7.54596
#
# Compressibility (1/GPa) = 0.03518497
#
# Stress axis : x y z
#
# Youngs Moduli (GPa) = 41.85056 39.63365 59.38267
#
# Poissons Ratio (x) = 0.19736 0.90624
# Poissons Ratio (y) = 0.20840 -0.28803
# Poissons Ratio (z) = 0.63868 -0.19224
#
# Static dielectric constant tensor:
#      x y z
#    x 1.679610 0.000000 0.000240 
#    y 0.000000 1.752630 0.000000 
#    z 0.000240 0.000000 1.691160 
# 
# From -- ./inp_files/33517.got.cif
#   From: 2010.05.17/outbox.cif.g08.bks.cpg/sg10_17_cif.got.tgz:33517.got - 2010.06.03 11:33:40.
