data_PCOD9143232
_publ_section_title
;
Structure prediction by ZEFSAII (Michael W. Deem and Ramdas Pophale) SiO2 
 PCOD9143232
Probable space group: P 2/M
;
_chemical_formula_sum "Si O2"
_cell_formula_units_Z 28
_cell_length_a 19.987661
_cell_length_b 7.395277
_cell_length_c 14.658076
_cell_angle_alpha 90.000000
_cell_angle_beta 146.687224
_cell_angle_gamma 90.000000
_cell_volume 1189.956742
_symmetry_space_group_name_H-M "P 2/M"
_symmetry_group_IT_number 10
_symmetry_cell_setting 'monoclinic'
loop_
_space_group_symop_operation_xyz
x,y,z
-x,y,-z
-x,-y,-z
x,-y,z
loop_
_atom_site_type_symbol
_atom_site_label
_atom_site_fract_x
_atom_site_fract_y
_atom_site_fract_z
Si Si1 0.709547 0.711590 0.092836
Si Si2 0.546832 0.795364 0.146237
Si Si3 0.692120 0.778612 0.479309
Si Si4 0.898810 0.783265 0.455802
Si Si5 0.521624 0.779570 0.629287
Si Si6 0.212619 0.791904 0.010560
Si Si7 0.948391 0.778593 0.719129
O O1 0.694550 0.500000 0.060953
O O2 0.771402 0.741192 0.261325
O O3 0.577881 0.802150 0.937831
O O4 0.791971 0.786747 0.105106
O O5 0.646100 0.717288 0.326902
O O6 0.586677 0.000000 0.168204
O O7 0.500000 0.705185 0.000000
O O8 0.592121 0.718690 0.438495
O O9 0.833034 0.726117 0.649437
O O10 0.688378 0.000000 0.473566
O O11 0.918853 0.720227 0.581457
O O12 0.000000 0.713503 0.500000
O O13 0.908546 0.000000 0.469905
O O14 0.500000 0.730926 0.500000
O O15 0.655583 0.714405 0.812933
O O16 0.522469 0.000000 0.636629
O O17 0.215839 0.000000 0.044868
O O18 0.084231 0.714861 0.898521
O O19 0.952342 0.000000 0.723222
#
# Coordination Sequence:
#
# PCOD9143232 Si02
#       7
#     4   4   4   4   4   4   4
#     4  12  23  32  47  74 110 142 178 220 268 314
#     4  10  19  33  54  74  98 139 186 222 260 310
#     4   9  16  28  48  76 105 130 169 221 262 308
#     4  10  18  31  50  70  98 140 189 223 250 301
#     4   9  17  30  52  80 107 134 166 215 278 327
#     4  10  18  34  55  74 100 136 180 217 259 317
#     4   9  17  29  49  75 100 134 178 221 255 298
#
# _framework density 23.530266999999998
#
# number of rings (size 3 to 8) (size 9 to 14) (size 15 to 20)
#    0.000    2.143    2.857    2.143    0.000    2.857 
#    0.000    0.714    0.000    5.571    0.000    0.000 
#    0.000    1.143    0.000    0.000    0.000    0.000 
#
# Total GULP energy -156410.877781 kJ/mol
# GULP energy per Si atom -5586.102778 kJ/mol
# Density = 2.347671 g / cm^3
# Si number density = 23.530267 Si / 1000 Ang^3
#
#
#
# Elastic Constant Matrix: (Units=GPa)
#
#
# Indices 1 2 3 4 5 6 
#
# 1 134.3977 3.0992 87.6527 0.0000 32.2174 0.0000
# 2 3.0992 93.2523 2.0224 0.0000 3.1941 0.0000
# 3 87.6527 2.0224 129.4723 0.0000 38.2980 0.0000
# 4 0.0000 0.0000 0.0000 -52.3466 0.0000 -2.1416
# 5 32.2174 3.1941 38.2980 0.0000 49.1915 0.0000
# 6 0.0000 0.0000 0.0000 -2.1416 0.0000 -28.0309
#
#
#
# Elastic Compliance Matrix: (Units=1/GPa)
#
#
# Indices 1 2 3 4 5 6 
#
# 1 0.013515 -0.000189 -0.008486 0.000000 -0.002232 0.000000
# 2 -0.000189 0.010750 0.000169 0.000000 -0.000706 0.000000
# 3 -0.008486 0.000169 0.015364 0.000000 -0.006414 0.000000
# 4 0.000000 0.000000 0.000000 -0.019163 0.000000 0.001464
# 5 -0.002232 -0.000706 -0.006414 0.000000 0.026830 0.000000
# 6 0.000000 0.000000 0.000000 0.001464 0.000000 -0.035787
#
#
# Mechanical properties :
#
#
# Convention : Reuss Voigt Hill
#
# Bulk Modulus (GPa) = 44.21669 60.29676 52.25673
# Shear Modulus (GPa) = 138.65836 11.38601 75.02218
#
# Velocity S-wave (km/s) = 7.68476 2.20213 5.65265
# Velocity P-wave (km/s) = 9.87790 5.66980 8.05356
#
# Compressibility (1/GPa) = 0.02261589
#
# Stress axis : x y z
#
# Youngs Moduli (GPa) = 73.99396 93.01997 65.08931
#
# Poissons Ratio (x) = 0.01755 0.55236
# Poissons Ratio (y) = 0.01396 -0.01097
# Poissons Ratio (z) = 0.62793 -0.01568
#
# Static dielectric constant tensor:
#      x y z
#    x 1.907580 0.000000 0.052220 
#    y 0.000000 1.873970 0.000000 
#    z 0.052220 0.000000 1.887080 
# 
# From -- ./inp_files/49367.got.cif
#   From: 2010.05.17/outbox.cif.g08.bks.cpg/sg10_25_cif.got.tgz:49367.got - 2010.06.03 11:33:40.
