data_PCOD9143203
_publ_section_title
;
Structure prediction by ZEFSAII (Michael W. Deem and Ramdas Pophale) SiO2 
 PCOD9143203
Probable space group: P 2/M
;
_chemical_formula_sum "Si O2"
_cell_formula_units_Z 28
_cell_length_a 11.526302
_cell_length_b 8.884132
_cell_length_c 20.014790
_cell_angle_alpha 90.000000
_cell_angle_beta 52.689586
_cell_angle_gamma 90.000000
_cell_volume 1630.127581
_symmetry_space_group_name_H-M "P 2/M"
_symmetry_group_IT_number 10
_symmetry_cell_setting 'monoclinic'
loop_
_space_group_symop_operation_xyz
x,y,z
-x,y,-z
-x,-y,-z
x,-y,z
loop_
_atom_site_type_symbol
_atom_site_label
_atom_site_fract_x
_atom_site_fract_y
_atom_site_fract_z
Si Si1 0.150974 0.328240 0.989315
Si Si2 0.307423 0.178620 0.816489
Si Si3 0.586490 0.836398 0.401486
Si Si4 0.921397 0.172784 0.326679
Si Si5 0.134528 0.821689 0.503320
Si Si6 0.960032 0.680792 0.176321
Si Si7 0.431861 0.325824 0.345907
O O1 0.205615 0.500000 0.974027
O O2 0.258455 0.229564 0.907430
O O3 0.000000 0.331915 0.000000
O O4 0.096259 0.276631 0.080977
O O5 0.185798 0.246918 0.806993
O O6 0.468644 0.240547 0.743320
O O7 0.301473 0.000000 0.812793
O O8 0.500000 0.834342 0.500000
O O9 0.753528 0.831957 0.362325
O O10 0.532360 0.700286 0.376013
O O11 0.555880 0.000000 0.378735
O O12 0.914324 0.231917 0.405397
O O13 0.988742 0.266561 0.242091
O O14 0.977594 0.000000 0.308190
O O15 0.276738 0.743699 0.421973
O O16 0.000000 0.804950 0.500000
O O17 0.168232 0.000000 0.499551
O O18 0.942490 0.500000 0.179230
O O19 0.415897 0.500000 0.334520
#
# Coordination Sequence:
#
# PCOD9143203 Si02
#       7
#     4   4   4   4   4   4   4
#     4   8  16  30  44  64 100 138 169 201 242 295
#     4  11  20  30  47  71 101 136 173 208 245 295
#     4  10  18  31  49  70 100 131 165 206 249 297
#     4  10  19  31  51  76 101 132 169 209 248 296
#     4  10  22  41  59  73  96 132 172 213 257 301
#     4  10  19  30  46  71 104 139 169 202 248 299
#     4  12  23  33  50  74 103 134 168 208 252 302
#
# _framework density 17.176570999999999
#
# number of rings (size 3 to 8) (size 9 to 14) (size 15 to 20)
#    0.000    1.857    2.857    3.857    0.000    4.286 
#    0.000    0.000    0.000    0.000    0.000    1.000 
#    0.000    8.000    0.000    0.000    0.000    0.000 
#
# Total GULP energy -155983.284718 kJ/mol
# GULP energy per Si atom -5570.831597 kJ/mol
# Density = 1.713748 g / cm^3
# Si number density = 17.176571 Si / 1000 Ang^3
#
#
#
# Elastic Constant Matrix: (Units=GPa)
#
#
# Indices 1 2 3 4 5 6 
#
# 1 38.8419 19.5697 33.8482 0.0000 6.4126 0.0000
# 2 19.5697 85.6835 65.0003 0.0000 3.9928 0.0000
# 3 33.8482 65.0003 175.2938 0.0000 18.2077 0.0000
# 4 0.0000 0.0000 0.0000 38.9031 0.0000 -7.8530
# 5 6.4126 3.9928 18.2077 0.0000 8.2252 0.0000
# 6 0.0000 0.0000 0.0000 -7.8530 0.0000 17.3209
#
#
#
# Elastic Compliance Matrix: (Units=1/GPa)
#
#
# Indices 1 2 3 4 5 6 
#
# 1 0.033506 -0.004595 -0.002966 0.000000 -0.017325 0.000000
# 2 -0.004595 0.017192 -0.006484 0.000000 0.009589 0.000000
# 3 -0.002966 -0.006484 0.010537 0.000000 -0.017866 0.000000
# 4 0.000000 0.000000 0.000000 0.028294 0.000000 0.012828
# 5 -0.017325 0.009589 -0.017866 0.000000 0.169978 0.000000
# 6 0.000000 0.000000 0.000000 0.012828 0.000000 0.063550
#
#
# Mechanical properties :
#
#
# Convention : Reuss Voigt Hill
#
# Bulk Modulus (GPa) = 30.17030 59.62840 44.89935
# Shear Modulus (GPa) = 13.80468 24.98325 19.39396
#
# Velocity S-wave (km/s) = 2.83802 3.81792 3.36384
# Velocity P-wave (km/s) = 5.32373 7.36381 6.42525
#
# Compressibility (1/GPa) = 0.03314518
#
# Stress axis : x y z
#
# Youngs Moduli (GPa) = 29.84564 58.16629 94.89928
#
# Poissons Ratio (x) = 0.26727 0.28151
# Poissons Ratio (y) = 0.13714 0.61530
# Poissons Ratio (z) = 0.08853 0.37714
#
# Static dielectric constant tensor:
#      x y z
#    x 1.576790 0.000000 -0.013570 
#    y 0.000000 1.619980 0.000000 
#    z -0.013570 0.000000 1.689780 
# 
# From -- ./inp_files/83316.got.cif
#   From: 2010.05.17/outbox.cif.g08.bks.cpg/sg10_42_cif.got.tgz:83316.got - 2010.06.03 11:33:40.
