data_PCOD9143333
_publ_section_title
;
Structure prediction by ZEFSAII (Michael W. Deem and Ramdas Pophale) SiO2 
 PCOD9143333
Probable space group: P 2/M
;
_chemical_formula_sum "Si O2"
_cell_formula_units_Z 32
_cell_length_a 12.599684
_cell_length_b 8.464110
_cell_length_c 21.991624
_cell_angle_alpha 90.000000
_cell_angle_beta 51.516967
_cell_angle_gamma 90.000000
_cell_volume 1835.882541
_symmetry_space_group_name_H-M "P 2/M"
_symmetry_group_IT_number 10
_symmetry_cell_setting 'monoclinic'
loop_
_space_group_symop_operation_xyz
x,y,z
-x,y,-z
-x,-y,-z
x,-y,z
loop_
_atom_site_type_symbol
_atom_site_label
_atom_site_fract_x
_atom_site_fract_y
_atom_site_fract_z
Si Si1 0.433721 0.812626 0.171450
Si Si2 0.531125 0.311245 0.704870
Si Si3 0.951603 0.306879 0.868366
Si Si4 0.206364 0.814748 0.444992
Si Si5 0.971303 0.687405 0.602499
Si Si6 0.228591 0.692268 0.830735
Si Si7 0.847184 0.309026 0.774762
Si Si8 0.725854 0.308811 0.046430
O O1 0.429719 0.733737 0.239815
O O2 0.303874 0.756283 0.180220
O O3 0.576079 0.760525 0.091375
O O4 0.430457 0.000000 0.180332
O O5 0.537437 0.500000 0.697287
O O6 0.639793 0.236972 0.620842
O O7 0.375147 0.258223 0.752809
O O8 0.954328 0.500000 0.867651
O O9 0.914834 0.255984 0.813469
O O10 0.097510 0.252507 0.840863
O O11 0.833738 0.259704 0.957388
O O12 0.123562 0.726413 0.527304
O O13 0.126366 0.772426 0.411177
O O14 0.197096 0.000000 0.458929
O O15 0.947940 0.500000 0.604621
O O16 0.932783 0.735814 0.684333
O O17 0.227550 0.500000 0.830065
O O18 0.224984 0.737232 0.903255
O O19 0.839498 0.500000 0.778605
O O20 0.715496 0.500000 0.049223
#
# Coordination Sequence:
#
# PCOD9143333 Si02
#       8
#     4   4   4   4   4   4   4   4
#     4  11  21  32  48  70 101 135 168 204 247 299
#     4  10  18  31  52  77 103 129 161 205 254 297
#     4   9  17  31  52  77  98 127 170 210 250 296
#     4  11  20  30  49  76 103 130 163 202 246 299
#     4  10  19  31  48  71 102 135 165 203 246 294
#     4   8  15  28  51  79 101 123 161 213 256 290
#     4  10  20  33  51  72 101 134 166 204 246 299
#     4   9  17  31  53  76 100 127 163 212 257 295
#
# _framework density 17.430308
#
# number of rings (size 3 to 8) (size 9 to 14) (size 15 to 20)
#    0.000    2.250    1.250    4.875    0.000    2.500 
#    0.000    3.125    0.000   11.250    0.000    5.250 
#    0.000    0.000    0.000    0.000    0.000    0.000 
#
# Total GULP energy -178539.077362 kJ/mol
# GULP energy per Si atom -5579.346168 kJ/mol
# Density = 1.739064 g / cm^3
# Si number density = 17.430308 Si / 1000 Ang^3
#
#
#
# Elastic Constant Matrix: (Units=GPa)
#
#
# Indices 1 2 3 4 5 6 
#
# 1 110.9888 5.0139 79.6782 0.0000 -2.3811 0.0000
# 2 5.0139 17.7141 0.8735 0.0000 1.7187 0.0000
# 3 79.6782 0.8735 104.8562 0.0000 -17.6454 0.0000
# 4 0.0000 0.0000 0.0000 -0.4609 0.0000 -5.1489
# 5 -2.3811 1.7187 -17.6454 0.0000 15.3506 0.0000
# 6 0.0000 0.0000 0.0000 -5.1489 0.0000 -17.0497
#
#
#
# Elastic Compliance Matrix: (Units=1/GPa)
#
#
# Indices 1 2 3 4 5 6 
#
# 1 0.024871 -0.003837 -0.022498 0.000000 -0.021573 0.000000
# 2 -0.003837 0.057978 0.001538 0.000000 -0.005319 0.000000
# 3 -0.022498 0.001538 0.032240 0.000000 0.033398 0.000000
# 4 0.000000 0.000000 0.000000 0.914050 0.000000 -0.276038
# 5 -0.021573 -0.005319 0.033398 0.000000 0.100784 0.000000
# 6 0.000000 0.000000 0.000000 -0.276038 0.000000 0.024710
#
#
# Mechanical properties :
#
#
# Convention : Reuss Voigt Hill
#
# Bulk Modulus (GPa) = 15.26828 44.96562 30.11695
# Shear Modulus (GPa) = 4.07810 9.43424 6.75617
#
# Velocity S-wave (km/s) = 1.53125 2.32901 1.97092
# Velocity P-wave (km/s) = 3.45036 5.75202 4.74293
#
# Compressibility (1/GPa) = 0.06549526
#
# Stress axis : x y z
#
# Youngs Moduli (GPa) = 40.20668 17.24780 31.01743
#
# Poissons Ratio (x) = 0.06618 0.69782
# Poissons Ratio (y) = 0.15428 -0.04770
# Poissons Ratio (z) = 0.90456 -0.02652
#
# Static dielectric constant tensor:
#      x y z
#    x 1.577600 0.000000 -0.016610 
#    y 0.000000 1.582700 0.000000 
#    z -0.016610 0.000000 1.599290 
# 
# From -- ./inp_files/83530.got.cif
#   From: 2010.05.17/outbox.cif.g08.bks.cpg/sg10_42_cif.got.tgz:83530.got - 2010.06.03 11:33:40.
