data_PCOD9143145
_publ_section_title
;
Structure prediction by ZEFSAII (Michael W. Deem and Ramdas Pophale) SiO2 
 PCOD9143145
Probable space group: P 2/M
;
_chemical_formula_sum "Si O2"
_cell_formula_units_Z 28
_cell_length_a 30.764397
_cell_length_b 7.798253
_cell_length_c 10.455773
_cell_angle_alpha 90.000000
_cell_angle_beta 34.177115
_cell_angle_gamma 90.000000
_cell_volume 1409.117668
_symmetry_space_group_name_H-M "P 2/M"
_symmetry_group_IT_number 10
_symmetry_cell_setting 'monoclinic'
loop_
_space_group_symop_operation_xyz
x,y,z
-x,y,-z
-x,-y,-z
x,-y,z
loop_
_atom_site_type_symbol
_atom_site_label
_atom_site_fract_x
_atom_site_fract_y
_atom_site_fract_z
Si Si1 0.744608 0.201317 0.885163
Si Si2 0.338241 0.292120 0.653456
Si Si3 0.670422 0.298179 0.801085
Si Si4 0.498254 0.709408 0.854834
Si Si5 0.098876 0.199786 0.373064
Si Si6 0.229592 0.710397 0.681004
Si Si7 0.067172 0.302066 0.163956
O O1 0.708413 0.279861 0.846507
O O2 0.829493 0.268030 0.719221
O O3 0.752426 0.000000 0.840398
O O4 0.690460 0.228818 0.139965
O O5 0.337986 0.500000 0.657211
O O6 0.424124 0.233235 0.405520
O O7 0.278430 0.239312 0.687576
O O8 0.663001 0.500000 0.790206
O O9 0.725260 0.229258 0.554746
O O10 0.582853 0.229556 0.006715
O O11 0.500425 0.500000 0.845309
O O12 0.500000 0.757275 0.000000
O O13 0.091061 0.292311 0.255728
O O14 0.015879 0.213327 0.643384
O O15 0.113924 0.000000 0.307153
O O16 0.226984 0.500000 0.687546
O O17 0.140898 0.768895 0.908468
O O18 0.055593 0.500000 0.157233
#
# Coordination Sequence:
#
# PCOD9143145 Si02
#       7
#     4   4   4   4   4   4   4
#     4  11  24  39  52  75 112 151 186 219 263 320
#     4  10  18  33  59  84 108 138 178 225 271 319
#     4  10  20  36  58  82 110 143 178 221 273 323
#     4   9  16  30  57  88 110 133 174 227 273 317
#     4  10  20  34  51  74 107 144 181 219 261 313
#     4   9  17  31  55  86 110 133 173 224 271 319
#     4  10  18  30  54  85 109 131 171 223 274 319
#
# _framework density 19.870588999999999
#
# number of rings (size 3 to 8) (size 9 to 14) (size 15 to 20)
#    0.000    2.143    2.857    2.143    0.000    2.286 
#    0.000    6.429    0.000    5.143    0.000    0.000 
#    0.000    0.000    0.000    0.000    0.000    0.000 
#
# Total GULP energy -156287.061804 kJ/mol
# GULP energy per Si atom -5581.680779 kJ/mol
# Density = 1.982536 g / cm^3
# Si number density = 19.870589 Si / 1000 Ang^3
#
#
#
# Elastic Constant Matrix: (Units=GPa)
#
#
# Indices 1 2 3 4 5 6 
#
# 1 100.0384 -13.1144 59.3887 0.0000 -13.2391 0.0000
# 2 -13.1144 22.8415 -9.5532 0.0000 -4.0112 0.0000
# 3 59.3887 -9.5532 147.3299 0.0000 -21.9852 0.0000
# 4 0.0000 0.0000 0.0000 -62.8921 0.0000 -83.8905
# 5 -13.2391 -4.0112 -21.9852 0.0000 35.4082 0.0000
# 6 0.0000 0.0000 0.0000 -83.8905 0.0000 -39.6197
#
#
#
# Elastic Compliance Matrix: (Units=1/GPa)
#
#
# Indices 1 2 3 4 5 6 
#
# 1 0.014123 0.006633 -0.004808 0.000000 0.003047 0.000000
# 2 0.006633 0.050059 0.001971 0.000000 0.009375 0.000000
# 3 -0.004808 0.001971 0.009499 0.000000 0.004323 0.000000
# 4 0.000000 0.000000 0.000000 0.008716 0.000000 -0.018454
# 5 0.003047 0.009375 0.004323 0.000000 0.033128 0.000000
# 6 0.000000 0.000000 0.000000 -0.018454 0.000000 0.013835
#
#
# Mechanical properties :
#
#
# Convention : Reuss Voigt Hill
#
# Bulk Modulus (GPa) = 12.30429 38.18356 25.24393
# Shear Modulus (GPa) = 33.58882 2.14517 17.86699
#
# Velocity S-wave (km/s) = 4.11588 1.04015 3.00187
# Velocity P-wave (km/s) = 5.36591 4.54977 4.97460
#
# Compressibility (1/GPa) = 0.08127245
#
# Stress axis : x y z
#
# Youngs Moduli (GPa) = 70.80413 19.97641 105.27725
#
# Poissons Ratio (x) = -0.13250 0.50622
# Poissons Ratio (y) = -0.46964 -0.20752
# Poissons Ratio (z) = 0.34046 -0.03938
#
# Static dielectric constant tensor:
#      x y z
#    x 1.667520 0.000000 -0.036170 
#    y 0.000000 1.719860 0.000000 
#    z -0.036170 0.000000 1.707120 
# 
# From -- ./inp_files/37061.got.cif
#   From: 2010.05.17/outbox.cif.g08.bks.cpg/sg10_19_cif.got.tgz:37061.got - 2010.06.03 11:33:40.
