data_PCOD9143441
_publ_section_title
;
Structure prediction by ZEFSAII (Michael W. Deem and Ramdas Pophale) SiO2 
 PCOD9143441
Probable space group: P 2/M
;
_chemical_formula_sum "Si O2"
_cell_formula_units_Z 24
_cell_length_a 8.477815
_cell_length_b 7.557267
_cell_length_c 19.100521
_cell_angle_alpha 90.000000
_cell_angle_beta 60.561741
_cell_angle_gamma 90.000000
_cell_volume 1065.749490
_symmetry_space_group_name_H-M "P 2/M"
_symmetry_group_IT_number 10
_symmetry_cell_setting 'monoclinic'
loop_
_space_group_symop_operation_xyz
x,y,z
-x,y,-z
-x,-y,-z
x,-y,z
loop_
_atom_site_type_symbol
_atom_site_label
_atom_site_fract_x
_atom_site_fract_y
_atom_site_fract_z
Si Si1 0.291898 0.000000 0.455528
Si Si2 0.947660 0.799260 0.733017
Si Si3 0.729329 0.702426 0.646287
Si Si4 0.366843 0.716538 0.968076
Si Si5 0.724904 0.000000 0.376752
Si Si6 0.980919 0.294505 0.880584
Si Si7 0.614723 0.716122 0.192410
O O1 0.223598 0.169424 0.427453
O O2 0.512547 0.000000 0.409377
O O3 0.237181 0.000000 0.548318
O O4 0.865165 0.709454 0.682795
O O5 0.909181 0.715313 0.816564
O O6 0.874209 0.000000 0.749849
O O7 0.164280 0.831230 0.677330
O O8 0.711984 0.500000 0.626637
O O9 0.538614 0.770242 0.720064
O O10 0.364308 0.500000 0.969338
O O11 0.428298 0.769202 0.877708
O O12 0.500000 0.774823 0.000000
O O13 0.166167 0.778452 0.033480
O O14 0.002442 0.500000 0.895184
O O15 0.182316 0.218042 0.837768
O O16 0.612728 0.500000 0.195638
#
# Coordination Sequence:
#
# PCOD9143441 Si02
#       7
#     2   4   4   4   2   4   4
#     4  11  21  45  67  90 123 154 201 241 299 357
#     4  10  21  38  57  84 117 155 195 235 301 353
#     4  11  22  38  64  92 122 159 200 247 297 355
#     4   9  16  27  47  76 113 153 195 248 299 346
#     4   9  23  41  67  86 121 166 187 245 303 355
#     4  10  18  31  54  81 113 152 200 250 292 350
#     4   9  18  31  51  83 114 152 201 245 298 351
#
# _framework density 22.519361
#
# number of rings (size 3 to 8) (size 9 to 14) (size 15 to 20)
#    0.500    1.667    0.833    3.000    0.000    6.000 
#    0.000    5.000    1.833    2.500    0.000    0.000 
#    0.000    0.000    0.000    0.000    0.000    0.000 
#
# Total GULP energy -134044.131349 kJ/mol
# GULP energy per Si atom -5585.172140 kJ/mol
# Density = 2.246811 g / cm^3
# Si number density = 22.519361 Si / 1000 Ang^3
#
#
#
# Elastic Constant Matrix: (Units=GPa)
#
#
# Indices 1 2 3 4 5 6 
#
# 1 61.7549 -0.5315 -3.5006 0.0000 7.5197 0.0000
# 2 -0.5315 66.9023 7.5856 0.0000 2.3873 0.0000
# 3 -3.5006 7.5856 76.5516 0.0000 12.7674 0.0000
# 4 0.0000 0.0000 0.0000 11.6070 0.0000 4.4398
# 5 7.5197 2.3873 12.7674 0.0000 42.2315 0.0000
# 6 0.0000 0.0000 0.0000 4.4398 0.0000 15.8956
#
#
#
# Elastic Compliance Matrix: (Units=1/GPa)
#
#
# Indices 1 2 3 4 5 6 
#
# 1 0.016679 0.000104 0.001315 0.000000 -0.003373 0.000000
# 2 0.000104 0.015125 -0.001420 0.000000 -0.000444 0.000000
# 3 0.001315 -0.001420 0.013995 0.000000 -0.004385 0.000000
# 4 0.000000 0.000000 0.000000 0.096461 0.000000 -0.026943
# 5 -0.003373 -0.000444 -0.004385 0.000000 0.025630 0.000000
# 6 0.000000 0.000000 0.000000 -0.026943 0.000000 0.070436
#
#
# Mechanical properties :
#
#
# Convention : Reuss Voigt Hill
#
# Bulk Modulus (GPa) = 21.83544 23.59064 22.71304
# Shear Modulus (GPa) = 19.71654 27.39050 23.55352
#
# Velocity S-wave (km/s) = 2.96216 3.49135 3.23758
# Velocity P-wave (km/s) = 4.62780 5.17215 4.90753
#
# Compressibility (1/GPa) = 0.04579711
#
# Stress axis : x y z
#
# Youngs Moduli (GPa) = 59.95480 66.11639 71.45290
#
# Poissons Ratio (x) = -0.00686 -0.09396
# Poissons Ratio (y) = -0.00622 0.10146
# Poissons Ratio (z) = -0.07884 0.09388
#
# Static dielectric constant tensor:
#      x y z
#    x 1.861250 0.000000 -0.036920 
#    y 0.000000 1.822600 0.000000 
#    z -0.036920 0.000000 1.788350 
# 
# From -- ./inp_files/81730.got.cif
#   From: 2010.05.17/outbox.cif.g08.bks.cpg/sg10_41_cif.got.tgz:81730.got - 2010.06.03 11:33:40.
