data_PCOD9143407
_publ_section_title
;
Structure prediction by ZEFSAII (Michael W. Deem and Ramdas Pophale) SiO2 
 PCOD9143407
Probable space group: P 2/M
;
_chemical_formula_sum "Si O2"
_cell_formula_units_Z 28
_cell_length_a 20.501913
_cell_length_b 15.859601
_cell_length_c 9.212232
_cell_angle_alpha 90.000000
_cell_angle_beta 28.312613
_cell_angle_gamma 90.000000
_cell_volume 1420.653530
_symmetry_space_group_name_H-M "P 2/M"
_symmetry_group_IT_number 10
_symmetry_cell_setting 'monoclinic'
loop_
_space_group_symop_operation_xyz
x,y,z
-x,y,-z
-x,-y,-z
x,-y,z
loop_
_atom_site_type_symbol
_atom_site_label
_atom_site_fract_x
_atom_site_fract_y
_atom_site_fract_z
Si Si1 0.643240 0.139736 0.783647
Si Si2 0.011760 0.745924 0.152006
Si Si3 0.276202 0.317379 0.313892
Si Si4 0.510618 0.898498 0.642485
Si Si5 0.194414 0.096809 0.796399
Si Si6 0.505409 0.400597 0.323297
Si Si7 0.785012 0.403544 0.270883
O O1 0.657408 0.239115 0.729388
O O2 0.768959 0.100154 0.448495
O O3 0.500000 0.104949 0.000000
O O4 0.616280 0.128645 0.006903
O O5 0.858363 0.721993 0.499237
O O6 0.079733 0.834688 0.061520
O O7 0.111015 0.667388 0.989891
O O8 0.000000 0.749775 0.000000
O O9 0.235882 0.384825 0.516354
O O10 0.382122 0.353192 0.991940
O O11 0.500000 0.866233 0.500000
O O12 0.659714 0.876016 0.417321
O O13 0.507592 0.000000 0.646285
O O14 0.162858 0.000000 0.897270
O O15 0.500000 0.370575 0.500000
O O16 0.541011 0.500000 0.256666
O O17 0.359205 0.393127 0.529451
O O18 0.832593 0.500000 0.158080
#
# Coordination Sequence:
#
# PCOD9143407 Si02
#       7
#     4   4   4   4   4   4   4
#     4  10  18  31  53  83 112 144 190 244 289 342
#     4  10  21  37  54  87 120 148 197 233 282 351
#     4  11  21  35  57  85 118 150 191 236 279 343
#     4   9  19  34  54  82 111 146 197 246 293 345
#     4  10  19  35  58  81 116 156 190 243 297 341
#     4  10  22  39  60  88 116 149 195 239 290 348
#     4  10  20  37  62  87 116 150 186 238 291 339
#
# _framework density 19.709239
#
# number of rings (size 3 to 8) (size 9 to 14) (size 15 to 20)
#    0.000    2.000    2.857    2.143    2.000    6.857 
#    0.000    0.714    0.000    2.571    0.000    3.000 
#    0.000    0.000    0.000    0.000    0.000    0.000 
#
# Total GULP energy -156161.951130 kJ/mol
# GULP energy per Si atom -5577.212540 kJ/mol
# Density = 1.966438 g / cm^3
# Si number density = 19.709239 Si / 1000 Ang^3
#
#
#
# Elastic Constant Matrix: (Units=GPa)
#
#
# Indices 1 2 3 4 5 6 
#
# 1 56.7901 29.7148 28.0343 0.0000 1.3702 0.0000
# 2 29.7148 107.1384 33.6389 0.0000 -19.8130 0.0000
# 3 28.0343 33.6389 44.1584 0.0000 -14.7212 0.0000
# 4 0.0000 0.0000 0.0000 12.4502 0.0000 -11.0462
# 5 1.3702 -19.8130 -14.7212 0.0000 27.3462 0.0000
# 6 0.0000 0.0000 0.0000 -11.0462 0.0000 20.7609
#
#
#
# Elastic Compliance Matrix: (Units=1/GPa)
#
#
# Indices 1 2 3 4 5 6 
#
# 1 0.031360 -0.004998 -0.021733 0.000000 -0.016892 0.000000
# 2 -0.004998 0.013581 -0.004642 0.000000 0.007591 0.000000
# 3 -0.021733 -0.004642 0.047799 0.000000 0.023457 0.000000
# 4 0.000000 0.000000 0.000000 0.152141 0.000000 0.080949
# 5 -0.016892 0.007591 0.023457 0.000000 0.055542 0.000000
# 6 0.000000 0.000000 0.000000 0.080949 0.000000 0.091238
#
#
# Mechanical properties :
#
#
# Convention : Reuss Voigt Hill
#
# Bulk Modulus (GPa) = 33.33964 43.42921 38.38443
# Shear Modulus (GPa) = 10.76644 19.89138 15.32891
#
# Velocity S-wave (km/s) = 2.33976 3.18030 2.79185
# Velocity P-wave (km/s) = 4.92461 5.96394 5.46902
#
# Compressibility (1/GPa) = 0.02999432
#
# Stress axis : x y z
#
# Youngs Moduli (GPa) = 31.88805 73.63071 20.92073
#
# Poissons Ratio (x) = 0.36799 0.45467
# Poissons Ratio (y) = 0.15937 0.09712
# Poissons Ratio (z) = 0.69302 0.34182
#
# Static dielectric constant tensor:
#      x y z
#    x 1.730120 0.000000 -0.013400 
#    y 0.000000 1.709260 0.000000 
#    z -0.013400 0.000000 1.703740 
# 
# From -- ./inp_files/25430.got.cif
#   From: 2010.05.17/outbox.cif.g08.bks.cpg/sg10_13_cif.got.tgz:25430.got - 2010.06.03 11:33:40.
