data_PCOD9143117
_publ_section_title
;
Structure prediction by ZEFSAII (Michael W. Deem and Ramdas Pophale) SiO2 
 PCOD9143117
Probable space group: P 2/M
;
_chemical_formula_sum "Si O2"
_cell_formula_units_Z 20
_cell_length_a 27.041335
_cell_length_b 8.678627
_cell_length_c 9.388914
_cell_angle_alpha 90.000000
_cell_angle_beta 29.767966
_cell_angle_gamma 90.000000
_cell_volume 1093.966180
_symmetry_space_group_name_H-M "P 2/M"
_symmetry_group_IT_number 10
_symmetry_cell_setting 'monoclinic'
loop_
_space_group_symop_operation_xyz
x,y,z
-x,y,-z
-x,-y,-z
x,-y,z
loop_
_atom_site_type_symbol
_atom_site_label
_atom_site_fract_x
_atom_site_fract_y
_atom_site_fract_z
Si Si1 0.994858 0.677947 0.685955
Si Si2 0.212801 0.183762 0.812760
Si Si3 0.597065 0.187872 0.844704
Si Si4 0.786361 0.314768 0.870800
Si Si5 0.599801 0.813512 0.166168
O O1 0.982873 0.500000 0.759718
O O2 0.103862 0.736267 0.458598
O O3 0.000000 0.680151 0.500000
O O4 0.896125 0.770014 0.972452
O O5 0.301998 0.235788 0.487183
O O6 0.218061 0.000000 0.814611
O O7 0.225681 0.256225 0.937186
O O8 0.595808 0.000000 0.847694
O O9 0.500000 0.239228 0.000000
O O10 0.593766 0.236450 0.016994
O O11 0.787582 0.500000 0.869744
O O12 0.696923 0.252914 0.999588
O O13 0.500000 0.767678 0.500000
O O14 0.605409 0.000000 0.156088
#
# Coordination Sequence:
#
# PCOD9143117 Si02
#       5
#     4   4   4   4   4
#     4   8  16  31  49  71 102 137 170 206 248 294
#     4  10  18  30  53  80 103 132 170 211 253 297
#     4   9  18  33  52  76 104 130 162 208 258 304
#     4  10  20  34  52  75 105 138 170 207 250 298
#     4  10  20  35  56  78 100 131 170 211 255 301
#
# _framework density 18.282101000000001
#
# number of rings (size 3 to 8) (size 9 to 14) (size 15 to 20)
#    0.000    2.600    0.000    3.600    0.000    8.000 
#    0.000    3.000    0.000   10.200    0.000    0.000 
#    0.000    0.000    0.000    0.000    0.000    0.000 
#
# Total GULP energy -111540.488473 kJ/mol
# GULP energy per Si atom -5577.024424 kJ/mol
# Density = 1.824049 g / cm^3
# Si number density = 18.282101 Si / 1000 Ang^3
#
#
#
# Elastic Constant Matrix: (Units=GPa)
#
#
# Indices 1 2 3 4 5 6 
#
# 1 146.2426 27.7510 103.7297 0.0000 -24.4300 0.0000
# 2 27.7510 22.8067 35.0834 0.0000 -5.2610 0.0000
# 3 103.7297 35.0834 184.5185 0.0000 -21.1753 0.0000
# 4 0.0000 0.0000 0.0000 -28.2557 0.0000 -25.3603
# 5 -24.4300 -5.2610 -21.1753 0.0000 32.8051 0.0000
# 6 0.0000 0.0000 0.0000 -25.3603 0.0000 15.1687
#
#
#
# Elastic Compliance Matrix: (Units=1/GPa)
#
#
# Indices 1 2 3 4 5 6 
#
# 1 0.012618 -0.005898 -0.005402 0.000000 0.004964 0.000000
# 2 -0.005898 0.064923 -0.009005 0.000000 0.000207 0.000000
# 3 -0.005402 -0.009005 0.010305 0.000000 0.001184 0.000000
# 4 0.000000 0.000000 0.000000 -0.014153 0.000000 -0.023663
# 5 0.004964 0.000207 0.001184 0.000000 0.034977 0.000000
# 6 0.000000 0.000000 0.000000 -0.023663 0.000000 0.026364
#
#
# Mechanical properties :
#
#
# Convention : Reuss Voigt Hill
#
# Bulk Modulus (GPa) = 21.17058 76.29956 48.73507
# Shear Modulus (GPa) = 26.12464 16.41053 21.26759
#
# Velocity S-wave (km/s) = 3.78428 2.99929 3.41442
# Velocity P-wave (km/s) = 5.54071 7.33618 6.50073
#
# Compressibility (1/GPa) = 0.04723536
#
# Stress axis : x y z
#
# Youngs Moduli (GPa) = 79.24931 15.40281 97.04415
#
# Poissons Ratio (x) = 0.09085 0.52428
# Poissons Ratio (y) = 0.46744 0.87384
# Poissons Ratio (z) = 0.42814 0.13870
#
# Static dielectric constant tensor:
#      x y z
#    x 1.612650 0.000000 -0.016090 
#    y 0.000000 1.620240 0.000000 
#    z -0.016090 0.000000 1.633180 
# 
# From -- ./inp_files/22128.got.cif
#   From: 2010.05.17/outbox.cif.g08.bks.cpg/sg10_12_cif.got.tgz:22128.got - 2010.06.03 11:33:40.
