data_PCOD9143626
_publ_section_title
;
Structure prediction by ZEFSAII (Michael W. Deem and Ramdas Pophale) SiO2 
 PCOD9143626
Probable space group: P 2/M
;
_chemical_formula_sum "Si O2"
_cell_formula_units_Z 24
_cell_length_a 13.983657
_cell_length_b 14.932327
_cell_length_c 16.028651
_cell_angle_alpha 90.000000
_cell_angle_beta 18.246265
_cell_angle_gamma 90.000000
_cell_volume 1047.926749
_symmetry_space_group_name_H-M "P 2/M"
_symmetry_group_IT_number 10
_symmetry_cell_setting 'monoclinic'
loop_
_space_group_symop_operation_xyz
x,y,z
-x,y,-z
-x,-y,-z
x,-y,z
loop_
_atom_site_type_symbol
_atom_site_label
_atom_site_fract_x
_atom_site_fract_y
_atom_site_fract_z
Si Si1 0.175161 0.396691 0.778827
Si Si2 0.133239 0.850844 0.303571
Si Si3 0.259189 0.103805 0.849951
Si Si4 0.807183 0.356418 0.921427
Si Si5 0.946946 0.153381 0.279709
Si Si6 0.914939 0.356979 0.479804
O O1 0.500000 0.351172 0.500000
O O2 0.234282 0.500000 0.755470
O O3 0.985755 0.397085 0.851324
O O4 0.000000 0.352710 0.000000
O O5 0.000000 0.890462 0.500000
O O6 0.022153 0.890016 0.307465
O O7 0.010324 0.748134 0.404295
O O8 0.500000 0.850404 0.000000
O O9 0.580009 0.155394 0.577141
O O10 0.331849 0.000000 0.770122
O O11 0.000000 0.134316 0.000000
O O12 0.109597 0.108978 0.065698
O O13 0.907034 0.252449 0.839473
O O14 0.911460 0.393374 0.745173
O O15 0.446738 0.364913 0.231971
O O16 0.000000 0.394628 0.500000
#
# Coordination Sequence:
#
# PCOD9143626 Si02
#       6
#     4   4   4   4   4   4
#     4  10  22  40  59  80 113 156 190 221 276 340
#     4  10  18  32  54  82 114 144 177 220 276 335
#     4  11  24  41  58  77 108 150 186 221 279 344
#     4  11  21  34  57  88 113 140 186 236 274 313
#     4  11  21  36  59  86 109 139 186 235 274 314
#     4  10  18  32  53  82 117 147 179 222 275 332
#
# _framework density 22.902363999999999
#
# number of rings (size 3 to 8) (size 9 to 14) (size 15 to 20)
#    0.000    1.500    0.000    9.500    0.000    3.333 
#    0.000    0.000    0.000   13.000    0.000    0.000 
#    0.000    0.000    0.000    0.000    0.000    0.000 
#
# Total GULP energy -134172.795149 kJ/mol
# GULP energy per Si atom -5590.533131 kJ/mol
# Density = 2.285024 g / cm^3
# Si number density = 22.902364 Si / 1000 Ang^3
#
#
#
# Elastic Constant Matrix: (Units=GPa)
#
#
# Indices 1 2 3 4 5 6 
#
# 1 88.2565 -11.5882 30.4972 0.0000 10.5002 0.0000
# 2 -11.5882 46.1354 -13.1230 0.0000 4.9346 0.0000
# 3 30.4972 -13.1230 172.4280 0.0000 -1.3511 0.0000
# 4 0.0000 0.0000 0.0000 -15.6576 0.0000 -15.2527
# 5 10.5002 4.9346 -1.3511 0.0000 50.0661 0.0000
# 6 0.0000 0.0000 0.0000 -15.2527 0.0000 41.6064
#
#
#
# Elastic Compliance Matrix: (Units=1/GPa)
#
#
# Indices 1 2 3 4 5 6 
#
# 1 0.012791 0.002950 -0.002061 0.000000 -0.003029 0.000000
# 2 0.002950 0.023067 0.001211 0.000000 -0.002860 0.000000
# 3 -0.002061 0.001211 0.006260 0.000000 0.000482 0.000000
# 4 0.000000 0.000000 0.000000 -0.047061 0.000000 -0.017252
# 5 -0.003029 -0.002860 0.000482 0.000000 0.020904 0.000000
# 6 0.000000 0.000000 0.000000 -0.017252 0.000000 0.017710
#
#
# Mechanical properties :
#
#
# Convention : Reuss Voigt Hill
#
# Bulk Modulus (GPa) = 21.58988 35.37686 28.48337
# Shear Modulus (GPa) = 111.33430 35.27190 73.30310
#
# Velocity S-wave (km/s) = 6.97984 3.92867 5.66359
# Velocity P-wave (km/s) = 8.62583 6.00496 7.43184
#
# Compressibility (1/GPa) = 0.04631801
#
# Stress axis : x y z
#
# Youngs Moduli (GPa) = 78.18174 43.35236 159.74190
#
# Poissons Ratio (x) = -0.12790 0.32930
# Poissons Ratio (y) = -0.23066 -0.19350
# Poissons Ratio (z) = 0.16117 -0.05251
#
# Static dielectric constant tensor:
#      x y z
#    x 1.832850 0.000000 -0.010490 
#    y 0.000000 1.923090 0.000000 
#    z -0.010490 0.000000 1.751600 
# 
# From -- ./inp_files/65468.got.cif
#   From: 2010.05.17/outbox.cif.g08.bks.cpg/sg10_33_cif.got.tgz:65468.got - 2010.06.03 11:33:40.
