data_PCOD9143378
_publ_section_title
;
Structure prediction by ZEFSAII (Michael W. Deem and Ramdas Pophale) SiO2 
 PCOD9143378
Probable space group: P 2/M
;
_chemical_formula_sum "Si O2"
_cell_formula_units_Z 32
_cell_length_a 20.798996
_cell_length_b 8.638813
_cell_length_c 25.838727
_cell_angle_alpha 90.000000
_cell_angle_beta 156.933191
_cell_angle_gamma 90.000000
_cell_volume 1819.016553
_symmetry_space_group_name_H-M "P 2/M"
_symmetry_group_IT_number 10
_symmetry_cell_setting 'monoclinic'
loop_
_space_group_symop_operation_xyz
x,y,z
-x,y,-z
-x,-y,-z
x,-y,z
loop_
_atom_site_type_symbol
_atom_site_label
_atom_site_fract_x
_atom_site_fract_y
_atom_site_fract_z
Si Si1 0.153658 0.311542 0.649258
Si Si2 0.447521 0.683947 0.586506
Si Si3 0.171468 0.311229 0.883394
Si Si4 0.857117 0.313616 0.713932
Si Si5 0.342492 0.816271 0.615119
Si Si6 0.343192 0.820621 0.345222
Si Si7 0.026331 0.687713 0.665836
Si Si8 0.466761 0.312290 0.815601
O O1 0.153754 0.500000 0.649009
O O2 0.121905 0.263588 0.684718
O O3 0.323418 0.261522 0.748928
O O4 0.000000 0.261933 0.500000
O O5 0.442362 0.500000 0.590175
O O6 0.283828 0.728667 0.432468
O O7 0.439942 0.766166 0.635924
O O8 0.601587 0.729935 0.664963
O O9 0.171480 0.500000 0.883339
O O10 0.114931 0.262810 0.784240
O O11 0.031853 0.262892 0.820837
O O12 0.353440 0.260488 0.033177
O O13 0.854684 0.500000 0.715944
O O14 0.805350 0.245430 0.730804
O O15 0.422115 0.747040 0.725733
O O16 0.158436 0.749666 0.473378
O O17 0.335515 0.000000 0.613717
O O18 0.500000 0.808432 0.500000
O O19 0.317704 0.000000 0.314098
O O20 0.017433 0.500000 0.659501
O O21 0.465435 0.500000 0.813587
#
# Coordination Sequence:
#
# PCOD9143378 Si02
#       8
#     4   4   4   4   4   4   4   4
#     4   9  16  28  53  82 105 135 176 222 269 317
#     4  10  18  31  53  77 104 137 174 222 268 309
#     4   9  18  32  54  81 107 138 179 223 265 317
#     4   9  16  29  49  75 105 139 175 212 260 316
#     4  12  23  34  51  78 107 140 181 222 266 318
#     4   9  17  28  44  74 111 141 172 212 257 310
#     4  10  18  34  56  79 106 137 177 223 269 318
#     4  10  20  36  55  77 106 141 179 221 271 320
#
# _framework density 17.591922
#
# number of rings (size 3 to 8) (size 9 to 14) (size 15 to 20)
#    0.000    2.250    2.500    1.875    0.000    2.500 
#    0.000    5.000    0.000    0.750    0.000    7.000 
#    0.000    0.000    0.000    0.000    0.000    0.000 
#
# Total GULP energy -178503.676302 kJ/mol
# GULP energy per Si atom -5578.239884 kJ/mol
# Density = 1.755188 g / cm^3
# Si number density = 17.591922 Si / 1000 Ang^3
#
#
#
# Elastic Constant Matrix: (Units=GPa)
#
#
# Indices 1 2 3 4 5 6 
#
# 1 155.9551 25.7504 83.4924 0.0000 17.2118 0.0000
# 2 25.7504 19.9143 19.3086 0.0000 0.4147 0.0000
# 3 83.4924 19.3086 127.1312 0.0000 6.4713 0.0000
# 4 0.0000 0.0000 0.0000 -0.8499 0.0000 -4.6941
# 5 17.2118 0.4147 6.4713 0.0000 25.3408 0.0000
# 6 0.0000 0.0000 0.0000 -4.6941 0.0000 1.0244
#
#
#
# Elastic Compliance Matrix: (Units=1/GPa)
#
#
# Indices 1 2 3 4 5 6 
#
# 1 0.011922 -0.009389 -0.006078 0.000000 -0.006392 0.000000
# 2 -0.009389 0.066326 -0.004232 0.000000 0.006373 0.000000
# 3 -0.006078 -0.004232 0.012449 0.000000 0.001019 0.000000
# 4 0.000000 0.000000 0.000000 -0.044722 0.000000 -0.204937
# 5 -0.006392 0.006373 0.001019 0.000000 0.043439 0.000000
# 6 0.000000 0.000000 0.000000 -0.204937 0.000000 0.037104
#
#
# Mechanical properties :
#
#
# Convention : Reuss Voigt Hill
#
# Bulk Modulus (GPa) = 19.49374 62.23370 40.86372
# Shear Modulus (GPa) = 27.32018 16.73301 22.02660
#
# Velocity S-wave (km/s) = 3.94508 3.08746 3.54232
# Velocity P-wave (km/s) = 5.64417 6.93995 6.32533
#
# Compressibility (1/GPa) = 0.05129852
#
# Stress axis : x y z
#
# Youngs Moduli (GPa) = 83.87969 15.07696 80.33071
#
# Poissons Ratio (x) = 0.14156 0.48826
# Poissons Ratio (y) = 0.78757 0.33993
# Poissons Ratio (z) = 0.50984 0.06380
#
# Static dielectric constant tensor:
#      x y z
#    x 1.598860 0.000000 0.012910 
#    y 0.000000 1.588790 0.000000 
#    z 0.012910 0.000000 1.578700 
# 
# From -- ./inp_files/93725.got.cif
#   From: 2010.05.17/outbox.cif.g08.bks.cpg/sg10_47_cif.got.tgz:93725.got - 2010.06.03 11:33:40.
