data_PCOD9143422
_publ_section_title
;
Structure prediction by ZEFSAII (Michael W. Deem and Ramdas Pophale) SiO2 
 PCOD9143422
Probable space group: P 2/M
;
_chemical_formula_sum "Si O2"
_cell_formula_units_Z 28
_cell_length_a 18.128096
_cell_length_b 7.408173
_cell_length_c 16.240034
_cell_angle_alpha 90.000000
_cell_angle_beta 143.715682
_cell_angle_gamma 90.000000
_cell_volume 1290.683482
_symmetry_space_group_name_H-M "P 2/M"
_symmetry_group_IT_number 10
_symmetry_cell_setting 'monoclinic'
loop_
_space_group_symop_operation_xyz
x,y,z
-x,y,-z
-x,-y,-z
x,-y,z
loop_
_atom_site_type_symbol
_atom_site_label
_atom_site_fract_x
_atom_site_fract_y
_atom_site_fract_z
Si Si1 0.679469 0.281586 0.666395
Si Si2 0.515025 0.717400 0.653471
Si Si3 0.952944 0.281876 0.688173
Si Si4 0.373195 0.289113 0.844668
Si Si5 0.951363 0.279866 0.867701
Si Si6 0.675466 0.278520 0.383281
Si Si7 0.898309 0.209791 0.342969
O O1 0.684183 0.500000 0.676051
O O2 0.579418 0.242780 0.506161
O O3 0.642995 0.218198 0.725555
O O4 0.808437 0.223548 0.745238
O O5 0.526076 0.500000 0.672937
O O6 0.443596 0.781767 0.669941
O O7 0.949848 0.500000 0.686627
O O8 0.997161 0.221434 0.818784
O O9 0.810461 0.222741 0.540282
O O10 0.042198 0.228873 0.693602
O O11 0.400156 0.500000 0.855089
O O12 0.341676 0.216167 0.725622
O O13 0.243152 0.280395 0.777729
O O14 0.500000 0.213880 0.000000
O O15 0.961951 0.500000 0.877427
O O16 0.000000 0.218658 0.000000
O O17 0.677616 0.500000 0.387902
O O18 0.000000 0.287848 0.500000
O O19 0.886074 0.000000 0.352786
#
# Coordination Sequence:
#
# PCOD9143422 Si02
#       7
#     4   4   4   4   4   4   4
#     4   8  12  19  32  53  86 124 158 194 243 299
#     4   8  12  19  34  56  85 123 162 197 238 297
#     4  10  18  31  54  78 106 144 182 224 276 327
#     4  10  21  37  56  81 113 144 177 224 282 338
#     4   9  16  26  40  66 104 139 171 214 269 322
#     4   9  15  26  46  70 100 138 175 212 261 325
#     4  11  23  38  58  83 109 142 190 238 279 330
#
# _framework density 21.693933999999999
#
# number of rings (size 3 to 8) (size 9 to 14) (size 15 to 20)
#    0.000    2.714    2.857    1.286    0.000    0.857 
#    2.571    0.000    0.000    0.429    0.000    0.000 
#    0.000    1.143    0.000    0.000    0.000    0.000 
#
# Total GULP energy -155936.689877 kJ/mol
# GULP energy per Si atom -5569.167496 kJ/mol
# Density = 2.164456 g / cm^3
# Si number density = 21.693934 Si / 1000 Ang^3
#
#
#
# Elastic Constant Matrix: (Units=GPa)
#
#
# Indices 1 2 3 4 5 6 
#
# 1 176.2001 -14.7074 44.9231 0.0000 -27.6938 0.0000
# 2 -14.7074 65.0082 2.6940 0.0000 -2.7925 0.0000
# 3 44.9231 2.6940 89.8630 0.0000 -18.5748 0.0000
# 4 0.0000 0.0000 0.0000 -8.7637 0.0000 -23.9948
# 5 -27.6938 -2.7925 -18.5748 0.0000 26.1007 0.0000
# 6 0.0000 0.0000 0.0000 -23.9948 0.0000 427.9117
#
#
#
# Elastic Compliance Matrix: (Units=1/GPa)
#
#
# Indices 1 2 3 4 5 6 
#
# 1 0.007487 0.002072 -0.002482 0.000000 0.006399 0.000000
# 2 0.002072 0.016028 -0.000829 0.000000 0.003323 0.000000
# 3 -0.002482 -0.000829 0.013872 0.000000 0.007149 0.000000
# 4 0.000000 0.000000 0.000000 -0.098920 0.000000 -0.005547
# 5 0.006399 0.003323 0.007149 0.000000 0.050546 0.000000
# 6 0.000000 0.000000 0.000000 -0.005547 0.000000 0.002026
#
#
# Mechanical properties :
#
#
# Convention : Reuss Voigt Hill
#
# Bulk Modulus (GPa) = 28.64745 44.09897 36.37321
# Shear Modulus (GPa) = 969.98585 108.92719 539.45652
#
# Velocity S-wave (km/s) = 21.16822 7.09365 15.78629
# Velocity P-wave (km/s) = 24.71219 9.35228 18.68365
#
# Compressibility (1/GPa) = 0.03490712
#
# Stress axis : x y z
#
# Youngs Moduli (GPa) = 133.56721 62.38905 72.09006
#
# Poissons Ratio (x) = -0.12924 0.17894
# Poissons Ratio (y) = -0.27669 0.05978
# Poissons Ratio (z) = 0.33153 0.05174
#
# Static dielectric constant tensor:
#      x y z
#    x 1.821830 0.000000 0.013200 
#    y 0.000000 1.852900 0.000000 
#    z 0.013200 0.000000 1.809150 
# 
# From -- ./inp_files/68716.got.cif
#   From: 2010.05.17/outbox.cif.g08.bks.cpg/sg10_35_cif.got.tgz:68716.got - 2010.06.03 11:33:40.
