data_PCOD9143513
_publ_section_title
;
Structure prediction by ZEFSAII (Michael W. Deem and Ramdas Pophale) SiO2 
 PCOD9143513
Probable space group: P 2/M
;
_chemical_formula_sum "Si O2"
_cell_formula_units_Z 26
_cell_length_a 13.026402
_cell_length_b 9.160103
_cell_length_c 14.660110
_cell_angle_alpha 90.000000
_cell_angle_beta 55.634990
_cell_angle_gamma 90.000000
_cell_volume 1443.966891
_symmetry_space_group_name_H-M "P 2/M"
_symmetry_group_IT_number 10
_symmetry_cell_setting 'monoclinic'
loop_
_space_group_symop_operation_xyz
x,y,z
-x,y,-z
-x,-y,-z
x,-y,z
loop_
_atom_site_type_symbol
_atom_site_label
_atom_site_fract_x
_atom_site_fract_y
_atom_site_fract_z
Si Si1 0.599744 0.322345 0.187425
Si Si2 0.000000 0.245052 0.000000
Si Si3 0.212042 0.668346 0.757351
Si Si4 0.312299 0.677603 0.336809
Si Si5 0.208988 0.166049 0.036130
Si Si6 0.147939 0.321902 0.589138
Si Si7 0.135733 0.323664 0.258991
O O1 0.607773 0.500000 0.178377
O O2 0.673196 0.271285 0.241601
O O3 0.456081 0.278646 0.260600
O O4 0.677003 0.253621 0.065945
O O5 0.908696 0.327530 0.116326
O O6 0.097045 0.165301 0.017966
O O7 0.243470 0.500000 0.724644
O O8 0.183247 0.733145 0.672725
O O9 0.311346 0.500000 0.339269
O O10 0.241310 0.727658 0.463549
O O11 0.233963 0.720301 0.287074
O O12 0.164513 0.248578 0.148697
O O13 0.243712 0.000000 0.039051
O O14 0.152091 0.500000 0.588397
O O15 0.004675 0.285026 0.641255
O O16 0.141133 0.500000 0.245289
#
# Coordination Sequence:
#
# PCOD9143513 Si02
#       7
#     4   2   4   4   4   4   4
#     4   9  19  34  51  76 106 139 170 207 253 304
#     4  10  18  32  50  74 101 138 163 206 257 314
#     4   9  16  26  48  80 109 131 163 210 257 298
#     4   9  18  32  51  75 106 139 174 208 247 300
#     4  11  22  35  53  77 103 133 170 214 259 308
#     4   9  16  28  50  81 106 132 169 213 255 295
#     4  10  19  33  54  79 104 135 170 212 255 300
#
# _framework density 18.005953000000002
#
# number of rings (size 3 to 8) (size 9 to 14) (size 15 to 20)
#    0.000    2.462    1.538    1.385    0.000    4.308 
#    0.000    6.923    0.000    2.769    0.000    2.154 
#    0.000    0.000    0.000    0.000    0.000    0.000 
#
# Total GULP energy -144835.153920 kJ/mol
# GULP energy per Si atom -5570.582843 kJ/mol
# Density = 1.796497 g / cm^3
# Si number density = 18.005953 Si / 1000 Ang^3
#
#
#
# Elastic Constant Matrix: (Units=GPa)
#
#
# Indices 1 2 3 4 5 6 
#
# 1 108.2490 19.7316 86.0171 0.0000 -20.1287 0.0000
# 2 19.7316 21.9111 20.5354 0.0000 -3.5562 0.0000
# 3 86.0171 20.5354 136.2172 0.0000 -11.4188 0.0000
# 4 0.0000 0.0000 0.0000 -5.2508 0.0000 2.2515
# 5 -20.1287 -3.5562 -11.4188 0.0000 31.0572 0.0000
# 6 0.0000 0.0000 0.0000 2.2515 0.0000 4.4727
#
#
#
# Elastic Compliance Matrix: (Units=1/GPa)
#
#
# Indices 1 2 3 4 5 6 
#
# 1 0.021516 -0.006875 -0.011811 0.000000 0.008815 0.000000
# 2 -0.006875 0.055663 -0.004013 0.000000 0.000442 0.000000
# 3 -0.011811 -0.004013 0.015193 0.000000 -0.002529 0.000000
# 4 0.000000 0.000000 0.000000 -0.156636 0.000000 0.078850
# 5 0.008815 0.000442 -0.002529 0.000000 0.037033 0.000000
# 6 0.000000 0.000000 0.000000 0.078850 0.000000 0.183886
#
#
# Mechanical properties :
#
#
# Convention : Reuss Voigt Hill
#
# Bulk Modulus (GPa) = 21.28889 57.66061 39.47475
# Shear Modulus (GPa) = 22.96628 15.39536 19.18082
#
# Velocity S-wave (km/s) = 3.57526 2.92724 3.26736
# Velocity P-wave (km/s) = 5.37515 6.59678 6.01705
#
# Compressibility (1/GPa) = 0.04697285
#
# Stress axis : x y z
#
# Youngs Moduli (GPa) = 46.47782 17.96518 65.82185
#
# Poissons Ratio (x) = 0.12352 0.77742
# Poissons Ratio (y) = 0.31955 0.26413
# Poissons Ratio (z) = 0.54895 0.07209
#
# Static dielectric constant tensor:
#      x y z
#    x 1.629650 0.000000 0.011970 
#    y 0.000000 1.602230 0.000000 
#    z 0.011970 0.000000 1.598660 
# 
# From -- ./inp_files/49012.got.cif
#   From: 2010.05.17/outbox.cif.g08.bks.cpg/sg10_25_cif.got.tgz:49012.got - 2010.06.03 11:33:40.
