data_PCOD9143875
_publ_section_title
;
Structure prediction by ZEFSAII (Michael W. Deem and Ramdas Pophale) SiO2 
 PCOD9143875
Probable space group: P 2/M
;
_chemical_formula_sum "Si O2"
_cell_formula_units_Z 32
_cell_length_a 20.426939
_cell_length_b 8.110669
_cell_length_c 14.862168
_cell_angle_alpha 90.000000
_cell_angle_beta 45.710451
_cell_angle_gamma 90.000000
_cell_volume 1762.568624
_symmetry_space_group_name_H-M "P 2/M"
_symmetry_group_IT_number 10
_symmetry_cell_setting 'monoclinic'
loop_
_space_group_symop_operation_xyz
x,y,z
-x,y,-z
-x,-y,-z
x,-y,z
loop_
_atom_site_type_symbol
_atom_site_label
_atom_site_fract_x
_atom_site_fract_y
_atom_site_fract_z
Si Si1 0.770284 0.301192 0.864419
Si Si2 0.160998 0.800072 0.532204
Si Si3 0.313310 0.697247 0.241328
Si Si4 0.024549 0.199274 0.374962
Si Si5 0.601696 0.802674 0.379257
Si Si6 0.456324 0.804992 0.243322
Si Si7 0.698133 0.200549 0.461730
Si Si8 0.356523 0.307461 0.860721
O O1 0.762929 0.500000 0.871866
O O2 0.711994 0.242173 0.833949
O O3 0.875679 0.257062 0.749454
O O4 0.725722 0.238555 0.999521
O O5 0.228330 0.744904 0.387344
O O6 0.209119 0.743221 0.578341
O O7 0.058376 0.744839 0.609693
O O8 0.161267 0.000000 0.531363
O O9 0.321843 0.500000 0.231944
O O10 0.404055 0.768412 0.200701
O O11 0.000000 0.254040 0.500000
O O12 0.025468 0.000000 0.374666
O O13 0.500000 0.737946 0.500000
O O14 0.672476 0.740330 0.386993
O O15 0.628353 0.769334 0.251443
O O16 0.597583 0.000000 0.394158
O O17 0.385048 0.756036 0.390896
O O18 0.551251 0.715366 0.169558
O O19 0.472214 0.000000 0.236532
O O20 0.701865 0.000000 0.456619
O O21 0.340623 0.500000 0.860781
#
# Coordination Sequence:
#
# PCOD9143875 Si02
#       8
#     4   4   4   4   4   4   4   4
#     4  10  23  38  51  71 107 147 178 212 264 319
#     4   9  17  31  51  78 108 136 166 212 267 311
#     4  10  19  32  50  74 103 140 178 212 250 309
#     4  10  19  32  54  82 106 131 175 227 262 302
#     4  10  18  33  55  79 103 133 175 216 262 318
#     4  10  19  34  53  75 104 140 174 213 259 308
#     4   8  15  29  51  75 103 133 162 204 259 315
#     4  11  23  37  51  74 106 141 179 219 261 312
#
# _framework density 18.155322999999999
#
# number of rings (size 3 to 8) (size 9 to 14) (size 15 to 20)
#    0.000    2.250    2.500    1.875    0.000    3.000 
#    0.000    3.125    0.000    0.750    0.000    5.250 
#    0.000    0.000    0.000    0.000    0.000    0.000 
#
# Total GULP energy -178500.339689 kJ/mol
# GULP energy per Si atom -5578.135615 kJ/mol
# Density = 1.811400 g / cm^3
# Si number density = 18.155323 Si / 1000 Ang^3
#
#
#
# Elastic Constant Matrix: (Units=GPa)
#
#
# Indices 1 2 3 4 5 6 
#
# 1 133.3336 3.9589 68.5217 0.0000 11.2820 0.0000
# 2 3.9589 5.1768 -2.6689 0.0000 3.9852 0.0000
# 3 68.5217 -2.6689 102.7684 0.0000 8.9463 0.0000
# 4 0.0000 0.0000 0.0000 20.2893 0.0000 -2.1913
# 5 11.2820 3.9852 8.9463 0.0000 19.7044 0.0000
# 6 0.0000 0.0000 0.0000 -2.1913 0.0000 20.0987
#
#
#
# Elastic Compliance Matrix: (Units=1/GPa)
#
#
# Indices 1 2 3 4 5 6 
#
# 1 0.012319 -0.013459 -0.008523 0.000000 -0.000461 0.000000
# 2 -0.013459 0.254650 0.020198 0.000000 -0.052967 0.000000
# 3 -0.008523 0.020198 0.016522 0.000000 -0.006706 0.000000
# 4 0.000000 0.000000 0.000000 0.049874 0.000000 0.005438
# 5 -0.000461 -0.052967 -0.006706 0.000000 0.064772 0.000000
# 6 0.000000 0.000000 0.000000 0.005438 0.000000 0.050347
#
#
# Mechanical properties :
#
#
# Convention : Reuss Voigt Hill
#
# Bulk Modulus (GPa) = 3.57242 42.32249 22.94746
# Shear Modulus (GPa) = 9.16827 23.44963 16.30895
#
# Velocity S-wave (km/s) = 2.24964 3.59780 3.00042
# Velocity P-wave (km/s) = 2.95293 6.37345 4.96692
#
# Compressibility (1/GPa) = 0.27992193
#
# Stress axis : x y z
#
# Youngs Moduli (GPa) = 81.17721 3.92696 60.52633
#
# Poissons Ratio (x) = 0.05285 0.51586
# Poissons Ratio (y) = 1.09259 -1.22252
# Poissons Ratio (z) = 0.69187 -0.07932
#
# Static dielectric constant tensor:
#      x y z
#    x 1.648350 0.000000 0.008740 
#    y 0.000000 1.640030 0.000000 
#    z 0.008740 0.000000 1.603840 
# 
# From -- ./inp_files/69951.got.cif
#   From: 2010.05.17/outbox.cif.g08.bks.cpg/sg10_35_cif.got.tgz:69951.got - 2010.06.03 11:33:40.
