data_PCOD9143074
_publ_section_title
;
Structure prediction by ZEFSAII (Michael W. Deem and Ramdas Pophale) SiO2 
 PCOD9143074
Probable space group: P 2/M
;
_chemical_formula_sum "Si O2"
_cell_formula_units_Z 24
_cell_length_a 13.442229
_cell_length_b 8.830197
_cell_length_c 12.033805
_cell_angle_alpha 90.000000
_cell_angle_beta 132.900657
_cell_angle_gamma 90.000000
_cell_volume 1046.340624
_symmetry_space_group_name_H-M "P 2/M"
_symmetry_group_IT_number 10
_symmetry_cell_setting 'monoclinic'
loop_
_space_group_symop_operation_xyz
x,y,z
-x,y,-z
-x,-y,-z
x,-y,z
loop_
_atom_site_type_symbol
_atom_site_label
_atom_site_fract_x
_atom_site_fract_y
_atom_site_fract_z
Si Si1 0.223168 0.818864 0.987732
Si Si2 0.500951 0.678294 0.776052
Si Si3 0.323227 0.175491 0.819443
Si Si4 0.359017 0.682972 0.442842
Si Si5 0.129581 0.334722 0.521282
Si Si6 0.063582 0.323410 0.211725
O O1 0.255232 0.769320 0.883228
O O2 0.079270 0.756006 0.921590
O O3 0.218912 0.000000 0.987447
O O4 0.357712 0.756870 0.150119
O O5 0.526345 0.500000 0.801632
O O6 0.449146 0.742454 0.854160
O O7 0.386544 0.706071 0.595070
O O8 0.211335 0.199693 0.638907
O O9 0.355018 0.000000 0.858629
O O10 0.500000 0.741460 0.500000
O O11 0.355211 0.500000 0.422167
O O12 0.212352 0.739464 0.289180
O O13 0.203153 0.500000 0.587296
O O14 0.081660 0.317564 0.359157
O O15 0.000000 0.346755 0.500000
O O16 0.053406 0.500000 0.171252
#
# Coordination Sequence:
#
# PCOD9143074 Si02
#       6
#     4   4   4   4   4   4
#     4  11  24  38  53  82 122 159 190 225 275 337
#     4  11  22  38  60  85 113 151 192 234 283 332
#     4  11  22  34  52  80 118 158 192 226 273 332
#     4   9  19  38  64  90 111 135 182 245 295 336
#     4  10  18  30  51  80 113 146 190 237 274 323
#     4  10  19  35  59  85 112 146 189 236 283 333
#
# _framework density 22.937080000000002
#
# number of rings (size 3 to 8) (size 9 to 14) (size 15 to 20)
#    0.000    1.667    3.333    2.000    0.000    5.000 
#    0.000    0.833    0.000    9.500    0.000    0.000 
#    0.000    0.000    0.000    0.000    0.000    0.000 
#
# Total GULP energy -133927.080974 kJ/mol
# GULP energy per Si atom -5580.295041 kJ/mol
# Density = 2.288487 g / cm^3
# Si number density = 22.937080 Si / 1000 Ang^3
#
#
#
# Elastic Constant Matrix: (Units=GPa)
#
#
# Indices 1 2 3 4 5 6 
#
# 1 114.2502 22.2350 30.0855 0.0000 40.7861 0.0000
# 2 22.2350 43.9679 31.8184 0.0000 25.7498 0.0000
# 3 30.0855 31.8184 104.7689 0.0000 46.5692 0.0000
# 4 0.0000 0.0000 0.0000 20.7043 0.0000 8.0025
# 5 40.7861 25.7498 46.5692 0.0000 55.3099 0.0000
# 6 0.0000 0.0000 0.0000 8.0025 0.0000 0.0172
#
#
#
# Elastic Compliance Matrix: (Units=1/GPa)
#
#
# Indices 1 2 3 4 5 6 
#
# 1 0.011991 -0.001540 0.001016 0.000000 -0.008981 0.000000
# 2 -0.001540 0.033079 -0.005215 0.000000 -0.009874 0.000000
# 3 0.001016 -0.005215 0.016126 0.000000 -0.011899 0.000000
# 4 0.000000 0.000000 0.000000 -0.000270 0.000000 0.125659
# 5 -0.008981 -0.009874 -0.011899 0.000000 0.039318 0.000000
# 6 0.000000 0.000000 0.000000 0.125659 0.000000 -0.325108
#
#
# Mechanical properties :
#
#
# Convention : Reuss Voigt Hill
#
# Bulk Modulus (GPa) = 20.11305 47.91831 34.01568
# Shear Modulus (GPa) = -25.40474 27.12949 0.86237
#
# Velocity S-wave (km/s) = -3.33165 3.44289 0.61383
# Velocity P-wave (km/s) = 2.45194 6.06145 3.91977
#
# Compressibility (1/GPa) = 0.04971896
#
# Stress axis : x y z
#
# Youngs Moduli (GPa) = 83.39660 30.23052 62.01230
#
# Poissons Ratio (x) = 0.04654 -0.06303
# Poissons Ratio (y) = 0.12840 0.32341
# Poissons Ratio (z) = -0.08476 0.15766
#
# Static dielectric constant tensor:
#      x y z
#    x 1.960550 0.000000 0.018430 
#    y 0.000000 1.814140 0.000000 
#    z 0.018430 0.000000 1.905960 
# 
# From -- ./inp_files/66683.got.cif
#   From: 2010.05.17/outbox.cif.g08.bks.cpg/sg10_34_cif.got.tgz:66683.got - 2010.06.03 11:33:40.
