data_PCOD9143517
_publ_section_title
;
Structure prediction by ZEFSAII (Michael W. Deem and Ramdas Pophale) SiO2 
 PCOD9143517
Probable space group: P 2/M
;
_chemical_formula_sum "Si O2"
_cell_formula_units_Z 30
_cell_length_a 20.096902
_cell_length_b 10.089747
_cell_length_c 9.067676
_cell_angle_alpha 90.000000
_cell_angle_beta 75.272669
_cell_angle_gamma 90.000000
_cell_volume 1778.269962
_symmetry_space_group_name_H-M "P 2/M"
_symmetry_group_IT_number 10
_symmetry_cell_setting 'monoclinic'
loop_
_space_group_symop_operation_xyz
x,y,z
-x,y,-z
-x,-y,-z
x,-y,z
loop_
_atom_site_type_symbol
_atom_site_label
_atom_site_fract_x
_atom_site_fract_y
_atom_site_fract_z
Si Si1 0.500000 0.749169 0.000000
Si Si2 0.928560 0.654432 0.133935
Si Si3 0.394579 0.145781 0.825013
Si Si4 0.276477 0.151011 0.132713
Si Si5 0.417631 0.346891 0.555867
Si Si6 0.009035 0.153577 0.669072
Si Si7 0.132157 0.845968 0.065961
Si Si8 0.370131 0.653105 0.255006
O O1 0.541523 0.831250 0.099631
O O2 0.440181 0.669834 0.119340
O O3 0.908802 0.500000 0.169039
O O4 0.943963 0.738768 0.273329
O O5 0.877679 0.741629 0.060748
O O6 0.000000 0.652242 0.000000
O O7 0.393200 0.255107 0.700872
O O8 0.400616 0.000000 0.754971
O O9 0.326441 0.152828 0.962526
O O10 0.199924 0.183112 0.122883
O O11 0.311440 0.252353 0.224728
O O12 0.277225 0.000000 0.190593
O O13 0.500000 0.335894 0.500000
O O14 0.400855 0.500000 0.596602
O O15 0.387608 0.311939 0.413383
O O16 0.935111 0.161078 0.792207
O O17 0.000000 0.178595 0.500000
O O18 0.033520 0.000000 0.673578
O O19 0.136890 0.000000 0.010721
O O20 0.349337 0.500000 0.259212
#
# Coordination Sequence:
#
# PCOD9143517 Si02
#       8
#     2   4   4   4   4   4   4   4
#     4  10  18  32  50  74  96 122 156 208 248 294
#     4   9  17  29  48  75 103 130 163 205 247 287
#     4  10  20  33  50  73  97 124 161 205 250 294
#     4   9  20  36  52  72  99 130 168 208 246 294
#     4  10  20  35  50  71  99 127 158 200 250 304
#     4   9  17  30  51  79 105 131 168 207 245 293
#     4   9  17  33  54  72  98 136 169 202 245 293
#     4  10  20  33  52  73  96 127 165 203 248 299
#
# _framework density 16.870329999999999
#
# number of rings (size 3 to 8) (size 9 to 14) (size 15 to 20)
#    0.000    2.533    1.333    0.800    0.000    5.867 
#    0.000    1.333    0.000    6.400    0.000    0.000 
#    0.000    0.000    0.000    0.000    0.000    0.000 
#
# Total GULP energy -167179.256652 kJ/mol
# GULP energy per Si atom -5572.641888 kJ/mol
# Density = 1.683193 g / cm^3
# Si number density = 16.870330 Si / 1000 Ang^3
#
#
#
# Elastic Constant Matrix: (Units=GPa)
#
#
# Indices 1 2 3 4 5 6 
#
# 1 82.2837 58.5243 24.8372 0.0000 25.8850 0.0000
# 2 58.5243 112.1215 67.1629 0.0000 33.3870 0.0000
# 3 24.8372 67.1629 79.3260 0.0000 31.1332 0.0000
# 4 0.0000 0.0000 0.0000 24.9558 0.0000 1.1647
# 5 25.8850 33.3870 31.1332 0.0000 19.7125 0.0000
# 6 0.0000 0.0000 0.0000 1.1647 0.0000 17.5899
#
#
#
# Elastic Compliance Matrix: (Units=1/GPa)
#
#
# Indices 1 2 3 4 5 6 
#
# 1 0.033920 -0.015586 0.025507 0.000000 -0.058428 0.000000
# 2 -0.015586 0.027710 -0.021555 0.000000 0.007577 0.000000
# 3 0.025507 -0.021555 0.057049 0.000000 -0.087088 0.000000
# 4 0.000000 0.000000 0.000000 0.040195 0.000000 -0.002662
# 5 -0.058428 0.007577 -0.087088 0.000000 0.252161 0.000000
# 6 0.000000 0.000000 0.000000 -0.002662 0.000000 0.057027
#
#
# Mechanical properties :
#
#
# Convention : Reuss Voigt Hill
#
# Bulk Modulus (GPa) = 10.48099 63.86444 37.17272
# Shear Modulus (GPa) = 9.55780 20.66542 15.11161
#
# Velocity S-wave (km/s) = 2.38280 3.50373 2.99616
# Velocity P-wave (km/s) = 3.71436 7.36929 5.83536
#
# Compressibility (1/GPa) = 0.09541082
#
# Stress axis : x y z
#
# Youngs Moduli (GPa) = 29.48142 36.08832 17.52872
#
# Poissons Ratio (x) = 0.56247 -0.44710
# Poissons Ratio (y) = 0.45950 0.37783
# Poissons Ratio (z) = -0.75198 0.77788
#
# Static dielectric constant tensor:
#      x y z
#    x 1.551340 0.000000 0.002940 
#    y 0.000000 1.578210 0.000000 
#    z 0.002940 0.000000 1.532690 
# 
# From -- ./inp_files/33867.got.cif
#   From: 2010.05.17/outbox.cif.g08.bks.cpg/sg10_17_cif.got.tgz:33867.got - 2010.06.03 11:33:40.
