data_PCOD9143264
_publ_section_title
;
Structure prediction by ZEFSAII (Michael W. Deem and Ramdas Pophale) SiO2 
 PCOD9143264
Probable space group: P 2/M
;
_chemical_formula_sum "Si O2"
_cell_formula_units_Z 32
_cell_length_a 22.489963
_cell_length_b 7.495264
_cell_length_c 11.285892
_cell_angle_alpha 90.000000
_cell_angle_beta 130.683140
_cell_angle_gamma 90.000000
_cell_volume 1442.672061
_symmetry_space_group_name_H-M "P 2/M"
_symmetry_group_IT_number 10
_symmetry_cell_setting 'monoclinic'
loop_
_space_group_symop_operation_xyz
x,y,z
-x,y,-z
-x,-y,-z
x,-y,z
loop_
_atom_site_type_symbol
_atom_site_label
_atom_site_fract_x
_atom_site_fract_y
_atom_site_fract_z
Si Si1 0.950120 0.296134 0.827764
Si Si2 0.664585 0.715557 0.910745
Si Si3 0.195618 0.279880 0.500689
Si Si4 0.090048 0.789419 0.860751
Si Si5 0.240149 0.208448 0.199874
Si Si6 0.505562 0.281461 0.369144
Si Si7 0.662428 0.701299 0.451810
Si Si8 0.814239 0.285405 0.247009
O O1 0.933351 0.500000 0.841920
O O2 0.868488 0.216690 0.678085
O O3 0.008372 0.295920 0.790988
O O4 0.000000 0.212699 0.000000
O O5 0.664790 0.500000 0.913254
O O6 0.698558 0.772604 0.827979
O O7 0.574536 0.771996 0.800438
O O8 0.729141 0.777554 0.089062
O O9 0.195246 0.500000 0.497192
O O10 0.283230 0.219835 0.580486
O O11 0.171867 0.223699 0.601661
O O12 0.122080 0.762113 0.769986
O O13 0.082107 0.000000 0.868743
O O14 0.158187 0.723556 0.039369
O O15 0.277203 0.304433 0.359551
O O16 0.231466 0.000000 0.217350
O O17 0.500000 0.225981 0.500000
O O18 0.509690 0.500000 0.377453
O O19 0.583142 0.216918 0.401821
O O20 0.641935 0.500000 0.387666
O O21 0.811852 0.500000 0.246756
#
# Coordination Sequence:
#
# PCOD9143264 Si02
#       8
#     4   4   4   4   4   4   4   4
#     4  10  20  35  55  78 103 130 166 205 249 302
#     4   9  16  29  49  71  97 132 167 198 243 298
#     4   9  19  34  52  75  99 129 170 213 247 285
#     4  10  21  35  52  76 103 132 167 207 253 297
#     4  10  19  30  46  72 103 129 160 205 250 295
#     4   9  15  25  45  76 104 126 161 206 247 292
#     4  10  18  31  51  71 100 136 167 201 249 302
#     4   9  18  34  54  73  98 133 174 210 242 287
#
# _framework density 22.181065
#
# number of rings (size 3 to 8) (size 9 to 14) (size 15 to 20)
#    0.000    2.500    1.250    1.500    0.000    3.250 
#    0.000    6.250    0.000    3.750    0.000    0.000 
#    0.000    5.000    0.000    0.000    0.000    0.000 
#
# Total GULP energy -178637.035536 kJ/mol
# GULP energy per Si atom -5582.407360 kJ/mol
# Density = 2.213058 g / cm^3
# Si number density = 22.181065 Si / 1000 Ang^3
#
#
#
# Elastic Constant Matrix: (Units=GPa)
#
#
# Indices 1 2 3 4 5 6 
#
# 1 133.8119 1.6667 44.7517 0.0000 22.6524 0.0000
# 2 1.6667 66.3421 3.6248 0.0000 -0.4774 0.0000
# 3 44.7517 3.6248 64.3384 0.0000 -0.4266 0.0000
# 4 0.0000 0.0000 0.0000 1.1704 0.0000 -14.9136
# 5 22.6524 -0.4774 -0.4266 0.0000 36.1376 0.0000
# 6 0.0000 0.0000 0.0000 -14.9136 0.0000 69.7285
#
#
#
# Elastic Compliance Matrix: (Units=1/GPa)
#
#
# Indices 1 2 3 4 5 6 
#
# 1 0.011350 0.000097 -0.007948 0.000000 -0.007207 0.000000
# 2 0.000097 0.015122 -0.000919 0.000000 0.000128 0.000000
# 3 -0.007948 -0.000919 0.021158 0.000000 0.005220 0.000000
# 4 0.000000 0.000000 0.000000 -0.495226 0.000000 -0.105919
# 5 -0.007207 0.000128 0.005220 0.000000 0.032253 0.000000
# 6 0.000000 0.000000 0.000000 -0.105919 0.000000 -0.008313
#
#
# Mechanical properties :
#
#
# Convention : Reuss Voigt Hill
#
# Bulk Modulus (GPa) = 33.23292 40.50878 36.87085
# Shear Modulus (GPa) = -12.62351 35.70392 11.54021
#
# Velocity S-wave (km/s) = -2.38819 4.01641 2.28342
# Velocity P-wave (km/s) = 2.72222 6.30961 4.85909
#
# Compressibility (1/GPa) = 0.03009064
#
# Stress axis : x y z
#
# Youngs Moduli (GPa) = 88.10436 66.12853 47.26433
#
# Poissons Ratio (x) = -0.00643 0.37566
# Poissons Ratio (y) = -0.00857 0.04343
# Poissons Ratio (z) = 0.70026 0.06076
#
# Static dielectric constant tensor:
#      x y z
#    x 1.820000 0.000000 0.010890 
#    y 0.000000 1.857280 0.000000 
#    z 0.010890 0.000000 1.804970 
# 
# From -- ./inp_files/55362.got.cif
#   From: 2010.05.17/outbox.cif.g08.bks.cpg/sg10_28_cif.got.tgz:55362.got - 2010.06.03 11:33:40.
