data_PCOD9143096
_publ_section_title
;
Structure prediction by ZEFSAII (Michael W. Deem and Ramdas Pophale) SiO2 
 PCOD9143096
Probable space group: P 2/M
;
_chemical_formula_sum "Si O2"
_cell_formula_units_Z 32
_cell_length_a 23.298194
_cell_length_b 12.684199
_cell_length_c 11.840948
_cell_angle_alpha 90.000000
_cell_angle_beta 26.035272
_cell_angle_gamma 90.000000
_cell_volume 1535.894818
_symmetry_space_group_name_H-M "P 2/M"
_symmetry_group_IT_number 10
_symmetry_cell_setting 'monoclinic'
loop_
_space_group_symop_operation_xyz
x,y,z
-x,y,-z
-x,-y,-z
x,-y,z
loop_
_atom_site_type_symbol
_atom_site_label
_atom_site_fract_x
_atom_site_fract_y
_atom_site_fract_z
Si Si1 0.436204 0.882040 0.263119
Si Si2 0.939393 0.338871 0.721237
Si Si3 0.798068 0.280509 0.308961
Si Si4 0.596106 0.155120 0.424334
Si Si5 0.731592 0.126165 0.772406
Si Si6 0.323201 0.385120 0.688233
Si Si7 0.171281 0.879334 0.145040
Si Si8 0.061660 0.270557 0.718210
O O1 0.315872 0.802400 0.456079
O O2 0.432974 0.890365 0.404058
O O3 0.415066 0.000000 0.253159
O O4 0.586719 0.844185 0.979624
O O5 0.925792 0.213160 0.721055
O O6 0.000000 0.383830 0.500000
O O7 0.028685 0.348785 0.673850
O O8 0.796270 0.378036 0.010914
O O9 0.737169 0.364525 0.329882
O O10 0.861374 0.320611 0.312639
O O11 0.921234 0.233202 0.018614
O O12 0.500000 0.117050 0.500000
O O13 0.589781 0.282202 0.445822
O O14 0.733859 0.124077 0.130186
O O15 0.756918 0.150558 0.862307
O O16 0.845685 0.180971 0.498789
O O17 0.738318 0.000000 0.752146
O O18 0.385274 0.500000 0.585174
O O19 0.126426 0.000000 0.236039
#
# Coordination Sequence:
#
# PCOD9143096 Si02
#       8
#     4   4   4   4   4   4   4   4
#     4  10  20  34  52  80 115 151 189 225 264 319
#     4  10  19  33  54  79 111 144 174 220 282 332
#     4   9  21  39  58  76 103 150 190 230 277 319
#     4  10  18  30  52  78 108 147 182 218 273 326
#     4  10  20  31  51  80 111 149 187 223 264 314
#     4   9  20  37  56  79 104 134 182 235 278 329
#     4  10  19  30  47  78 116 152 185 214 254 318
#     4  10  20  37  54  77 108 142 189 233 267 320
#
# _framework density 20.834758999999998
#
# number of rings (size 3 to 8) (size 9 to 14) (size 15 to 20)
#    0.000    2.250    2.500    1.125    0.000    3.250 
#    0.000    7.500    0.000    0.000    0.000   14.875 
#    0.000    0.000    0.000    0.000    0.000    0.000 
#
# Total GULP energy -178293.403304 kJ/mol
# GULP energy per Si atom -5571.668853 kJ/mol
# Density = 2.078734 g / cm^3
# Si number density = 20.834759 Si / 1000 Ang^3
#
#
#
# Elastic Constant Matrix: (Units=GPa)
#
#
# Indices 1 2 3 4 5 6 
#
# 1 90.0303 5.8150 5.6480 0.0000 10.1814 0.0000
# 2 5.8150 93.4140 8.0153 0.0000 -0.0229 0.0000
# 3 5.6480 8.0153 91.6652 0.0000 11.2099 0.0000
# 4 0.0000 0.0000 0.0000 -3.5046 0.0000 2.7885
# 5 10.1814 -0.0229 11.2099 0.0000 32.6863 0.0000
# 6 0.0000 0.0000 0.0000 2.7885 0.0000 2.1270
#
#
#
# Elastic Compliance Matrix: (Units=1/GPa)
#
#
# Indices 1 2 3 4 5 6 
#
# 1 0.011565 -0.000702 -0.000220 0.000000 -0.003528 0.000000
# 2 -0.000702 0.010832 -0.000972 0.000000 0.000560 0.000000
# 3 -0.000220 -0.000972 0.011481 0.000000 -0.003870 0.000000
# 4 0.000000 0.000000 0.000000 -0.139657 0.000000 0.183094
# 5 -0.003528 0.000560 -0.003870 0.000000 0.033020 0.000000
# 6 0.000000 0.000000 0.000000 0.183094 0.000000 0.230111
#
#
# Mechanical properties :
#
#
# Convention : Reuss Voigt Hill
#
# Bulk Modulus (GPa) = 33.23315 34.89626 34.06470
# Shear Modulus (GPa) = 29.21050 23.30381 26.25715
#
# Velocity S-wave (km/s) = 3.74840 3.34804 3.55386
# Velocity P-wave (km/s) = 5.89232 5.63305 5.76414
#
# Compressibility (1/GPa) = 0.03009044
#
# Stress axis : x y z
#
# Youngs Moduli (GPa) = 86.46453 92.31648 87.09993
#
# Poissons Ratio (x) = 0.06480 0.01915
# Poissons Ratio (y) = 0.06069 0.08470
# Poissons Ratio (z) = 0.01901 0.08977
#
# Static dielectric constant tensor:
#      x y z
#    x 1.700000 0.000000 0.459540 
#    y 0.000000 1.725540 0.000000 
#    z 0.459540 0.000000 -0.543090 
# 
# From -- ./inp_files/56961.got.cif
#   From: 2010.05.17/outbox.cif.g08.bks.cpg/sg10_29_cif.got.tgz:56961.got - 2010.06.03 11:33:40.
