data_PCOD9143238
_publ_section_title
;
Structure prediction by ZEFSAII (Michael W. Deem and Ramdas Pophale) SiO2 
 PCOD9143238
Probable space group: P 2/M
;
_chemical_formula_sum "Si O2"
_cell_formula_units_Z 32
_cell_length_a 5.132699
_cell_length_b 11.495668
_cell_length_c 26.954586
_cell_angle_alpha 90.000000
_cell_angle_beta 95.310039
_cell_angle_gamma 90.000000
_cell_volume 1583.597796
_symmetry_space_group_name_H-M "P 2/M"
_symmetry_group_IT_number 10
_symmetry_cell_setting 'monoclinic'
loop_
_space_group_symop_operation_xyz
x,y,z
-x,y,-z
-x,-y,-z
x,-y,z
loop_
_atom_site_type_symbol
_atom_site_label
_atom_site_fract_x
_atom_site_fract_y
_atom_site_fract_z
Si Si1 0.269630 0.372096 0.035805
Si Si2 0.914260 0.236377 0.443113
Si Si3 0.466042 0.759822 0.313329
Si Si4 0.717195 0.142127 0.792411
Si Si5 0.082999 0.866431 0.058937
Si Si6 0.747301 0.138613 0.145485
Si Si7 0.018015 0.876087 0.653261
Si Si8 0.397889 0.368372 0.407073
O O1 0.289477 0.500000 0.062178
O O2 0.263103 0.248953 0.064483
O O3 0.500000 0.366913 0.000000
O O4 0.000000 0.374504 0.000000
O O5 0.939998 0.131793 0.404709
O O6 0.118035 0.329828 0.423430
O O7 0.000000 0.209626 0.500000
O O8 0.622811 0.287014 0.434097
O O9 0.366326 0.781860 0.256321
O O10 0.283281 0.852094 0.339975
O O11 0.410807 0.649059 0.347426
O O12 0.774954 0.785059 0.320996
O O13 0.521394 0.174402 0.833708
O O14 0.009841 0.170652 0.814711
O O15 0.699916 0.000000 0.782684
O O16 0.841863 0.836393 0.091205
O O17 0.178207 0.000000 0.074045
O O18 0.000000 0.875121 0.000000
O O19 0.735816 0.000000 0.146265
O O20 0.094278 0.000000 0.675901
O O21 0.453053 0.500000 0.421436
#
# Coordination Sequence:
#
# PCOD9143238 Si02
#       8
#     4   4   4   4   4   4   4   4
#     4   9  18  32  50  72  97 129 169 208 246 290
#     4  10  21  34  50  75 102 132 169 202 243 299
#     4  10  20  33  52  75  96 126 168 207 249 303
#     4  10  18  31  50  71  99 130 160 203 255 301
#     4   9  18  33  53  77 107 141 175 213 257 306
#     4   9  19  31  46  72 101 130 164 201 247 301
#     4  10  19  32  50  74 102 128 160 201 244 298
#     4  10  21  36  53  73  98 129 169 215 253 289
#
# _framework density 20.207152000000001
#
# number of rings (size 3 to 8) (size 9 to 14) (size 15 to 20)
#    0.000    2.375    0.000    2.625    0.000    5.000 
#    0.000    3.750    0.000    6.000    0.000    0.000 
#    0.000    0.000    0.000    0.000    0.000    0.000 
#
# Total GULP energy -178203.270027 kJ/mol
# GULP energy per Si atom -5568.852188 kJ/mol
# Density = 2.016116 g / cm^3
# Si number density = 20.207152 Si / 1000 Ang^3
#
#
#
# Elastic Constant Matrix: (Units=GPa)
#
#
# Indices 1 2 3 4 5 6 
#
# 1 83.9674 10.6878 3.2195 0.0000 1.2731 0.0000
# 2 10.6878 70.1305 -4.6258 0.0000 -9.5150 0.0000
# 3 3.2195 -4.6258 88.9448 0.0000 10.2251 0.0000
# 4 0.0000 0.0000 0.0000 5.1614 0.0000 2.2419
# 5 1.2731 -9.5150 10.2251 0.0000 24.6456 0.0000
# 6 0.0000 0.0000 0.0000 2.2419 0.0000 1.5518
#
#
#
# Elastic Compliance Matrix: (Units=1/GPa)
#
#
# Indices 1 2 3 4 5 6 
#
# 1 0.012206 -0.002057 -0.000404 0.000000 -0.001257 0.000000
# 2 -0.002057 0.015395 0.000189 0.000000 0.005972 0.000000
# 3 -0.000404 0.000189 0.011820 0.000000 -0.004810 0.000000
# 4 0.000000 0.000000 0.000000 0.520101 0.000000 -0.751368
# 5 -0.001257 0.005972 -0.004810 0.000000 0.044941 0.000000
# 6 0.000000 0.000000 0.000000 -0.751368 0.000000 1.729871
#
#
# Mechanical properties :
#
#
# Convention : Reuss Voigt Hill
#
# Bulk Modulus (GPa) = 28.67346 29.06730 28.87038
# Shear Modulus (GPa) = 2.12720 21.85585 11.99152
#
# Velocity S-wave (km/s) = 1.02712 3.29232 2.43868
# Velocity P-wave (km/s) = 3.95313 5.37293 4.71676
#
# Compressibility (1/GPa) = 0.03487545
#
# Stress axis : x y z
#
# Youngs Moduli (GPa) = 81.92815 64.95476 84.59962
#
# Poissons Ratio (x) = 0.13364 0.03420
# Poissons Ratio (y) = 0.16856 -0.01596
# Poissons Ratio (z) = 0.03312 -0.01225
#
# Static dielectric constant tensor:
#      x y z
#    x 1.722750 0.000000 0.009960 
#    y 0.000000 1.727460 0.000000 
#    z 0.009960 0.000000 1.749880 
# 
# From -- ./inp_files/87459.got.cif
#   From: 2010.05.17/outbox.cif.g08.bks.cpg/sg10_44_cif.got.tgz:87459.got - 2010.06.03 11:33:40.
