data_PCOD9143582
_publ_section_title
;
Structure prediction by ZEFSAII (Michael W. Deem and Ramdas Pophale) SiO2 
 PCOD9143582
Probable space group: P 2/M
;
_chemical_formula_sum "Si O2"
_cell_formula_units_Z 32
_cell_length_a 20.565222
_cell_length_b 7.502293
_cell_length_c 14.667286
_cell_angle_alpha 90.000000
_cell_angle_beta 133.740303
_cell_angle_gamma 90.000000
_cell_volume 1634.946727
_symmetry_space_group_name_H-M "P 2/M"
_symmetry_group_IT_number 10
_symmetry_cell_setting 'monoclinic'
loop_
_space_group_symop_operation_xyz
x,y,z
-x,y,-z
-x,-y,-z
x,-y,z
loop_
_atom_site_type_symbol
_atom_site_label
_atom_site_fract_x
_atom_site_fract_y
_atom_site_fract_z
Si Si1 0.342779 0.293264 0.550549
Si Si2 0.140094 0.781068 0.864394
Si Si3 0.958253 0.795464 0.776642
Si Si4 0.512708 0.711318 0.614848
Si Si5 0.281849 0.785320 0.144080
Si Si6 0.200221 0.217208 0.255356
Si Si7 0.816043 0.288664 0.486193
Si Si8 0.100076 0.785598 0.621960
O O1 0.358335 0.500000 0.589792
O O2 0.438058 0.214217 0.612120
O O3 0.278628 0.280687 0.399447
O O4 0.279513 0.218032 0.569253
O O5 0.130301 0.721867 0.750622
O O6 0.053663 0.718656 0.839111
O O7 0.137144 0.000000 0.860642
O O8 0.230398 0.725973 0.003589
O O9 0.894811 0.719596 0.794865
O O10 0.895211 0.793125 0.625162
O O11 0.976471 0.000000 0.820856
O O12 0.500000 0.784758 0.500000
O O13 0.493476 0.500000 0.589880
O O14 0.614701 0.732580 0.745540
O O15 0.225831 0.726058 0.178846
O O16 0.279966 0.000000 0.143410
O O17 0.199869 0.000000 0.258512
O O18 0.819553 0.500000 0.508379
O O19 0.835251 0.259387 0.399203
O O20 0.000000 0.719486 0.500000
O O21 0.095016 0.000000 0.621833
#
# Coordination Sequence:
#
# PCOD9143582 Si02
#       8
#     4   4   4   4   4   4   4   4
#     4   9  18  32  49  70  97 127 158 195 243 290
#     4   9  18  32  49  69  98 133 165 197 238 287
#     4   9  16  30  48  67  96 135 168 188 225 292
#     4  10  19  33  53  72  93 129 168 197 235 294
#     4  10  20  32  47  73 103 128 159 205 248 277
#     4   9  17  27  45  72  99 127 161 197 233 278
#     4  10  19  30  48  75 101 121 153 207 252 278
#     4  10  18  32  53  72  94 131 169 197 234 291
#
# _framework density 19.572502
#
# number of rings (size 3 to 8) (size 9 to 14) (size 15 to 20)
#    0.000    2.500    2.500    0.375    0.000    2.000 
#    0.000    3.750    0.000    0.750    0.000    9.625 
#    0.000    0.000    0.000    0.000    0.000    0.000 
#
# Total GULP energy -178509.056375 kJ/mol
# GULP energy per Si atom -5578.408012 kJ/mol
# Density = 1.952795 g / cm^3
# Si number density = 19.572502 Si / 1000 Ang^3
#
#
#
# Elastic Constant Matrix: (Units=GPa)
#
#
# Indices 1 2 3 4 5 6 
#
# 1 157.4149 -1.3841 80.3937 0.0000 8.8062 0.0000
# 2 -1.3841 52.6666 -8.3217 0.0000 1.3472 0.0000
# 3 80.3937 -8.3217 103.4296 0.0000 8.8203 0.0000
# 4 0.0000 0.0000 0.0000 18.3842 0.0000 4.4614
# 5 8.8062 1.3472 8.8203 0.0000 25.1431 0.0000
# 6 0.0000 0.0000 0.0000 4.4614 0.0000 9.4653
#
#
#
# Elastic Compliance Matrix: (Units=1/GPa)
#
#
# Indices 1 2 3 4 5 6 
#
# 1 0.010604 -0.001007 -0.008258 0.000000 -0.000763 0.000000
# 2 -0.001007 0.019392 0.002475 0.000000 -0.001555 0.000000
# 3 -0.008258 0.002475 0.016546 0.000000 -0.003045 0.000000
# 4 0.000000 0.000000 0.000000 0.061420 0.000000 -0.028950
# 5 -0.000763 -0.001555 -0.003045 0.000000 0.041191 0.000000
# 6 0.000000 0.000000 0.000000 -0.028950 0.000000 0.119295
#
#
# Mechanical properties :
#
#
# Convention : Reuss Voigt Hill
#
# Bulk Modulus (GPa) = 30.33727 50.54299 40.44013
# Shear Modulus (GPa) = 17.06401 26.78673 21.92537
#
# Velocity S-wave (km/s) = 2.95589 3.70346 3.35059
# Velocity P-wave (km/s) = 5.21376 6.64583 5.97287
#
# Compressibility (1/GPa) = 0.03296276
#
# Stress axis : x y z
#
# Youngs Moduli (GPa) = 94.30346 51.56820 60.43687
#
# Poissons Ratio (x) = 0.05191 0.49910
# Poissons Ratio (y) = 0.09493 -0.14960
# Poissons Ratio (z) = 0.77878 -0.12765
#
# Static dielectric constant tensor:
#      x y z
#    x 1.715250 0.000000 0.008090 
#    y 0.000000 1.861890 0.000000 
#    z 0.008090 0.000000 1.645380 
# 
# From -- ./inp_files/65998.got.cif
#   From: 2010.05.17/outbox.cif.g08.bks.cpg/sg10_33_cif.got.tgz:65998.got - 2010.06.03 11:33:40.
