data_PCOD9143206
_publ_section_title
;
Structure prediction by ZEFSAII (Michael W. Deem and Ramdas Pophale) SiO2 
 PCOD9143206
Probable space group: P 2/M
;
_chemical_formula_sum "Si O2"
_cell_formula_units_Z 32
_cell_length_a 27.251579
_cell_length_b 8.594160
_cell_length_c 14.957523
_cell_angle_alpha 90.000000
_cell_angle_beta 34.846891
_cell_angle_gamma 90.000000
_cell_volume 2001.630590
_symmetry_space_group_name_H-M "P 2/M"
_symmetry_group_IT_number 10
_symmetry_cell_setting 'monoclinic'
loop_
_space_group_symop_operation_xyz
x,y,z
-x,y,-z
-x,-y,-z
x,-y,z
loop_
_atom_site_type_symbol
_atom_site_label
_atom_site_fract_x
_atom_site_fract_y
_atom_site_fract_z
Si Si1 0.084637 0.312382 0.429722
Si Si2 0.132005 0.319671 0.054082
Si Si3 0.912242 0.188251 0.182452
Si Si4 0.238786 0.680974 0.712033
Si Si5 0.764403 0.687819 0.920684
Si Si6 0.589957 0.312624 0.261207
Si Si7 0.596662 0.815576 0.450423
Si Si8 0.051118 0.817937 0.673839
O O1 0.083934 0.500000 0.425834
O O2 0.172343 0.254952 0.251621
O O3 0.079739 0.263511 0.539859
O O4 0.000000 0.259454 0.500000
O O5 0.102064 0.500000 0.108196
O O6 0.186036 0.280996 0.060950
O O7 0.050827 0.209448 0.167073
O O8 0.190436 0.309640 0.879680
O O9 0.827766 0.246942 0.258535
O O10 0.913241 0.240763 0.284297
O O11 0.913441 0.000000 0.179685
O O12 0.000000 0.240056 0.000000
O O13 0.253783 0.500000 0.669058
O O14 0.328991 0.766088 0.592502
O O15 0.759323 0.500000 0.919386
O O16 0.666876 0.741804 0.081301
O O17 0.584190 0.500000 0.267182
O O18 0.497547 0.240112 0.378557
O O19 0.611569 0.264641 0.331233
O O20 0.596884 0.000000 0.436951
O O21 0.070604 0.000000 0.637392
#
# Coordination Sequence:
#
# PCOD9143206 Si02
#       8
#     4   4   4   4   4   4   4   4
#     4  10  19  33  52  71  97 133 170 207 246 291
#     4  10  18  31  49  70  98 131 170 207 244 286
#     4  10  21  36  50  69 101 136 166 204 253 299
#     4  11  21  33  52  75  97 130 174 212 245 290
#     4   9  17  31  50  72  97 132 170 207 248 285
#     4  10  18  32  51  72 100 132 172 211 243 290
#     4  11  21  32  47  72 105 136 164 199 255 307
#     4  11  22  34  48  70 101 134 168 207 250 291
#
# _framework density 15.986966000000001
#
# number of rings (size 3 to 8) (size 9 to 14) (size 15 to 20)
#    0.000    1.750    3.750    3.000    0.000    2.000 
#    0.000    1.250    0.000    0.000    0.000    0.875 
#    0.000    7.000    0.000    0.000    0.000    0.000 
#
# Total GULP energy -178490.282430 kJ/mol
# GULP energy per Si atom -5577.821326 kJ/mol
# Density = 1.595058 g / cm^3
# Si number density = 15.986966 Si / 1000 Ang^3
#
#
#
# Elastic Constant Matrix: (Units=GPa)
#
#
# Indices 1 2 3 4 5 6 
#
# 1 99.4189 17.4003 62.1069 0.0000 -1.6847 0.0000
# 2 17.4003 20.7159 17.2255 0.0000 0.9922 0.0000
# 3 62.1069 17.2255 98.2783 0.0000 -9.9685 0.0000
# 4 0.0000 0.0000 0.0000 11.9565 0.0000 -3.7131
# 5 -1.6847 0.9922 -9.9685 0.0000 26.2380 0.0000
# 6 0.0000 0.0000 0.0000 -3.7131 0.0000 22.6717
#
#
#
# Elastic Compliance Matrix: (Units=1/GPa)
#
#
# Indices 1 2 3 4 5 6 
#
# 1 0.017468 -0.006037 -0.010238 0.000000 -0.002540 0.000000
# 2 -0.006037 0.059560 -0.007168 0.000000 -0.005363 0.000000
# 3 -0.010238 -0.007168 0.018578 0.000000 0.006672 0.000000
# 4 0.000000 0.000000 0.000000 0.088119 0.000000 0.014432
# 5 -0.002540 -0.005363 0.006672 0.000000 0.040687 0.000000
# 6 0.000000 0.000000 0.000000 0.014432 0.000000 0.046471
#
#
# Mechanical properties :
#
#
# Convention : Reuss Voigt Hill
#
# Bulk Modulus (GPa) = 20.52572 45.76427 33.14500
# Shear Modulus (GPa) = 14.96956 20.28525 17.62741
#
# Velocity S-wave (km/s) = 3.06332 3.56597 3.32416
# Velocity P-wave (km/s) = 5.03774 6.75596 5.95910
#
# Compressibility (1/GPa) = 0.04871935
#
# Stress axis : x y z
#
# Youngs Moduli (GPa) = 57.24784 16.78973 53.82597
#
# Poissons Ratio (x) = 0.10136 0.55109
# Poissons Ratio (y) = 0.34562 0.38582
# Poissons Ratio (z) = 0.58612 0.12035
#
# Static dielectric constant tensor:
#      x y z
#    x 1.522090 0.000000 0.000790 
#    y 0.000000 1.545510 0.000000 
#    z 0.000790 0.000000 1.548830 
# 
# From -- ./inp_files/72196.got.cif
#   From: 2010.05.17/outbox.cif.g08.bks.cpg/sg10_37_cif.got.tgz:72196.got - 2010.06.03 11:33:40.
