data_PCOD9143490
_publ_section_title
;
Structure prediction by ZEFSAII (Michael W. Deem and Ramdas Pophale) SiO2 
 PCOD9143490
Probable space group: P 2/M
;
_chemical_formula_sum "Si O2"
_cell_formula_units_Z 22
_cell_length_a 6.930732
_cell_length_b 25.398825
_cell_length_c 5.461123
_cell_angle_alpha 90.000000
_cell_angle_beta 101.703717
_cell_angle_gamma 90.000000
_cell_volume 941.348372
_symmetry_space_group_name_H-M "P 2/M"
_symmetry_group_IT_number 10
_symmetry_cell_setting 'monoclinic'
loop_
_space_group_symop_operation_xyz
x,y,z
-x,y,-z
-x,-y,-z
x,-y,z
loop_
_atom_site_type_symbol
_atom_site_label
_atom_site_fract_x
_atom_site_fract_y
_atom_site_fract_z
Si Si1 0.759498 0.780362 0.417051
Si Si2 0.288355 0.340060 0.695056
Si Si3 0.369960 0.500000 0.216124
Si Si4 0.628100 0.942122 0.782562
Si Si5 0.737340 0.616633 0.811298
Si Si6 0.227709 0.170476 0.078202
O O1 0.694288 0.722476 0.318847
O O2 0.689769 0.796172 0.671648
O O3 0.000000 0.780506 0.500000
O O4 0.697168 0.819313 0.178979
O O5 0.189365 0.359249 0.421266
O O6 0.503426 0.367738 0.751635
O O7 0.189346 0.357966 0.920104
O O8 0.500000 0.500000 0.500000
O O9 0.248064 0.553878 0.183637
O O10 0.500000 0.500000 0.000000
O O11 0.500000 0.937433 0.500000
O O12 0.758991 0.890318 0.839953
O O13 0.726746 0.000000 0.795505
O O14 0.500000 0.942067 0.000000
O O15 0.000000 0.186039 0.000000
#
# Coordination Sequence:
#
# PCOD9143490 Si02
#       6
#     4   4   2   4   4   4
#     4  10  21  37  55  74 106 145 179 220 262 310
#     4  10  18  32  45  71 103 128 168 206 253 308
#     4  12  16  30  48  70 102 134 160 202 280 312
#     4  10  21  39  59  84 117 145 178 226 283 329
#     4  10  19  30  48  75 101 129 163 216 257 321
#     4  10  21  39  58  81 108 145 194 225 262 326
#
# _framework density 23.370730999999999
#
# number of rings (size 3 to 8) (size 9 to 14) (size 15 to 20)
#    0.000    1.818    3.636    2.182    0.000    0.364 
#   19.636    0.000    0.000    6.545    0.000    7.000 
#    0.000    0.000    0.000    0.000    0.000    0.000 
#
# Total GULP energy -122970.202082 kJ/mol
# GULP energy per Si atom -5589.554640 kJ/mol
# Density = 2.331754 g / cm^3
# Si number density = 23.370731 Si / 1000 Ang^3
#
#
#
# Elastic Constant Matrix: (Units=GPa)
#
#
# Indices 1 2 3 4 5 6 
#
# 1 52.1858 -14.8893 36.4204 0.0000 2.0771 0.0000
# 2 -14.8893 170.1961 72.7207 0.0000 9.4688 0.0000
# 3 36.4204 72.7207 243.6897 0.0000 -14.2690 0.0000
# 4 0.0000 0.0000 0.0000 -59.8161 0.0000 -351.0210
# 5 2.0771 9.4688 -14.2690 0.0000 43.7616 0.0000
# 6 0.0000 0.0000 0.0000 -351.0210 0.0000-1099.2672
#
#
#
# Elastic Compliance Matrix: (Units=1/GPa)
#
#
# Indices 1 2 3 4 5 6 
#
# 1 0.024253 0.004562 -0.005211 0.000000 -0.003837 0.000000
# 2 0.004562 0.007797 -0.003181 0.000000 -0.002941 0.000000
# 3 -0.005211 -0.003181 0.006001 0.000000 0.002892 0.000000
# 4 0.000000 0.000000 0.000000 0.019130 0.000000 -0.006109
# 5 -0.003837 -0.002941 0.002892 0.000000 0.024613 0.000000
# 6 0.000000 0.000000 0.000000 -0.006109 0.000000 0.001041
#
#
# Mechanical properties :
#
#
# Convention : Reuss Voigt Hill
#
# Bulk Modulus (GPa) = 32.90392 72.73058 52.81725
# Shear Modulus (GPa) = 49.68931 -198.27635 -74.29352
#
# Velocity S-wave (km/s) = 4.61600 -9.22083 -5.64430
# Velocity P-wave (km/s) = 6.52071 9.06516 4.45294
#
# Compressibility (1/GPa) = 0.03039151
#
# Stress axis : x y z
#
# Youngs Moduli (GPa) = 41.23205 128.24925 166.64247
#
# Poissons Ratio (x) = -0.58502 0.86831
# Poissons Ratio (y) = -0.18808 0.53005
# Poissons Ratio (z) = 0.21484 0.40793
#
# Static dielectric constant tensor:
#      x y z
#    x 1.927160 0.000000 0.003120 
#    y 0.000000 1.826520 0.000000 
#    z 0.003120 0.000000 1.886610 
# 
# From -- ./inp_files/4799.got.cif
#   From: 2010.05.17/outbox.cif.g08.bks.cpg/sg10_3_cif.got.tgz:4799.got - 2010.06.03 11:33:40.
