data_PCOD9143126
_publ_section_title
;
Structure prediction by ZEFSAII (Michael W. Deem and Ramdas Pophale) SiO2 
 PCOD9143126
Probable space group: P 2/M
;
_chemical_formula_sum "Si O2"
_cell_formula_units_Z 32
_cell_length_a 27.738199
_cell_length_b 13.989613
_cell_length_c 7.099367
_cell_angle_alpha 90.000000
_cell_angle_beta 146.246916
_cell_angle_gamma 90.000000
_cell_volume 1530.655792
_symmetry_space_group_name_H-M "P 2/M"
_symmetry_group_IT_number 10
_symmetry_cell_setting 'monoclinic'
loop_
_space_group_symop_operation_xyz
x,y,z
-x,y,-z
-x,-y,-z
x,-y,z
loop_
_atom_site_type_symbol
_atom_site_label
_atom_site_fract_x
_atom_site_fract_y
_atom_site_fract_z
Si Si1 0.805043 0.395171 0.210699
Si Si2 0.977658 0.309781 0.714693
Si Si3 0.153420 0.609685 0.203368
Si Si4 0.072352 0.893572 0.568322
Si Si5 0.325562 0.719915 0.709864
Si Si6 0.501559 0.390307 0.732908
Si Si7 0.656083 0.747995 0.781968
Si Si8 0.280195 0.110805 0.294449
O O1 0.771911 0.500000 0.056904
O O2 0.893370 0.370898 0.389991
O O3 0.826479 0.392935 0.504868
O O4 0.733829 0.315602 0.951161
O O5 0.951767 0.198962 0.630401
O O6 0.000000 0.338710 0.000000
O O7 0.064803 0.332116 0.885360
O O8 0.144458 0.500000 0.115286
O O9 0.236231 0.662935 0.390514
O O10 0.000000 0.892085 0.500000
O O11 0.065647 0.000000 0.458710
O O12 0.174213 0.881832 0.953482
O O13 0.319616 0.817932 0.576783
O O14 0.404406 0.650602 0.909162
O O15 0.336794 0.744549 0.968436
O O16 0.500000 0.394882 0.500000
O O17 0.485019 0.500000 0.742358
O O18 0.430908 0.309575 0.554731
O O19 0.676449 0.850825 0.758787
O O20 0.300530 0.000000 0.391929
#
# Coordination Sequence:
#
# PCOD9143126 Si02
#       8
#     4   4   4   4   4   4   4   4
#     4   9  16  29  51  80 114 150 185 227 283 345
#     4  10  18  30  53  81 111 145 187 235 287 350
#     4   9  17  30  52  82 116 153 187 226 283 350
#     4  10  21  38  56  75 108 153 197 250 304 344
#     4  10  21  38  62  87 119 159 198 241 296 353
#     4   9  18  36  64  95 126 160 197 241 294 351
#     4  10  20  38  62  89 118 155 196 244 294 351
#     4  11  24  42  62  85 117 155 200 254 302 349
#
# _framework density 20.906072999999999
#
# number of rings (size 3 to 8) (size 9 to 14) (size 15 to 20)
#    0.000    2.250    1.250    1.875    0.000    5.750 
#    0.000    4.375    0.000    3.750    0.000    0.000 
#    0.000    0.000    0.000    0.000    0.000    0.000 
#
# Total GULP energy -178663.065887 kJ/mol
# GULP energy per Si atom -5583.220809 kJ/mol
# Density = 2.085849 g / cm^3
# Si number density = 20.906073 Si / 1000 Ang^3
#
#
#
# Elastic Constant Matrix: (Units=GPa)
#
#
# Indices 1 2 3 4 5 6 
#
# 1 48.7240 -5.9408 11.2490 0.0000 -8.8203 0.0000
# 2 -5.9408 125.9548 38.2109 0.0000 8.2870 0.0000
# 3 11.2490 38.2109 81.4350 0.0000 19.7090 0.0000
# 4 0.0000 0.0000 0.0000 24.2110 0.0000 -8.0020
# 5 -8.8203 8.2870 19.7090 0.0000 21.6154 0.0000
# 6 0.0000 0.0000 0.0000 -8.0020 0.0000 21.0556
#
#
#
# Elastic Compliance Matrix: (Units=1/GPa)
#
#
# Indices 1 2 3 4 5 6 
#
# 1 0.026348 0.002898 -0.009409 0.000000 0.018219 0.000000
# 2 0.002898 0.009581 -0.005509 0.000000 0.002532 0.000000
# 3 -0.009409 -0.005509 0.021278 0.000000 -0.021129 0.000000
# 4 0.000000 0.000000 0.000000 0.047237 0.000000 0.017952
# 5 0.018219 0.002532 -0.021129 0.000000 0.071992 0.000000
# 6 0.000000 0.000000 0.000000 0.017952 0.000000 0.054316
#
#
# Mechanical properties :
#
#
# Convention : Reuss Voigt Hill
#
# Bulk Modulus (GPa) = 30.15001 38.12800 34.13900
# Shear Modulus (GPa) = 18.80796 27.54939 23.17867
#
# Velocity S-wave (km/s) = 3.00266 3.63405 3.33333
# Velocity P-wave (km/s) = 5.14531 5.99047 5.58390
#
# Compressibility (1/GPa) = 0.03316749
#
# Stress axis : x y z
#
# Youngs Moduli (GPa) = 37.95417 104.37753 46.99735
#
# Poissons Ratio (x) = -0.30253 0.44220
# Poissons Ratio (y) = -0.11001 0.25889
# Poissons Ratio (z) = 0.35711 0.57498
#
# Static dielectric constant tensor:
#      x y z
#    x 1.809050 0.000000 -0.025290 
#    y 0.000000 1.700940 0.000000 
#    z -0.025290 0.000000 1.749630 
# 
# From -- ./inp_files/38251.got.cif
#   From: 2010.05.17/outbox.cif.g08.bks.cpg/sg10_20_cif.got.tgz:38251.got - 2010.06.03 11:33:40.
