data_PCOD9143837
_publ_section_title
;
Structure prediction by ZEFSAII (Michael W. Deem and Ramdas Pophale) SiO2 
 PCOD9143837
Probable space group: P 2/M
;
_chemical_formula_sum "Si O2"
_cell_formula_units_Z 32
_cell_length_a 27.282032
_cell_length_b 8.303313
_cell_length_c 17.670923
_cell_angle_alpha 90.000000
_cell_angle_beta 25.498763
_cell_angle_gamma 90.000000
_cell_volume 1723.264929
_symmetry_space_group_name_H-M "P 2/M"
_symmetry_group_IT_number 10
_symmetry_cell_setting 'monoclinic'
loop_
_space_group_symop_operation_xyz
x,y,z
-x,y,-z
-x,-y,-z
x,-y,z
loop_
_atom_site_type_symbol
_atom_site_label
_atom_site_fract_x
_atom_site_fract_y
_atom_site_fract_z
Si Si1 0.335595 0.813942 0.525233
Si Si2 0.982011 0.194118 0.403020
Si Si3 0.566316 0.315717 0.830043
Si Si4 0.560059 0.805076 0.141282
Si Si5 0.993155 0.681397 0.801966
Si Si6 0.816889 0.803905 0.761614
Si Si7 0.779362 0.178213 0.479802
Si Si8 0.897008 0.191938 0.087587
O O1 0.463551 0.745802 0.335846
O O2 0.283372 0.817515 0.513185
O O3 0.229425 0.739871 0.718858
O O4 0.349732 0.000000 0.531342
O O5 0.000064 0.256344 0.293308
O O6 0.869190 0.247944 0.607248
O O7 0.089409 0.239975 0.306026
O O8 0.977946 0.000000 0.405464
O O9 0.596519 0.500000 0.767549
O O10 0.488527 0.243598 0.872618
O O11 0.681001 0.213186 0.676446
O O12 0.500000 0.314833 0.000000
O O13 0.559993 0.000000 0.147052
O O14 0.690748 0.747990 0.960514
O O15 0.950474 0.500000 0.861864
O O16 0.122612 0.693140 0.650843
O O17 0.926295 0.779465 0.959327
O O18 0.813058 0.000000 0.764696
O O19 0.829955 0.000000 0.419378
O O20 0.890731 0.000000 0.111475
O O21 0.000000 0.251468 0.000000
#
# Coordination Sequence:
#
# PCOD9143837 Si02
#       8
#     4   4   4   4   4   4   4   4
#     4   8  15  29  50  74  98 125 167 215 252 297
#     4   9  18  35  56  78 103 135 174 218 263 311
#     4  10  21  33  43  67 107 142 171 209 252 304
#     4   9  17  31  52  77  99 129 172 215 259 310
#     4  12  24  34  48  77 110 139 171 216 268 319
#     4   8  16  33  58  82 101 127 175 226 262 305
#     4  10  19  34  52  70  96 136 180 216 251 300
#     4  10  18  33  54  73  99 139 181 215 255 310
#
# _framework density 18.569403000000001
#
# number of rings (size 3 to 8) (size 9 to 14) (size 15 to 20)
#    0.000    2.500    1.250    3.375    1.750    1.250 
#    0.000    2.500    0.000    0.750    0.000    5.250 
#    0.000    0.000    0.000    0.000    0.000    0.000 
#
# Total GULP energy -178149.963871 kJ/mol
# GULP energy per Si atom -5567.186371 kJ/mol
# Density = 1.852714 g / cm^3
# Si number density = 18.569403 Si / 1000 Ang^3
#
#
#
# Elastic Constant Matrix: (Units=GPa)
#
#
# Indices 1 2 3 4 5 6 
#
# 1 36.0564 2.3140 41.2442 0.0000 4.1986 0.0000
# 2 2.3140 15.0989 9.7472 0.0000 0.5380 0.0000
# 3 41.2442 9.7472 167.6338 0.0000 -6.4855 0.0000
# 4 0.0000 0.0000 0.0000 -8.7764 0.0000 -24.4162
# 5 4.1986 0.5380 -6.4855 0.0000 24.7896 0.0000
# 6 0.0000 0.0000 0.0000 -24.4162 0.0000 -27.7657
#
#
#
# Elastic Compliance Matrix: (Units=1/GPa)
#
#
# Indices 1 2 3 4 5 6 
#
# 1 0.040759 0.000844 -0.010451 0.000000 -0.009656 0.000000
# 2 0.000844 0.068992 -0.004327 0.000000 -0.002772 0.000000
# 3 -0.010451 -0.004327 0.008951 0.000000 0.004206 0.000000
# 4 0.000000 0.000000 0.000000 0.078775 0.000000 -0.069272
# 5 -0.009656 -0.002772 0.004206 0.000000 0.043135 0.000000
# 6 0.000000 0.000000 0.000000 -0.069272 0.000000 0.024900
#
#
# Mechanical properties :
#
#
# Convention : Reuss Voigt Hill
#
# Bulk Modulus (GPa) = 11.00886 36.15553 23.58219
# Shear Modulus (GPa) = 15.44839 8.68175 12.06507
#
# Velocity S-wave (km/s) = 2.88744 2.16459 2.55174
# Velocity P-wave (km/s) = 4.13011 5.07543 4.62698
#
# Compressibility (1/GPa) = 0.09083596
#
# Stress axis : x y z
#
# Youngs Moduli (GPa) = 24.53442 14.49435 111.71960
#
# Poissons Ratio (x) = -0.01224 1.16757
# Poissons Ratio (y) = -0.02071 0.48337
# Poissons Ratio (z) = 0.25641 0.06271
#
# Static dielectric constant tensor:
#      x y z
#    x 1.608470 0.000000 -0.001960 
#    y 0.000000 1.657340 0.000000 
#    z -0.001960 0.000000 1.712630 
# 
# From -- ./inp_files/71451.got.cif
#   From: 2010.05.17/outbox.cif.g08.bks.cpg/sg10_36_cif.got.tgz:71451.got - 2010.06.03 11:33:40.
