data_PCOD9143755
_publ_section_title
;
Structure prediction by ZEFSAII (Michael W. Deem and Ramdas Pophale) SiO2 
 PCOD9143755
Probable space group: P 2/M
;
_chemical_formula_sum "Si O2"
_cell_formula_units_Z 24
_cell_length_a 12.114453
_cell_length_b 7.667141
_cell_length_c 22.529290
_cell_angle_alpha 90.000000
_cell_angle_beta 30.764064
_cell_angle_gamma 90.000000
_cell_volume 1070.369730
_symmetry_space_group_name_H-M "P 2/M"
_symmetry_group_IT_number 10
_symmetry_cell_setting 'monoclinic'
loop_
_space_group_symop_operation_xyz
x,y,z
-x,y,-z
-x,-y,-z
x,-y,z
loop_
_atom_site_type_symbol
_atom_site_label
_atom_site_fract_x
_atom_site_fract_y
_atom_site_fract_z
Si Si1 0.663852 0.711077 0.745986
Si Si2 0.047436 0.801032 0.840446
Si Si3 0.753291 0.710196 0.376280
Si Si4 0.462964 0.293581 0.719646
Si Si5 0.860927 0.287208 0.456959
Si Si6 0.584833 0.794406 0.023322
O O1 0.657195 0.500000 0.751985
O O2 0.509964 0.774102 0.763941
O O3 0.587817 0.776134 0.844883
O O4 0.911800 0.761435 0.619049
O O5 0.148855 0.791681 0.727758
O O6 0.225767 0.727459 0.802678
O O7 0.018914 0.000000 0.872687
O O8 0.810896 0.717746 0.942944
O O9 0.500000 0.748039 0.500000
O O10 0.775031 0.500000 0.359886
O O11 0.860700 0.766714 0.388245
O O12 0.502326 0.500000 0.704768
O O13 0.647518 0.224006 0.589565
O O14 0.850350 0.500000 0.461057
O O15 0.627499 0.000000 0.992791
O O16 0.500000 0.720530 0.000000
#
# Coordination Sequence:
#
# PCOD9143755 Si02
#       6
#     4   4   4   4   4   4
#     4  10  21  36  60  88 110 144 192 235 273 325
#     4  11  23  37  56  83 113 149 191 232 275 328
#     4  10  18  32  56  84 113 146 179 222 283 333
#     4  10  20  37  58  83 117 150 182 227 284 336
#     4   9  17  33  57  85 116 147 181 225 280 336
#     4  10  23  43  61  78 110 152 187 228 284 335
#
# _framework density 22.422160000000002
#
# number of rings (size 3 to 8) (size 9 to 14) (size 15 to 20)
#    0.000    2.000    1.667    2.000    0.000    5.333 
#    0.000    4.167    0.000    2.000    0.000    0.000 
#    0.000    0.000    0.000    0.000    0.000    0.000 
#
# Total GULP energy -134068.363566 kJ/mol
# GULP energy per Si atom -5586.181815 kJ/mol
# Density = 2.237113 g / cm^3
# Si number density = 22.422160 Si / 1000 Ang^3
#
#
#
# Elastic Constant Matrix: (Units=GPa)
#
#
# Indices 1 2 3 4 5 6 
#
# 1 161.3631 3.8038 34.9028 0.0000 -13.7111 0.0000
# 2 3.8038 29.0337 -3.9273 0.0000 -3.8666 0.0000
# 3 34.9028 -3.9273 69.0205 0.0000 -22.8109 0.0000
# 4 0.0000 0.0000 0.0000 15.8757 0.0000 -6.1153
# 5 -13.7111 -3.8666 -22.8109 0.0000 30.9284 0.0000
# 6 0.0000 0.0000 0.0000 -6.1153 0.0000 -2.4022
#
#
#
# Elastic Compliance Matrix: (Units=1/GPa)
#
#
# Indices 1 2 3 4 5 6 
#
# 1 0.007018 -0.001347 -0.003508 0.000000 0.000356 0.000000
# 2 -0.001347 0.036399 0.005367 0.000000 0.007912 0.000000
# 3 -0.003508 0.005367 0.021521 0.000000 0.014989 0.000000
# 4 0.000000 0.000000 0.000000 0.031803 0.000000 -0.080962
# 5 0.000356 0.007912 0.014989 0.000000 0.044534 0.000000
# 6 0.000000 0.000000 0.000000 -0.080962 0.000000 -0.210185
#
#
# Mechanical properties :
#
#
# Convention : Reuss Voigt Hill
#
# Bulk Modulus (GPa) = 15.16007 36.55286 25.85646
# Shear Modulus (GPa) = -104.28399 23.85626 -40.21386
#
# Velocity S-wave (km/s) = -6.82717 3.26538 -4.23955
# Velocity P-wave (km/s) = 7.44118 5.52761 3.52255
#
# Compressibility (1/GPa) = 0.06596277
#
# Stress axis : x y z
#
# Youngs Moduli (GPa) = 142.49204 27.47341 46.46519
#
# Poissons Ratio (x) = 0.03700 0.16300
# Poissons Ratio (y) = 0.19188 -0.24937
# Poissons Ratio (z) = 0.49986 -0.14745
#
# Static dielectric constant tensor:
#      x y z
#    x 1.833040 0.000000 -0.030870 
#    y 0.000000 1.850790 0.000000 
#    z -0.030870 0.000000 1.795970 
# 
# From -- ./inp_files/45061.got.cif
#   From: 2010.05.17/outbox.cif.g08.bks.cpg/sg10_23_cif.got.tgz:45061.got - 2010.06.03 11:33:40.
