data_PCOD9143942
_publ_section_title
;
Structure prediction by ZEFSAII (Michael W. Deem and Ramdas Pophale) SiO2 
 PCOD9143942
Probable space group: P 2/M
;
_chemical_formula_sum "Si O2"
_cell_formula_units_Z 28
_cell_length_a 13.450597
_cell_length_b 8.350531
_cell_length_c 17.816919
_cell_angle_alpha 90.000000
_cell_angle_beta 43.606399
_cell_angle_gamma 90.000000
_cell_volume 1380.221372
_symmetry_space_group_name_H-M "P 2/M"
_symmetry_group_IT_number 10
_symmetry_cell_setting 'monoclinic'
loop_
_space_group_symop_operation_xyz
x,y,z
-x,y,-z
-x,-y,-z
x,-y,z
loop_
_atom_site_type_symbol
_atom_site_label
_atom_site_fract_x
_atom_site_fract_y
_atom_site_fract_z
Si Si1 0.621277 0.309785 0.244487
Si Si2 0.588201 0.688199 0.843660
Si Si3 0.660798 0.694636 0.389014
Si Si4 0.822045 0.692964 0.831799
Si Si5 0.122357 0.694349 0.598747
Si Si6 0.718775 0.186303 0.038949
Si Si7 0.311764 0.812436 0.361647
O O1 0.592839 0.500000 0.262937
O O2 0.685909 0.258210 0.289002
O O3 0.719521 0.273572 0.118738
O O4 0.466484 0.226652 0.315660
O O5 0.552203 0.500000 0.871489
O O6 0.677666 0.743559 0.866733
O O7 0.441976 0.780693 0.905488
O O8 0.687251 0.713046 0.716028
O O9 0.500000 0.745602 0.500000
O O10 0.663014 0.500000 0.389741
O O11 0.774935 0.747320 0.388535
O O12 0.820571 0.500000 0.833939
O O13 0.961167 0.743740 0.708502
O O14 0.822651 0.752289 0.916686
O O15 0.127351 0.500000 0.591329
O O16 0.187014 0.763264 0.487055
O O17 0.739418 0.000000 0.040416
O O18 0.305413 0.000000 0.347742
#
# Coordination Sequence:
#
# PCOD9143942 Si02
#       7
#     4   4   4   4   4   4   4
#     4  10  18  33  58  83 108 139 179 226 266 309
#     4  10  20  36  58  81 105 138 184 228 265 312
#     4   9  16  30  57  87 107 133 177 223 267 310
#     4  10  22  38  57  79 105 143 185 224 266 315
#     4  10  20  37  57  79 110 143 180 222 266 320
#     4  11  22  36  56  81 110 142 178 222 271 320
#     4  11  21  33  51  81 114 143 177 218 271 323
#
# _framework density 20.2866
#
# number of rings (size 3 to 8) (size 9 to 14) (size 15 to 20)
#    0.000    1.857    1.429    5.571    0.000    4.000 
#    0.000    5.714    0.000    4.286    0.000    0.000 
#    0.000    0.000    0.000    0.000    0.000    0.000 
#
# Total GULP energy -156399.761772 kJ/mol
# GULP energy per Si atom -5585.705778 kJ/mol
# Density = 2.024043 g / cm^3
# Si number density = 20.286600 Si / 1000 Ang^3
#
#
#
# Elastic Constant Matrix: (Units=GPa)
#
#
# Indices 1 2 3 4 5 6 
#
# 1 28.1369 -7.0500 -5.7302 0.0000 17.2460 0.0000
# 2 -7.0500 20.2353 -7.5737 0.0000 -2.9036 0.0000
# 3 -5.7302 -7.5737 93.4551 0.0000 23.1090 0.0000
# 4 0.0000 0.0000 0.0000 58.6921 0.0000 -111.1902
# 5 17.2460 -2.9036 23.1090 0.0000 30.5328 0.0000
# 6 0.0000 0.0000 0.0000 -111.1902 0.0000 138.1049
#
#
#
# Elastic Compliance Matrix: (Units=1/GPa)
#
#
# Indices 1 2 3 4 5 6 
#
# 1 0.087474 0.030109 0.023760 0.000000 -0.064528 0.000000
# 2 0.030109 0.061440 0.011793 0.000000 -0.020090 0.000000
# 3 0.023760 0.011793 0.019873 0.000000 -0.027340 0.000000
# 4 0.000000 0.000000 0.000000 -0.032437 0.000000 -0.026116
# 5 -0.064528 -0.020090 -0.027340 0.000000 0.087981 0.000000
# 6 0.000000 0.000000 0.000000 -0.026116 0.000000 -0.013785
#
#
# Mechanical properties :
#
#
# Convention : Reuss Voigt Hill
#
# Bulk Modulus (GPa) = 3.33209 11.23551 7.28380
# Shear Modulus (GPa) = 27.89256 56.27805 42.08530
#
# Velocity S-wave (km/s) = 3.71202 5.27273 4.55965
# Velocity P-wave (km/s) = 4.47417 6.52835 5.59632
#
# Compressibility (1/GPa) = 0.30011168
#
# Stress axis : x y z
#
# Youngs Moduli (GPa) = 11.43191 16.27609 50.31871
#
# Poissons Ratio (x) = -0.49006 -1.19555
# Poissons Ratio (y) = -0.34421 -0.59341
# Poissons Ratio (z) = -0.27162 -0.19194
#
# Static dielectric constant tensor:
#      x y z
#    x 1.711440 0.000000 0.012630 
#    y 0.000000 1.697000 0.000000 
#    z 0.012630 0.000000 1.740950 
# 
# From -- ./inp_files/77709.got.cif
#   From: 2010.05.17/outbox.cif.g08.bks.cpg/sg10_39_cif.got.tgz:77709.got - 2010.06.03 11:33:40.
