data_PCOD9143190
_publ_section_title
;
Structure prediction by ZEFSAII (Michael W. Deem and Ramdas Pophale) SiO2 
 PCOD9143190
Probable space group: P 2/M
;
_chemical_formula_sum "Si O2"
_cell_formula_units_Z 32
_cell_length_a 14.283330
_cell_length_b 8.922629
_cell_length_c 15.180166
_cell_angle_alpha 90.000000
_cell_angle_beta 86.786063
_cell_angle_gamma 90.000000
_cell_volume 1931.591170
_symmetry_space_group_name_H-M "P 2/M"
_symmetry_group_IT_number 10
_symmetry_cell_setting 'monoclinic'
loop_
_space_group_symop_operation_xyz
x,y,z
-x,y,-z
-x,-y,-z
x,-y,z
loop_
_atom_site_type_symbol
_atom_site_label
_atom_site_fract_x
_atom_site_fract_y
_atom_site_fract_z
Si Si1 0.018633 0.681375 0.100923
Si Si2 0.332707 0.826918 0.311195
Si Si3 0.480246 0.181922 0.603874
Si Si4 0.889452 0.821201 0.256906
Si Si5 0.813119 0.329716 0.796615
Si Si6 0.962489 0.327422 0.626811
Si Si7 0.813264 0.174865 0.517953
Si Si8 0.720349 0.678823 0.352656
O O1 0.014341 0.500000 0.114641
O O2 0.122081 0.732152 0.128134
O O3 0.942815 0.757619 0.168620
O O4 0.000000 0.712791 0.000000
O O5 0.431738 0.767127 0.341412
O O6 0.279302 0.751193 0.233008
O O7 0.261640 0.821245 0.398045
O O8 0.347021 0.000000 0.288105
O O9 0.500000 0.218924 0.500000
O O10 0.384149 0.255474 0.640587
O O11 0.472991 0.000000 0.608371
O O12 0.787213 0.749779 0.274745
O O13 0.952036 0.765926 0.337070
O O14 0.885678 0.000000 0.255644
O O15 0.788367 0.500000 0.819347
O O16 0.885654 0.330373 0.710189
O O17 0.989493 0.500000 0.607995
O O18 0.907493 0.250902 0.549567
O O19 0.767532 0.265881 0.441220
O O20 0.827629 0.000000 0.493550
O O21 0.720282 0.500000 0.347376
#
# Coordination Sequence:
#
# PCOD9143190 Si02
#       8
#     4   4   4   4   4   4   4   4
#     4   9  18  35  58  82 108 136 163 198 248 304
#     4   9  17  29  48  69  96 132 168 210 255 295
#     4  10  19  35  52  69  95 132 176 221 262 301
#     4  11  22  36  52  72 100 134 168 206 251 304
#     4   8  15  27  46  73 103 130 159 198 242 293
#     4   9  17  31  48  69  97 130 168 210 250 294
#     4  10  18  31  48  69  95 131 173 212 255 300
#     4  12  24  35  48  69  97 132 174 218 259 301
#
# _framework density 16.566652000000001
#
# number of rings (size 3 to 8) (size 9 to 14) (size 15 to 20)
#    0.000    2.250    1.250    3.750    0.000    5.000 
#    0.000    2.500    0.000    0.000    0.000    0.875 
#    0.000    7.000    0.000    0.000    0.000    0.000 
#
# Total GULP energy -178536.369919 kJ/mol
# GULP energy per Si atom -5579.261560 kJ/mol
# Density = 1.652895 g / cm^3
# Si number density = 16.566652 Si / 1000 Ang^3
#
#
#
# Elastic Constant Matrix: (Units=GPa)
#
#
# Indices 1 2 3 4 5 6 
#
# 1 147.4147 61.3694 57.9787 0.0000 17.1451 0.0000
# 2 61.3694 87.3125 36.2591 0.0000 5.5772 0.0000
# 3 57.9787 36.2591 82.1198 0.0000 20.5786 0.0000
# 4 0.0000 0.0000 0.0000 12.7419 0.0000 7.0817
# 5 17.1451 5.5772 20.5786 0.0000 21.5108 0.0000
# 6 0.0000 0.0000 0.0000 7.0817 0.0000 25.7004
#
#
#
# Elastic Compliance Matrix: (Units=1/GPa)
#
#
# Indices 1 2 3 4 5 6 
#
# 1 0.011448 -0.005895 -0.004704 0.000000 -0.003096 0.000000
# 2 -0.005895 0.017210 -0.004598 0.000000 0.004636 0.000000
# 3 -0.004704 -0.004598 0.021427 0.000000 -0.015557 0.000000
# 4 0.000000 0.000000 0.000000 0.092674 0.000000 -0.025536
# 5 -0.003096 0.004636 -0.015557 0.000000 0.062637 0.000000
# 6 0.000000 0.000000 0.000000 -0.025536 0.000000 0.045946
#
#
# Mechanical properties :
#
#
# Convention : Reuss Voigt Hill
#
# Bulk Modulus (GPa) = 50.78583 69.78458 60.28520
# Shear Modulus (GPa) = 17.34298 22.73994 20.04146
#
# Velocity S-wave (km/s) = 3.23903 3.70893 3.48192
# Velocity P-wave (km/s) = 6.68659 7.78180 7.25489
#
# Compressibility (1/GPa) = 0.01969053
#
# Stress axis : x y z
#
# Youngs Moduli (GPa) = 87.35258 58.10483 46.66982
#
# Poissons Ratio (x) = 0.34254 0.21952
# Poissons Ratio (y) = 0.51497 0.21461
# Poissons Ratio (z) = 0.41087 0.26719
#
# Static dielectric constant tensor:
#      x y z
#    x 1.571330 0.000000 0.001930 
#    y 0.000000 1.559770 0.000000 
#    z 0.001930 0.000000 1.561940 
# 
# From -- ./inp_files/66152.got.cif
#   From: 2010.05.17/outbox.cif.g08.bks.cpg/sg10_34_cif.got.tgz:66152.got - 2010.06.03 11:33:40.
