data_PCOD9143365
_publ_section_title
;
Structure prediction by ZEFSAII (Michael W. Deem and Ramdas Pophale) SiO2 
 PCOD9143365
Probable space group: P 2/M
;
_chemical_formula_sum "Si O2"
_cell_formula_units_Z 28
_cell_length_a 32.482658
_cell_length_b 7.421936
_cell_length_c 10.772920
_cell_angle_alpha 90.000000
_cell_angle_beta 148.205866
_cell_angle_gamma 90.000000
_cell_volume 1368.373529
_symmetry_space_group_name_H-M "P 2/M"
_symmetry_group_IT_number 10
_symmetry_cell_setting 'monoclinic'
loop_
_space_group_symop_operation_xyz
x,y,z
-x,y,-z
-x,-y,-z
x,-y,z
loop_
_atom_site_type_symbol
_atom_site_label
_atom_site_fract_x
_atom_site_fract_y
_atom_site_fract_z
Si Si1 0.763370 0.278961 0.167304
Si Si2 0.078397 0.280893 0.544722
Si Si3 0.336943 0.711868 0.325198
Si Si4 0.505451 0.785141 0.655750
Si Si5 0.322866 0.711970 0.808557
Si Si6 0.905280 0.719017 0.126308
Si Si7 0.737237 0.720932 0.609009
O O1 0.761163 0.500000 0.162734
O O2 0.852299 0.223777 0.368098
O O3 0.726334 0.214844 0.201062
O O4 0.710421 0.217158 0.915343
O O5 0.077926 0.500000 0.542327
O O6 0.098722 0.228463 0.738689
O O7 0.989677 0.221795 0.291904
O O8 0.318264 0.500000 0.280220
O O9 0.428455 0.731675 0.533627
O O10 0.308621 0.782866 0.385269
O O11 0.500000 0.714811 0.500000
O O12 0.506048 0.000000 0.650478
O O13 0.585995 0.729267 0.925695
O O14 0.304720 0.500000 0.757442
O O15 0.299883 0.784580 0.614921
O O16 0.905610 0.500000 0.126169
O O17 0.827628 0.775604 0.856342
O O18 0.734819 0.500000 0.602696
#
# Coordination Sequence:
#
# PCOD9143365 Si02
#       7
#     4   4   4   4   4   4   4
#     4   9  15  25  43  68  93 124 163 194 225 277
#     4   8  12  19  36  63  94 128 161 190 227 275
#     4  10  18  31  53  73  94 125 162 197 232 281
#     4  11  23  37  52  72  96 120 156 203 246 287
#     4  10  20  33  50  71  98 128 159 197 241 283
#     4   8  12  20  36  61  96 130 156 189 233 275
#     4   9  17  29  45  70 100 129 160 195 234 280
#
# _framework density 20.462247000000001
#
# number of rings (size 3 to 8) (size 9 to 14) (size 15 to 20)
#    0.000    2.714    2.857    1.286    0.000    1.143 
#    0.000    4.286    0.000    4.286    0.000    0.000 
#    0.000    6.857    0.000    0.000    0.000    0.000 
#
# Total GULP energy -156262.769027 kJ/mol
# GULP energy per Si atom -5580.813180 kJ/mol
# Density = 2.041567 g / cm^3
# Si number density = 20.462247 Si / 1000 Ang^3
#
#
#
# Elastic Constant Matrix: (Units=GPa)
#
#
# Indices 1 2 3 4 5 6 
#
# 1 191.9960 3.1253 119.4318 0.0000 6.5589 0.0000
# 2 3.1253 63.2755 -4.8850 0.0000 -10.6054 0.0000
# 3 119.4318 -4.8850 175.1121 0.0000 -3.0529 0.0000
# 4 0.0000 0.0000 0.0000 -35.0646 0.0000 -21.6336
# 5 6.5589 -10.6054 -3.0529 0.0000 35.9587 0.0000
# 6 0.0000 0.0000 0.0000 -21.6336 0.0000 -25.4919
#
#
#
# Elastic Compliance Matrix: (Units=1/GPa)
#
#
# Indices 1 2 3 4 5 6 
#
# 1 0.009337 -0.001406 -0.006454 0.000000 -0.002666 0.000000
# 2 -0.001406 0.016891 0.001524 0.000000 0.005367 0.000000
# 3 -0.006454 0.001524 0.010198 0.000000 0.002492 0.000000
# 4 0.000000 0.000000 0.000000 -0.059861 0.000000 0.050801
# 5 -0.002666 0.005367 0.002492 0.000000 0.030091 0.000000
# 6 0.000000 0.000000 0.000000 0.050801 0.000000 -0.082340
#
#
# Mechanical properties :
#
#
# Convention : Reuss Voigt Hill
#
# Bulk Modulus (GPa) = 42.09898 73.96976 58.03437
# Shear Modulus (GPa) = -90.75390 15.92786 -37.41302
#
# Velocity S-wave (km/s) = -6.66695 2.79301 -4.28061
# Velocity P-wave (km/s) = 6.21656 6.82855 1.99794
#
# Compressibility (1/GPa) = 0.02375354
#
# Stress axis : x y z
#
# Youngs Moduli (GPa) = 107.10041 59.20440 98.05548
#
# Poissons Ratio (x) = 0.08325 0.63283
# Poissons Ratio (y) = 0.15061 -0.14942
# Poissons Ratio (z) = 0.69121 -0.09022
#
# Static dielectric constant tensor:
#      x y z
#    x 1.715150 0.000000 0.007350 
#    y 0.000000 1.777950 0.000000 
#    z 0.007350 0.000000 1.704360 
# 
# From -- ./inp_files/37266.got.cif
#   From: 2010.05.17/outbox.cif.g08.bks.cpg/sg10_19_cif.got.tgz:37266.got - 2010.06.03 11:33:40.
