data_PCOD9143607
_publ_section_title
;
Structure prediction by ZEFSAII (Michael W. Deem and Ramdas Pophale) SiO2 
 PCOD9143607
Probable space group: P 2/M
;
_chemical_formula_sum "Si O2"
_cell_formula_units_Z 28
_cell_length_a 10.403847
_cell_length_b 9.182663
_cell_length_c 26.783821
_cell_angle_alpha 90.000000
_cell_angle_beta 140.502466
_cell_angle_gamma 90.000000
_cell_volume 1627.507453
_symmetry_space_group_name_H-M "P 2/M"
_symmetry_group_IT_number 10
_symmetry_cell_setting 'monoclinic'
loop_
_space_group_symop_operation_xyz
x,y,z
-x,y,-z
-x,-y,-z
x,-y,z
loop_
_atom_site_type_symbol
_atom_site_label
_atom_site_fract_x
_atom_site_fract_y
_atom_site_fract_z
Si Si1 0.911537 0.325407 0.822382
Si Si2 0.810624 0.669987 0.906370
Si Si3 0.821144 0.326523 0.336025
Si Si4 0.591443 0.173873 0.179606
Si Si5 0.851327 0.832765 0.503696
Si Si6 0.531365 0.673766 0.344283
Si Si7 0.680915 0.824956 0.091275
O O1 0.935963 0.500000 0.825517
O O2 0.878565 0.291435 0.870906
O O3 0.702351 0.285328 0.732179
O O4 0.108636 0.246973 0.861063
O O5 0.742972 0.500000 0.885130
O O6 0.627943 0.768572 0.870033
O O7 0.000000 0.681643 0.000000
O O8 0.837807 0.500000 0.335554
O O9 0.748969 0.251573 0.263713
O O10 0.650243 0.298083 0.327641
O O11 0.028424 0.258314 0.418857
O O12 0.628698 0.210626 0.132890
O O13 0.604133 0.000000 0.189308
O O14 0.648115 0.758092 0.422781
O O15 0.000000 0.832402 0.500000
O O16 0.820534 0.000000 0.509580
O O17 0.545590 0.500000 0.356980
O O18 0.698400 0.000000 0.092474
O O19 0.500000 0.778227 0.000000
#
# Coordination Sequence:
#
# PCOD9143607 Si02
#       7
#     4   4   4   4   4   4   4
#     4  10  20  35  55  81 108 139 182 227 268 322
#     4  10  20  35  55  80 108 137 175 225 277 326
#     4  10  18  32  53  77 110 145 178 219 271 320
#     4  11  22  35  54  79 109 142 182 227 271 324
#     4   9  17  28  46  77 112 142 178 216 259 319
#     4   9  17  31  50  76 110 142 176 218 268 321
#     4  10  23  41  56  75 107 146 186 226 273 329
#
# _framework density 17.204224
#
# number of rings (size 3 to 8) (size 9 to 14) (size 15 to 20)
#    0.000    2.143    1.429    2.143    0.000    5.143 
#    0.000    0.000    0.000    0.857    0.000    6.000 
#    0.000    0.000    0.000    0.000    0.000    0.000 
#
# Total GULP energy -156280.771614 kJ/mol
# GULP energy per Si atom -5581.456129 kJ/mol
# Density = 1.716507 g / cm^3
# Si number density = 17.204224 Si / 1000 Ang^3
#
#
#
# Elastic Constant Matrix: (Units=GPa)
#
#
# Indices 1 2 3 4 5 6 
#
# 1 87.2841 52.3675 60.8542 0.0000 -5.5294 0.0000
# 2 52.3675 65.7327 64.4587 0.0000 -10.2714 0.0000
# 3 60.8542 64.4587 139.0916 0.0000 -12.4192 0.0000
# 4 0.0000 0.0000 0.0000 3.4996 0.0000 -34.8875
# 5 -5.5294 -10.2714 -12.4192 0.0000 23.4748 0.0000
# 6 0.0000 0.0000 0.0000 -34.8875 0.0000 -20.4725
#
#
#
# Elastic Compliance Matrix: (Units=1/GPa)
#
#
# Indices 1 2 3 4 5 6 
#
# 1 0.022740 -0.015711 -0.002942 0.000000 -0.003075 0.000000
# 2 -0.015711 0.039468 -0.010711 0.000000 0.007902 0.000000
# 3 -0.002942 -0.010711 0.013603 0.000000 0.001817 0.000000
# 4 0.000000 0.000000 0.000000 0.015885 0.000000 -0.027070
# 5 -0.003075 0.007902 0.001817 0.000000 0.046293 0.000000
# 6 0.000000 0.000000 0.000000 -0.027070 0.000000 -0.002715
#
#
# Mechanical properties :
#
#
# Convention : Reuss Voigt Hill
#
# Bulk Modulus (GPa) = 58.54419 71.94101 65.24260
# Shear Modulus (GPa) = 25.03793 8.92892 16.98342
#
# Velocity S-wave (km/s) = 3.81903 2.28062 3.14533
# Velocity P-wave (km/s) = 7.31775 6.98868 7.15511
#
# Compressibility (1/GPa) = 0.01708111
#
# Stress axis : x y z
#
# Youngs Moduli (GPa) = 43.97598 25.33689 73.51345
#
# Poissons Ratio (x) = 0.39807 0.21631
# Poissons Ratio (y) = 0.69091 0.78742
# Poissons Ratio (z) = 0.12940 0.27139
#
# Static dielectric constant tensor:
#      x y z
#    x 1.553520 0.000000 -0.007770 
#    y 0.000000 1.576310 0.000000 
#    z -0.007770 0.000000 1.577490 
# 
# From -- ./inp_files/37233.got.cif
#   From: 2010.05.17/outbox.cif.g08.bks.cpg/sg10_19_cif.got.tgz:37233.got - 2010.06.03 11:33:40.
