data_PCOD9143484
_publ_section_title
;
Structure prediction by ZEFSAII (Michael W. Deem and Ramdas Pophale) SiO2 
 PCOD9143484
Probable space group: P 2/M
;
_chemical_formula_sum "Si O2"
_cell_formula_units_Z 30
_cell_length_a 8.768174
_cell_length_b 13.736093
_cell_length_c 15.603860
_cell_angle_alpha 90.000000
_cell_angle_beta 131.795359
_cell_angle_gamma 90.000000
_cell_volume 1401.101325
_symmetry_space_group_name_H-M "P 2/M"
_symmetry_group_IT_number 10
_symmetry_cell_setting 'monoclinic'
loop_
_space_group_symop_operation_xyz
x,y,z
-x,y,-z
-x,-y,-z
x,-y,z
loop_
_atom_site_type_symbol
_atom_site_label
_atom_site_fract_x
_atom_site_fract_y
_atom_site_fract_z
Si Si1 0.790675 0.240295 0.395759
Si Si2 0.822640 0.106668 0.784194
Si Si3 0.697090 0.394079 0.966517
Si Si4 0.041168 0.391413 0.241601
Si Si5 0.115550 0.190078 0.755559
Si Si6 0.678423 0.692598 0.781800
Si Si7 0.500000 0.230934 0.000000
Si Si8 0.607964 0.108081 0.459336
O O1 0.816163 0.179630 0.316819
O O2 0.567390 0.291412 0.306861
O O3 0.771379 0.168860 0.470178
O O4 0.000000 0.297277 0.500000
O O5 0.814998 0.206969 0.835851
O O6 0.582526 0.097744 0.675723
O O7 0.937594 0.130076 0.737128
O O8 0.893802 0.000000 0.843351
O O9 0.594576 0.500000 0.937156
O O10 0.742563 0.374247 0.885104
O O11 0.562335 0.303945 0.947260
O O12 0.888841 0.393609 0.102290
O O13 0.044972 0.500000 0.280132
O O14 0.256618 0.357928 0.282649
O O15 0.953475 0.303806 0.265393
O O16 0.307684 0.173875 0.891339
O O17 0.500000 0.157746 0.500000
O O18 0.678679 0.000000 0.510735
#
# Coordination Sequence:
#
# PCOD9143484 Si02
#       8
#     4   4   4   4   4   4   2   4
#     4  11  22  35  54  83 116 153 186 223 285 345
#     4   9  19  35  55  77 110 153 191 228 276 333
#     4  10  18  31  57  88 112 138 181 241 301 336
#     4   9  19  35  59  86 108 139 187 245 295 329
#     4  10  20  36  57  83 115 150 188 237 282 335
#     4  10  19  34  54  82 115 146 186 237 281 336
#     4  10  19  34  53  84 120 148 179 236 293 336
#     4   9  18  34  57  84 108 136 188 253 297 323
#
# _framework density 21.411728
#
# number of rings (size 3 to 8) (size 9 to 14) (size 15 to 20)
#    0.000    2.267    1.333    1.800    0.000    2.400 
#    0.000    0.333    0.000   18.800    0.000    0.000 
#    0.000    0.000    0.000    0.000    0.000    0.000 
#
# Total GULP energy -167033.540576 kJ/mol
# GULP energy per Si atom -5567.784686 kJ/mol
# Density = 2.136299 g / cm^3
# Si number density = 21.411728 Si / 1000 Ang^3
#
#
#
# Elastic Constant Matrix: (Units=GPa)
#
#
# Indices 1 2 3 4 5 6 
#
# 1 82.7527 6.9741 15.3412 0.0000 3.8981 0.0000
# 2 6.9741 71.1520 8.7538 0.0000 2.9143 0.0000
# 3 15.3412 8.7538 36.5265 0.0000 7.1732 0.0000
# 4 0.0000 0.0000 0.0000 14.9799 0.0000 -6.8318
# 5 3.8981 2.9143 7.1732 0.0000 35.5997 0.0000
# 6 0.0000 0.0000 0.0000 -6.8318 0.0000 -10.4696
#
#
#
# Elastic Compliance Matrix: (Units=1/GPa)
#
#
# Indices 1 2 3 4 5 6 
#
# 1 0.013135 -0.000622 -0.005305 0.000000 -0.000318 0.000000
# 2 -0.000622 0.014520 -0.003122 0.000000 -0.000491 0.000000
# 3 -0.005305 -0.003122 0.031433 0.000000 -0.005497 0.000000
# 4 0.000000 0.000000 0.000000 0.051446 0.000000 -0.033570
# 5 -0.000318 -0.000491 -0.005497 0.000000 0.029273 0.000000
# 6 0.000000 0.000000 0.000000 -0.033570 0.000000 -0.073609
#
#
# Mechanical properties :
#
#
# Convention : Reuss Voigt Hill
#
# Bulk Modulus (GPa) = 24.39618 28.06327 26.22972
# Shear Modulus (GPa) = 51.04139 18.64613 34.84376
#
# Velocity S-wave (km/s) = 4.88772 2.95420 4.03838
# Velocity P-wave (km/s) = 6.57812 4.97708 5.83279
#
# Compressibility (1/GPa) = 0.04099003
#
# Stress axis : x y z
#
# Youngs Moduli (GPa) = 76.13178 68.87242 31.81328
#
# Poissons Ratio (x) = 0.04282 0.16878
# Poissons Ratio (y) = 0.04733 0.09932
# Poissons Ratio (z) = 0.40390 0.21502
#
# Static dielectric constant tensor:
#      x y z
#    x 1.827010 0.000000 0.020230 
#    y 0.000000 1.874580 0.000000 
#    z 0.020230 0.000000 1.818170 
# 
# From -- ./inp_files/75205.got.cif
#   From: 2010.05.17/outbox.cif.g08.bks.cpg/sg10_38_cif.got.tgz:75205.got - 2010.06.03 11:33:40.
