data_PCOD9143066
_publ_section_title
;
Structure prediction by ZEFSAII (Michael W. Deem and Ramdas Pophale) SiO2 
 PCOD9143066
Probable space group: P 2/M
;
_chemical_formula_sum "Si O2"
_cell_formula_units_Z 20
_cell_length_a 9.349696
_cell_length_b 10.519366
_cell_length_c 9.014964
_cell_angle_alpha 90.000000
_cell_angle_beta 101.595188
_cell_angle_gamma 90.000000
_cell_volume 868.553034
_symmetry_space_group_name_H-M "P 2/M"
_symmetry_group_IT_number 10
_symmetry_cell_setting 'monoclinic'
loop_
_space_group_symop_operation_xyz
x,y,z
-x,y,-z
-x,-y,-z
x,-y,z
loop_
_atom_site_type_symbol
_atom_site_label
_atom_site_fract_x
_atom_site_fract_y
_atom_site_fract_z
Si Si1 0.474536 0.000000 0.749009
Si Si2 0.671543 0.500000 0.980133
Si Si3 0.256789 0.000000 0.993514
Si Si4 0.103734 0.649685 0.374535
Si Si5 0.142850 0.742449 0.868937
Si Si6 0.669915 0.755899 0.379279
Si Si7 0.502621 0.500000 0.325033
O O1 0.435773 0.874816 0.649175
O O2 0.637982 0.000000 0.843129
O O3 0.368772 0.000000 0.874308
O O4 0.644529 0.500000 0.798824
O O5 0.500000 0.500000 0.000000
O O6 0.761927 0.624466 0.048617
O O7 0.164154 0.129432 0.966273
O O8 0.131872 0.500000 0.372150
O O9 0.248807 0.726136 0.449853
O O10 0.000000 0.661594 0.500000
O O11 0.018559 0.696076 0.210582
O O12 0.211091 0.779403 0.723362
O O13 0.589584 0.628411 0.308992
O O14 0.500000 0.500000 0.500000
#
# Coordination Sequence:
#
# PCOD9143066 Si02
#       7
#     2   2   2   4   4   4   2
#     4   9  18  29  48  73 102 144 173 206 261 316
#     4  12  20  31  55  77 101 132 182 214 255 318
#     4   9  18  27  41  75 118 131 163 219 266 300
#     4   9  16  27  47  75 105 133 172 216 257 304
#     4  10  18  30  51  79 103 137 173 216 259 309
#     4  10  18  33  51  73 105 138 173 215 261 307
#     4  12  24  35  51  77 107 138 174 221 265 304
#
# _framework density 23.026803999999998
#
# number of rings (size 3 to 8) (size 9 to 14) (size 15 to 20)
#    0.000    2.000    4.000    1.200    2.800    0.800 
#    0.000    4.500    0.000    2.400    0.000    0.000 
#    0.000    4.800    0.000    0.000    0.000    0.000 
#
# Total GULP energy -111742.761515 kJ/mol
# GULP energy per Si atom -5587.138076 kJ/mol
# Density = 2.297439 g / cm^3
# Si number density = 23.026804 Si / 1000 Ang^3
#
#
#
# Elastic Constant Matrix: (Units=GPa)
#
#
# Indices 1 2 3 4 5 6 
#
# 1 55.4327 46.8581 58.6423 0.0000 20.7817 0.0000
# 2 46.8581 215.7587 91.9000 0.0000 61.3223 0.0000
# 3 58.6423 91.9000 159.4926 0.0000 72.6615 0.0000
# 4 0.0000 0.0000 0.0000 35.9622 0.0000 22.6361
# 5 20.7817 61.3223 72.6615 0.0000 60.2379 0.0000
# 6 0.0000 0.0000 0.0000 22.6361 0.0000 11.5375
#
#
#
# Elastic Compliance Matrix: (Units=1/GPa)
#
#
# Indices 1 2 3 4 5 6 
#
# 1 0.032725 -0.003808 -0.014343 0.000000 0.009888 0.000000
# 2 -0.003808 0.007161 -0.000007 0.000000 -0.005967 0.000000
# 3 -0.014343 -0.000007 0.020623 0.000000 -0.019921 0.000000
# 4 0.000000 0.000000 0.000000 -0.118360 0.000000 0.232217
# 5 0.009888 -0.005967 -0.019921 0.000000 0.043294 0.000000
# 6 0.000000 0.000000 0.000000 0.232217 0.000000 -0.368927
#
#
# Mechanical properties :
#
#
# Convention : Reuss Voigt Hill
#
# Bulk Modulus (GPa) = 41.33483 91.72051 66.52767
# Shear Modulus (GPa) = -14.74482 37.09976 11.17747
#
# Velocity S-wave (km/s) = -2.53323 4.01827 2.20560
# Velocity P-wave (km/s) = 3.07139 7.83883 5.95318
#
# Compressibility (1/GPa) = 0.02419267
#
# Stress axis : x y z
#
# Youngs Moduli (GPa) = 30.55724 139.64480 48.48900
#
# Poissons Ratio (x) = 0.53182 0.69546
# Poissons Ratio (y) = 0.11637 0.00036
# Poissons Ratio (z) = 0.43827 0.00104
#
# Static dielectric constant tensor:
#      x y z
#    x 1.912720 0.000000 -0.053430 
#    y 0.000000 1.789830 0.000000 
#    z -0.053430 0.000000 1.907540 
# 
# From -- ./inp_files/23705.got.cif
#   From: 2010.05.17/outbox.cif.g08.bks.cpg/sg10_12_cif.got.tgz:23705.got - 2010.06.03 11:33:40.
