data_PCOD9143346
_publ_section_title
;
Structure prediction by ZEFSAII (Michael W. Deem and Ramdas Pophale) SiO2 
 PCOD9143346
Probable space group: P 2/M
;
_chemical_formula_sum "Si O2"
_cell_formula_units_Z 32
_cell_length_a 13.930335
_cell_length_b 13.589190
_cell_length_c 15.097222
_cell_angle_alpha 90.000000
_cell_angle_beta 143.673216
_cell_angle_gamma 90.000000
_cell_volume 1693.011036
_symmetry_space_group_name_H-M "P 2/M"
_symmetry_group_IT_number 10
_symmetry_cell_setting 'monoclinic'
loop_
_space_group_symop_operation_xyz
x,y,z
-x,y,-z
-x,-y,-z
x,-y,z
loop_
_atom_site_type_symbol
_atom_site_label
_atom_site_fract_x
_atom_site_fract_y
_atom_site_fract_z
Si Si1 0.988246 0.749823 0.384432
Si Si2 0.958708 0.720404 0.073347
Si Si3 0.611312 0.324133 0.768079
Si Si4 0.719077 0.607216 0.395845
Si Si5 0.685498 0.612574 0.158916
Si Si6 0.589527 0.811729 0.480386
Si Si7 0.938296 0.887362 0.712643
Si Si8 0.269686 0.390313 0.334141
O O1 0.149507 0.687883 0.478888
O O2 0.000000 0.764031 0.500000
O O3 0.829570 0.686485 0.239711
O O4 0.994039 0.847616 0.330354
O O5 0.999701 0.814136 0.164242
O O6 0.079271 0.632517 0.190239
O O7 0.773532 0.688296 0.944489
O O8 0.000000 0.741458 0.000000
O O9 0.460802 0.376134 0.702002
O O10 0.544381 0.215821 0.691500
O O11 0.665669 0.378321 0.718150
O O12 0.781079 0.500000 0.468821
O O13 0.705075 0.609109 0.279595
O O14 0.707744 0.500000 0.141726
O O15 0.500000 0.642636 0.000000
O O16 0.500000 0.853573 0.500000
O O17 0.655005 0.702318 0.557826
O O18 0.743062 0.873883 0.566063
O O19 0.980617 0.000000 0.760573
O O20 0.307127 0.500000 0.393962
#
# Coordination Sequence:
#
# PCOD9143346 Si02
#       8
#     4   4   4   4   4   4   4   4
#     4  10  21  39  60  84 116 150 179 238 290 337
#     4   9  21  38  55  78 116 155 190 237 282 337
#     4  10  18  31  52  78 116 145 185 226 276 332
#     4  10  19  31  53  85 115 149 184 220 273 337
#     4   9  19  35  56  84 115 150 186 222 270 337
#     4   9  19  36  55  81 111 147 188 239 287 330
#     4  11  23  41  62  84 108 147 199 243 298 348
#     4   9  18  32  50  77 116 159 192 223 271 336
#
# _framework density 18.901235
#
# number of rings (size 3 to 8) (size 9 to 14) (size 15 to 20)
#    0.000    2.375    1.250    1.500    1.750    7.750 
#    0.000    1.250    0.000    0.375    0.000    0.000 
#    0.000    0.000    0.000    0.000    0.000    0.000 
#
# Total GULP energy -178518.782241 kJ/mol
# GULP energy per Si atom -5578.711945 kJ/mol
# Density = 1.885821 g / cm^3
# Si number density = 18.901235 Si / 1000 Ang^3
#
#
#
# Elastic Constant Matrix: (Units=GPa)
#
#
# Indices 1 2 3 4 5 6 
#
# 1 64.3831 24.6315 9.5141 0.0000 13.0464 0.0000
# 2 24.6315 76.9495 10.6749 0.0000 5.3396 0.0000
# 3 9.5141 10.6749 85.7250 0.0000 21.8278 0.0000
# 4 0.0000 0.0000 0.0000 11.9869 0.0000 0.0851
# 5 13.0464 5.3396 21.8278 0.0000 27.8393 0.0000
# 6 0.0000 0.0000 0.0000 0.0851 0.0000 14.6335
#
#
#
# Elastic Compliance Matrix: (Units=1/GPa)
#
#
# Indices 1 2 3 4 5 6 
#
# 1 0.019335 -0.005699 0.000740 0.000000 -0.008549 0.000000
# 2 -0.005699 0.014958 -0.001474 0.000000 0.000957 0.000000
# 3 0.000740 -0.001474 0.014722 0.000000 -0.011607 0.000000
# 4 0.000000 0.000000 0.000000 0.083428 0.000000 -0.000485
# 5 -0.008549 0.000957 -0.011607 0.000000 0.048844 0.000000
# 6 0.000000 0.000000 0.000000 -0.000485 0.000000 0.068339
#
#
# Mechanical properties :
#
#
# Convention : Reuss Voigt Hill
#
# Bulk Modulus (GPa) = 27.66205 35.18873 31.42539
# Shear Modulus (GPa) = 18.21227 23.04109 20.62668
#
# Velocity S-wave (km/s) = 3.10748 3.49524 3.30705
# Velocity P-wave (km/s) = 5.24805 5.91156 5.58966
#
# Compressibility (1/GPa) = 0.03615062
#
# Stress axis : x y z
#
# Youngs Moduli (GPa) = 51.71959 66.85518 67.92510
#
# Poissons Ratio (x) = 0.38098 -0.05029
# Poissons Ratio (y) = 0.29473 0.10012
# Poissons Ratio (z) = -0.03830 0.09854
#
# Static dielectric constant tensor:
#      x y z
#    x 1.693770 0.000000 -0.012720 
#    y 0.000000 1.632430 0.000000 
#    z -0.012720 0.000000 1.687120 
# 
# From -- ./inp_files/78218.got.cif
#   From: 2010.05.17/outbox.cif.g08.bks.cpg/sg10_40_cif.got.tgz:78218.got - 2010.06.03 11:33:40.
