data_PCOD9143620
_publ_section_title
;
Structure prediction by ZEFSAII (Michael W. Deem and Ramdas Pophale) SiO2 
 PCOD9143620
Probable space group: P 2/M
;
_chemical_formula_sum "Si O2"
_cell_formula_units_Z 32
_cell_length_a 20.717049
_cell_length_b 8.510126
_cell_length_c 25.782025
_cell_angle_alpha 90.000000
_cell_angle_beta 156.603596
_cell_angle_gamma 90.000000
_cell_volume 1804.970781
_symmetry_space_group_name_H-M "P 2/M"
_symmetry_group_IT_number 10
_symmetry_cell_setting 'monoclinic'
loop_
_space_group_symop_operation_xyz
x,y,z
-x,y,-z
-x,-y,-z
x,-y,z
loop_
_atom_site_type_symbol
_atom_site_label
_atom_site_fract_x
_atom_site_fract_y
_atom_site_fract_z
Si Si1 0.488031 0.189111 0.317150
Si Si2 0.319410 0.691874 0.852667
Si Si3 0.819574 0.310439 0.852885
Si Si4 0.002547 0.311701 0.678238
Si Si5 0.188570 0.689859 0.643946
Si Si6 0.208951 0.187823 0.387446
Si Si7 0.687290 0.689689 0.643876
Si Si8 0.284278 0.188296 0.606212
O O1 0.316061 0.258579 0.206094
O O2 0.625211 0.239142 0.460390
O O3 0.561484 0.234870 0.315468
O O4 0.478336 0.000000 0.311752
O O5 0.320548 0.500000 0.853437
O O6 0.180941 0.740247 0.791477
O O7 0.263090 0.741102 0.753702
O O8 0.500000 0.745443 0.000000
O O9 0.822428 0.500000 0.853880
O O10 0.761680 0.255688 0.753255
O O11 0.000000 0.254458 0.000000
O O12 0.999402 0.500000 0.677902
O O13 0.938388 0.245706 0.685328
O O14 0.873622 0.256774 0.539596
O O15 0.190325 0.500000 0.643904
O O16 0.284174 0.752335 0.664652
O O17 0.000000 0.740135 0.500000
O O18 0.214583 0.253076 0.333767
O O19 0.208259 0.000000 0.386000
O O20 0.500000 0.743510 0.500000
O O21 0.686512 0.500000 0.643345
O O22 0.272818 0.000000 0.596480
#
# Coordination Sequence:
#
# PCOD9143620 Si02
#       8
#     4   4   4   4   4   4   4   4
#     4   9  19  34  51  74 105 138 172 209 254 314
#     4   9  18  33  53  77 106 137 171 214 264 314
#     4  10  21  36  54  78 107 135 170 217 263 307
#     4  10  18  32  54  78 106 139 174 215 262 308
#     4  10  18  32  53  80 104 131 178 223 257 304
#     4  10  20  33  52  80 109 136 172 218 262 306
#     4  10  19  33  54  80 104 134 176 218 257 304
#     4  10  20  33  51  79 109 137 173 217 264 307
#
# _framework density 17.728819000000001
#
# number of rings (size 3 to 8) (size 9 to 14) (size 15 to 20)
#    0.000    2.250    2.500    1.875    0.000    3.750 
#    0.000    1.250    0.000    9.375    0.000    0.000 
#    0.000    0.000    0.000    0.000    0.000    0.000 
#
# Total GULP energy -178534.088465 kJ/mol
# GULP energy per Si atom -5579.190265 kJ/mol
# Density = 1.768847 g / cm^3
# Si number density = 17.728819 Si / 1000 Ang^3
#
#
#
# Elastic Constant Matrix: (Units=GPa)
#
#
# Indices 1 2 3 4 5 6 
#
# 1 154.5161 15.7289 86.8761 0.0000 17.6001 0.0000
# 2 15.7289 10.0082 19.8052 0.0000 0.8645 0.0000
# 3 86.8761 19.8052 136.2315 0.0000 15.1044 0.0000
# 4 0.0000 0.0000 0.0000 -20.8099 0.0000 -47.6943
# 5 17.6001 0.8645 15.1044 0.0000 27.1127 0.0000
# 6 0.0000 0.0000 0.0000 -47.6943 0.0000 -59.1068
#
#
#
# Elastic Compliance Matrix: (Units=1/GPa)
#
#
# Indices 1 2 3 4 5 6 
#
# 1 0.010541 -0.005250 -0.005562 0.000000 -0.003576 0.000000
# 2 -0.005250 0.144273 -0.018646 0.000000 0.009195 0.000000
# 3 -0.005562 -0.018646 0.013997 0.000000 -0.003592 0.000000
# 4 0.000000 0.000000 0.000000 0.056575 0.000000 -0.045652
# 5 -0.003576 0.009195 -0.003592 0.000000 0.040913 0.000000
# 6 0.000000 0.000000 0.000000 -0.045652 0.000000 0.019919
#
#
# Mechanical properties :
#
#
# Convention : Reuss Voigt Hill
#
# Bulk Modulus (GPa) = 9.09968 60.61958 34.85963
# Shear Modulus (GPa) = 13.09707 1.32890 7.21299
#
# Velocity S-wave (km/s) = 2.72093 0.86672 2.01924
# Velocity P-wave (km/s) = 3.87494 5.93873 5.01416
#
# Compressibility (1/GPa) = 0.10989398
#
# Stress axis : x y z
#
# Youngs Moduli (GPa) = 94.86747 6.93132 71.44611
#
# Poissons Ratio (x) = 0.03639 0.39741
# Poissons Ratio (y) = 0.49806 1.33216
# Poissons Ratio (z) = 0.52768 0.12924
#
# Static dielectric constant tensor:
#      x y z
#    x 1.601650 0.000000 0.004750 
#    y 0.000000 1.599570 0.000000 
#    z 0.004750 0.000000 1.592810 
# 
# From -- ./inp_files/93820.got.cif
#   From: 2010.05.17/outbox.cif.g08.bks.cpg/sg10_47_cif.got.tgz:93820.got - 2010.06.03 11:33:40.
