data_PCOD9143388
_publ_section_title
;
Structure prediction by ZEFSAII (Michael W. Deem and Ramdas Pophale) SiO2 
 PCOD9143388
Probable space group: P 2/M
;
_chemical_formula_sum "Si O2"
_cell_formula_units_Z 32
_cell_length_a 12.652903
_cell_length_b 8.564042
_cell_length_c 20.752867
_cell_angle_alpha 90.000000
_cell_angle_beta 54.223959
_cell_angle_gamma 90.000000
_cell_volume 1824.454424
_symmetry_space_group_name_H-M "P 2/M"
_symmetry_group_IT_number 10
_symmetry_cell_setting 'monoclinic'
loop_
_space_group_symop_operation_xyz
x,y,z
-x,y,-z
-x,-y,-z
x,-y,z
loop_
_atom_site_type_symbol
_atom_site_label
_atom_site_fract_x
_atom_site_fract_y
_atom_site_fract_z
Si Si1 0.586260 0.313481 0.698575
Si Si2 0.353013 0.814598 0.186795
Si Si3 0.290717 0.310443 0.834515
Si Si4 0.637035 0.310938 0.050997
Si Si5 0.309837 0.188413 0.613282
Si Si6 0.893911 0.311472 0.212736
Si Si7 0.811318 0.689032 0.868469
Si Si8 0.400274 0.188025 0.443259
O O1 0.588956 0.500000 0.701729
O O2 0.655538 0.244950 0.736783
O O3 0.433859 0.262760 0.758138
O O4 0.638495 0.258432 0.611210
O O5 0.491173 0.752638 0.109844
O O6 0.240610 0.750681 0.180760
O O7 0.353870 0.000000 0.185850
O O8 0.287609 0.500000 0.834451
O O9 0.286182 0.264434 0.911068
O O10 0.178625 0.254556 0.826410
O O11 0.628416 0.500000 0.053472
O O12 0.712434 0.260524 0.960313
O O13 0.194564 0.260197 0.695768
O O14 0.316565 0.234767 0.535689
O O15 0.449915 0.233242 0.593956
O O16 0.301993 0.000000 0.618669
O O17 0.895608 0.500000 0.209675
O O18 0.042334 0.258618 0.167536
O O19 0.809823 0.500000 0.867733
O O20 0.397116 0.000000 0.440343
#
# Coordination Sequence:
#
# PCOD9143388 Si02
#       8
#     4   4   4   4   4   4   4   4
#     4  10  18  31  53  79 105 131 165 211 259 302
#     4  11  22  35  53  75 100 131 171 217 260 305
#     4   8  15  28  47  74 102 129 162 202 249 299
#     4   9  18  34  54  75 101 131 168 215 263 302
#     4   9  18  31  48  73 108 143 170 201 244 297
#     4  10  19  32  50  74 105 138 175 210 247 301
#     4  10  21  35  52  73 100 137 175 215 257 300
#     4   9  17  30  49  76 107 138 171 203 244 298
#
# _framework density 17.539489
#
# number of rings (size 3 to 8) (size 9 to 14) (size 15 to 20)
#    0.000    2.500    1.250    3.375    0.000    3.500 
#    0.000    3.750    0.000    0.750    0.000    8.750 
#    0.000    0.000    0.000    0.000    0.000    0.000 
#
# Total GULP energy -178464.602376 kJ/mol
# GULP energy per Si atom -5577.018824 kJ/mol
# Density = 1.749957 g / cm^3
# Si number density = 17.539489 Si / 1000 Ang^3
#
#
#
# Elastic Constant Matrix: (Units=GPa)
#
#
# Indices 1 2 3 4 5 6 
#
# 1 115.1032 16.1798 24.7768 0.0000 23.3399 0.0000
# 2 16.1798 17.7487 7.8370 0.0000 4.9254 0.0000
# 3 24.7768 7.8370 31.8728 0.0000 22.7779 0.0000
# 4 0.0000 0.0000 0.0000 8.0708 0.0000 -0.5670
# 5 23.3399 4.9254 22.7779 0.0000 26.0298 0.0000
# 6 0.0000 0.0000 0.0000 -0.5670 0.0000 12.0305
#
#
#
# Elastic Compliance Matrix: (Units=1/GPa)
#
#
# Indices 1 2 3 4 5 6 
#
# 1 0.011678 -0.007757 -0.001966 0.000000 -0.007283 0.000000
# 2 -0.007757 0.068543 -0.017418 0.000000 0.009227 0.000000
# 3 -0.001966 -0.017418 0.089610 0.000000 -0.073356 0.000000
# 4 0.000000 0.000000 0.000000 0.124315 0.000000 0.005859
# 5 -0.007283 0.009227 -0.073356 0.000000 0.107394 0.000000
# 6 0.000000 0.000000 0.000000 0.005859 0.000000 0.083398
#
#
# Mechanical properties :
#
#
# Convention : Reuss Voigt Hill
#
# Bulk Modulus (GPa) = 8.65427 29.14576 18.90001
# Shear Modulus (GPa) = 8.65446 16.95497 12.80471
#
# Velocity S-wave (km/s) = 2.22373 3.11251 2.70488
# Velocity P-wave (km/s) = 3.39679 5.43785 4.53368
#
# Compressibility (1/GPa) = 0.11554990
#
# Stress axis : x y z
#
# Youngs Moduli (GPa) = 85.62924 14.58930 11.15945
#
# Poissons Ratio (x) = 0.11316 0.02194
# Poissons Ratio (y) = 0.66420 0.19438
# Poissons Ratio (z) = 0.16835 0.25412
#
# Static dielectric constant tensor:
#      x y z
#    x 1.596970 0.000000 0.017770 
#    y 0.000000 1.596400 0.000000 
#    z 0.017770 0.000000 1.588450 
# 
# From -- ./inp_files/54922.got.cif
#   From: 2010.05.17/outbox.cif.g08.bks.cpg/sg10_28_cif.got.tgz:54922.got - 2010.06.03 11:33:40.
