data_PCOD9143136
_publ_section_title
;
Structure prediction by ZEFSAII (Michael W. Deem and Ramdas Pophale) SiO2 
 PCOD9143136
Probable space group: P 2/M
;
_chemical_formula_sum "Si O2"
_cell_formula_units_Z 28
_cell_length_a 19.794085
_cell_length_b 13.795858
_cell_length_c 5.464902
_cell_angle_alpha 90.000000
_cell_angle_beta 65.535373
_cell_angle_gamma 90.000000
_cell_volume 1358.349490
_symmetry_space_group_name_H-M "P 2/M"
_symmetry_group_IT_number 10
_symmetry_cell_setting 'monoclinic'
loop_
_space_group_symop_operation_xyz
x,y,z
-x,y,-z
-x,-y,-z
x,-y,z
loop_
_atom_site_type_symbol
_atom_site_label
_atom_site_fract_x
_atom_site_fract_y
_atom_site_fract_z
Si Si1 0.287004 0.103374 0.069494
Si Si2 0.216392 0.839064 0.675412
Si Si3 0.911866 0.295509 0.132202
Si Si4 0.326299 0.322556 0.010552
Si Si5 0.846069 0.615413 0.730897
Si Si6 0.452837 0.106732 0.320745
Si Si7 0.353022 0.702235 0.470467
O O1 0.239111 0.109282 0.389764
O O2 0.328124 0.000000 0.007814
O O3 0.239111 0.109282 0.892902
O O4 0.332432 0.203939 0.001352
O O5 0.131818 0.806371 0.802272
O O6 0.267575 0.741170 0.598638
O O7 0.885288 0.347591 0.423208
O O8 0.885288 0.347591 0.920930
O O9 0.000000 0.287458 0.000000
O O10 0.363158 0.355064 0.704696
O O11 0.239270 0.348053 0.141095
O O12 0.363158 0.355064 0.205830
O O13 0.846118 0.500000 0.730823
O O14 0.500000 0.111379 0.500000
O O15 0.399443 0.198665 0.400835
O O16 0.415226 0.000000 0.377161
O O17 0.500000 0.111379 0.000000
#
# Coordination Sequence:
#
# PCOD9143136 Si02
#       7
#     4   4   4   4   4   4   4
#     4  10  18  30  54  76 102 133 176 238 280 313
#     4  10  19  36  52  79 110 142 194 237 275 328
#     4  12  23  40  61  82 117 156 186 239 306 357
#     4  10  19  35  53  83 112 140 192 246 278 326
#     4  12  23  40  60  85 119 150 188 242 302 359
#     4  10  21  35  50  81 125 156 185 227 281 342
#     4  10  18  32  58  71 107 155 188 223 270 326
#
# _framework density 20.613251999999999
#
# number of rings (size 3 to 8) (size 9 to 14) (size 15 to 20)
#    0.000    1.429    5.714    2.143    0.000    6.286 
#    0.000    1.429    0.000    2.571    0.000    0.000 
#    0.000   11.429    0.000    0.000    0.000    0.000 
#
# Total GULP energy -156274.913055 kJ/mol
# GULP energy per Si atom -5581.246895 kJ/mol
# Density = 2.056633 g / cm^3
# Si number density = 20.613252 Si / 1000 Ang^3
#
#
#
# Elastic Constant Matrix: (Units=GPa)
#
#
# Indices 1 2 3 4 5 6 
#
# 1 86.5824 6.1234 59.2815 0.0000 31.4252 0.0000
# 2 6.1234 11.0653 14.1039 0.0000 6.9113 0.0000
# 3 59.2815 14.1039 181.4147 0.0000 50.7017 0.0000
# 4 0.0000 0.0000 0.0000 19.3142 0.0000 11.6394
# 5 31.4252 6.9113 50.7017 0.0000 48.4878 0.0000
# 6 0.0000 0.0000 0.0000 11.6394 0.0000 5.8740
#
#
#
# Elastic Compliance Matrix: (Units=1/GPa)
#
#
# Indices 1 2 3 4 5 6 
#
# 1 0.016455 -0.000388 -0.003365 0.000000 -0.007090 0.000000
# 2 -0.000388 0.102976 -0.005436 0.000000 -0.008743 0.000000
# 3 -0.003365 -0.005436 0.008772 0.000000 -0.006217 0.000000
# 4 0.000000 0.000000 0.000000 -0.266710 0.000000 0.528486
# 5 -0.007090 -0.008743 -0.006217 0.000000 0.032966 0.000000
# 6 0.000000 0.000000 0.000000 0.528486 0.000000 -0.876956
#
#
# Mechanical properties :
#
#
# Convention : Reuss Voigt Hill
#
# Bulk Modulus (GPa) = 9.10543 48.67558 28.89051
# Shear Modulus (GPa) = -5.39076 28.03877 11.32400
#
# Velocity S-wave (km/s) = -1.61891 3.69213 2.34638
# Velocity P-wave (km/s) = 0.96559 6.46844 4.62456
#
# Compressibility (1/GPa) = 0.10982453
#
# Stress axis : x y z
#
# Youngs Moduli (GPa) = 60.77326 9.71102 114.00034
#
# Poissons Ratio (x) = 0.00377 0.38364
# Poissons Ratio (y) = 0.02358 0.61966
# Poissons Ratio (z) = 0.20451 0.05279
#
# Static dielectric constant tensor:
#      x y z
#    x 1.763320 0.000000 0.050180 
#    y 0.000000 1.725990 0.000000 
#    z 0.050180 0.000000 1.821260 
# 
# From -- ./inp_files/11371.got.cif
#   From: 2010.05.17/outbox.cif.g08.bks.cpg/sg10_6_cif.got.tgz:11371.got - 2010.06.03 11:33:40.
