data_PCOD9143093
_publ_section_title
;
Structure prediction by ZEFSAII (Michael W. Deem and Ramdas Pophale) SiO2 
 PCOD9143093
Probable space group: P 2/M
;
_chemical_formula_sum "Si O2"
_cell_formula_units_Z 32
_cell_length_a 12.200791
_cell_length_b 7.562286
_cell_length_c 22.058258
_cell_angle_alpha 90.000000
_cell_angle_beta 133.105845
_cell_angle_gamma 90.000000
_cell_volume 1485.902201
_symmetry_space_group_name_H-M "P 2/M"
_symmetry_group_IT_number 10
_symmetry_cell_setting 'monoclinic'
loop_
_space_group_symop_operation_xyz
x,y,z
-x,y,-z
-x,-y,-z
x,-y,z
loop_
_atom_site_type_symbol
_atom_site_label
_atom_site_fract_x
_atom_site_fract_y
_atom_site_fract_z
Si Si1 0.231902 0.298124 0.563459
Si Si2 0.908166 0.284481 0.025630
Si Si3 0.448917 0.283143 0.278227
Si Si4 0.134378 0.289133 0.213059
Si Si5 0.940664 0.797344 0.384636
Si Si6 0.571788 0.285553 0.870073
Si Si7 0.939541 0.212956 0.247418
Si Si8 0.623820 0.794643 0.091758
O O1 0.239866 0.500000 0.545024
O O2 0.398880 0.223396 0.631702
O O3 0.108818 0.205370 0.475273
O O4 0.163477 0.297536 0.605629
O O5 0.904286 0.500000 0.025243
O O6 0.003013 0.220808 0.118970
O O7 0.735727 0.227191 0.955963
O O8 0.000000 0.234730 0.000000
O O9 0.452324 0.500000 0.279896
O O10 0.296632 0.223378 0.253244
O O11 0.446668 0.231225 0.206701
O O12 0.139019 0.500000 0.205807
O O13 0.084690 0.254941 0.262670
O O14 0.940177 0.722934 0.316777
O O15 0.887976 0.000000 0.363065
O O16 0.566849 0.500000 0.870055
O O17 0.444567 0.216143 0.866776
O O18 0.790506 0.282892 0.157098
O O19 0.928340 0.000000 0.246201
O O20 0.640223 0.000000 0.079888
O O21 0.500000 0.713373 0.000000
#
# Coordination Sequence:
#
# PCOD9143093 Si02
#       8
#     4   4   4   4   4   4   4   4
#     4  10  19  33  56  83 108 129 161 212 262 308
#     4   9  15  27  49  75 103 135 169 206 250 297
#     4   9  18  32  51  79 108 132 161 208 264 305
#     4  10  19  33  54  77 103 138 176 211 251 302
#     4  10  20  36  56  77 103 136 171 207 254 308
#     4  10  18  30  52  78 103 131 170 213 251 301
#     4  10  22  38  53  72 103 141 176 210 252 302
#     4  10  21  36  51  70 103 140 169 207 258 303
#
# _framework density 21.535737000000001
#
# number of rings (size 3 to 8) (size 9 to 14) (size 15 to 20)
#    0.000    2.250    1.250    3.000    0.000    1.750 
#    0.000    3.125    0.000    4.500    0.000    0.000 
#    0.000    0.000    0.000    0.000    0.000    0.000 
#
# Total GULP energy -178781.074481 kJ/mol
# GULP energy per Si atom -5586.908578 kJ/mol
# Density = 2.148672 g / cm^3
# Si number density = 21.535737 Si / 1000 Ang^3
#
#
#
# Elastic Constant Matrix: (Units=GPa)
#
#
# Indices 1 2 3 4 5 6 
#
# 1 97.5884 -13.1922 39.6773 0.0000 7.7656 0.0000
# 2 -13.1922 53.0927 -1.3915 0.0000 2.9241 0.0000
# 3 39.6773 -1.3915 85.9764 0.0000 8.4170 0.0000
# 4 0.0000 0.0000 0.0000 7.5238 0.0000 -7.4962
# 5 7.7656 2.9241 8.4170 0.0000 36.7665 0.0000
# 6 0.0000 0.0000 0.0000 -7.4962 0.0000 16.4894
#
#
#
# Elastic Compliance Matrix: (Units=1/GPa)
#
#
# Indices 1 2 3 4 5 6 
#
# 1 0.013207 0.003221 -0.005876 0.000000 -0.001700 0.000000
# 2 0.003221 0.019722 -0.000969 0.000000 -0.002027 0.000000
# 3 -0.005876 -0.000969 0.014524 0.000000 -0.002007 0.000000
# 4 0.000000 0.000000 0.000000 0.242958 0.000000 0.110451
# 5 -0.001700 -0.002027 -0.002007 0.000000 0.028178 0.000000
# 6 0.000000 0.000000 0.000000 0.110451 0.000000 0.110857
#
#
# Mechanical properties :
#
#
# Convention : Reuss Voigt Hill
#
# Bulk Modulus (GPa) = 24.87289 31.87162 28.37226
# Shear Modulus (GPa) = 11.10877 26.26021 18.68449
#
# Velocity S-wave (km/s) = 2.27365 3.49575 2.94871
# Velocity P-wave (km/s) = 4.29736 5.57900 4.97958
#
# Compressibility (1/GPa) = 0.04020441
#
# Stress axis : x y z
#
# Youngs Moduli (GPa) = 75.71698 50.70579 68.85285
#
# Poissons Ratio (x) = -0.16334 0.40460
# Poissons Ratio (y) = -0.24391 0.06672
# Poissons Ratio (z) = 0.44494 0.04913
#
# Static dielectric constant tensor:
#      x y z
#    x 1.750160 0.000000 0.013040 
#    y 0.000000 1.821420 0.000000 
#    z 0.013040 0.000000 1.784200 
# 
# From -- ./inp_files/83626.got.cif
#   From: 2010.05.17/outbox.cif.g08.bks.cpg/sg10_42_cif.got.tgz:83626.got - 2010.06.03 11:33:40.
