data_PCOD9143089
_publ_section_title
;
Structure prediction by ZEFSAII (Michael W. Deem and Ramdas Pophale) SiO2 
 PCOD9143089
Probable space group: P 2/M
;
_chemical_formula_sum "Si O2"
_cell_formula_units_Z 32
_cell_length_a 26.779221
_cell_length_b 9.387504
_cell_length_c 21.756143
_cell_angle_alpha 90.000000
_cell_angle_beta 20.205795
_cell_angle_gamma 90.000000
_cell_volume 1889.050897
_symmetry_space_group_name_H-M "P 2/M"
_symmetry_group_IT_number 10
_symmetry_cell_setting 'monoclinic'
loop_
_space_group_symop_operation_xyz
x,y,z
-x,y,-z
-x,-y,-z
x,-y,z
loop_
_atom_site_type_symbol
_atom_site_label
_atom_site_fract_x
_atom_site_fract_y
_atom_site_fract_z
Si Si1 0.333947 0.666347 0.713753
Si Si2 0.655787 0.166381 0.522545
Si Si3 0.458145 0.169890 0.979115
Si Si4 0.171647 0.165103 0.796082
Si Si5 0.231474 0.664266 0.074480
Si Si6 0.862206 0.169353 0.701285
Si Si7 0.329917 0.167735 0.845717
Si Si8 0.561526 0.663237 0.745026
O O1 0.500000 0.676813 0.500000
O O2 0.300225 0.500000 0.762422
O O3 0.240405 0.735011 0.767797
O O4 0.313594 0.754389 0.799732
O O5 0.772311 0.206569 0.336352
O O6 0.497864 0.180642 0.673046
O O7 0.655225 0.259583 0.584562
O O8 0.674080 0.000000 0.517484
O O9 0.551374 0.251883 0.820431
O O10 0.480776 0.000000 0.946171
O O11 0.500000 0.210410 0.000000
O O12 0.288844 0.197565 0.159886
O O13 0.219851 0.000000 0.749841
O O14 0.000000 0.169436 0.000000
O O15 0.189482 0.500000 0.113336
O O16 0.140958 0.741131 0.232375
O O17 0.236573 0.754280 0.006020
O O18 0.397096 0.664631 0.908376
O O19 0.000000 0.202262 0.500000
O O20 0.864463 0.000000 0.712897
O O21 0.296395 0.000000 0.880455
O O22 0.604828 0.500000 0.703964
#
# Coordination Sequence:
#
# PCOD9143089 Si02
#       8
#     4   4   4   4   4   4   4   4
#     4  11  22  34  52  79 108 136 169 211 260 309
#     4   9  17  30  50  75 100 129 165 209 253 297
#     4   9  17  30  49  72  97 125 158 200 244 286
#     4  10  21  37  56  77 103 136 176 215 256 307
#     4   9  17  29  46  72 103 130 162 204 252 299
#     4   9  17  30  49  72  98 128 165 201 238 291
#     4  10  18  30  52  77 102 131 168 215 259 297
#     4   9  17  28  46  72  99 127 161 203 245 292
#
# _framework density 16.939723999999998
#
# number of rings (size 3 to 8) (size 9 to 14) (size 15 to 20)
#    0.000    2.500    1.250    1.500    0.000    5.250 
#    0.000    0.000    2.750    0.000    0.000    0.000 
#    0.000    0.000    0.000    0.000    0.000    0.000 
#
# Total GULP energy -178444.083043 kJ/mol
# GULP energy per Si atom -5576.377595 kJ/mol
# Density = 1.690117 g / cm^3
# Si number density = 16.939724 Si / 1000 Ang^3
#
#
#
# Elastic Constant Matrix: (Units=GPa)
#
#
# Indices 1 2 3 4 5 6 
#
# 1 106.4965 80.5751 53.0145 0.0000 42.2931 0.0000
# 2 80.5751 116.9115 66.7014 0.0000 35.8226 0.0000
# 3 53.0145 66.7014 97.8401 0.0000 40.4278 0.0000
# 4 0.0000 0.0000 0.0000 15.9626 0.0000 26.8147
# 5 42.2931 35.8226 40.4278 0.0000 34.9237 0.0000
# 6 0.0000 0.0000 0.0000 26.8147 0.0000 122.4159
#
#
#
# Elastic Compliance Matrix: (Units=1/GPa)
#
#
# Indices 1 2 3 4 5 6 
#
# 1 0.027274 -0.014178 0.004842 0.000000 -0.024091 0.000000
# 2 -0.014178 0.022143 -0.009820 0.000000 0.005825 0.000000
# 3 0.004842 -0.009820 0.024062 0.000000 -0.023645 0.000000
# 4 0.000000 0.000000 0.000000 0.099118 0.000000 -0.021711
# 5 -0.024091 0.005825 -0.023645 0.000000 0.079206 0.000000
# 6 0.000000 0.000000 0.000000 -0.021711 0.000000 0.012925
#
#
# Mechanical properties :
#
#
# Convention : Reuss Voigt Hill
#
# Bulk Modulus (GPa) = 28.43596 80.20335 54.31965
# Shear Modulus (GPa) = 15.88502 42.72425 29.30463
#
# Velocity S-wave (km/s) = 3.06557 5.02753 4.16376
# Velocity P-wave (km/s) = 5.41787 9.00836 7.43316
#
# Compressibility (1/GPa) = 0.03516674
#
# Stress axis : x y z
#
# Youngs Moduli (GPa) = 36.66488 45.16156 41.55899
#
# Poissons Ratio (x) = 0.64029 -0.20122
# Poissons Ratio (y) = 0.51983 0.40811
# Poissons Ratio (z) = -0.17752 0.44349
#
# Static dielectric constant tensor:
#      x y z
#    x 1.546870 0.000000 -0.000270 
#    y 0.000000 1.570240 0.000000 
#    z -0.000270 0.000000 1.559270 
# 
# From -- ./inp_files/52719.got.cif
#   From: 2010.05.17/outbox.cif.g08.bks.cpg/sg10_27_cif.got.tgz:52719.got - 2010.06.03 11:33:40.
