data_PCOD9143535
_publ_section_title
;
Structure prediction by ZEFSAII (Michael W. Deem and Ramdas Pophale) SiO2 
 PCOD9143535
Probable space group: P 2/M
;
_chemical_formula_sum "Si O2"
_cell_formula_units_Z 32
_cell_length_a 12.096054
_cell_length_b 8.834342
_cell_length_c 22.288304
_cell_angle_alpha 90.000000
_cell_angle_beta 49.922728
_cell_angle_gamma 90.000000
_cell_volume 1822.454818
_symmetry_space_group_name_H-M "P 2/M"
_symmetry_group_IT_number 10
_symmetry_cell_setting 'monoclinic'
loop_
_space_group_symop_operation_xyz
x,y,z
-x,y,-z
-x,-y,-z
x,-y,z
loop_
_atom_site_type_symbol
_atom_site_label
_atom_site_fract_x
_atom_site_fract_y
_atom_site_fract_z
Si Si1 0.171748 0.678701 0.451839
Si Si2 0.952749 0.179689 0.826831
Si Si3 0.060216 0.817953 0.913780
Si Si4 0.851263 0.319145 0.746623
Si Si5 0.259707 0.682594 0.681005
Si Si6 0.170183 0.683194 0.586939
Si Si7 0.348776 0.178965 0.282026
Si Si8 0.634271 0.680317 0.231222
O O1 0.211314 0.500000 0.433229
O O2 0.203537 0.735348 0.508195
O O3 0.254971 0.768830 0.372019
O O4 0.000000 0.688219 0.500000
O O5 0.947508 0.216577 0.899315
O O6 0.113039 0.234561 0.752045
O O7 0.849806 0.261676 0.815472
O O8 0.939685 0.000000 0.823834
O O9 0.209703 0.734455 0.846641
O O10 0.085614 0.000000 0.902967
O O11 0.000000 0.778240 0.000000
O O12 0.847797 0.500000 0.746455
O O13 0.725321 0.252721 0.750056
O O14 0.006992 0.271736 0.663334
O O15 0.236067 0.500000 0.691296
O O16 0.276747 0.723147 0.604875
O O17 0.372458 0.716857 0.694548
O O18 0.168482 0.500000 0.583699
O O19 0.508891 0.238533 0.238814
O O20 0.347258 0.000000 0.276605
O O21 0.621012 0.500000 0.229904
#
# Coordination Sequence:
#
# PCOD9143535 Si02
#       8
#     4   4   4   4   4   4   4   4
#     4  10  18  32  51  72  99 134 174 216 264 312
#     4   9  16  27  47  78 108 133 166 206 248 295
#     4   9  18  34  57  84 114 143 167 199 249 305
#     4  10  18  32  51  72  99 134 175 215 258 304
#     4   8  15  29  49  71  95 130 172 213 255 302
#     4   8  14  27  49  72  94 123 166 215 259 302
#     4  12  24  35  49  72 103 138 175 216 268 318
#     4  10  20  35  54  76 103 136 177 217 255 304
#
# _framework density 17.558734000000001
#
# number of rings (size 3 to 8) (size 9 to 14) (size 15 to 20)
#    0.000    2.500    1.250    3.000    0.000    1.500 
#    0.000    1.250    0.000    4.500    0.000    5.250 
#    0.000    0.000    0.000    0.000    0.000    0.000 
#
# Total GULP energy -178311.749962 kJ/mol
# GULP energy per Si atom -5572.242186 kJ/mol
# Density = 1.751877 g / cm^3
# Si number density = 17.558734 Si / 1000 Ang^3
#
#
#
# Elastic Constant Matrix: (Units=GPa)
#
#
# Indices 1 2 3 4 5 6 
#
# 1 127.9955 53.4707 52.2155 0.0000 35.1344 0.0000
# 2 53.4707 55.6420 29.7264 0.0000 15.6605 0.0000
# 3 52.2155 29.7264 70.1759 0.0000 34.6184 0.0000
# 4 0.0000 0.0000 0.0000 20.2163 0.0000 3.0692
# 5 35.1344 15.6605 34.6184 0.0000 32.1683 0.0000
# 6 0.0000 0.0000 0.0000 3.0692 0.0000 27.7025
#
#
#
# Elastic Compliance Matrix: (Units=1/GPa)
#
#
# Indices 1 2 3 4 5 6 
#
# 1 0.016301 -0.011655 -0.002575 0.000000 -0.009359 0.000000
# 2 -0.011655 0.031598 -0.007256 0.000000 0.005156 0.000000
# 3 -0.002575 -0.007256 0.034340 0.000000 -0.030611 0.000000
# 4 0.000000 0.000000 0.000000 0.050311 0.000000 -0.005574
# 5 -0.009359 0.005156 -0.030611 0.000000 0.071740 0.000000
# 6 0.000000 0.000000 0.000000 -0.005574 0.000000 0.036715
#
#
# Mechanical properties :
#
#
# Convention : Reuss Voigt Hill
#
# Bulk Modulus (GPa) = 25.46704 58.29318 41.88011
# Shear Modulus (GPa) = 16.83113 23.91080 20.37097
#
# Velocity S-wave (km/s) = 3.09942 3.69421 3.40981
# Velocity P-wave (km/s) = 5.22915 7.17407 6.27739
#
# Compressibility (1/GPa) = 0.03926644
#
# Stress axis : x y z
#
# Youngs Moduli (GPa) = 61.34436 31.64769 29.12037
#
# Poissons Ratio (x) = 0.36887 0.07500
# Poissons Ratio (y) = 0.71499 0.21129
# Poissons Ratio (z) = 0.15798 0.22963
#
# Static dielectric constant tensor:
#      x y z
#    x 1.626160 0.000000 0.035600 
#    y 0.000000 1.588310 0.000000 
#    z 0.035600 0.000000 1.603660 
# 
# From -- ./inp_files/83335.got.cif
#   From: 2010.05.17/outbox.cif.g08.bks.cpg/sg10_42_cif.got.tgz:83335.got - 2010.06.03 11:33:40.
