data_PCOD9143152
_publ_section_title
;
Structure prediction by ZEFSAII (Michael W. Deem and Ramdas Pophale) SiO2 
 PCOD9143152
Probable space group: P 2/M
;
_chemical_formula_sum "Si O2"
_cell_formula_units_Z 26
_cell_length_a 11.808330
_cell_length_b 9.545345
_cell_length_c 20.735088
_cell_angle_alpha 90.000000
_cell_angle_beta 38.722199
_cell_angle_gamma 90.000000
_cell_volume 1461.990465
_symmetry_space_group_name_H-M "P 2/M"
_symmetry_group_IT_number 10
_symmetry_cell_setting 'monoclinic'
loop_
_space_group_symop_operation_xyz
x,y,z
-x,y,-z
-x,-y,-z
x,-y,z
loop_
_atom_site_type_symbol
_atom_site_label
_atom_site_fract_x
_atom_site_fract_y
_atom_site_fract_z
Si Si1 0.592673 0.169673 0.390924
Si Si2 0.000000 0.264932 0.500000
Si Si3 0.479588 0.168767 0.170949
Si Si4 0.341294 0.665777 0.018377
Si Si5 0.948898 0.335692 0.255162
Si Si6 0.871499 0.655850 0.694138
Si Si7 0.601252 0.164260 0.651868
O O1 0.500000 0.209342 0.500000
O O2 0.475912 0.220031 0.381122
O O3 0.790064 0.238175 0.300566
O O4 0.604962 0.000000 0.384658
O O5 0.951098 0.345480 0.587059
O O6 0.816685 0.182407 0.564253
O O7 0.285228 0.228798 0.234344
O O8 0.490160 0.216943 0.241155
O O9 0.484678 0.000000 0.165291
O O10 0.623024 0.240683 0.060228
O O11 0.352671 0.500000 0.998073
O O12 0.144487 0.692319 0.136343
O O13 0.500000 0.695787 0.000000
O O14 0.905740 0.500000 0.264056
O O15 0.979515 0.313498 0.318082
O O16 0.796622 0.500000 0.742975
O O17 0.563279 0.000000 0.667638
#
# Coordination Sequence:
#
# PCOD9143152 Si02
#       7
#     4   2   4   4   4   4   4
#     4  10  21  38  58  80 110 148 187 225 270 323
#     4  10  18  30  56  82 103 138 189 226 265 334
#     4  10  20  33  53  81 110 141 179 224 273 328
#     4  10  19  36  58  80 111 148 179 225 284 326
#     4  10  21  36  56  80 109 145 184 223 275 327
#     4  10  19  33  50  76 112 144 176 222 278 327
#     4   9  19  35  53  78 113 145 176 226 286 326
#
# _framework density 17.783974000000001
#
# number of rings (size 3 to 8) (size 9 to 14) (size 15 to 20)
#    0.000    2.154    1.538    1.846    0.000    2.462 
#    0.000    5.385    0.000    4.615    0.000    0.000 
#    0.000    0.000    0.000    0.000    0.000    0.000 
#
# Total GULP energy -144907.917562 kJ/mol
# GULP energy per Si atom -5573.381445 kJ/mol
# Density = 1.774350 g / cm^3
# Si number density = 17.783974 Si / 1000 Ang^3
#
#
#
# Elastic Constant Matrix: (Units=GPa)
#
#
# Indices 1 2 3 4 5 6 
#
# 1 129.5308 29.5988 54.6020 0.0000 11.3728 0.0000
# 2 29.5988 30.1347 28.9202 0.0000 8.4402 0.0000
# 3 54.6020 28.9202 97.5673 0.0000 7.7723 0.0000
# 4 0.0000 0.0000 0.0000 27.0110 0.0000 -1.8102
# 5 11.3728 8.4402 7.7723 0.0000 25.9080 0.0000
# 6 0.0000 0.0000 0.0000 -1.8102 0.0000 22.0576
#
#
#
# Elastic Compliance Matrix: (Units=1/GPa)
#
#
# Indices 1 2 3 4 5 6 
#
# 1 0.011087 -0.006468 -0.004167 0.000000 -0.001510 0.000000
# 2 -0.006468 0.053590 -0.011372 0.000000 -0.011208 0.000000
# 3 -0.004167 -0.011372 0.015891 0.000000 0.000767 0.000000
# 4 0.000000 0.000000 0.000000 0.037227 0.000000 0.003055
# 5 -0.001510 -0.011208 0.000767 0.000000 0.042682 0.000000
# 6 0.000000 0.000000 0.000000 0.003055 0.000000 0.045587
#
#
# Mechanical properties :
#
#
# Convention : Reuss Voigt Hill
#
# Bulk Modulus (GPa) = 27.35706 53.71941 40.53824
# Shear Modulus (GPa) = 19.06473 24.60277 21.83375
#
# Velocity S-wave (km/s) = 3.27772 3.72348 3.50769
# Velocity P-wave (km/s) = 5.45353 6.98269 6.26494
#
# Compressibility (1/GPa) = 0.03655363
#
# Stress axis : x y z
#
# Youngs Moduli (GPa) = 90.19229 18.66012 62.92702
#
# Poissons Ratio (x) = 0.12069 0.26225
# Poissons Ratio (y) = 0.58335 0.71563
# Poissons Ratio (z) = 0.37587 0.21221
#
# Static dielectric constant tensor:
#      x y z
#    x 1.610990 0.000000 0.028820 
#    y 0.000000 1.599330 0.000000 
#    z 0.028820 0.000000 1.624180 
# 
# From -- ./inp_files/83495.got.cif
#   From: 2010.05.17/outbox.cif.g08.bks.cpg/sg10_42_cif.got.tgz:83495.got - 2010.06.03 11:33:40.
