data_PCOD9143970
_publ_section_title
;
Structure prediction by ZEFSAII (Michael W. Deem and Ramdas Pophale) SiO2 
 PCOD9143970
Probable space group: P 2/M
;
_chemical_formula_sum "Si O2"
_cell_formula_units_Z 28
_cell_length_a 7.200002
_cell_length_b 14.250122
_cell_length_c 15.735237
_cell_angle_alpha 90.000000
_cell_angle_beta 55.052330
_cell_angle_gamma 90.000000
_cell_volume 1323.324881
_symmetry_space_group_name_H-M "P 2/M"
_symmetry_group_IT_number 10
_symmetry_cell_setting 'monoclinic'
loop_
_space_group_symop_operation_xyz
x,y,z
-x,y,-z
-x,-y,-z
x,-y,z
loop_
_atom_site_type_symbol
_atom_site_label
_atom_site_fract_x
_atom_site_fract_y
_atom_site_fract_z
Si Si1 0.519644 0.105498 0.679768
Si Si2 0.663774 0.271869 0.383333
Si Si3 0.682681 0.306877 0.024493
Si Si4 0.035986 0.607824 0.814075
Si Si5 0.903147 0.230012 0.618870
Si Si6 0.646624 0.604562 0.768397
Si Si7 0.269048 0.102643 0.920081
O O1 0.461500 0.183431 0.625667
O O2 0.758768 0.134936 0.658648
O O3 0.338834 0.110869 0.803371
O O4 0.525273 0.000000 0.644495
O O5 0.500000 0.312634 0.500000
O O6 0.751160 0.343136 0.287815
O O7 0.892139 0.234996 0.368824
O O8 0.924709 0.333647 0.920863
O O9 0.500000 0.329776 0.000000
O O10 0.593327 0.366959 0.127522
O O11 0.655259 0.197264 0.053442
O O12 0.078184 0.500000 0.827247
O O13 0.838350 0.605211 0.792877
O O14 0.731304 0.314714 0.683886
O O15 0.000000 0.242020 0.500000
O O16 0.640983 0.500000 0.733789
O O17 0.357341 0.000000 0.926746
O O18 0.000000 0.101114 0.000000
#
# Coordination Sequence:
#
# PCOD9143970 Si02
#       7
#     4   4   4   4   4   4   4
#     4  11  24  43  65  91 124 161 207 257 307 367
#     4  11  23  41  64  89 124 165 205 255 311 366
#     4  10  18  33  61  88 121 155 197 254 303 360
#     4   9  19  35  59  91 123 161 203 247 306 365
#     4  11  22  41  64  89 125 160 206 257 309 366
#     4   9  18  34  59  89 121 159 201 250 307 365
#     4  10  21  38  59  84 121 164 199 247 310 363
#
# _framework density 21.158823999999999
#
# number of rings (size 3 to 8) (size 9 to 14) (size 15 to 20)
#    0.000    1.857    2.857    1.286    0.000    3.714 
#    0.000    0.714    0.000    1.714    0.000    0.000 
#    0.000    0.000    0.000    0.000    0.000    0.000 
#
# Total GULP energy -156409.072335 kJ/mol
# GULP energy per Si atom -5586.038298 kJ/mol
# Density = 2.111067 g / cm^3
# Si number density = 21.158824 Si / 1000 Ang^3
#
#
#
# Elastic Constant Matrix: (Units=GPa)
#
#
# Indices 1 2 3 4 5 6 
#
# 1 50.4391 -3.9865 -4.0449 0.0000 -12.3075 0.0000
# 2 -3.9865 123.9317 43.9828 0.0000 1.2066 0.0000
# 3 -4.0449 43.9828 125.4281 0.0000 -7.8072 0.0000
# 4 0.0000 0.0000 0.0000 31.7860 0.0000 -1.7720
# 5 -12.3075 1.2066 -7.8072 0.0000 23.2315 0.0000
# 6 0.0000 0.0000 0.0000 -1.7720 0.0000 24.8163
#
#
#
# Elastic Compliance Matrix: (Units=1/GPa)
#
#
# Indices 1 2 3 4 5 6 
#
# 1 0.023056 0.000083 0.001506 0.000000 0.012716 0.000000
# 2 0.000083 0.009275 -0.003347 0.000000 -0.001562 0.000000
# 3 0.001506 -0.003347 0.009453 0.000000 0.004148 0.000000
# 4 0.000000 0.000000 0.000000 0.031586 0.000000 0.002255
# 5 0.012716 -0.001562 0.004148 0.000000 0.051257 0.000000
# 6 0.000000 0.000000 0.000000 0.002255 0.000000 0.040457
#
#
# Mechanical properties :
#
#
# Convention : Reuss Voigt Hill
#
# Bulk Modulus (GPa) = 26.13104 41.30018 33.71561
# Shear Modulus (GPa) = 27.57016 33.55659 30.56337
#
# Velocity S-wave (km/s) = 3.61364 3.98670 3.80475
# Velocity P-wave (km/s) = 5.45783 6.38383 5.93891
#
# Compressibility (1/GPa) = 0.03826867
#
# Stress axis : x y z
#
# Youngs Moduli (GPa) = 43.37245 107.82122 105.78585
#
# Poissons Ratio (x) = -0.00900 -0.15929
# Poissons Ratio (y) = -0.00362 0.35404
# Poissons Ratio (z) = -0.06531 0.36086
#
# Static dielectric constant tensor:
#      x y z
#    x 1.818130 0.000000 -0.007070 
#    y 0.000000 1.742790 0.000000 
#    z -0.007070 0.000000 1.752670 
# 
# From -- ./inp_files/75288.got.cif
#   From: 2010.05.17/outbox.cif.g08.bks.cpg/sg10_38_cif.got.tgz:75288.got - 2010.06.03 11:33:40.
