data_PCOD9143497
_publ_section_title
;
Structure prediction by ZEFSAII (Michael W. Deem and Ramdas Pophale) SiO2 
 PCOD9143497
Probable space group: P 2/M
;
_chemical_formula_sum "Si O2"
_cell_formula_units_Z 20
_cell_length_a 12.382160
_cell_length_b 12.875102
_cell_length_c 11.228561
_cell_angle_alpha 90.000000
_cell_angle_beta 143.646460
_cell_angle_gamma 90.000000
_cell_volume 1061.095547
_symmetry_space_group_name_H-M "P 2/M"
_symmetry_group_IT_number 10
_symmetry_cell_setting 'monoclinic'
loop_
_space_group_symop_operation_xyz
x,y,z
-x,y,-z
-x,-y,-z
x,-y,z
loop_
_atom_site_type_symbol
_atom_site_label
_atom_site_fract_x
_atom_site_fract_y
_atom_site_fract_z
Si Si1 0.219559 0.883268 0.691553
Si Si2 0.260387 0.282008 0.550978
Si Si3 0.292336 0.667026 0.833067
Si Si4 0.061489 0.381997 0.858113
Si Si5 0.585489 0.624126 0.703761
O O1 0.268175 0.835379 0.605568
O O2 0.288923 0.793699 0.842995
O O3 0.000000 0.882426 0.500000
O O4 0.283083 0.000000 0.768570
O O5 0.205942 0.344246 0.624313
O O6 0.456358 0.319478 0.683293
O O7 0.108883 0.308561 0.319448
O O8 0.185461 0.619788 0.847892
O O9 0.500000 0.632122 0.000000
O O10 0.996193 0.500000 0.821682
O O11 0.202995 0.350199 0.086787
O O12 0.500000 0.648173 0.500000
O O13 0.571533 0.500000 0.709542
#
# Coordination Sequence:
#
# PCOD9143497 Si02
#       5
#     4   4   4   4   4
#     4   9  17  31  50  75 107 132 160 203 250 307
#     4  10  19  34  52  75 104 133 167 208 248 302
#     4  10  18  32  48  77 108 131 163 201 252 308
#     4  11  20  32  51  74 104 137 167 202 250 302
#     4  10  22  37  52  73 100 134 177 215 247 290
#
# _framework density 18.848443
#
# number of rings (size 3 to 8) (size 9 to 14) (size 15 to 20)
#    1.200    0.800    4.000    1.200    0.000    4.000 
#    0.000    3.000    0.000    0.600    0.000    1.400 
#    0.000    0.000    0.000    0.000    0.000    0.000 
#
# Total GULP energy -111401.904635 kJ/mol
# GULP energy per Si atom -5570.095232 kJ/mol
# Density = 1.880554 g / cm^3
# Si number density = 18.848443 Si / 1000 Ang^3
#
#
#
# Elastic Constant Matrix: (Units=GPa)
#
#
# Indices 1 2 3 4 5 6 
#
# 1 17.2312 2.0039 -4.6454 0.0000 -2.0201 0.0000
# 2 2.0039 56.6879 15.0742 0.0000 -4.7896 0.0000
# 3 -4.6454 15.0742 81.7131 0.0000 -3.4554 0.0000
# 4 0.0000 0.0000 0.0000 19.9322 0.0000 -0.4801
# 5 -2.0201 -4.7896 -3.4554 0.0000 28.1551 0.0000
# 6 0.0000 0.0000 0.0000 -0.4801 0.0000 -0.3417
#
#
#
# Elastic Compliance Matrix: (Units=1/GPa)
#
#
# Indices 1 2 3 4 5 6 
#
# 1 0.059983 -0.002850 0.004119 0.000000 0.004324 0.000000
# 2 -0.002850 0.018900 -0.003540 0.000000 0.002576 0.000000
# 3 0.004119 -0.003540 0.013181 0.000000 0.001311 0.000000
# 4 0.000000 0.000000 0.000000 0.048528 0.000000 -0.068185
# 5 0.004324 0.002576 0.001311 0.000000 0.036427 0.000000
# 6 0.000000 0.000000 0.000000 -0.068185 0.000000 -2.830896
#
#
# Mechanical properties :
#
#
# Convention : Reuss Voigt Hill
#
# Bulk Modulus (GPa) = 11.42582 20.05529 15.74056
# Shear Modulus (GPa) = -1.90828 19.09575 8.59374
#
# Velocity S-wave (km/s) = -1.00729 3.18641 2.13759
# Velocity P-wave (km/s) = 2.17308 4.91945 3.80284
#
# Compressibility (1/GPa) = 0.08752105
#
# Stress axis : x y z
#
# Youngs Moduli (GPa) = 16.67140 52.90966 75.86951
#
# Poissons Ratio (x) = 0.15080 -0.31248
# Poissons Ratio (y) = 0.04752 0.26856
# Poissons Ratio (z) = -0.06866 0.18729
#
# Static dielectric constant tensor:
#      x y z
#    x 1.676740 0.000000 -0.013900 
#    y 0.000000 1.640370 0.000000 
#    z -0.013900 0.000000 1.713250 
# 
# From -- ./inp_files/34975.got.cif
#   From: 2010.05.17/outbox.cif.g08.bks.cpg/sg10_18_cif.got.tgz:34975.got - 2010.06.03 11:33:40.
