data_PCOD9143613
_publ_section_title
;
Structure prediction by ZEFSAII (Michael W. Deem and Ramdas Pophale) SiO2 
 PCOD9143613
Probable space group: P 2/M
;
_chemical_formula_sum "Si O2"
_cell_formula_units_Z 28
_cell_length_a 23.620283
_cell_length_b 8.593573
_cell_length_c 15.468422
_cell_angle_alpha 90.000000
_cell_angle_beta 153.287231
_cell_angle_gamma 90.000000
_cell_volume 1411.406288
_symmetry_space_group_name_H-M "P 2/M"
_symmetry_group_IT_number 10
_symmetry_cell_setting 'monoclinic'
loop_
_space_group_symop_operation_xyz
x,y,z
-x,y,-z
-x,-y,-z
x,-y,z
loop_
_atom_site_type_symbol
_atom_site_label
_atom_site_fract_x
_atom_site_fract_y
_atom_site_fract_z
Si Si1 0.138723 0.189615 0.947066
Si Si2 0.236742 0.325097 0.442059
Si Si3 0.477314 0.680769 0.200070
Si Si4 0.576689 0.187093 0.690066
Si Si5 0.137056 0.823395 0.143968
Si Si6 0.131412 0.181911 0.461364
Si Si7 0.622387 0.312131 0.111517
O O1 0.012234 0.242369 0.725230
O O2 0.135684 0.000000 0.938767
O O3 0.277531 0.241831 0.108754
O O4 0.128244 0.230874 0.033934
O O5 0.194121 0.500000 0.404957
O O6 0.385631 0.315395 0.657607
O O7 0.214622 0.287344 0.312007
O O8 0.165530 0.205767 0.406639
O O9 0.447436 0.500000 0.177248
O O10 0.480119 0.766713 0.295129
O O11 0.387283 0.742934 0.001355
O O12 0.500000 0.242907 0.500000
O O13 0.578715 0.000000 0.686580
O O14 0.190054 0.000000 0.216392
O O15 0.000000 0.829039 0.000000
O O16 0.245126 0.264421 0.666177
O O17 0.134071 0.000000 0.486507
O O18 0.615170 0.500000 0.100241
O O19 0.500000 0.257165 0.000000
#
# Coordination Sequence:
#
# PCOD9143613 Si02
#       7
#     4   4   4   4   4   4   4
#     4   9  19  36  55  80 117 151 183 236 298 337
#     4  11  21  34  52  80 116 151 186 230 288 345
#     4  10  22  39  59  82 114 152 190 237 290 338
#     4  10  21  39  63  86 112 151 197 239 280 338
#     4  10  18  32  53  78 110 148 185 230 285 341
#     4  11  21  35  56  84 115 148 188 233 284 344
#     4  10  20  39  60  82 117 155 186 234 297 344
#
# _framework density 19.838370000000001
#
# number of rings (size 3 to 8) (size 9 to 14) (size 15 to 20)
#    0.000    1.857    2.857    1.714    0.000    3.714 
#    0.000    2.857    0.000    4.286    0.000    0.000 
#    0.000    0.000    0.000    0.000    0.000    0.000 
#
# Total GULP energy -156150.028154 kJ/mol
# GULP energy per Si atom -5576.786720 kJ/mol
# Density = 1.979322 g / cm^3
# Si number density = 19.838370 Si / 1000 Ang^3
#
#
#
# Elastic Constant Matrix: (Units=GPa)
#
#
# Indices 1 2 3 4 5 6 
#
# 1 56.3463 4.1582 27.7329 0.0000 -4.0656 0.0000
# 2 4.1582 10.0139 14.9382 0.0000 -1.5805 0.0000
# 3 27.7329 14.9382 130.6150 0.0000 -9.3816 0.0000
# 4 0.0000 0.0000 0.0000 -242.6643 0.0000 -0.3585
# 5 -4.0656 -1.5805 -9.3816 0.0000 32.1749 0.0000
# 6 0.0000 0.0000 0.0000 -0.3585 0.0000 11.0188
#
#
#
# Elastic Compliance Matrix: (Units=1/GPa)
#
#
# Indices 1 2 3 4 5 6 
#
# 1 0.019916 -0.002287 -0.003875 0.000000 0.001274 0.000000
# 2 -0.002287 0.120785 -0.013199 0.000000 0.001796 0.000000
# 3 -0.003875 -0.013199 0.010119 0.000000 0.001812 0.000000
# 4 0.000000 0.000000 0.000000 -0.004121 0.000000 -0.000134
# 5 0.001274 0.001796 0.001812 0.000000 0.031858 0.000000
# 6 0.000000 0.000000 0.000000 -0.000134 0.000000 0.090749
#
#
# Mechanical properties :
#
#
# Convention : Reuss Voigt Hill
#
# Bulk Modulus (GPa) = 8.92102 32.29265 20.60683
# Shear Modulus (GPa) = 14.47618 -29.88438 -7.70410
#
# Velocity S-wave (km/s) = 2.70424 -3.88544 -1.97278
# Velocity P-wave (km/s) = 3.77586 1.95336 2.28490
#
# Compressibility (1/GPa) = 0.11209479
#
# Stress axis : x y z
#
# Youngs Moduli (GPa) = 50.21189 8.27917 98.82691
#
# Poissons Ratio (x) = 0.01894 0.38300
# Poissons Ratio (y) = 0.11486 1.30445
# Poissons Ratio (z) = 0.19459 0.10928
#
# Static dielectric constant tensor:
#      x y z
#    x 1.689750 0.000000 -0.000810 
#    y 0.000000 1.684610 0.000000 
#    z -0.000810 0.000000 1.762690 
# 
# From -- ./inp_files/63485.got.cif
#   From: 2010.05.17/outbox.cif.g08.bks.cpg/sg10_32_cif.got.tgz:63485.got - 2010.06.03 11:33:40.
