data_PCOD9143595
_publ_section_title
;
Structure prediction by ZEFSAII (Michael W. Deem and Ramdas Pophale) SiO2 
 PCOD9143595
Probable space group: P 2/M
;
_chemical_formula_sum "Si O2"
_cell_formula_units_Z 32
_cell_length_a 20.788746
_cell_length_b 7.628822
_cell_length_c 29.973872
_cell_angle_alpha 90.000000
_cell_angle_beta 20.158309
_cell_angle_gamma 90.000000
_cell_volume 1638.185488
_symmetry_space_group_name_H-M "P 2/M"
_symmetry_group_IT_number 10
_symmetry_cell_setting 'monoclinic'
loop_
_space_group_symop_operation_xyz
x,y,z
-x,y,-z
-x,-y,-z
x,-y,z
loop_
_atom_site_type_symbol
_atom_site_label
_atom_site_fract_x
_atom_site_fract_y
_atom_site_fract_z
Si Si1 0.998931 0.209593 0.880379
Si Si2 0.037820 0.793857 0.194258
Si Si3 0.466757 0.290395 0.903629
Si Si4 0.440246 0.793451 0.352527
Si Si5 0.566465 0.709197 0.174018
Si Si6 0.670627 0.208933 0.858828
Si Si7 0.938006 0.215995 0.356081
Si Si8 0.174996 0.215033 0.855390
O O1 0.018591 0.281807 0.817323
O O2 0.133513 0.273689 0.831894
O O3 0.023376 0.000000 0.861904
O O4 0.784846 0.240386 0.034559
O O5 0.948661 0.724443 0.297673
O O6 0.993249 0.000000 0.222023
O O7 0.262557 0.777683 0.051064
O O8 0.452969 0.500000 0.911404
O O9 0.501581 0.227550 0.830343
O O10 0.618183 0.240493 0.841704
O O11 0.458483 0.774599 0.287531
O O12 0.248347 0.723206 0.497759
O O13 0.629786 0.722053 0.251437
O O14 0.440267 0.000000 0.362620
O O15 0.555246 0.500000 0.181776
O O16 0.871994 0.274664 0.743259
O O17 0.674326 0.000000 0.863615
O O18 0.500000 0.280484 0.000000
O O19 0.939339 0.000000 0.355350
O O20 0.175984 0.000000 0.855139
O O21 0.000000 0.268173 0.000000
#
# Coordination Sequence:
#
# PCOD9143595 Si02
#       8
#     4   4   4   4   4   4   4   4
#     4   9  16  28  50  74  97 129 165 198 241 291
#     4   9  16  30  50  72  99 130 163 199 241 288
#     4  10  20  32  49  75 101 126 160 204 248 288
#     4  10  19  33  52  70  98 134 164 197 241 294
#     4  10  20  33  48  71 102 128 161 206 246 285
#     4  10  18  32  53  75  99 126 161 204 241 282
#     4   9  18  32  50  74  99 127 162 200 242 286
#     4   9  15  26  46  75 100 122 162 207 239 276
#
# _framework density 19.533806999999999
#
# number of rings (size 3 to 8) (size 9 to 14) (size 15 to 20)
#    0.000    2.500    2.500    0.750    0.000    1.750 
#    0.000    3.750    0.000    7.500    0.000    0.000 
#    0.000    5.000    0.000    0.000    0.000    0.000 
#
# Total GULP energy -178494.104763 kJ/mol
# GULP energy per Si atom -5577.940774 kJ/mol
# Density = 1.948935 g / cm^3
# Si number density = 19.533807 Si / 1000 Ang^3
#
#
#
# Elastic Constant Matrix: (Units=GPa)
#
#
# Indices 1 2 3 4 5 6 
#
# 1 166.6821 -2.2177 104.7566 0.0000 11.4347 0.0000
# 2 -2.2177 35.8845 5.4745 0.0000 -5.3483 0.0000
# 3 104.7566 5.4745 146.7418 0.0000 14.0386 0.0000
# 4 0.0000 0.0000 0.0000 45.5252 0.0000 -13.0584
# 5 11.4347 -5.3483 14.0386 0.0000 25.8379 0.0000
# 6 0.0000 0.0000 0.0000 -13.0584 0.0000 -12.3314
#
#
#
# Elastic Compliance Matrix: (Units=1/GPa)
#
#
# Indices 1 2 3 4 5 6 
#
# 1 0.011008 0.001859 -0.007910 0.000000 -0.000189 0.000000
# 2 0.001859 0.029492 -0.003093 0.000000 0.006963 0.000000
# 3 -0.007910 -0.003093 0.012978 0.000000 -0.004191 0.000000
# 4 0.000000 0.000000 0.000000 0.016848 0.000000 -0.017842
# 5 -0.000189 0.006963 -0.004191 0.000000 0.042505 0.000000
# 6 0.000000 0.000000 0.000000 -0.017842 0.000000 -0.062200
#
#
# Mechanical properties :
#
#
# Convention : Reuss Voigt Hill
#
# Bulk Modulus (GPa) = 28.41792 62.81502 45.61647
# Shear Modulus (GPa) = 61.99660 27.89267 44.94463
#
# Velocity S-wave (km/s) = 5.63977 3.78288 4.80194
# Velocity P-wave (km/s) = 7.54911 7.16290 7.35854
#
# Compressibility (1/GPa) = 0.03518907
#
# Stress axis : x y z
#
# Youngs Moduli (GPa) = 90.83942 33.90778 77.05439
#
# Poissons Ratio (x) = -0.06303 0.60950
# Poissons Ratio (y) = -0.16886 0.23836
# Poissons Ratio (z) = 0.71854 0.10489
#
# Static dielectric constant tensor:
#      x y z
#    x 1.703380 0.000000 0.006920 
#    y 0.000000 1.735750 0.000000 
#    z 0.006920 0.000000 1.644110 
# 
# From -- ./inp_files/52768.got.cif
#   From: 2010.05.17/outbox.cif.g08.bks.cpg/sg10_27_cif.got.tgz:52768.got - 2010.06.03 11:33:40.
