data_PCOD9143895
_publ_section_title
;
Structure prediction by ZEFSAII (Michael W. Deem and Ramdas Pophale) SiO2 
 PCOD9143895
Probable space group: P 2/M
;
_chemical_formula_sum "Si O2"
_cell_formula_units_Z 24
_cell_length_a 15.204896
_cell_length_b 8.386351
_cell_length_c 30.454319
_cell_angle_alpha 90.000000
_cell_angle_beta 160.136340
_cell_angle_gamma 90.000000
_cell_volume 1319.493205
_symmetry_space_group_name_H-M "P 2/M"
_symmetry_group_IT_number 10
_symmetry_cell_setting 'monoclinic'
loop_
_space_group_symop_operation_xyz
x,y,z
-x,y,-z
-x,-y,-z
x,-y,z
loop_
_atom_site_type_symbol
_atom_site_label
_atom_site_fract_x
_atom_site_fract_y
_atom_site_fract_z
Si Si1 0.691224 0.189661 0.628363
Si Si2 0.431894 0.311467 0.334661
Si Si3 0.275656 0.692486 0.108485
Si Si4 0.280280 0.305134 0.615407
Si Si5 0.875208 0.813245 0.053126
Si Si6 0.745074 0.690400 0.085867
O O1 0.500000 0.245825 0.500000
O O2 0.569869 0.227303 0.619087
O O3 0.976996 0.266457 0.762428
O O4 0.724235 0.000000 0.639611
O O5 0.465669 0.500000 0.357665
O O6 0.636136 0.254230 0.394193
O O7 0.146401 0.282413 0.180294
O O8 0.282134 0.500000 0.108232
O O9 0.502664 0.744151 0.247656
O O10 0.288428 0.763996 0.065975
O O11 0.000000 0.738255 0.000000
O O12 0.282038 0.500000 0.615368
O O13 0.000000 0.252603 0.500000
O O14 0.741969 0.770931 0.036621
O O15 0.935582 0.000000 0.080430
O O16 0.735174 0.500000 0.075281
O O17 0.500000 0.739743 0.000000
#
# Coordination Sequence:
#
# PCOD9143895 Si02
#       6
#     4   4   4   4   4   4
#     4  10  21  37  57  81 111 147 181 218 272 332
#     4  10  18  33  57  80 105 139 184 226 267 313
#     4  10  18  33  56  79 105 138 180 224 263 309
#     4   9  18  33  53  78 107 138 173 220 272 313
#     4  11  21  33  54  82 111 142 180 218 268 326
#     4  10  21  38  60  84 109 139 182 231 276 320
#
# _framework density 18.188801000000002
#
# number of rings (size 3 to 8) (size 9 to 14) (size 15 to 20)
#    0.000    2.000    1.667    5.000    0.000    3.000 
#    3.000    0.000    0.000    3.500    0.000    0.000 
#    0.000    0.000    0.000    0.000    0.000    0.000 
#
# Total GULP energy -133958.311367 kJ/mol
# GULP energy per Si atom -5581.596307 kJ/mol
# Density = 1.814740 g / cm^3
# Si number density = 18.188801 Si / 1000 Ang^3
#
#
#
# Elastic Constant Matrix: (Units=GPa)
#
#
# Indices 1 2 3 4 5 6 
#
# 1 118.7630 -2.0456 73.8586 0.0000 7.9405 0.0000
# 2 -2.0456 18.1167 2.5337 0.0000 0.3319 0.0000
# 3 73.8586 2.5337 109.9171 0.0000 -2.4310 0.0000
# 4 0.0000 0.0000 0.0000 10.7761 0.0000 -19.9150
# 5 7.9405 0.3319 -2.4310 0.0000 35.2992 0.0000
# 6 0.0000 0.0000 0.0000 -19.9150 0.0000 12.0565
#
#
#
# Elastic Compliance Matrix: (Units=1/GPa)
#
#
# Indices 1 2 3 4 5 6 
#
# 1 0.015218 0.003248 -0.010393 0.000000 -0.004170 0.000000
# 2 0.003248 0.056083 -0.003509 0.000000 -0.001500 0.000000
# 3 -0.010393 -0.003509 0.016239 0.000000 0.003489 0.000000
# 4 0.000000 0.000000 0.000000 -0.045208 0.000000 -0.074676
# 5 -0.004170 -0.001500 0.003489 0.000000 0.029522 0.000000
# 6 0.000000 0.000000 0.000000 -0.074676 0.000000 -0.040407
#
#
# Mechanical properties :
#
#
# Convention : Reuss Voigt Hill
#
# Bulk Modulus (GPa) = 15.09806 43.94335 29.52070
# Shear Modulus (GPa) = 66.81736 23.12301 44.97019
#
# Velocity S-wave (km/s) = 6.06755 3.56937 4.97773
# Velocity P-wave (km/s) = 7.57665 6.41866 7.02157
#
# Compressibility (1/GPa) = 0.06623369
#
# Stress axis : x y z
#
# Youngs Moduli (GPa) = 65.71058 17.83080 61.57877
#
# Poissons Ratio (x) = -0.05792 0.63999
# Poissons Ratio (y) = -0.21344 0.21605
# Poissons Ratio (z) = 0.68293 0.06256
#
# Static dielectric constant tensor:
#      x y z
#    x 1.624950 0.000000 -0.001470 
#    y 0.000000 1.613770 0.000000 
#    z -0.001470 0.000000 1.607120 
# 
# From -- ./inp_files/90057.got.cif
#   From: 2010.05.17/outbox.cif.g08.bks.cpg/sg10_46_cif.got.tgz:90057.got - 2010.06.03 11:33:40.
