data_PCOD9143062
_publ_section_title
;
Structure prediction by ZEFSAII (Michael W. Deem and Ramdas Pophale) SiO2 
 PCOD9143062
Probable space group: P 2/M
;
_chemical_formula_sum "Si O2"
_cell_formula_units_Z 32
_cell_length_a 12.657458
_cell_length_b 7.588088
_cell_length_c 31.305524
_cell_angle_alpha 90.000000
_cell_angle_beta 27.428916
_cell_angle_gamma 90.000000
_cell_volume 1385.060748
_symmetry_space_group_name_H-M "P 2/M"
_symmetry_group_IT_number 10
_symmetry_cell_setting 'monoclinic'
loop_
_space_group_symop_operation_xyz
x,y,z
-x,y,-z
-x,-y,-z
x,-y,z
loop_
_atom_site_type_symbol
_atom_site_label
_atom_site_fract_x
_atom_site_fract_y
_atom_site_fract_z
Si Si1 0.225125 0.213410 0.862549
Si Si2 0.535580 0.706783 0.825636
Si Si3 0.411781 0.786836 0.428638
Si Si4 0.620448 0.795402 0.656192
Si Si5 0.113166 0.785237 0.084813
Si Si6 0.085408 0.785700 0.754267
Si Si7 0.398606 0.798784 0.102609
Si Si8 0.921226 0.293642 0.621786
O O1 0.304943 0.271050 0.880572
O O2 0.426384 0.276105 0.757876
O O3 0.994824 0.272782 0.921396
O O4 0.222791 0.000000 0.864688
O O5 0.570528 0.500000 0.821262
O O6 0.544901 0.799866 0.867519
O O7 0.744719 0.775402 0.720731
O O8 0.374534 0.721147 0.393105
O O9 0.665570 0.725574 0.350886
O O10 0.188039 0.733138 0.535197
O O11 0.410917 0.000000 0.429093
O O12 0.852134 0.785794 0.600654
O O13 0.558717 0.000000 0.672646
O O14 0.950213 0.741039 0.182988
O O15 0.123193 0.000000 0.079984
O O16 0.370520 0.719006 0.000217
O O17 0.853122 0.721509 0.814931
O O18 0.090851 0.000000 0.749063
O O19 0.383917 0.000000 0.091591
O O20 0.875463 0.500000 0.634466
#
# Coordination Sequence:
#
# PCOD9143062 Si02
#       8
#     4   4   4   4   4   4   4   4
#     4   9  16  30  54  80 107 137 170 210 255 310
#     4  10  22  39  53  69 104 145 180 218 260 304
#     4  10  18  30  51  78 106 135 166 205 258 313
#     4   9  16  28  48  75 106 137 165 200 255 315
#     4   9  16  30  55  86 112 132 163 212 265 312
#     4   9  17  32  54  83 113 135 164 211 263 312
#     4  10  20  34  57  82 103 136 179 217 254 303
#     4  10  21  34  49  71 100 137 177 215 256 303
#
# _framework density 23.103679
#
# number of rings (size 3 to 8) (size 9 to 14) (size 15 to 20)
#    0.000    2.500    1.250    1.500    0.000    5.500 
#    0.000    4.375    0.000    6.750    0.000    0.000 
#    0.000    0.000    0.000    0.000    0.000    0.000 
#
# Total GULP energy -178633.084250 kJ/mol
# GULP energy per Si atom -5582.283883 kJ/mol
# Density = 2.305109 g / cm^3
# Si number density = 23.103679 Si / 1000 Ang^3
#
#
#
# Elastic Constant Matrix: (Units=GPa)
#
#
# Indices 1 2 3 4 5 6 
#
# 1 85.4695 -6.9613 25.9148 0.0000 -24.8449 0.0000
# 2 -6.9613 55.9423 -4.4786 0.0000 2.2280 0.0000
# 3 25.9148 -4.4786 80.8428 0.0000 -35.3567 0.0000
# 4 0.0000 0.0000 0.0000 -0.2337 0.0000 28.1880
# 5 -24.8449 2.2280 -35.3567 0.0000 38.3719 0.0000
# 6 0.0000 0.0000 0.0000 28.1880 0.0000 93.8485
#
#
#
# Elastic Compliance Matrix: (Units=1/GPa)
#
#
# Indices 1 2 3 4 5 6 
#
# 1 0.014561 0.001403 -0.000841 0.000000 0.008571 0.000000
# 2 0.001403 0.018091 0.000821 0.000000 0.000615 0.000000
# 3 -0.000841 0.000821 0.020813 0.000000 0.018585 0.000000
# 4 0.000000 0.000000 0.000000 -0.114940 0.000000 0.034523
# 5 0.008571 0.000615 0.018585 0.000000 0.048700 0.000000
# 6 0.000000 0.000000 0.000000 0.034523 0.000000 0.000286
#
#
# Mechanical properties :
#
#
# Convention : Reuss Voigt Hill
#
# Bulk Modulus (GPa) = 17.78335 27.91159 22.84747
# Shear Modulus (GPa) = 1433.15206 40.24933 736.70069
#
# Velocity S-wave (km/s) = 24.93311 4.17840 17.87623
# Velocity P-wave (km/s) = 28.92393 5.94861 20.88037
#
# Compressibility (1/GPa) = 0.05623238
#
# Stress axis : x y z
#
# Youngs Moduli (GPa) = 68.67663 55.27471 48.04649
#
# Poissons Ratio (x) = -0.07756 0.04042
# Poissons Ratio (y) = -0.09637 -0.03947
# Poissons Ratio (z) = 0.05777 -0.04540
#
# Static dielectric constant tensor:
#      x y z
#    x 1.862770 0.000000 -0.027550 
#    y 0.000000 1.889310 0.000000 
#    z -0.027550 0.000000 1.900390 
# 
# From -- ./inp_files/94918.got.cif
#   From: 2010.05.17/outbox.cif.g08.bks.cpg/sg10_48_cif.got.tgz:94918.got - 2010.06.03 11:33:40.
