data_PCOD9143840
_publ_section_title
;
Structure prediction by ZEFSAII (Michael W. Deem and Ramdas Pophale) SiO2 
 PCOD9143840
Probable space group: P 2/M
;
_chemical_formula_sum "Si O2"
_cell_formula_units_Z 32
_cell_length_a 9.687282
_cell_length_b 13.877066
_cell_length_c 28.141037
_cell_angle_alpha 90.000000
_cell_angle_beta 149.014061
_cell_angle_gamma 90.000000
_cell_volume 1947.608227
_symmetry_space_group_name_H-M "P 2/M"
_symmetry_group_IT_number 10
_symmetry_cell_setting 'monoclinic'
loop_
_space_group_symop_operation_xyz
x,y,z
-x,y,-z
-x,-y,-z
x,-y,z
loop_
_atom_site_type_symbol
_atom_site_label
_atom_site_fract_x
_atom_site_fract_y
_atom_site_fract_z
Si Si1 0.478091 0.222054 0.788745
Si Si2 0.454535 0.226929 0.892684
Si Si3 0.578944 0.113215 0.399022
Si Si4 0.167650 0.606617 0.005468
Si Si5 0.013097 0.885026 0.916983
Si Si6 0.903305 0.112817 0.395313
Si Si7 0.098087 0.780948 0.214480
Si Si8 0.296498 0.388879 0.206794
O O1 0.398548 0.218326 0.820134
O O2 0.256881 0.168019 0.692134
O O3 0.516994 0.326148 0.774267
O O4 0.766219 0.167174 0.870967
O O5 0.581607 0.332072 0.934706
O O6 0.188249 0.224031 0.844913
O O7 0.696798 0.155989 0.981076
O O8 0.731129 0.120386 0.393106
O O9 0.313017 0.174593 0.314169
O O10 0.796078 0.145248 0.502377
O O11 0.519608 0.000000 0.389162
O O12 0.245051 0.500000 0.044342
O O13 0.000000 0.651010 0.000000
O O14 0.974445 0.602856 0.903687
O O15 0.949742 0.852719 0.844250
O O16 0.003108 0.000000 0.919501
O O17 0.916889 0.000000 0.387255
O O18 0.221166 0.681868 0.228511
O O19 0.383171 0.500000 0.242871
#
# Coordination Sequence:
#
# PCOD9143840 Si02
#       8
#     4   4   4   4   4   4   4   4
#     4  11  20  35  56  76 106 134 176 222 258 310
#     4  12  23  34  48  79 109 145 174 204 266 315
#     4   9  17  33  57  81 101 131 177 222 263 304
#     4  10  18  33  54  75 102 137 180 222 257 296
#     4  11  22  36  51  70 104 145 181 212 248 306
#     4   9  17  32  58  83  99 128 178 226 263 301
#     4  11  22  35  53  74 110 140 172 216 261 318
#     4  10  20  34  54  76 102 137 174 217 256 303
#
# _framework density 16.430409999999998
#
# number of rings (size 3 to 8) (size 9 to 14) (size 15 to 20)
#    0.000    1.625    6.250    2.250    0.000    3.500 
#    0.000    1.875    0.000    3.000    0.000    0.000 
#    0.000    3.000    0.000    0.000    0.000    0.000 
#
# Total GULP energy -178276.860751 kJ/mol
# GULP energy per Si atom -5571.151898 kJ/mol
# Density = 1.639301 g / cm^3
# Si number density = 16.430410 Si / 1000 Ang^3
#
#
#
# Elastic Constant Matrix: (Units=GPa)
#
#
# Indices 1 2 3 4 5 6 
#
# 1 28.0351 6.2323 -7.8130 0.0000 3.3572 0.0000
# 2 6.2323 90.6518 29.7060 0.0000 -0.8408 0.0000
# 3 -7.8130 29.7060 84.6646 0.0000 -6.3362 0.0000
# 4 0.0000 0.0000 0.0000 16.9938 0.0000 -0.3343
# 5 3.3572 -0.8408 -6.3362 0.0000 18.7956 0.0000
# 6 0.0000 0.0000 0.0000 -0.3343 0.0000 5.9150
#
#
#
# Elastic Compliance Matrix: (Units=1/GPa)
#
#
# Indices 1 2 3 4 5 6 
#
# 1 0.038557 -0.004218 0.004625 0.000000 -0.005516 0.000000
# 2 -0.004218 0.012942 -0.004955 0.000000 -0.000338 0.000000
# 3 0.004625 -0.004955 0.014258 0.000000 0.003759 0.000000
# 4 0.000000 0.000000 0.000000 0.058910 0.000000 0.003329
# 5 -0.005516 -0.000338 0.003759 0.000000 0.055441 0.000000
# 6 0.000000 0.000000 0.000000 0.003329 0.000000 0.169250
#
#
# Mechanical properties :
#
#
# Convention : Reuss Voigt Hill
#
# Bulk Modulus (GPa) = 17.64889 28.84471 23.24680
# Shear Modulus (GPa) = 13.25061 20.02264 16.63663
#
# Velocity S-wave (km/s) = 2.84292 3.49468 3.18551
# Velocity P-wave (km/s) = 4.64125 5.82044 5.26397
#
# Compressibility (1/GPa) = 0.05666079
#
# Stress axis : x y z
#
# Youngs Moduli (GPa) = 25.93587 77.26847 70.13559
#
# Poissons Ratio (x) = 0.32588 -0.32438
# Poissons Ratio (y) = 0.10939 0.34755
# Poissons Ratio (z) = -0.11995 0.38290
#
# Static dielectric constant tensor:
#      x y z
#    x 1.450280 0.000000 -0.020220 
#    y 0.000000 1.590780 0.000000 
#    z -0.020220 0.000000 1.555490 
# 
# From -- ./inp_files/92397.got.cif
#   From: 2010.05.17/outbox.cif.g08.bks.cpg/sg10_47_cif.got.tgz:92397.got - 2010.06.03 11:33:40.
