data_PCOD9143416
_publ_section_title
;
Structure prediction by ZEFSAII (Michael W. Deem and Ramdas Pophale) SiO2 
 PCOD9143416
Probable space group: P 2/M
;
_chemical_formula_sum "Si O2"
_cell_formula_units_Z 32
_cell_length_a 21.594390
_cell_length_b 7.749943
_cell_length_c 14.527609
_cell_angle_alpha 90.000000
_cell_angle_beta 136.411559
_cell_angle_gamma 90.000000
_cell_volume 1676.297619
_symmetry_space_group_name_H-M "P 2/M"
_symmetry_group_IT_number 10
_symmetry_cell_setting 'monoclinic'
loop_
_space_group_symop_operation_xyz
x,y,z
-x,y,-z
-x,-y,-z
x,-y,z
loop_
_atom_site_type_symbol
_atom_site_label
_atom_site_fract_x
_atom_site_fract_y
_atom_site_fract_z
Si Si1 0.674954 0.703761 0.357082
Si Si2 0.046622 0.791608 0.359788
Si Si3 0.144390 0.293031 0.919179
Si Si4 0.816825 0.793586 0.652517
Si Si5 0.516645 0.710842 0.912602
Si Si6 0.291085 0.299220 0.943558
Si Si7 0.904741 0.295098 0.932586
Si Si8 0.188963 0.198671 0.654402
O O1 0.677978 0.500000 0.338758
O O2 0.724312 0.734956 0.506495
O O3 0.571844 0.759849 0.239721
O O4 0.735487 0.794032 0.344369
O O5 0.103895 0.732076 0.331867
O O6 0.099684 0.731141 0.507921
O O7 0.944364 0.739317 0.237066
O O8 0.051280 0.000000 0.366374
O O9 0.155109 0.500000 0.937107
O O10 0.232239 0.222089 0.962690
O O11 0.125623 0.224034 0.001519
O O12 0.835623 0.730875 0.775173
O O13 0.819161 0.000000 0.654940
O O14 0.521318 0.500000 0.919247
O O15 0.500000 0.765441 0.000000
O O16 0.611529 0.776157 0.976288
O O17 0.306918 0.500000 0.982784
O O18 0.229141 0.291179 0.785915
O O19 0.917646 0.500000 0.959824
O O20 0.000000 0.221625 0.000000
O O21 0.172961 0.000000 0.663556
#
# Coordination Sequence:
#
# PCOD9143416 Si02
#       8
#     4   4   4   4   4   4   4   4
#     4  10  18  31  54  78 102 133 167 209 257 299
#     4   9  19  33  48  68 101 138 169 201 244 300
#     4  10  21  34  51  75 101 131 169 214 254 293
#     4  10  20  33  51  78 106 133 167 209 255 301
#     4   9  16  30  53  78  99 128 169 208 250 298
#     4  10  20  35  52  73 102 134 170 210 253 301
#     4  10  19  33  53  77 102 130 170 214 253 297
#     4  10  20  33  48  73 105 138 173 207 246 295
#
# _framework density 19.089687999999999
#
# number of rings (size 3 to 8) (size 9 to 14) (size 15 to 20)
#    0.000    2.250    2.500    1.875    0.000    4.250 
#    0.000    4.375    0.000    0.750    0.000    5.250 
#    0.000    0.000    0.000    0.000    0.000    0.000 
#
# Total GULP energy -178569.465528 kJ/mol
# GULP energy per Si atom -5580.295798 kJ/mol
# Density = 1.904624 g / cm^3
# Si number density = 19.089688 Si / 1000 Ang^3
#
#
#
# Elastic Constant Matrix: (Units=GPa)
#
#
# Indices 1 2 3 4 5 6 
#
# 1 127.9099 4.8612 76.8948 0.0000 17.1804 0.0000
# 2 4.8612 26.8455 -12.3396 0.0000 2.6678 0.0000
# 3 76.8948 -12.3396 112.5605 0.0000 11.6932 0.0000
# 4 0.0000 0.0000 0.0000 53.3887 0.0000 4.6009
# 5 17.1804 2.6678 11.6932 0.0000 21.7409 0.0000
# 6 0.0000 0.0000 0.0000 4.6009 0.0000 3.7109
#
#
#
# Elastic Compliance Matrix: (Units=1/GPa)
#
#
# Indices 1 2 3 4 5 6 
#
# 1 0.015176 -0.007070 -0.010577 0.000000 -0.005436 0.000000
# 2 -0.007070 0.043726 0.010168 0.000000 -0.005248 0.000000
# 3 -0.010577 0.010168 0.017462 0.000000 -0.002281 0.000000
# 4 0.000000 0.000000 0.000000 0.020971 0.000000 -0.026001
# 5 -0.005436 -0.005248 -0.002281 0.000000 0.052162 0.000000
# 6 0.000000 0.000000 0.000000 -0.026001 0.000000 0.301714
#
#
# Mechanical properties :
#
#
# Convention : Reuss Voigt Hill
#
# Bulk Modulus (GPa) = 16.28527 45.12764 30.70645
# Shear Modulus (GPa) = 10.27461 28.96140 19.61800
#
# Velocity S-wave (km/s) = 2.32249 3.89925 3.20922
# Velocity P-wave (km/s) = 3.96754 6.63049 5.46373
#
# Compressibility (1/GPa) = 0.06140519
#
# Stress axis : x y z
#
# Youngs Moduli (GPa) = 65.89545 22.86981 57.26842
#
# Poissons Ratio (x) = 0.16168 0.60575
# Poissons Ratio (y) = 0.46587 -0.58232
# Poissons Ratio (z) = 0.69700 -0.23255
#
# Static dielectric constant tensor:
#      x y z
#    x 1.678590 0.000000 0.007080 
#    y 0.000000 1.688410 0.000000 
#    z 0.007080 0.000000 1.660740 
# 
# From -- ./inp_files/69968.got.cif
#   From: 2010.05.17/outbox.cif.g08.bks.cpg/sg10_35_cif.got.tgz:69968.got - 2010.06.03 11:33:40.
