data_PCOD9143058
_publ_section_title
;
Structure prediction by ZEFSAII (Michael W. Deem and Ramdas Pophale) SiO2 
 PCOD9143058
Probable space group: P 2/M
;
_chemical_formula_sum "Si O2"
_cell_formula_units_Z 32
_cell_length_a 13.519423
_cell_length_b 17.332781
_cell_length_c 13.956270
_cell_angle_alpha 90.000000
_cell_angle_beta 148.122288
_cell_angle_gamma 90.000000
_cell_volume 1727.104251
_symmetry_space_group_name_H-M "P 2/M"
_symmetry_group_IT_number 10
_symmetry_cell_setting 'monoclinic'
loop_
_space_group_symop_operation_xyz
x,y,z
-x,y,-z
-x,-y,-z
x,-y,z
loop_
_atom_site_type_symbol
_atom_site_label
_atom_site_fract_x
_atom_site_fract_y
_atom_site_fract_z
Si Si1 0.240545 0.411364 0.410070
Si Si2 0.010296 0.296791 0.902152
Si Si3 0.161524 0.909358 0.551634
Si Si4 0.643431 0.411632 0.835504
Si Si5 0.946426 0.803360 0.248134
Si Si6 0.482110 0.672260 0.871306
Si Si7 0.551848 0.840325 0.932737
Si Si8 0.930210 0.654636 0.541303
O O1 0.221268 0.500000 0.363499
O O2 0.455819 0.398021 0.618289
O O3 0.113378 0.396698 0.401271
O O4 0.165283 0.351252 0.270731
O O5 0.025097 0.232637 0.832417
O O6 0.189385 0.353437 0.046839
O O7 0.000000 0.264196 0.000000
O O8 0.378276 0.890572 0.754703
O O9 0.000000 0.889916 0.500000
O O10 0.115779 0.854697 0.425210
O O11 0.142358 0.000000 0.518084
O O12 0.701921 0.500000 0.870677
O O13 0.577296 0.396056 0.890468
O O14 0.946255 0.727890 0.320305
O O15 0.769034 0.861627 0.106317
O O16 0.567933 0.753156 0.906711
O O17 0.270808 0.682859 0.661429
O O18 0.500000 0.661165 0.000000
O O19 0.500000 0.828663 0.000000
O O20 0.000000 0.615903 0.500000
#
# Coordination Sequence:
#
# PCOD9143058 Si02
#       8
#     4   4   4   4   4   4   4   4
#     4   9  21  37  53  77 111 146 183 235 294 342
#     4  11  24  40  61  84 103 142 202 250 291 336
#     4  11  23  37  57  91 128 156 181 215 267 337
#     4  10  21  38  54  80 118 149 187 243 295 341
#     4  11  21  37  58  81 117 149 188 235 277 330
#     4  10  19  30  51  79 112 156 197 226 270 333
#     4  11  19  32  57  83 116 159 191 215 266 329
#     4  10  18  30  51  77 109 149 190 224 270 328
#
# _framework density 18.528123999999998
#
# number of rings (size 3 to 8) (size 9 to 14) (size 15 to 20)
#    0.000    1.625    3.750    2.250    1.750    2.750 
#    0.000    1.250    0.000    0.375    0.000    0.875 
#    0.000    0.000    0.000    0.000    0.000    0.000 
#
# Total GULP energy -178277.076531 kJ/mol
# GULP energy per Si atom -5571.158642 kJ/mol
# Density = 1.848595 g / cm^3
# Si number density = 18.528124 Si / 1000 Ang^3
#
#
#
# Elastic Constant Matrix: (Units=GPa)
#
#
# Indices 1 2 3 4 5 6 
#
# 1 46.4493 18.1355 28.3196 0.0000 -18.7626 0.0000
# 2 18.1355 62.0603 26.0919 0.0000 -5.2530 0.0000
# 3 28.3196 26.0919 66.3777 0.0000 -3.1176 0.0000
# 4 0.0000 0.0000 0.0000 12.1881 0.0000 7.7988
# 5 -18.7626 -5.2530 -3.1176 0.0000 28.7603 0.0000
# 6 0.0000 0.0000 0.0000 7.7988 0.0000 0.1074
#
#
#
# Elastic Compliance Matrix: (Units=1/GPa)
#
#
# Indices 1 2 3 4 5 6 
#
# 1 0.042840 -0.003804 -0.015582 0.000000 0.025564 0.000000
# 2 -0.003804 0.019855 -0.006159 0.000000 0.000477 0.000000
# 3 -0.015582 -0.006159 0.023725 0.000000 -0.008718 0.000000
# 4 0.000000 0.000000 0.000000 -0.001805 0.000000 0.131046
# 5 0.025564 0.000477 -0.008718 0.000000 0.050590 0.000000
# 6 0.000000 0.000000 0.000000 0.131046 0.000000 -0.204801
#
#
# Mechanical properties :
#
#
# Convention : Reuss Voigt Hill
#
# Bulk Modulus (GPa) = 28.30443 35.55348 31.92895
# Shear Modulus (GPa) = -743.07091 15.03383 -364.01854
#
# Velocity S-wave (km/s) = -20.04797 2.85161 -14.03191
# Velocity P-wave (km/s) = 22.81633 5.48387 15.66065
#
# Compressibility (1/GPa) = 0.03533016
#
# Stress axis : x y z
#
# Youngs Moduli (GPa) = 23.34241 50.36538 42.15027
#
# Poissons Ratio (x) = 0.19160 0.65677
# Poissons Ratio (y) = 0.08880 0.25961
# Poissons Ratio (z) = 0.36371 0.31021
#
# Static dielectric constant tensor:
#      x y z
#    x 1.691940 0.000000 0.050030 
#    y 0.000000 1.654790 0.000000 
#    z 0.050030 0.000000 1.727240 
# 
# From -- ./inp_files/67738.got.cif
#   From: 2010.05.17/outbox.cif.g08.bks.cpg/sg10_34_cif.got.tgz:67738.got - 2010.06.03 11:33:40.
