data_PCOD9143220
_publ_section_title
;
Structure prediction by ZEFSAII (Michael W. Deem and Ramdas Pophale) SiO2 
 PCOD9143220
Probable space group: P 2/M
;
_chemical_formula_sum "Si O2"
_cell_formula_units_Z 32
_cell_length_a 19.696901
_cell_length_b 8.865475
_cell_length_c 12.421047
_cell_angle_alpha 90.000000
_cell_angle_beta 109.911663
_cell_angle_gamma 90.000000
_cell_volume 2039.327882
_symmetry_space_group_name_H-M "P 2/M"
_symmetry_group_IT_number 10
_symmetry_cell_setting 'monoclinic'
loop_
_space_group_symop_operation_xyz
x,y,z
-x,y,-z
-x,-y,-z
x,-y,z
loop_
_atom_site_type_symbol
_atom_site_label
_atom_site_fract_x
_atom_site_fract_y
_atom_site_fract_z
Si Si1 0.809139 0.322506 0.222827
Si Si2 0.532951 0.316314 0.305095
Si Si3 0.633870 0.317250 0.763392
Si Si4 0.699010 0.178535 0.008982
Si Si5 0.918390 0.819779 0.430338
Si Si6 0.215824 0.679200 0.554292
Si Si7 0.655768 0.683903 0.531311
Si Si8 0.579607 0.676130 0.095433
O O1 0.815241 0.500000 0.206448
O O2 0.771220 0.240992 0.104079
O O3 0.885143 0.253906 0.304093
O O4 0.761567 0.301746 0.307521
O O5 0.531868 0.500000 0.303900
O O6 0.449725 0.269048 0.265863
O O7 0.582168 0.268262 0.431811
O O8 0.570023 0.271340 0.212974
O O9 0.635741 0.500000 0.771097
O O10 0.657786 0.270948 0.656571
O O11 0.681939 0.250591 0.884262
O O12 0.634301 0.230024 0.053092
O O13 0.701551 0.000000 0.002174
O O14 0.861067 0.763046 0.489178
O O15 0.000000 0.773835 0.500000
O O16 0.915223 0.000000 0.420445
O O17 0.204668 0.500000 0.533010
O O18 0.276107 0.732449 0.503952
O O19 0.655673 0.500000 0.529463
O O20 0.603378 0.500000 0.107507
O O21 0.500000 0.680407 0.000000
#
# Coordination Sequence:
#
# PCOD9143220 Si02
#       8
#     4   4   4   4   4   4   4   4
#     4   9  18  32  52  73  98 126 158 194 232 281
#     4   9  16  28  47  71  92 116 160 213 253 285
#     4  10  19  32  49  66  89 126 171 211 248 287
#     4  12  23  33  45  65  97 127 160 202 249 298
#     4   9  17  30  49  77 110 135 155 182 225 286
#     4   8  16  29  48  74 101 128 159 196 236 281
#     4   9  16  28  48  72  93 120 166 215 246 277
#     4  10  18  31  50  68  89 120 161 203 250 299
#
# _framework density 15.691445999999999
#
# number of rings (size 3 to 8) (size 9 to 14) (size 15 to 20)
#    0.750    1.750    1.250    2.625    0.000    4.750 
#    0.000    0.625    0.000    3.000    0.000    0.875 
#    0.000    7.000    0.000    0.000    0.000    0.000 
#
# Total GULP energy -178197.665831 kJ/mol
# GULP energy per Si atom -5568.677057 kJ/mol
# Density = 1.565573 g / cm^3
# Si number density = 15.691446 Si / 1000 Ang^3
#
#
#
# Elastic Constant Matrix: (Units=GPa)
#
#
# Indices 1 2 3 4 5 6 
#
# 1 54.1961 22.7251 59.0658 0.0000 13.2184 0.0000
# 2 22.7251 41.3289 42.9124 0.0000 4.4209 0.0000
# 3 59.0658 42.9124 142.3963 0.0000 5.9929 0.0000
# 4 0.0000 0.0000 0.0000 8.8754 0.0000 1.8080
# 5 13.2184 4.4209 5.9929 0.0000 23.9459 0.0000
# 6 0.0000 0.0000 0.0000 1.8080 0.0000 9.4110
#
#
#
# Elastic Compliance Matrix: (Units=1/GPa)
#
#
# Indices 1 2 3 4 5 6 
#
# 1 0.041091 -0.005468 -0.014639 0.000000 -0.018010 0.000000
# 2 -0.005468 0.036304 -0.008608 0.000000 -0.001530 0.000000
# 3 -0.014639 -0.008608 0.015445 0.000000 0.005805 0.000000
# 4 0.000000 0.000000 0.000000 0.117259 0.000000 -0.022527
# 5 -0.018010 -0.001530 0.005805 0.000000 0.050532 0.000000
# 6 0.000000 0.000000 0.000000 -0.022527 0.000000 0.110587
#
#
# Mechanical properties :
#
#
# Convention : Reuss Voigt Hill
#
# Bulk Modulus (GPa) = 28.24055 54.14755 41.19405
# Shear Modulus (GPa) = 11.35199 15.99432 13.67316
#
# Velocity S-wave (km/s) = 2.69262 3.19611 2.95511
# Velocity P-wave (km/s) = 5.26341 6.94282 6.16061
#
# Compressibility (1/GPa) = 0.03541007
#
# Stress axis : x y z
#
# Youngs Moduli (GPa) = 24.33623 27.54482 64.74763
#
# Poissons Ratio (x) = 0.15062 0.94782
# Poissons Ratio (y) = 0.13308 0.55735
# Poissons Ratio (z) = 0.35625 0.23711
#
# Static dielectric constant tensor:
#      x y z
#    x 1.518460 0.000000 0.001630 
#    y 0.000000 1.521050 0.000000 
#    z 0.001630 0.000000 1.528920 
# 
# From -- ./inp_files/54927.got.cif
#   From: 2010.05.17/outbox.cif.g08.bks.cpg/sg10_28_cif.got.tgz:54927.got - 2010.06.03 11:33:40.
