data_PCOD9143702
_publ_section_title
;
Structure prediction by ZEFSAII (Michael W. Deem and Ramdas Pophale) SiO2 
 PCOD9143702
Probable space group: P 2/M
;
_chemical_formula_sum "Si O2"
_cell_formula_units_Z 32
_cell_length_a 24.986421
_cell_length_b 7.572193
_cell_length_c 16.768394
_cell_angle_alpha 90.000000
_cell_angle_beta 26.580884
_cell_angle_gamma 90.000000
_cell_volume 1419.620082
_symmetry_space_group_name_H-M "P 2/M"
_symmetry_group_IT_number 10
_symmetry_cell_setting 'monoclinic'
loop_
_space_group_symop_operation_xyz
x,y,z
-x,y,-z
-x,-y,-z
x,-y,z
loop_
_atom_site_type_symbol
_atom_site_label
_atom_site_fract_x
_atom_site_fract_y
_atom_site_fract_z
Si Si1 0.186960 0.716182 0.062529
Si Si2 0.771948 0.700049 0.528904
Si Si3 0.791992 0.302015 0.233177
Si Si4 0.627874 0.717014 0.865773
Si Si5 0.658978 0.288643 0.005128
Si Si6 0.381377 0.299910 0.687417
Si Si7 0.980653 0.283976 0.859720
Si Si8 0.393621 0.201320 0.383412
O O1 0.182801 0.500000 0.067472
O O2 0.081520 0.767823 0.142057
O O3 0.222525 0.771888 0.104437
O O4 0.304603 0.780574 0.858967
O O5 0.810625 0.500000 0.495625
O O6 0.730036 0.779206 0.668177
O O7 0.657520 0.694376 0.623919
O O8 0.882907 0.776066 0.331269
O O9 0.821774 0.500000 0.223821
O O10 0.706892 0.315401 0.269293
O O11 0.704150 0.220710 0.416060
O O12 0.910265 0.221534 0.033155
O O13 0.629099 0.500000 0.863761
O O14 0.500000 0.770199 0.000000
O O15 0.647549 0.777465 0.929882
O O16 0.668776 0.500000 0.987871
O O17 0.530306 0.253528 0.218931
O O18 0.500000 0.208118 0.500000
O O19 0.414422 0.500000 0.670408
O O20 0.972062 0.500000 0.877373
O O21 0.395781 0.000000 0.355263
#
# Coordination Sequence:
#
# PCOD9143702 Si02
#       8
#     4   4   4   4   4   4   4   4
#     4   8  14  25  46  77 104 126 162 207 248 291
#     4  10  19  35  56  74 100 136 171 208 253 303
#     4   9  17  31  50  71  97 132 171 206 249 300
#     4   9  16  29  51  79 104 129 167 206 249 303
#     4  10  18  32  55  78 103 136 167 203 254 308
#     4   8  12  20  39  67  93 120 159 202 236 278
#     4   8  16  31  53  79 102 130 172 214 243 288
#     4  12  24  34  47  74 106 132 170 218 259 297
#
# _framework density 22.541243000000001
#
# number of rings (size 3 to 8) (size 9 to 14) (size 15 to 20)
#    0.000    2.750    1.250    3.375    0.000    2.500 
#    0.000    5.000    0.000   13.875    0.000    0.000 
#    0.000    2.000    0.000    0.000    0.000    0.000 
#
# Total GULP energy -178224.963732 kJ/mol
# GULP energy per Si atom -5569.530117 kJ/mol
# Density = 2.248994 g / cm^3
# Si number density = 22.541243 Si / 1000 Ang^3
#
#
#
# Elastic Constant Matrix: (Units=GPa)
#
#
# Indices 1 2 3 4 5 6 
#
# 1 85.1383 -5.5122 0.1191 0.0000 10.8738 0.0000
# 2 -5.5122 54.2014 -3.6877 0.0000 4.3599 0.0000
# 3 0.1191 -3.6877 71.0568 0.0000 9.8754 0.0000
# 4 0.0000 0.0000 0.0000 -25.9713 0.0000 -15.3228
# 5 10.8738 4.3599 9.8754 0.0000 32.0379 0.0000
# 6 0.0000 0.0000 0.0000 -15.3228 0.0000 -31.9140
#
#
#
# Elastic Compliance Matrix: (Units=1/GPa)
#
#
# Indices 1 2 3 4 5 6 
#
# 1 0.012451 0.001691 0.000717 0.000000 -0.004677 0.000000
# 2 0.001691 0.019014 0.001487 0.000000 -0.003620 0.000000
# 3 0.000717 0.001487 0.014847 0.000000 -0.005022 0.000000
# 4 0.000000 0.000000 0.000000 -0.053722 0.000000 0.025793
# 5 -0.004677 -0.003620 -0.005022 0.000000 0.034841 0.000000
# 6 0.000000 0.000000 0.000000 0.025793 0.000000 -0.043718
#
#
# Mechanical properties :
#
#
# Convention : Reuss Voigt Hill
#
# Bulk Modulus (GPa) = 18.48312 21.35943 19.92127
# Shear Modulus (GPa) = -827.52331 9.46234 -409.03048
#
# Velocity S-wave (km/s) = -19.18104 2.05107 -13.48528
# Velocity P-wave (km/s) = 21.96206 3.88658 15.28441
#
# Compressibility (1/GPa) = 0.05410341
#
# Stress axis : x y z
#
# Youngs Moduli (GPa) = 80.31179 52.59259 67.35274
#
# Poissons Ratio (x) = -0.08895 -0.04829
# Poissons Ratio (y) = -0.13583 -0.10016
# Poissons Ratio (z) = -0.05758 -0.07821
#
# Static dielectric constant tensor:
#      x y z
#    x 1.853270 0.000000 0.019000 
#    y 0.000000 1.860460 0.000000 
#    z 0.019000 0.000000 1.896320 
# 
# From -- ./inp_files/71434.got.cif
#   From: 2010.05.17/outbox.cif.g08.bks.cpg/sg10_36_cif.got.tgz:71434.got - 2010.06.03 11:33:40.
