data_PCOD9143287
_publ_section_title
;
Structure prediction by ZEFSAII (Michael W. Deem and Ramdas Pophale) SiO2 
 PCOD9143287
Probable space group: P 2/M
;
_chemical_formula_sum "Si O2"
_cell_formula_units_Z 32
_cell_length_a 26.817752
_cell_length_b 7.670054
_cell_length_c 21.789340
_cell_angle_alpha 90.000000
_cell_angle_beta 159.500431
_cell_angle_gamma 90.000000
_cell_volume 1569.572659
_symmetry_space_group_name_H-M "P 2/M"
_symmetry_group_IT_number 10
_symmetry_cell_setting 'monoclinic'
loop_
_space_group_symop_operation_xyz
x,y,z
-x,y,-z
-x,-y,-z
x,-y,z
loop_
_atom_site_type_symbol
_atom_site_label
_atom_site_fract_x
_atom_site_fract_y
_atom_site_fract_z
Si Si1 0.843641 0.286112 0.801635
Si Si2 0.640783 0.205559 0.817562
Si Si3 0.223061 0.208350 0.900649
Si Si4 0.531108 0.711037 0.207330
Si Si5 0.953620 0.790042 0.514402
Si Si6 0.656132 0.710423 0.698983
Si Si7 0.341764 0.298829 0.519789
Si Si8 0.364045 0.290119 0.803804
O O1 0.838250 0.500000 0.792609
O O2 0.751635 0.229616 0.753303
O O3 0.780272 0.221960 0.664061
O O4 0.000000 0.233293 0.000000
O O5 0.697898 0.232412 0.815257
O O6 0.486512 0.293963 0.646476
O O7 0.617681 0.000000 0.800684
O O8 0.737712 0.272075 0.985596
O O9 0.076326 0.275916 0.702492
O O10 0.207783 0.000000 0.887051
O O11 0.363844 0.242868 0.021646
O O12 0.535448 0.500000 0.213494
O O13 0.612694 0.778338 0.362166
O O14 0.606080 0.771245 0.231369
O O15 0.791581 0.751223 0.348023
O O16 0.000000 0.727337 0.500000
O O17 0.963173 0.000000 0.524022
O O18 0.500000 0.770850 0.500000
O O19 0.656771 0.500000 0.700777
O O20 0.303435 0.500000 0.487672
O O21 0.371856 0.500000 0.811841
O O22 0.500000 0.227112 0.000000
#
# Coordination Sequence:
#
# PCOD9143287 Si02
#       8
#     4   4   4   4   4   4   4   4
#     4   9  17  30  48  70  95 125 161 207 256 293
#     4  10  19  31  50  75 102 132 166 205 257 308
#     4   9  19  35  53  76 106 136 170 215 262 305
#     4   9  18  32  53  78 101 133 174 211 250 308
#     4  10  21  37  57  80 105 137 179 219 253 299
#     4  10  18  31  51  74  97 126 169 214 253 295
#     4   9  16  31  52  71  97 129 168 211 250 293
#     4  10  21  36  53  79 113 141 169 209 260 311
#
# _framework density 20.387713999999999
#
# number of rings (size 3 to 8) (size 9 to 14) (size 15 to 20)
#    0.000    2.500    1.250    1.125    0.000    2.250 
#    2.250    0.000    0.000    1.500    0.000    0.000 
#    0.000    0.000    0.000    0.000    0.000    0.000 
#
# Total GULP energy -178442.870498 kJ/mol
# GULP energy per Si atom -5576.339703 kJ/mol
# Density = 2.034131 g / cm^3
# Si number density = 20.387714 Si / 1000 Ang^3
#
#
#
# Elastic Constant Matrix: (Units=GPa)
#
#
# Indices 1 2 3 4 5 6 
#
# 1 138.6916 -2.1214 91.9460 0.0000 -1.7128 0.0000
# 2 -2.1214 37.1058 3.0765 0.0000 -4.0744 0.0000
# 3 91.9460 3.0765 191.6285 0.0000 -3.4546 0.0000
# 4 0.0000 0.0000 0.0000 19.0659 0.0000 8.1381
# 5 -1.7128 -4.0744 -3.4546 0.0000 29.4532 0.0000
# 6 0.0000 0.0000 0.0000 8.1381 0.0000 19.7160
#
#
#
# Elastic Compliance Matrix: (Units=1/GPa)
#
#
# Indices 1 2 3 4 5 6 
#
# 1 0.010614 0.001048 -0.005106 0.000000 0.000163 0.000000
# 2 0.001048 0.027496 -0.000877 0.000000 0.003762 0.000000
# 3 -0.005106 -0.000877 0.007691 0.000000 0.000484 0.000000
# 4 0.000000 0.000000 0.000000 0.063667 0.000000 -0.026280
# 5 0.000163 0.003762 0.000484 0.000000 0.034539 0.000000
# 6 0.000000 0.000000 0.000000 -0.026280 0.000000 0.061568
#
#
# Mechanical properties :
#
#
# Convention : Reuss Voigt Hill
#
# Bulk Modulus (GPa) = 27.83116 61.46978 44.65047
# Shear Modulus (GPa) = 21.98569 31.94866 26.96718
#
# Velocity S-wave (km/s) = 3.28743 3.96290 3.64086
# Velocity P-wave (km/s) = 5.30002 7.15229 6.29466
#
# Compressibility (1/GPa) = 0.03593095
#
# Stress axis : x y z
#
# Youngs Moduli (GPa) = 94.21855 36.36939 130.01588
#
# Poissons Ratio (x) = -0.03812 0.66392
# Poissons Ratio (y) = -0.09875 0.11396
# Poissons Ratio (z) = 0.48112 0.03188
#
# Static dielectric constant tensor:
#      x y z
#    x 1.710570 0.000000 -0.042700 
#    y 0.000000 1.758060 0.000000 
#    z -0.042700 0.000000 1.717400 
# 
# From -- ./inp_files/86922.got.cif
#   From: 2010.05.17/outbox.cif.g08.bks.cpg/sg10_44_cif.got.tgz:86922.got - 2010.06.03 11:33:40.
