data_PCOD9143557
_publ_section_title
;
Structure prediction by ZEFSAII (Michael W. Deem and Ramdas Pophale) SiO2 
 PCOD9143557
Probable space group: P 2/M
;
_chemical_formula_sum "Si O2"
_cell_formula_units_Z 28
_cell_length_a 10.533618
_cell_length_b 13.011378
_cell_length_c 22.455498
_cell_angle_alpha 90.000000
_cell_angle_beta 149.937271
_cell_angle_gamma 90.000000
_cell_volume 1541.757485
_symmetry_space_group_name_H-M "P 2/M"
_symmetry_group_IT_number 10
_symmetry_cell_setting 'monoclinic'
loop_
_space_group_symop_operation_xyz
x,y,z
-x,y,-z
-x,-y,-z
x,-y,z
loop_
_atom_site_type_symbol
_atom_site_label
_atom_site_fract_x
_atom_site_fract_y
_atom_site_fract_z
Si Si1 0.533250 0.617835 0.384917
Si Si2 0.793711 0.878405 0.637948
Si Si3 0.727863 0.388927 0.153076
Si Si4 0.542294 0.620202 0.246773
Si Si5 0.037613 0.731627 0.195158
Si Si6 0.815302 0.382166 0.001285
Si Si7 0.006373 0.713607 0.638055
O O1 0.590025 0.500000 0.421726
O O2 0.522063 0.629534 0.309054
O O3 0.263139 0.651479 0.300505
O O4 0.753760 0.688278 0.500089
O O5 0.500000 0.857780 0.500000
O O6 0.861916 0.834484 0.731716
O O7 0.965163 0.817354 0.659193
O O8 0.834290 0.000000 0.652246
O O9 0.754979 0.500000 0.135046
O O10 0.458742 0.383886 0.076313
O O11 0.789546 0.302143 0.130711
O O12 0.936236 0.372106 0.288687
O O13 0.616881 0.500000 0.264750
O O14 0.278206 0.635750 0.104359
O O15 0.752545 0.698937 0.307292
O O16 0.970242 0.706254 0.098961
O O17 0.921678 0.500000 0.050052
#
# Coordination Sequence:
#
# PCOD9143557 Si02
#       7
#     4   4   4   4   4   4   4
#     4  11  20  29  46  78 111 139 169 203 238 285
#     4  10  21  39  56  73  97 124 163 214 271 318
#     4   9  17  28  46  71 103 139 165 195 244 303
#     4   9  19  33  50  72 107 150 174 191 231 290
#     4  11  20  30  49  76  99 130 168 209 250 296
#     4   9  17  31  48  70 104 144 175 196 232 293
#     4  10  18  32  52  73  97 132 171 207 249 299
#
# _framework density 18.161092
#
# number of rings (size 3 to 8) (size 9 to 14) (size 15 to 20)
#    0.000    2.143    1.429    4.286    0.000    2.857 
#    0.000    4.286    0.000   18.000    0.000    1.000 
#    0.000    0.000    0.000    0.000    0.000    0.000 
#
# Total GULP energy -155969.828185 kJ/mol
# GULP energy per Si atom -5570.351007 kJ/mol
# Density = 1.811976 g / cm^3
# Si number density = 18.161092 Si / 1000 Ang^3
#
#
#
# Elastic Constant Matrix: (Units=GPa)
#
#
# Indices 1 2 3 4 5 6 
#
# 1 49.7980 25.1190 13.7097 0.0000 -3.0176 0.0000
# 2 25.1190 89.3436 35.4147 0.0000 -7.7812 0.0000
# 3 13.7097 35.4147 104.6010 0.0000 -16.8289 0.0000
# 4 0.0000 0.0000 0.0000 20.0306 0.0000 -3.4204
# 5 -3.0176 -7.7812 -16.8289 0.0000 31.1312 0.0000
# 6 0.0000 0.0000 0.0000 -3.4204 0.0000 16.8177
#
#
#
# Elastic Compliance Matrix: (Units=1/GPa)
#
#
# Indices 1 2 3 4 5 6 
#
# 1 0.023486 -0.006212 -0.000941 0.000000 0.000216 0.000000
# 2 -0.006212 0.014596 -0.003984 0.000000 0.000892 0.000000
# 3 -0.000941 -0.003984 0.011892 0.000000 0.005341 0.000000
# 4 0.000000 0.000000 0.000000 0.051720 0.000000 0.010519
# 5 0.000216 0.000892 0.005341 0.000000 0.035254 0.000000
# 6 0.000000 0.000000 0.000000 0.010519 0.000000 0.061600
#
#
# Mechanical properties :
#
#
# Convention : Reuss Voigt Hill
#
# Bulk Modulus (GPa) = 36.09890 43.58105 39.83997
# Shear Modulus (GPa) = 21.73401 24.89586 23.31493
#
# Velocity S-wave (km/s) = 3.46314 3.70650 3.58688
# Velocity P-wave (km/s) = 5.99260 6.50896 6.25611
#
# Compressibility (1/GPa) = 0.02770168
#
# Stress axis : x y z
#
# Youngs Moduli (GPa) = 42.57789 68.51139 84.09255
#
# Poissons Ratio (x) = 0.42557 0.07909
# Poissons Ratio (y) = 0.26448 0.33503
# Poissons Ratio (z) = 0.04005 0.27295
#
# Static dielectric constant tensor:
#      x y z
#    x 1.693060 0.000000 -0.021300 
#    y 0.000000 1.577330 0.000000 
#    z -0.021300 0.000000 1.679210 
# 
# From -- ./inp_files/46131.got.cif
#   From: 2010.05.17/outbox.cif.g08.bks.cpg/sg10_24_cif.got.tgz:46131.got - 2010.06.03 11:33:40.
