data_PCOD9143601
_publ_section_title
;
Structure prediction by ZEFSAII (Michael W. Deem and Ramdas Pophale) SiO2 
 PCOD9143601
Probable space group: P 2/M
;
_chemical_formula_sum "Si O2"
_cell_formula_units_Z 32
_cell_length_a 21.577506
_cell_length_b 7.555786
_cell_length_c 21.065901
_cell_angle_alpha 90.000000
_cell_angle_beta 151.870175
_cell_angle_gamma 90.000000
_cell_volume 1619.257517
_symmetry_space_group_name_H-M "P 2/M"
_symmetry_group_IT_number 10
_symmetry_cell_setting 'monoclinic'
loop_
_space_group_symop_operation_xyz
x,y,z
-x,y,-z
-x,-y,-z
x,-y,z
loop_
_atom_site_type_symbol
_atom_site_label
_atom_site_fract_x
_atom_site_fract_y
_atom_site_fract_z
Si Si1 0.568074 0.788583 0.870262
Si Si2 0.755894 0.716271 0.577017
Si Si3 0.271594 0.711372 0.592919
Si Si4 0.032432 0.294967 0.460813
Si Si5 0.824576 0.207194 0.170625
Si Si6 0.695714 0.293001 0.852110
Si Si7 0.048927 0.285241 0.850137
Si Si8 0.494168 0.717191 0.567574
O O1 0.418401 0.743617 0.750626
O O2 0.605865 0.719181 0.834307
O O3 0.581277 0.000000 0.878976
O O4 0.679979 0.723639 0.020344
O O5 0.753146 0.500000 0.573775
O O6 0.736178 0.777835 0.486635
O O7 0.638552 0.773366 0.516534
O O8 0.900864 0.770718 0.730182
O O9 0.252005 0.500000 0.570615
O O10 0.155123 0.783014 0.532138
O O11 0.068730 0.500000 0.505392
O O12 0.904917 0.290709 0.300562
O O13 0.000000 0.214485 0.500000
O O14 0.910008 0.230315 0.183731
O O15 0.812936 0.000000 0.174692
O O16 0.716708 0.500000 0.857650
O O17 0.616185 0.219904 0.720753
O O18 0.837054 0.218118 0.000057
O O19 0.052328 0.500000 0.853718
O O20 0.500000 0.772887 0.500000
O O21 0.495518 0.500000 0.569530
#
# Coordination Sequence:
#
# PCOD9143601 Si02
#       8
#     4   4   4   4   4   4   4   4
#     4  10  20  32  49  76 104 130 164 207 247 288
#     4   9  15  26  45  70  95 122 158 201 244 283
#     4  10  18  32  53  76  99 126 164 207 247 289
#     4  10  21  37  56  77 101 130 165 204 247 295
#     4  10  20  33  50  75 105 133 163 200 249 298
#     4   9  16  28  47  70  94 128 166 200 248 294
#     4   9  16  28  48  71  96 124 162 209 247 286
#     4   9  16  26  42  67  99 130 160 197 242 293
#
# _framework density 19.762145
#
# number of rings (size 3 to 8) (size 9 to 14) (size 15 to 20)
#    0.000    2.500    2.500    0.750    0.000    2.250 
#    0.000    1.250    0.000    7.875    0.000    0.000 
#    0.000    4.000    0.000    0.000    0.000    0.000 
#
# Total GULP energy -178508.399800 kJ/mol
# GULP energy per Si atom -5578.387494 kJ/mol
# Density = 1.971717 g / cm^3
# Si number density = 19.762145 Si / 1000 Ang^3
#
#
#
# Elastic Constant Matrix: (Units=GPa)
#
#
# Indices 1 2 3 4 5 6 
#
# 1 136.5467 1.4818 99.6818 0.0000 -1.1653 0.0000
# 2 1.4818 44.3125 -7.7240 0.0000 2.4319 0.0000
# 3 99.6818 -7.7240 170.5286 0.0000 -0.3673 0.0000
# 4 0.0000 0.0000 0.0000 -6.3619 0.0000 -7.2705
# 5 -1.1653 2.4319 -0.3673 0.0000 24.9335 0.0000
# 6 0.0000 0.0000 0.0000 -7.2705 0.0000 15.5190
#
#
#
# Elastic Compliance Matrix: (Units=1/GPa)
#
#
# Indices 1 2 3 4 5 6 
#
# 1 0.012921 -0.001799 -0.007633 0.000000 0.000667 0.000000
# 2 -0.001799 0.023119 0.002094 0.000000 -0.002308 0.000000
# 3 -0.007633 0.002094 0.010420 0.000000 -0.000407 0.000000
# 4 0.000000 0.000000 0.000000 -0.102375 0.000000 -0.047962
# 5 0.000667 -0.002308 -0.000407 0.000000 0.040357 0.000000
# 6 0.000000 0.000000 0.000000 -0.047962 0.000000 0.041968
#
#
# Mechanical properties :
#
#
# Convention : Reuss Voigt Hill
#
# Bulk Modulus (GPa) = 31.46318 59.80743 45.63531
# Shear Modulus (GPa) = 96.74950 24.01467 60.38209
#
# Velocity S-wave (km/s) = 7.00452 3.48973 5.53360
# Velocity P-wave (km/s) = 9.02071 6.82400 7.99813
#
# Compressibility (1/GPa) = 0.03178318
#
# Stress axis : x y z
#
# Youngs Moduli (GPa) = 77.39414 43.25485 95.97058
#
# Poissons Ratio (x) = 0.07782 0.73253
# Poissons Ratio (y) = 0.13924 -0.20095
# Poissons Ratio (z) = 0.59074 -0.09057
#
# Static dielectric constant tensor:
#      x y z
#    x 1.657260 0.000000 0.007460 
#    y 0.000000 1.722580 0.000000 
#    z 0.007460 0.000000 1.716980 
# 
# From -- ./inp_files/86162.got.cif
#   From: 2010.05.17/outbox.cif.g08.bks.cpg/sg10_44_cif.got.tgz:86162.got - 2010.06.03 11:33:40.
