data_PCOD9143496
_publ_section_title
;
Structure prediction by ZEFSAII (Michael W. Deem and Ramdas Pophale) SiO2 
 PCOD9143496
Probable space group: P 2/M
;
_chemical_formula_sum "Si O2"
_cell_formula_units_Z 18
_cell_length_a 5.418506
_cell_length_b 16.483113
_cell_length_c 10.378772
_cell_angle_alpha 90.000000
_cell_angle_beta 57.320810
_cell_angle_gamma 90.000000
_cell_volume 780.235445
_symmetry_space_group_name_H-M "P 2/M"
_symmetry_group_IT_number 10
_symmetry_cell_setting 'monoclinic'
loop_
_space_group_symop_operation_xyz
x,y,z
-x,y,-z
-x,-y,-z
x,-y,z
loop_
_atom_site_type_symbol
_atom_site_label
_atom_site_fract_x
_atom_site_fract_y
_atom_site_fract_z
Si Si1 0.643057 0.500000 0.600222
Si Si2 0.441185 0.839199 0.309615
Si Si3 0.855879 0.405021 0.905322
Si Si4 0.906348 0.904755 0.342312
Si Si5 0.245454 0.664799 0.322195
O O1 0.500000 0.500000 0.500000
O O2 0.574556 0.583090 0.693743
O O3 0.000000 0.500000 0.500000
O O4 0.757187 0.874028 0.254130
O O5 0.256732 0.857213 0.494324
O O6 0.436354 0.745333 0.273220
O O7 0.248082 0.885689 0.258663
O O8 0.933493 0.500000 0.860689
O O9 0.928565 0.350727 0.761237
O O10 0.500000 0.400419 0.000000
O O11 0.000000 0.380978 0.000000
O O12 0.852899 0.000000 0.376458
O O13 0.000000 0.675282 0.500000
#
# Coordination Sequence:
#
# PCOD9143496 Si02
#       5
#     2   4   4   4   4
#     4  10  24  34  52  80 118 152 185 236 291 346
#     4  10  19  29  50  78 112 148 183 240 280 347
#     4  10  23  43  61  81 114 162 207 245 291 352
#     4  10  18  32  48  74 119 158 178 221 304 366
#     4  11  22  40  60  91 121 154 204 248 304 340
#
# _framework density 23.069958
#
# number of rings (size 3 to 8) (size 9 to 14) (size 15 to 20)
#    0.000    1.778    3.333    3.333    3.111    5.333 
#    0.000    0.000    0.000    0.000    0.000    0.000 
#    0.000   30.222    0.000    0.000    0.000    0.000 
#
# Total GULP energy -100618.178914 kJ/mol
# GULP energy per Si atom -5589.898829 kJ/mol
# Density = 2.301745 g / cm^3
# Si number density = 23.069958 Si / 1000 Ang^3
#
#
#
# Elastic Constant Matrix: (Units=GPa)
#
#
# Indices 1 2 3 4 5 6 
#
# 1 162.8232 48.3302 57.7747 0.0000 66.9639 0.0000
# 2 48.3302 177.6648 36.6281 0.0000 41.9307 0.0000
# 3 57.7747 36.6281 103.4063 0.0000 41.3057 0.0000
# 4 0.0000 0.0000 0.0000 -3.4423 0.0000 8.3045
# 5 66.9639 41.9307 41.3057 0.0000 52.2055 0.0000
# 6 0.0000 0.0000 0.0000 8.3045 0.0000 23.7049
#
#
#
# Elastic Compliance Matrix: (Units=1/GPa)
#
#
# Indices 1 2 3 4 5 6 
#
# 1 0.013093 0.000518 -0.000912 0.000000 -0.016488 0.000000
# 2 0.000518 0.006974 -0.000375 0.000000 -0.005968 0.000000
# 3 -0.000912 -0.000375 0.014219 0.000000 -0.009779 0.000000
# 4 0.000000 0.000000 0.000000 -0.157440 0.000000 0.055156
# 5 -0.016488 -0.005968 -0.009779 0.000000 0.052835 0.000000
# 6 0.000000 0.000000 0.000000 0.055156 0.000000 0.022863
#
#
# Mechanical properties :
#
#
# Convention : Reuss Voigt Hill
#
# Bulk Modulus (GPa) = 30.53832 81.04004 55.78918
# Shear Modulus (GPa) = -142.85247 34.57104 -54.14072
#
# Velocity S-wave (km/s) = -7.87755 3.87529 -4.84964
# Velocity P-wave (km/s) = 8.33517 7.43155 2.66900
#
# Compressibility (1/GPa) = 0.03274575
#
# Stress axis : x y z
#
# Youngs Moduli (GPa) = 76.37902 143.39588 70.32603
#
# Poissons Ratio (x) = -0.07425 0.06416
# Poissons Ratio (y) = -0.03955 0.02641
# Poissons Ratio (z) = 0.06969 0.05384
#
# Static dielectric constant tensor:
#      x y z
#    x 2.009150 0.000000 -0.023000 
#    y 0.000000 1.836740 0.000000 
#    z -0.023000 0.000000 1.944860 
# 
# From -- ./inp_files/14765.got.cif
#   From: 2010.05.17/outbox.cif.g08.bks.cpg/sg10_8_cif.got.tgz:14765.got - 2010.06.03 11:33:40.
