data_PCOD9143313
_publ_section_title
;
Structure prediction by ZEFSAII (Michael W. Deem and Ramdas Pophale) SiO2 
 PCOD9143313
Probable space group: P 2/M
;
_chemical_formula_sum "Si O2"
_cell_formula_units_Z 32
_cell_length_a 21.597584
_cell_length_b 7.837034
_cell_length_c 9.840120
_cell_angle_alpha 90.000000
_cell_angle_beta 90.858590
_cell_angle_gamma 90.000000
_cell_volume 1665.361551
_symmetry_space_group_name_H-M "P 2/M"
_symmetry_group_IT_number 10
_symmetry_cell_setting 'monoclinic'
loop_
_space_group_symop_operation_xyz
x,y,z
-x,y,-z
-x,-y,-z
x,-y,z
loop_
_atom_site_type_symbol
_atom_site_label
_atom_site_fract_x
_atom_site_fract_y
_atom_site_fract_z
Si Si1 0.603326 0.206520 0.248707
Si Si2 0.124949 0.701845 0.333247
Si Si3 0.936358 0.697398 0.409253
Si Si4 0.992083 0.709738 0.843990
Si Si5 0.356067 0.303321 0.461760
Si Si6 0.462006 0.206284 0.271277
Si Si7 0.258554 0.195006 0.245016
Si Si8 0.360764 0.791105 0.047661
O O1 0.641899 0.262746 0.380056
O O2 0.532252 0.266648 0.262553
O O3 0.601796 0.000000 0.247081
O O4 0.630616 0.264560 0.106045
O O5 0.112651 0.500000 0.345748
O O6 0.112432 0.774480 0.484894
O O7 0.073369 0.764877 0.224623
O O8 0.194056 0.722889 0.282953
O O9 0.918684 0.500000 0.382766
O O10 0.000000 0.697673 0.500000
O O11 0.955406 0.768682 0.262541
O O12 0.993356 0.500000 0.844224
O O13 0.000000 0.764653 0.000000
O O14 0.341370 0.500000 0.438315
O O15 0.423783 0.264725 0.401376
O O16 0.306108 0.200381 0.373087
O O17 0.419983 0.258560 0.141095
O O18 0.463207 0.000000 0.274297
O O19 0.298984 0.269716 0.122256
O O20 0.244293 0.000000 0.210472
O O21 0.359502 0.000000 0.050044
#
# Coordination Sequence:
#
# PCOD9143313 Si02
#       8
#     4   4   4   4   4   4   4   4
#     4  10  18  31  52  74  96 123 157 198 245 294
#     4   9  16  28  48  71  95 124 158 194 232 276
#     4   7  11  21  39  64  93 123 151 180 218 264
#     4   8  13  23  43  72 101 126 153 187 228 275
#     4  11  22  34  48  69  98 127 158 200 245 287
#     4   9  17  31  52  75  96 123 159 195 238 295
#     4  10  20  36  54  69  90 126 170 205 240 288
#     4   8  16  31  51  72  93 123 163 202 236 281
#
# _framework density 19.215046999999998
#
# number of rings (size 3 to 8) (size 9 to 14) (size 15 to 20)
#    0.000    3.000    0.000    4.500    0.000    3.500 
#    0.000    4.375    0.000    9.000    0.000    0.000 
#    0.000    0.000    0.000    0.000    0.000    0.000 
#
# Total GULP energy -178308.091330 kJ/mol
# GULP energy per Si atom -5572.127854 kJ/mol
# Density = 1.917131 g / cm^3
# Si number density = 19.215047 Si / 1000 Ang^3
#
#
#
# Elastic Constant Matrix: (Units=GPa)
#
#
# Indices 1 2 3 4 5 6 
#
# 1 88.5934 -0.5571 48.6560 0.0000 -16.5698 0.0000
# 2 -0.5571 23.3794 1.8223 0.0000 -2.4568 0.0000
# 3 48.6560 1.8223 164.1908 0.0000 -14.6531 0.0000
# 4 0.0000 0.0000 0.0000 -5.6832 0.0000 -0.1058
# 5 -16.5698 -2.4568 -14.6531 0.0000 10.4134 0.0000
# 6 0.0000 0.0000 0.0000 -0.1058 0.0000 18.4391
#
#
#
# Elastic Compliance Matrix: (Units=1/GPa)
#
#
# Indices 1 2 3 4 5 6 
#
# 1 0.017547 0.003218 -0.003060 0.000000 0.024374 0.000000
# 2 0.003218 0.044486 -0.000061 0.000000 0.015530 0.000000
# 3 -0.003060 -0.000061 0.007505 0.000000 0.005676 0.000000
# 4 0.000000 0.000000 0.000000 -0.175940 0.000000 -0.001010
# 5 0.024374 0.015530 0.005676 0.000000 0.146466 0.000000
# 6 0.000000 0.000000 0.000000 -0.001010 0.000000 0.054227
#
#
# Mechanical properties :
#
#
# Convention : Reuss Voigt Hill
#
# Bulk Modulus (GPa) = 14.34090 41.77843 28.05967
# Shear Modulus (GPa) = 42.61052 19.71669 31.16361
#
# Velocity S-wave (km/s) = 4.71421 3.20677 4.03157
# Velocity P-wave (km/s) = 6.09190 5.95826 6.02545
#
# Compressibility (1/GPa) = 0.06973064
#
# Stress axis : x y z
#
# Youngs Moduli (GPa) = 56.98884 22.47887 133.25151
#
# Poissons Ratio (x) = -0.07234 0.40780
# Poissons Ratio (y) = -0.18339 0.00818
# Poissons Ratio (z) = 0.17441 0.00138
#
# Static dielectric constant tensor:
#      x y z
#    x 1.650710 0.000000 -0.029790 
#    y 0.000000 1.713990 0.000000 
#    z -0.029790 0.000000 1.685020 
# 
# From -- ./inp_files/35697.got.cif
#   From: 2010.05.17/outbox.cif.g08.bks.cpg/sg10_18_cif.got.tgz:35697.got - 2010.06.03 11:33:40.
