data_PCOD9143373
_publ_section_title
;
Structure prediction by ZEFSAII (Michael W. Deem and Ramdas Pophale) SiO2 
 PCOD9143373
Probable space group: P 2/M
;
_chemical_formula_sum "Si O2"
_cell_formula_units_Z 24
_cell_length_a 5.282942
_cell_length_b 28.580533
_cell_length_c 9.315802
_cell_angle_alpha 90.000000
_cell_angle_beta 126.497867
_cell_angle_gamma 90.000000
_cell_volume 1130.725279
_symmetry_space_group_name_H-M "P 2/M"
_symmetry_group_IT_number 10
_symmetry_cell_setting 'monoclinic'
loop_
_space_group_symop_operation_xyz
x,y,z
-x,y,-z
-x,-y,-z
x,-y,z
loop_
_atom_site_type_symbol
_atom_site_label
_atom_site_fract_x
_atom_site_fract_y
_atom_site_fract_z
Si Si1 0.583272 0.104262 0.696852
Si Si2 0.621770 0.693095 0.376466
Si Si3 0.949500 0.444601 0.196439
Si Si4 0.812012 0.052758 0.201177
Si Si5 0.379168 0.797214 0.623049
Si Si6 0.539894 0.403786 0.793103
O O1 0.500000 0.105749 0.500000
O O2 0.322490 0.075550 0.698021
O O3 0.554854 0.157462 0.745227
O O4 0.927632 0.081285 0.801657
O O5 0.500000 0.689854 0.500000
O O6 0.555799 0.745407 0.294900
O O7 0.467811 0.651364 0.234548
O O8 0.000000 0.687494 0.500000
O O9 0.907603 0.500000 0.173411
O O10 0.802726 0.423325 0.288760
O O11 0.302679 0.429391 0.287325
O O12 0.750201 0.420384 0.999871
O O13 0.932811 0.000000 0.267366
O O14 0.500000 0.050368 0.000000
O O15 0.500000 0.794280 0.500000
O O16 0.000000 0.805314 0.500000
#
# Coordination Sequence:
#
# PCOD9143373 Si02
#       6
#     4   4   4   4   4   4
#     4  11  21  37  63  89 112 148 203 253 279 328
#     4  10  20  34  54  79 107 140 173 211 267 335
#     4  10  19  33  55  74  97 137 179 221 262 309
#     4  11  24  40  58  83 123 163 190 227 300 366
#     4   9  18  34  56  82 107 140 182 226 277 325
#     4  10  18  31  53  76  99 130 174 217 255 310
#
# _framework density 21.225314999999998
#
# number of rings (size 3 to 8) (size 9 to 14) (size 15 to 20)
#    0.000    1.833    0.000    7.000    0.000    3.333 
#    0.000    0.000   11.000   17.000    0.000    0.000 
#    0.000    0.000    0.000    0.000    0.000    0.000 
#
# Total GULP energy -133862.177868 kJ/mol
# GULP energy per Si atom -5577.590744 kJ/mol
# Density = 2.117701 g / cm^3
# Si number density = 21.225315 Si / 1000 Ang^3
#
#
#
# Elastic Constant Matrix: (Units=GPa)
#
#
# Indices 1 2 3 4 5 6 
#
# 1 200.0650 70.1968 12.6312 0.0000 12.8031 0.0000
# 2 70.1968 234.3297 29.8555 0.0000 6.4836 0.0000
# 3 12.6312 29.8555 35.6276 0.0000 -4.7890 0.0000
# 4 0.0000 0.0000 0.0000 25.4334 0.0000 0.8882
# 5 12.8031 6.4836 -4.7890 0.0000 13.1655 0.0000
# 6 0.0000 0.0000 0.0000 0.8882 0.0000 39.6823
#
#
#
# Elastic Compliance Matrix: (Units=1/GPa)
#
#
# Indices 1 2 3 4 5 6 
#
# 1 0.005968 -0.001412 -0.001702 0.000000 -0.005727 0.000000
# 2 -0.001412 0.005322 -0.004338 0.000000 -0.002825 0.000000
# 3 -0.001702 -0.004338 0.034504 0.000000 0.016342 0.000000
# 4 0.000000 0.000000 0.000000 0.039349 0.000000 -0.000881
# 5 -0.005727 -0.002825 0.016342 0.000000 0.088862 0.000000
# 6 0.000000 0.000000 0.000000 -0.000881 0.000000 0.025220
#
#
# Mechanical properties :
#
#
# Convention : Reuss Voigt Hill
#
# Bulk Modulus (GPa) = 32.37560 77.26549 54.82054
# Shear Modulus (GPa) = 22.27912 39.47882 30.87897
#
# Velocity S-wave (km/s) = 3.24334 4.31744 3.81835
# Velocity P-wave (km/s) = 5.41407 7.83168 6.73228
#
# Compressibility (1/GPa) = 0.03088746
#
# Stress axis : x y z
#
# Youngs Moduli (GPa) = 167.56212 187.91610 28.98238
#
# Poissons Ratio (x) = 0.26542 0.04933
# Poissons Ratio (y) = 0.23668 0.12574
# Poissons Ratio (z) = 0.28520 0.81525
#
# Static dielectric constant tensor:
#      x y z
#    x 1.782570 0.000000 0.018900 
#    y 0.000000 1.793480 0.000000 
#    z 0.018900 0.000000 1.727880 
# 
# From -- ./inp_files/39981.got.cif
#   From: 2010.05.17/outbox.cif.g08.bks.cpg/sg10_20_cif.got.tgz:39981.got - 2010.06.03 11:33:40.
