data_PCOD9143951
_publ_section_title
;
Structure prediction by ZEFSAII (Michael W. Deem and Ramdas Pophale) SiO2 
 PCOD9143951
Probable space group: P 2/M
;
_chemical_formula_sum "Si O2"
_cell_formula_units_Z 22
_cell_length_a 9.120482
_cell_length_b 11.571431
_cell_length_c 9.362972
_cell_angle_alpha 90.000000
_cell_angle_beta 75.779620
_cell_angle_gamma 90.000000
_cell_volume 957.861679
_symmetry_space_group_name_H-M "P 2/M"
_symmetry_group_IT_number 10
_symmetry_cell_setting 'monoclinic'
loop_
_space_group_symop_operation_xyz
x,y,z
-x,y,-z
-x,-y,-z
x,-y,z
loop_
_atom_site_type_symbol
_atom_site_label
_atom_site_fract_x
_atom_site_fract_y
_atom_site_fract_z
Si Si1 0.289121 0.500000 0.594860
Si Si2 0.678934 0.245431 0.488378
Si Si3 0.229929 0.297279 0.049811
Si Si4 0.602412 0.869934 0.785966
Si Si5 0.402339 0.500000 0.871938
Si Si6 0.760539 0.867988 0.185216
Si Si7 0.026513 0.500000 0.164467
O O1 0.293347 0.382031 0.503989
O O2 0.417571 0.500000 0.693325
O O3 0.128918 0.500000 0.715186
O O4 0.500000 0.235999 0.500000
O O5 0.693742 0.162988 0.620999
O O6 0.773194 0.198419 0.331829
O O7 0.347720 0.231020 0.120687
O O8 0.122222 0.382641 0.164908
O O9 0.311411 0.382877 0.919521
O O10 0.163620 0.199364 0.963229
O O11 0.421958 0.868037 0.803034
O O12 0.639707 0.000000 0.827393
O O13 0.500000 0.500000 0.000000
O O14 0.809211 0.000000 0.185486
O O15 0.000000 0.500000 0.000000
#
# Coordination Sequence:
#
# PCOD9143951 Si02
#       7
#     2   4   4   4   2   4   2
#     4  12  22  41  61  85 117 160 200 241 287 359
#     4  10  21  36  58  88 122 154 191 239 299 357
#     4  11  21  35  59  86 116 156 193 243 286 348
#     4  10  21  36  57  90 125 152 191 247 302 353
#     4  11  21  32  58  90 120 140 182 250 307 341
#     4  10  18  33  58  88 122 159 194 239 300 355
#     4  11  22  42  59  81 116 161 203 243 287 334
#
# _framework density 22.967824
#
# number of rings (size 3 to 8) (size 9 to 14) (size 15 to 20)
#    0.000    1.455    3.636    3.000    2.545    5.091 
#    0.000    1.818    0.000   13.091    0.000    0.000 
#    0.000    0.000    0.000    0.000    0.000    0.000 
#
# Total GULP energy -122800.507354 kJ/mol
# GULP energy per Si atom -5581.841243 kJ/mol
# Density = 2.291555 g / cm^3
# Si number density = 22.967824 Si / 1000 Ang^3
#
#
#
# Elastic Constant Matrix: (Units=GPa)
#
#
# Indices 1 2 3 4 5 6 
#
# 1 37.6041 27.1851 5.0972 0.0000 -8.8786 0.0000
# 2 27.1851 167.2342 10.7497 0.0000 0.9737 0.0000
# 3 5.0972 10.7497 25.7367 0.0000 -4.5603 0.0000
# 4 0.0000 0.0000 0.0000 32.9563 0.0000 8.6044
# 5 -8.8786 0.9737 -4.5603 0.0000 16.3034 0.0000
# 6 0.0000 0.0000 0.0000 8.6044 0.0000 7.1578
#
#
#
# Elastic Compliance Matrix: (Units=1/GPa)
#
#
# Indices 1 2 3 4 5 6 
#
# 1 0.035526 -0.005812 -0.001177 0.000000 0.019365 0.000000
# 2 -0.005812 0.007116 -0.002585 0.000000 -0.004313 0.000000
# 3 -0.001177 -0.002585 0.042172 0.000000 0.011310 0.000000
# 4 0.000000 0.000000 0.000000 0.044223 0.000000 -0.053160
# 5 0.019365 -0.004313 0.011310 0.000000 0.075304 0.000000
# 6 0.000000 0.000000 0.000000 -0.053160 0.000000 0.203612
#
#
# Mechanical properties :
#
#
# Convention : Reuss Voigt Hill
#
# Bulk Modulus (GPa) = 15.22881 35.18213 25.20547
# Shear Modulus (GPa) = 11.13610 23.78635 17.46123
#
# Velocity S-wave (km/s) = 2.20433 3.22162 2.76025
# Velocity P-wave (km/s) = 3.62266 5.40275 4.59964
#
# Compressibility (1/GPa) = 0.06566499
#
# Stress axis : x y z
#
# Youngs Moduli (GPa) = 28.14803 140.53348 23.71244
#
# Poissons Ratio (x) = 0.81680 0.02791
# Poissons Ratio (y) = 0.16360 0.06130
# Poissons Ratio (z) = 0.03313 0.36332
#
# Static dielectric constant tensor:
#      x y z
#    x 1.930600 0.000000 0.041130 
#    y 0.000000 1.849520 0.000000 
#    z 0.041130 0.000000 1.926090 
# 
# From -- ./inp_files/23980.got.cif
#   From: 2010.05.17/outbox.cif.g08.bks.cpg/sg10_12_cif.got.tgz:23980.got - 2010.06.03 11:33:40.
