data_PCOD9143749
_publ_section_title
;
Structure prediction by ZEFSAII (Michael W. Deem and Ramdas Pophale) SiO2 
 PCOD9143749
Probable space group: P 2/M
;
_chemical_formula_sum "Si O2"
_cell_formula_units_Z 30
_cell_length_a 11.265826
_cell_length_b 10.128350
_cell_length_c 15.162746
_cell_angle_alpha 90.000000
_cell_angle_beta 110.142383
_cell_angle_gamma 90.000000
_cell_volume 1624.318100
_symmetry_space_group_name_H-M "P 2/M"
_symmetry_group_IT_number 10
_symmetry_cell_setting 'monoclinic'
loop_
_space_group_symop_operation_xyz
x,y,z
-x,y,-z
-x,-y,-z
x,-y,z
loop_
_atom_site_type_symbol
_atom_site_label
_atom_site_fract_x
_atom_site_fract_y
_atom_site_fract_z
Si Si1 0.354758 0.158953 0.948282
Si Si2 0.151391 0.156544 0.051465
Si Si3 0.250612 0.351903 0.405081
Si Si4 0.237333 0.153813 0.729060
Si Si5 0.500000 0.795633 0.500000
Si Si6 0.504980 0.857383 0.300378
Si Si7 0.982714 0.654814 0.390518
Si Si8 0.301145 0.348990 0.209870
O O1 0.300437 0.194612 0.838250
O O2 0.364339 0.000000 0.951116
O O3 0.500000 0.208539 0.000000
O O4 0.246864 0.189410 0.994039
O O5 0.196004 0.258904 0.137122
O O6 0.170658 0.000000 0.077179
O O7 0.000000 0.172333 0.000000
O O8 0.241831 0.500000 0.439015
O O9 0.371947 0.286521 0.478885
O O10 0.273377 0.356734 0.306757
O O11 0.114920 0.290156 0.386902
O O12 0.348608 0.156201 0.685303
O O13 0.128901 0.253374 0.672323
O O14 0.194386 0.000000 0.726024
O O15 0.483343 0.861342 0.400126
O O16 0.429164 0.737042 0.237904
O O17 0.462736 0.000000 0.251880
O O18 0.964316 0.500000 0.359815
O O19 0.000000 0.658487 0.500000
O O20 0.309534 0.500000 0.178642
#
# Coordination Sequence:
#
# PCOD9143749 Si02
#       8
#     4   4   4   4   2   4   4   4
#     4   9  18  35  58  82 111 148 187 230 285 345
#     4  10  21  36  57  83 110 142 185 233 283 337
#     4   9  19  34  53  78 110 146 184 225 275 330
#     4  10  21  36  58  84 111 146 189 231 279 336
#     4  10  18  32  56  82 109 142 187 232 273 324
#     4  10  20  35  55  81 112 143 180 228 278 326
#     4  10  21  37  55  78 111 150 188 227 276 331
#     4  10  21  36  55  80 109 144 183 224 275 332
#
# _framework density 18.469289
#
# number of rings (size 3 to 8) (size 9 to 14) (size 15 to 20)
#    0.000    2.267    0.000    2.400    1.867    3.733 
#    0.000    4.000    0.000    1.600    0.000    0.000 
#    0.000    0.000    0.000    0.000    0.000    0.000 
#
# Total GULP energy -167073.413773 kJ/mol
# GULP energy per Si atom -5569.113792 kJ/mol
# Density = 1.842725 g / cm^3
# Si number density = 18.469289 Si / 1000 Ang^3
#
#
#
# Elastic Constant Matrix: (Units=GPa)
#
#
# Indices 1 2 3 4 5 6 
#
# 1 120.7051 52.7422 24.8058 0.0000 28.3582 0.0000
# 2 52.7422 105.5257 40.0804 0.0000 30.0572 0.0000
# 3 24.8058 40.0804 58.1343 0.0000 25.6854 0.0000
# 4 0.0000 0.0000 0.0000 -27.2563 0.0000 -6.8684
# 5 28.3582 30.0572 25.6854 0.0000 31.6431 0.0000
# 6 0.0000 0.0000 0.0000 -6.8684 0.0000 19.3939
#
#
#
# Elastic Compliance Matrix: (Units=1/GPa)
#
#
# Indices 1 2 3 4 5 6 
#
# 1 0.011589 -0.004126 0.001180 0.000000 -0.007425 0.000000
# 2 -0.004126 0.015677 -0.006396 0.000000 -0.006002 0.000000
# 3 0.001180 -0.006396 0.029454 0.000000 -0.018890 0.000000
# 4 0.000000 0.000000 0.000000 -0.033683 0.000000 -0.011929
# 5 -0.007425 -0.006002 -0.018890 0.000000 0.059292 0.000000
# 6 0.000000 0.000000 0.000000 -0.011929 0.000000 0.047338
#
#
# Mechanical properties :
#
#
# Convention : Reuss Voigt Hill
#
# Bulk Modulus (GPa) = 26.29026 57.73578 42.01302
# Shear Modulus (GPa) = 31.04984 15.87192 23.46088
#
# Velocity S-wave (km/s) = 4.10464 2.93468 3.56794
# Velocity P-wave (km/s) = 6.06050 6.54304 6.30639
#
# Compressibility (1/GPa) = 0.03803689
#
# Stress axis : x y z
#
# Youngs Moduli (GPa) = 86.28655 63.78584 33.95090
#
# Poissons Ratio (x) = 0.26315 -0.04006
# Poissons Ratio (y) = 0.35598 0.21716
# Poissons Ratio (z) = -0.10181 0.40800
#
# Static dielectric constant tensor:
#      x y z
#    x 1.741190 0.000000 0.027820 
#    y 0.000000 1.640790 0.000000 
#    z 0.027820 0.000000 1.668980 
# 
# From -- ./inp_files/63883.got.cif
#   From: 2010.05.17/outbox.cif.g08.bks.cpg/sg10_32_cif.got.tgz:63883.got - 2010.06.03 11:33:40.
