data_PCOD9143417
_publ_section_title
;
Structure prediction by ZEFSAII (Michael W. Deem and Ramdas Pophale) SiO2 
 PCOD9143417
Probable space group: P 2/M
;
_chemical_formula_sum "Si O2"
_cell_formula_units_Z 28
_cell_length_a 19.576617
_cell_length_b 7.446482
_cell_length_c 13.870442
_cell_angle_alpha 90.000000
_cell_angle_beta 36.859524
_cell_angle_gamma 90.000000
_cell_volume 1212.901347
_symmetry_space_group_name_H-M "P 2/M"
_symmetry_group_IT_number 10
_symmetry_cell_setting 'monoclinic'
loop_
_space_group_symop_operation_xyz
x,y,z
-x,y,-z
-x,-y,-z
x,-y,z
loop_
_atom_site_type_symbol
_atom_site_label
_atom_site_fract_x
_atom_site_fract_y
_atom_site_fract_z
Si Si1 0.701782 0.717446 0.427368
Si Si2 0.038883 0.207306 0.853601
Si Si3 0.614794 0.715387 0.928797
Si Si4 0.346335 0.291678 0.731679
Si Si5 0.867725 0.217094 0.896306
Si Si6 0.129268 0.215288 0.325020
Si Si7 0.478207 0.280932 0.764692
O O1 0.706636 0.500000 0.417505
O O2 0.826959 0.784641 0.304621
O O3 0.663966 0.782682 0.363735
O O4 0.610815 0.765946 0.611601
O O5 0.983091 0.277540 0.818735
O O6 0.000041 0.000000 0.901804
O O7 0.000000 0.289977 0.000000
O O8 0.607112 0.500000 0.935345
O O9 0.749906 0.750871 0.755016
O O10 0.500000 0.777380 0.000000
O O11 0.590506 0.781885 0.065303
O O12 0.378746 0.500000 0.682964
O O13 0.429745 0.213830 0.717731
O O14 0.226804 0.279483 0.921400
O O15 0.852463 0.283933 0.805175
O O16 0.862057 0.000000 0.895953
O O17 0.000000 0.277814 0.500000
O O18 0.120734 0.000000 0.333869
O O19 0.469486 0.500000 0.774059
#
# Coordination Sequence:
#
# PCOD9143417 Si02
#       7
#     4   4   4   4   4   4   4
#     4  10  20  32  51  79 108 140 181 223 261 314
#     4  10  20  34  50  71 106 146 177 215 269 319
#     4  10  21  38  61  87 115 148 185 229 285 343
#     4  10  18  31  54  78 102 137 179 216 258 312
#     4  10  20  35  55  76 103 140 178 216 265 319
#     4  10  22  40  61  85 112 144 188 238 283 333
#     4   9  18  34  53  77 110 141 173 219 271 317
#
# _framework density 23.085142999999999
#
# number of rings (size 3 to 8) (size 9 to 14) (size 15 to 20)
#    0.000    2.143    2.857    0.429    0.000    4.286 
#    0.000    1.429    0.000    1.714    0.000    0.000 
#    0.000    0.000    0.000    0.000    0.000    0.000 
#
# Total GULP energy -156091.738922 kJ/mol
# GULP energy per Si atom -5574.704962 kJ/mol
# Density = 2.303260 g / cm^3
# Si number density = 23.085143 Si / 1000 Ang^3
#
#
#
# Elastic Constant Matrix: (Units=GPa)
#
#
# Indices 1 2 3 4 5 6 
#
# 1 114.7831 1.7014 48.2208 0.0000 -33.4841 0.0000
# 2 1.7014 73.7244 -5.1538 0.0000 2.6044 0.0000
# 3 48.2208 -5.1538 136.3027 0.0000 -26.0174 0.0000
# 4 0.0000 0.0000 0.0000 18.6820 0.0000 -3.9511
# 5 -33.4841 2.6044 -26.0174 0.0000 30.5482 0.0000
# 6 0.0000 0.0000 0.0000 -3.9511 0.0000 -7.8519
#
#
#
# Elastic Compliance Matrix: (Units=1/GPa)
#
#
# Indices 1 2 3 4 5 6 
#
# 1 0.013453 -0.000928 -0.002346 0.000000 0.012827 0.000000
# 2 -0.000928 0.013683 0.000512 0.000000 -0.001747 0.000000
# 3 -0.002346 0.000512 0.009179 0.000000 0.005202 0.000000
# 4 0.000000 0.000000 0.000000 0.048379 0.000000 -0.024344
# 5 0.012827 -0.001747 0.005202 0.000000 0.051375 0.000000
# 6 0.000000 0.000000 0.000000 -0.024344 0.000000 -0.115107
#
#
# Mechanical properties :
#
#
# Convention : Reuss Voigt Hill
#
# Bulk Modulus (GPa) = 32.47602 46.03857 39.25730
# Shear Modulus (GPa) = 136.05787 26.94511 81.50149
#
# Velocity S-wave (km/s) = 7.68540 3.42015 5.94823
# Velocity P-wave (km/s) = 9.63599 5.96513 8.01358
#
# Compressibility (1/GPa) = 0.03079195
#
# Stress axis : x y z
#
# Youngs Moduli (GPa) = 74.33078 73.08364 108.94429
#
# Poissons Ratio (x) = 0.06779 0.25559
# Poissons Ratio (y) = 0.06895 -0.05578
# Poissons Ratio (z) = 0.17439 -0.03742
#
# Static dielectric constant tensor:
#      x y z
#    x 1.903660 0.000000 -0.042560 
#    y 0.000000 1.971080 0.000000 
#    z -0.042560 0.000000 1.884990 
# 
# From -- ./inp_files/70175.got.cif
#   From: 2010.05.17/outbox.cif.g08.bks.cpg/sg10_36_cif.got.tgz:70175.got - 2010.06.03 11:33:40.
