data_PCOD9143355
_publ_section_title
;
Structure prediction by ZEFSAII (Michael W. Deem and Ramdas Pophale) SiO2 
 PCOD9143355
Probable space group: P 2/M
;
_chemical_formula_sum "Si O2"
_cell_formula_units_Z 28
_cell_length_a 8.802045
_cell_length_b 18.156913
_cell_length_c 11.344994
_cell_angle_alpha 90.000000
_cell_angle_beta 49.720620
_cell_angle_gamma 90.000000
_cell_volume 1383.241726
_symmetry_space_group_name_H-M "P 2/M"
_symmetry_group_IT_number 10
_symmetry_cell_setting 'monoclinic'
loop_
_space_group_symop_operation_xyz
x,y,z
-x,y,-z
-x,-y,-z
x,-y,z
loop_
_atom_site_type_symbol
_atom_site_label
_atom_site_fract_x
_atom_site_fract_y
_atom_site_fract_z
Si Si1 0.674405 0.303802 0.139792
Si Si2 0.789913 0.313867 0.670991
Si Si3 0.281758 0.224727 0.651535
Si Si4 0.220476 0.082577 0.835737
Si Si5 0.043525 0.834502 0.349944
Si Si6 0.312586 0.150903 0.012072
Si Si7 0.734264 0.583142 0.917041
O O1 0.434156 0.320547 0.270460
O O2 0.768360 0.282301 0.218942
O O3 0.713861 0.231130 0.037366
O O4 0.757252 0.373808 0.028211
O O5 0.811232 0.365028 0.774559
O O6 0.000000 0.327336 0.500000
O O7 0.795815 0.228134 0.702053
O O8 0.500000 0.244191 0.500000
O O9 0.282946 0.144940 0.713878
O O10 0.141831 0.212175 0.609335
O O11 0.229978 0.000000 0.784508
O O12 0.350178 0.094134 0.887816
O O13 0.000000 0.097308 0.000000
O O14 0.000000 0.870562 0.500000
O O15 0.131785 0.873781 0.189700
O O16 0.500000 0.154711 0.000000
O O17 0.813391 0.500000 0.878961
O O18 0.500000 0.578933 0.000000
#
# Coordination Sequence:
#
# PCOD9143355 Si02
#       7
#     4   4   4   4   4   4   4
#     4  10  19  35  55  84 110 142 189 230 274 326
#     4  10  18  31  52  80 116 147 182 234 276 321
#     4  11  23  37  59  85 110 145 183 229 283 332
#     4  10  22  39  59  82 111 149 188 225 271 330
#     4  11  21  34  55  85 111 141 178 235 282 322
#     4  11  19  35  60  83 110 143 185 234 270 327
#     4   9  17  31  53  80 114 152 188 225 272 328
#
# _framework density 20.242305000000002
#
# number of rings (size 3 to 8) (size 9 to 14) (size 15 to 20)
#    0.000    1.714    4.286    2.143    2.000    0.857 
#    0.000    0.000    0.000    3.000    0.000    0.000 
#    0.000    0.000    0.000    0.000    0.000    0.000 
#
# Total GULP energy -155932.618675 kJ/mol
# GULP energy per Si atom -5569.022096 kJ/mol
# Density = 2.019623 g / cm^3
# Si number density = 20.242305 Si / 1000 Ang^3
#
#
#
# Elastic Constant Matrix: (Units=GPa)
#
#
# Indices 1 2 3 4 5 6 
#
# 1 64.6087 -20.8991 20.7135 0.0000 20.7997 0.0000
# 2 -20.8991 64.8447 15.5627 0.0000 16.5501 0.0000
# 3 20.7135 15.5627 89.7926 0.0000 14.8109 0.0000
# 4 0.0000 0.0000 0.0000 13.2904 0.0000 4.2852
# 5 20.7997 16.5501 14.8109 0.0000 29.0657 0.0000
# 6 0.0000 0.0000 0.0000 4.2852 0.0000 8.8073
#
#
#
# Elastic Compliance Matrix: (Units=1/GPa)
#
#
# Indices 1 2 3 4 5 6 
#
# 1 0.035899 0.022022 -0.006324 0.000000 -0.035006 0.000000
# 2 0.022022 0.031757 -0.005461 0.000000 -0.031059 0.000000
# 3 -0.006324 -0.005461 0.013410 0.000000 0.000802 0.000000
# 4 0.000000 0.000000 0.000000 0.089242 0.000000 -0.043421
# 5 -0.035006 -0.031059 0.000802 0.000000 0.076732 0.000000
# 6 0.000000 0.000000 0.000000 -0.043421 0.000000 0.134668
#
#
# Mechanical properties :
#
#
# Convention : Reuss Voigt Hill
#
# Bulk Modulus (GPa) = 9.84836 27.77779 18.81308
# Shear Modulus (GPa) = 12.65569 23.82396 18.23982
#
# Velocity S-wave (km/s) = 2.50313 3.43438 3.00505
# Velocity P-wave (km/s) = 3.63731 5.42946 4.62110
#
# Compressibility (1/GPa) = 0.10153975
#
# Stress axis : x y z
#
# Youngs Moduli (GPa) = 27.85631 31.48931 74.57221
#
# Poissons Ratio (x) = -0.69346 0.47158
# Poissons Ratio (y) = -0.61346 0.40725
# Poissons Ratio (z) = 0.17616 0.17197
#
# Static dielectric constant tensor:
#      x y z
#    x 1.794550 0.000000 -0.009230 
#    y 0.000000 1.712310 0.000000 
#    z -0.009230 0.000000 1.781840 
# 
# From -- ./inp_files/43507.got.cif
#   From: 2010.05.17/outbox.cif.g08.bks.cpg/sg10_22_cif.got.tgz:43507.got - 2010.06.03 11:33:40.
