data_PCOD9143290
_publ_section_title
;
Structure prediction by ZEFSAII (Michael W. Deem and Ramdas Pophale) SiO2 
 PCOD9143290
Probable space group: P 2/M
;
_chemical_formula_sum "Si O2"
_cell_formula_units_Z 32
_cell_length_a 10.777362
_cell_length_b 7.573091
_cell_length_c 19.820299
_cell_angle_alpha 90.000000
_cell_angle_beta 89.966861
_cell_angle_gamma 90.000000
_cell_volume 1617.691767
_symmetry_space_group_name_H-M "P 2/M"
_symmetry_group_IT_number 10
_symmetry_cell_setting 'monoclinic'
loop_
_space_group_symop_operation_xyz
x,y,z
-x,y,-z
-x,-y,-z
x,-y,z
loop_
_atom_site_type_symbol
_atom_site_label
_atom_site_fract_x
_atom_site_fract_y
_atom_site_fract_z
Si Si1 0.125787 0.283596 0.035058
Si Si2 0.523334 0.792071 0.172235
Si Si3 0.378658 0.711216 0.539422
Si Si4 0.871183 0.283106 0.533762
Si Si5 0.234337 0.286463 0.174089
Si Si6 0.623564 0.295652 0.032805
Si Si7 0.504321 0.210391 0.322586
Si Si8 0.780258 0.705615 0.675576
O O1 0.122533 0.500000 0.034441
O O2 0.147385 0.229587 0.112675
O O3 0.246831 0.222642 0.993552
O O4 0.000000 0.222840 0.000000
O O5 0.376892 0.763144 0.158429
O O6 0.603751 0.710084 0.112762
O O7 0.543413 0.724361 0.248392
O O8 0.548502 0.000000 0.171118
O O9 0.500000 0.781451 0.500000
O O10 0.378245 0.500000 0.530380
O O11 0.249362 0.775412 0.508674
O O12 0.401134 0.748153 0.617935
O O13 0.870403 0.500000 0.534547
O O14 0.851873 0.221307 0.610868
O O15 0.000000 0.228174 0.500000
O O16 0.231974 0.500000 0.176612
O O17 0.202720 0.218408 0.249197
O O18 0.625345 0.500000 0.010169
O O19 0.500000 0.213083 0.000000
O O20 0.367561 0.284693 0.339081
O O21 0.488817 0.000000 0.317860
O O22 0.814911 0.500000 0.679940
#
# Coordination Sequence:
#
# PCOD9143290 Si02
#       8
#     4   4   4   4   4   4   4   4
#     4   9  17  30  48  73 103 129 158 203 249 290
#     4  10  20  32  48  73 102 130 164 207 250 289
#     4  10  18  31  51  75 100 127 161 200 246 293
#     4   9  17  30  48  73 103 129 158 203 249 290
#     4   9  16  29  50  72  95 127 166 204 245 293
#     4  10  18  31  51  75 100 127 161 200 246 293
#     4  10  20  32  48  73 102 130 164 207 250 289
#     4   9  16  29  50  72  95 127 166 204 245 293
#
# _framework density 19.781272999999999
#
# number of rings (size 3 to 8) (size 9 to 14) (size 15 to 20)
#    0.000    2.500    2.500    0.750    0.000    2.000 
#    0.000    1.250    0.000    7.500    0.000    3.500 
#    0.000    0.000    0.000    0.000    0.000    0.000 
#
# Total GULP energy -178509.899674 kJ/mol
# GULP energy per Si atom -5578.434365 kJ/mol
# Density = 1.973625 g / cm^3
# Si number density = 19.781273 Si / 1000 Ang^3
#
#
#
# Elastic Constant Matrix: (Units=GPa)
#
#
# Indices 1 2 3 4 5 6 
#
# 1 131.6565 4.7099 98.1477 0.0000 1.5906 0.0000
# 2 4.7099 44.0831 -5.6650 0.0000 -0.8629 0.0000
# 3 98.1477 -5.6650 171.8061 0.0000 0.5160 0.0000
# 4 0.0000 0.0000 0.0000 -10.4477 0.0000 18.7710
# 5 1.5906 -0.8629 0.5160 0.0000 31.7619 0.0000
# 6 0.0000 0.0000 0.0000 18.7710 0.0000 65.4105
#
#
#
# Elastic Compliance Matrix: (Units=1/GPa)
#
#
# Indices 1 2 3 4 5 6 
#
# 1 0.013498 -0.002455 -0.007790 0.000000 -0.000616 0.000000
# 2 -0.002455 0.023239 0.002167 0.000000 0.000719 0.000000
# 3 -0.007790 0.002167 0.010341 0.000000 0.000281 0.000000
# 4 0.000000 0.000000 0.000000 -0.063153 0.000000 0.018123
# 5 -0.000616 0.000719 0.000281 0.000000 0.031530 0.000000
# 6 0.000000 0.000000 0.000000 0.018123 0.000000 0.010087
#
#
# Mechanical properties :
#
#
# Convention : Reuss Voigt Hill
#
# Bulk Modulus (GPa) = 32.34009 60.21454 46.27731
# Shear Modulus (GPa) = 96.13919 34.03514 65.08717
#
# Velocity S-wave (km/s) = 6.97901 4.15248 5.74237
# Velocity P-wave (km/s) = 9.01812 7.31417 8.21047
#
# Compressibility (1/GPa) = 0.03092138
#
# Stress axis : x y z
#
# Youngs Moduli (GPa) = 74.08308 43.03054 96.69783
#
# Poissons Ratio (x) = 0.10566 0.75331
# Poissons Ratio (y) = 0.18190 -0.20952
# Poissons Ratio (z) = 0.57713 -0.09324
#
# Static dielectric constant tensor:
#      x y z
#    x 1.654390 0.000000 0.000450 
#    y 0.000000 1.722710 0.000000 
#    z 0.000450 0.000000 1.726560 
# 
# From -- ./inp_files/75992.got.cif
#   From: 2010.05.17/outbox.cif.g08.bks.cpg/sg10_38_cif.got.tgz:75992.got - 2010.06.03 11:33:40.
