data_PCOD9143389
_publ_section_title
;
Structure prediction by ZEFSAII (Michael W. Deem and Ramdas Pophale) SiO2 
 PCOD9143389
Probable space group: P 2/M
;
_chemical_formula_sum "Si O2"
_cell_formula_units_Z 26
_cell_length_a 26.439936
_cell_length_b 10.267494
_cell_length_c 8.355740
_cell_angle_alpha 90.000000
_cell_angle_beta 147.456521
_cell_angle_gamma 90.000000
_cell_volume 1220.234163
_symmetry_space_group_name_H-M "P 2/M"
_symmetry_group_IT_number 10
_symmetry_cell_setting 'monoclinic'
loop_
_space_group_symop_operation_xyz
x,y,z
-x,y,-z
-x,-y,-z
x,-y,z
loop_
_atom_site_type_symbol
_atom_site_label
_atom_site_fract_x
_atom_site_fract_y
_atom_site_fract_z
Si Si1 0.556242 0.345967 0.985102
Si Si2 0.879735 0.644673 0.555791
Si Si3 0.047537 0.854584 0.462586
Si Si4 0.312389 0.637669 0.162003
Si Si5 0.763439 0.854474 0.846388
Si Si6 0.218662 0.350165 0.368923
Si Si7 0.500000 0.699075 0.500000
O O1 0.535785 0.500000 0.890748
O O2 0.524556 0.257034 0.749253
O O3 0.500000 0.318326 0.000000
O O4 0.668675 0.337699 0.304341
O O5 0.921858 0.500000 0.660077
O O6 0.950026 0.751837 0.673210
O O7 0.838874 0.670077 0.621956
O O8 0.785682 0.640828 0.194426
O O9 0.000000 0.807354 0.500000
O O10 0.009878 0.000000 0.324767
O O11 0.155740 0.869401 0.805500
O O12 0.315862 0.500000 0.263391
O O13 0.314738 0.762934 0.281348
O O14 0.398669 0.637975 0.270591
O O15 0.804943 0.764183 0.817330
O O16 0.734631 0.000000 0.719424
O O17 0.199641 0.500000 0.265846
#
# Coordination Sequence:
#
# PCOD9143389 Si02
#       7
#     4   4   4   4   4   4   2
#     4  10  19  29  47  79 112 143 186 237 279 317
#     4   9  18  32  52  80 111 139 172 217 271 327
#     4   9  19  37  59  81 104 133 176 225 269 326
#     4  10  18  31  53  79 105 137 180 228 273 318
#     4  10  21  36  55  78 105 140 180 219 272 333
#     4  10  19  34  52  77 111 144 180 222 270 325
#     4  12  19  30  55  84 111 144 191 240 283 326
#
# _framework density 21.307385
#
# number of rings (size 3 to 8) (size 9 to 14) (size 15 to 20)
#    0.000    2.154    1.538    2.769    0.000    2.769 
#    0.000    1.154    0.000    8.769    0.000    0.000 
#    0.000    0.000    0.000    0.000    0.000    0.000 
#
# Total GULP energy -144762.772488 kJ/mol
# GULP energy per Si atom -5567.798942 kJ/mol
# Density = 2.125889 g / cm^3
# Si number density = 21.307385 Si / 1000 Ang^3
#
#
#
# Elastic Constant Matrix: (Units=GPa)
#
#
# Indices 1 2 3 4 5 6 
#
# 1 164.4782 87.0283 -6.8369 0.0000 -9.3835 0.0000
# 2 87.0283 145.0233 15.6792 0.0000 -16.3723 0.0000
# 3 -6.8369 15.6792 51.4575 0.0000 -1.5731 0.0000
# 4 0.0000 0.0000 0.0000 3.8774 0.0000 -13.1677
# 5 -9.3835 -16.3723 -1.5731 0.0000 31.7992 0.0000
# 6 0.0000 0.0000 0.0000 -13.1677 0.0000 75.2024
#
#
#
# Elastic Compliance Matrix: (Units=1/GPa)
#
#
# Indices 1 2 3 4 5 6 
#
# 1 0.009351 -0.005959 0.003053 0.000000 -0.000158 0.000000
# 2 -0.005959 0.011357 -0.004134 0.000000 0.003884 0.000000
# 3 0.003053 -0.004134 0.021093 0.000000 -0.000184 0.000000
# 4 0.000000 0.000000 0.000000 0.636239 0.000000 0.111404
# 5 -0.000158 0.003884 -0.000184 0.000000 0.033392 0.000000
# 6 0.000000 0.000000 0.000000 0.111404 0.000000 0.032804
#
#
# Mechanical properties :
#
#
# Convention : Reuss Voigt Hill
#
# Bulk Modulus (GPa) = 36.07239 61.41114 48.74176
# Shear Modulus (GPa) = 6.51419 39.84835 23.18127
#
# Velocity S-wave (km/s) = 1.75039 4.32923 3.30198
# Velocity P-wave (km/s) = 4.58819 7.33988 6.12067
#
# Compressibility (1/GPa) = 0.02772203
#
# Stress axis : x y z
#
# Youngs Moduli (GPa) = 106.94024 88.05029 47.40881
#
# Poissons Ratio (x) = 0.52473 -0.14476
# Poissons Ratio (y) = 0.63731 0.19597
# Poissons Ratio (z) = -0.32654 0.36396
#
# Static dielectric constant tensor:
#      x y z
#    x 1.782910 0.000000 -0.011650 
#    y 0.000000 1.810060 0.000000 
#    z -0.011650 0.000000 1.836860 
# 
# From -- ./inp_files/31561.got.cif
#   From: 2010.05.17/outbox.cif.g08.bks.cpg/sg10_16_cif.got.tgz:31561.got - 2010.06.03 11:33:40.
