data_PCOD9143904
_publ_section_title
;
Structure prediction by ZEFSAII (Michael W. Deem and Ramdas Pophale) SiO2 
 PCOD9143904
Probable space group: P 2/M
;
_chemical_formula_sum "Si O2"
_cell_formula_units_Z 32
_cell_length_a 22.630556
_cell_length_b 7.524028
_cell_length_c 29.188356
_cell_angle_alpha 90.000000
_cell_angle_beta 162.060198
_cell_angle_gamma 90.000000
_cell_volume 1530.843466
_symmetry_space_group_name_H-M "P 2/M"
_symmetry_group_IT_number 10
_symmetry_cell_setting 'monoclinic'
loop_
_space_group_symop_operation_xyz
x,y,z
-x,y,-z
-x,-y,-z
x,-y,z
loop_
_atom_site_type_symbol
_atom_site_label
_atom_site_fract_x
_atom_site_fract_y
_atom_site_fract_z
Si Si1 0.383920 0.790986 0.579533
Si Si2 0.584843 0.708030 0.293560
Si Si3 0.191649 0.216373 0.279697
Si Si4 0.189896 0.785683 0.953215
Si Si5 0.948047 0.783809 0.248279
Si Si6 0.290153 0.292679 0.837337
Si Si7 0.023496 0.718187 0.464738
Si Si8 0.547095 0.783815 0.607657
O O1 0.447576 0.775294 0.678838
O O2 0.522134 0.720863 0.641342
O O3 0.167503 0.720050 0.414628
O O4 0.366964 0.000000 0.557206
O O5 0.618027 0.500000 0.323447
O O6 0.777765 0.780241 0.411948
O O7 0.397970 0.735271 0.124887
O O8 0.275801 0.278017 0.293040
O O9 0.351841 0.261981 0.436074
O O10 0.982718 0.277844 0.141202
O O11 0.185998 0.000000 0.274641
O O12 0.143114 0.726658 0.867113
O O13 0.181946 0.000000 0.947035
O O14 0.827530 0.719886 0.202542
O O15 0.947879 0.000000 0.249291
O O16 0.319265 0.500000 0.846781
O O17 0.155115 0.219256 0.697695
O O18 0.500000 0.212460 0.000000
O O19 0.025682 0.500000 0.465777
O O20 0.000000 0.772238 0.500000
O O21 0.560177 0.000000 0.616964
#
# Coordination Sequence:
#
# PCOD9143904 Si02
#       8
#     4   4   4   4   4   4   4   4
#     4  10  18  33  56  81 107 139 175 216 267 319
#     4  11  23  37  55  77 105 143 181 217 260 311
#     4   8  13  25  48  79 109 133 170 222 264 305
#     4  10  20  35  54  80 111 142 174 217 268 314
#     4  10  20  34  55  81 112 140 169 215 274 321
#     4  10  21  36  57  81 104 135 178 222 262 306
#     4   9  19  36  54  74 101 133 172 218 260 302
#     4   8  13  24  49  81 106 133 172 218 266 310
#
# _framework density 20.903509
#
# number of rings (size 3 to 8) (size 9 to 14) (size 15 to 20)
#    0.000    2.500    2.500    1.125    1.750    0.750 
#    0.000    0.625    0.000    6.375    0.000    1.750 
#    0.000    0.000    0.000    0.000    0.000    0.000 
#
# Total GULP energy -178599.564260 kJ/mol
# GULP energy per Si atom -5581.236383 kJ/mol
# Density = 2.085593 g / cm^3
# Si number density = 20.903509 Si / 1000 Ang^3
#
#
#
# Elastic Constant Matrix: (Units=GPa)
#
#
# Indices 1 2 3 4 5 6 
#
# 1 154.6968 -4.3677 60.7820 0.0000 -7.0389 0.0000
# 2 -4.3677 46.6865 -5.5217 0.0000 4.1007 0.0000
# 3 60.7820 -5.5217 114.1173 0.0000 -6.3720 0.0000
# 4 0.0000 0.0000 0.0000 -13.2707 0.0000 15.2965
# 5 -7.0389 4.1007 -6.3720 0.0000 25.5814 0.0000
# 6 0.0000 0.0000 0.0000 15.2965 0.0000 11.1803
#
#
#
# Elastic Compliance Matrix: (Units=1/GPa)
#
#
# Indices 1 2 3 4 5 6 
#
# 1 0.008212 0.000157 -0.004301 0.000000 0.001163 0.000000
# 2 0.000157 0.021814 0.000790 0.000000 -0.003257 0.000000
# 3 -0.004301 0.000790 0.011174 0.000000 0.001473 0.000000
# 4 0.000000 0.000000 0.000000 -0.029241 0.000000 0.040006
# 5 0.001163 -0.003257 0.001473 0.000000 0.040300 0.000000
# 6 0.000000 0.000000 0.000000 0.040006 0.000000 0.034708
#
#
# Mechanical properties :
#
#
# Convention : Reuss Voigt Hill
#
# Bulk Modulus (GPa) = 28.99257 46.36509 37.67883
# Shear Modulus (GPa) = 47.54114 22.33871 34.93992
#
# Velocity S-wave (km/s) = 4.77415 3.27258 4.09282
# Velocity P-wave (km/s) = 6.65506 6.04222 6.35603
#
# Compressibility (1/GPa) = 0.03449159
#
# Stress axis : x y z
#
# Youngs Moduli (GPa) = 121.77909 45.84284 89.49091
#
# Poissons Ratio (x) = -0.00721 0.38492
# Poissons Ratio (y) = -0.01917 -0.07068
# Poissons Ratio (z) = 0.52379 -0.03621
#
# Static dielectric constant tensor:
#      x y z
#    x 1.748340 0.000000 0.012790 
#    y 0.000000 1.821920 0.000000 
#    z 0.012790 0.000000 1.718740 
# 
# From -- ./inp_files/87073.got.cif
#   From: 2010.05.17/outbox.cif.g08.bks.cpg/sg10_44_cif.got.tgz:87073.got - 2010.06.03 11:33:40.
