data_PCOD9143185
_publ_section_title
;
Structure prediction by ZEFSAII (Michael W. Deem and Ramdas Pophale) SiO2 
 PCOD9143185
Probable space group: P 2/M
;
_chemical_formula_sum "Si O2"
_cell_formula_units_Z 28
_cell_length_a 16.453350
_cell_length_b 8.634050
_cell_length_c 16.600529
_cell_angle_alpha 90.000000
_cell_angle_beta 50.571133
_cell_angle_gamma 90.000000
_cell_volume 1821.548679
_symmetry_space_group_name_H-M "P 2/M"
_symmetry_group_IT_number 10
_symmetry_cell_setting 'monoclinic'
loop_
_space_group_symop_operation_xyz
x,y,z
-x,y,-z
-x,-y,-z
x,-y,z
loop_
_atom_site_type_symbol
_atom_site_label
_atom_site_fract_x
_atom_site_fract_y
_atom_site_fract_z
Si Si1 0.616855 0.186198 0.838425
Si Si2 0.984542 0.313952 0.203101
Si Si3 0.031830 0.812457 0.609917
Si Si4 0.119331 0.678446 0.889988
Si Si5 0.390019 0.683863 0.978417
Si Si6 0.201834 0.182708 0.995022
Si Si7 0.165974 0.188006 0.373805
O O1 0.506517 0.259410 0.881125
O O2 0.717687 0.238736 0.723558
O O3 0.608878 0.000000 0.840165
O O4 0.633570 0.236406 0.920613
O O5 0.993971 0.500000 0.192234
O O6 0.957126 0.260977 0.309774
O O7 0.897570 0.266874 0.190905
O O8 0.096321 0.241720 0.106487
O O9 0.120858 0.765268 0.489161
O O10 0.920482 0.767073 0.638901
O O11 0.032889 0.000000 0.616116
O O12 0.155866 0.500000 0.868037
O O13 0.186586 0.776353 0.910471
O O14 0.000000 0.678892 0.000000
O O15 0.390364 0.500000 0.989217
O O16 0.301832 0.733782 0.970730
O O17 0.211451 0.000000 0.000331
O O18 0.166286 0.000000 0.373601
#
# Coordination Sequence:
#
# PCOD9143185 Si02
#       7
#     4   4   4   4   4   4   4
#     4  10  18  31  48  67  91 120 155 190 221 257
#     4  10  19  30  44  66  95 123 148 179 222 267
#     4   9  16  29  47  67  90 120 155 183 216 261
#     4   8  16  30  44  61  90 121 145 176 221 268
#     4  11  21  32  45  65  92 121 151 184 227 271
#     4  11  20  30  46  67  89 117 153 188 221 263
#     4   8  16  29  46  66  90 119 151 189 223 253
#
# _framework density 15.371536000000001
#
# number of rings (size 3 to 8) (size 9 to 14) (size 15 to 20)
#    0.000    2.429    0.000    6.857    0.000    4.286 
#    0.000    3.571    0.000    0.000    0.000    1.000 
#    0.000    8.000    0.000    0.000    0.000    0.000 
#
# Total GULP energy -156103.163684 kJ/mol
# GULP energy per Si atom -5575.112989 kJ/mol
# Density = 1.533655 g / cm^3
# Si number density = 15.371536 Si / 1000 Ang^3
#
#
#
# Elastic Constant Matrix: (Units=GPa)
#
#
# Indices 1 2 3 4 5 6 
#
# 1 85.8847 13.6880 44.3396 0.0000 6.0958 0.0000
# 2 13.6880 40.5252 7.8586 0.0000 1.3679 0.0000
# 3 44.3396 7.8586 89.4611 0.0000 5.0134 0.0000
# 4 0.0000 0.0000 0.0000 9.7992 0.0000 6.7244
# 5 6.0958 1.3679 5.0134 0.0000 26.8462 0.0000
# 6 0.0000 0.0000 0.0000 6.7244 0.0000 24.8365
#
#
#
# Elastic Compliance Matrix: (Units=1/GPa)
#
#
# Indices 1 2 3 4 5 6 
#
# 1 0.016375 -0.003977 -0.007649 0.000000 -0.002087 0.000000
# 2 -0.003977 0.026090 -0.000300 0.000000 -0.000370 0.000000
# 3 -0.007649 -0.000300 0.015055 0.000000 -0.001059 0.000000
# 4 0.000000 0.000000 0.000000 0.125336 0.000000 -0.033934
# 5 -0.002087 -0.000370 -0.001059 0.000000 0.037940 0.000000
# 6 0.000000 0.000000 0.000000 -0.033934 0.000000 0.049451
#
#
# Mechanical properties :
#
#
# Convention : Reuss Voigt Hill
#
# Bulk Modulus (GPa) = 29.70282 38.62706 34.16494
# Shear Modulus (GPa) = 16.37619 22.29534 19.33577
#
# Velocity S-wave (km/s) = 3.26752 3.81258 3.55053
# Velocity P-wave (km/s) = 5.79662 6.67567 6.25162
#
# Compressibility (1/GPa) = 0.03366684
#
# Stress axis : x y z
#
# Youngs Moduli (GPa) = 61.06985 38.32890 66.42274
#
# Poissons Ratio (x) = 0.15243 0.50810
# Poissons Ratio (y) = 0.24287 0.01992
# Poissons Ratio (z) = 0.46715 0.01150
#
# Static dielectric constant tensor:
#      x y z
#    x 1.506220 0.000000 0.009260 
#    y 0.000000 1.516600 0.000000 
#    z 0.009260 0.000000 1.508790 
# 
# From -- ./inp_files/65915.got.cif
#   From: 2010.05.17/outbox.cif.g08.bks.cpg/sg10_33_cif.got.tgz:65915.got - 2010.06.03 11:33:40.
