data_PCOD9143143
_publ_section_title
;
Structure prediction by ZEFSAII (Michael W. Deem and Ramdas Pophale) SiO2 
 PCOD9143143
Probable space group: P 2/M
;
_chemical_formula_sum "Si O2"
_cell_formula_units_Z 32
_cell_length_a 18.075733
_cell_length_b 13.781284
_cell_length_c 22.231679
_cell_angle_alpha 90.000000
_cell_angle_beta 162.370253
_cell_angle_gamma 90.000000
_cell_volume 1677.283848
_symmetry_space_group_name_H-M "P 2/M"
_symmetry_group_IT_number 10
_symmetry_cell_setting 'monoclinic'
loop_
_space_group_symop_operation_xyz
x,y,z
-x,y,-z
-x,-y,-z
x,-y,z
loop_
_atom_site_type_symbol
_atom_site_label
_atom_site_fract_x
_atom_site_fract_y
_atom_site_fract_z
Si Si1 0.460887 0.612607 0.040880
Si Si2 0.033789 0.705677 0.347859
Si Si3 0.284089 0.183919 0.374862
Si Si4 0.771885 0.390820 0.617567
Si Si5 0.850674 0.204007 0.946520
Si Si6 0.324195 0.891052 0.535480
Si Si7 0.269326 0.393069 0.081142
Si Si8 0.239137 0.388154 0.616397
O O1 0.389310 0.500000 0.001309
O O2 0.244678 0.687823 0.887142
O O3 0.500000 0.613990 0.000000
O O4 0.694219 0.634726 0.263304
O O5 0.181783 0.635032 0.416493
O O6 0.152190 0.810871 0.432911
O O7 0.059325 0.673139 0.436326
O O8 0.500000 0.148697 0.500000
O O9 0.351000 0.294461 0.448992
O O10 0.262155 0.120475 0.417097
O O11 0.037794 0.182616 0.145551
O O12 0.667597 0.500000 0.543816
O O13 0.032139 0.391254 0.854111
O O14 0.609481 0.138257 0.761598
O O15 0.758642 0.312770 0.889429
O O16 0.000000 0.196842 0.000000
O O17 0.284966 0.000000 0.526470
O O18 0.287218 0.500000 0.122009
O O19 0.503218 0.377695 0.219910
O O20 0.159235 0.500000 0.551545
#
# Coordination Sequence:
#
# PCOD9143143 Si02
#       8
#     4   4   4   4   4   4   4   4
#     4  10  21  36  56  89 128 153 173 208 257 322
#     4  11  20  35  58  79 108 146 186 227 270 325
#     4  10  21  37  54  77 108 143 182 231 286 341
#     4   9  17  30  51  76 108 146 181 216 262 322
#     4  11  21  38  56  77 113 143 181 236 289 330
#     4  11  25  41  57  79 102 138 191 244 290 331
#     4   9  17  31  51  77 109 147 183 217 261 321
#     4  10  18  30  54  83 113 149 185 213 251 318
#
# _framework density 19.078465000000001
#
# number of rings (size 3 to 8) (size 9 to 14) (size 15 to 20)
#    0.000    1.875    3.750    1.125    0.000    2.000 
#    0.000    1.875    0.000    0.375    0.000    0.875 
#    0.000    0.000    0.000    0.000    0.000    0.000 
#
# Total GULP energy -178615.830398 kJ/mol
# GULP energy per Si atom -5581.744700 kJ/mol
# Density = 1.903504 g / cm^3
# Si number density = 19.078465 Si / 1000 Ang^3
#
#
#
# Elastic Constant Matrix: (Units=GPa)
#
#
# Indices 1 2 3 4 5 6 
#
# 1 67.8605 24.4316 23.3872 0.0000 -17.1220 0.0000
# 2 24.4316 94.1462 33.6487 0.0000 -5.3109 0.0000
# 3 23.3872 33.6487 73.9999 0.0000 -20.4815 0.0000
# 4 0.0000 0.0000 0.0000 9.2148 0.0000 1.9874
# 5 -17.1220 -5.3109 -20.4815 0.0000 31.2653 0.0000
# 6 0.0000 0.0000 0.0000 1.9874 0.0000 6.2766
#
#
#
# Elastic Compliance Matrix: (Units=1/GPa)
#
#
# Indices 1 2 3 4 5 6 
#
# 1 0.018874 -0.003731 -0.001934 0.000000 0.008436 0.000000
# 2 -0.003731 0.013522 -0.005984 0.000000 -0.003667 0.000000
# 3 -0.001934 -0.005984 0.019875 0.000000 0.010944 0.000000
# 4 0.000000 0.000000 0.000000 0.116475 0.000000 -0.036880
# 5 0.008436 -0.003667 0.010944 0.000000 0.043151 0.000000
# 6 0.000000 0.000000 0.000000 -0.036880 0.000000 0.170999
#
#
# Mechanical properties :
#
#
# Convention : Reuss Voigt Hill
#
# Bulk Modulus (GPa) = 34.51475 44.32687 39.42081
# Shear Modulus (GPa) = 12.02349 19.65394 15.83871
#
# Velocity S-wave (km/s) = 2.51313 3.21310 2.88442
# Velocity P-wave (km/s) = 5.15280 6.08685 5.63920
#
# Compressibility (1/GPa) = 0.02897312
#
# Stress axis : x y z
#
# Youngs Moduli (GPa) = 52.98231 73.95355 50.31455
#
# Poissons Ratio (x) = 0.27592 0.09730
# Poissons Ratio (y) = 0.19768 0.30110
# Poissons Ratio (z) = 0.10246 0.44256
#
# Static dielectric constant tensor:
#      x y z
#    x 1.671090 0.000000 -0.006900 
#    y 0.000000 1.656340 0.000000 
#    z -0.006900 0.000000 1.698980 
# 
# From -- ./inp_files/85974.got.cif
#   From: 2010.05.17/outbox.cif.g08.bks.cpg/sg10_43_cif.got.tgz:85974.got - 2010.06.03 11:33:40.
