data_PCOD9143214
_publ_section_title
;
Structure prediction by ZEFSAII (Michael W. Deem and Ramdas Pophale) SiO2 
 PCOD9143214
Probable space group: P 2/M
;
_chemical_formula_sum "Si O2"
_cell_formula_units_Z 32
_cell_length_a 14.605245
_cell_length_b 7.836205
_cell_length_c 15.421904
_cell_angle_alpha 90.000000
_cell_angle_beta 91.626438
_cell_angle_gamma 90.000000
_cell_volume 1764.321104
_symmetry_space_group_name_H-M "P 2/M"
_symmetry_group_IT_number 10
_symmetry_cell_setting 'monoclinic'
loop_
_space_group_symop_operation_xyz
x,y,z
-x,y,-z
-x,-y,-z
x,-y,z
loop_
_atom_site_type_symbol
_atom_site_label
_atom_site_fract_x
_atom_site_fract_y
_atom_site_fract_z
Si Si1 0.804363 0.206339 0.484144
Si Si2 0.172096 0.800094 0.794018
Si Si3 0.881410 0.297387 0.747059
Si Si4 0.010060 0.298344 0.903894
Si Si5 0.035455 0.199418 0.624733
Si Si6 0.506707 0.798547 0.598721
Si Si7 0.706761 0.302174 0.656337
Si Si8 0.672390 0.793147 0.317124
O O1 0.905088 0.264483 0.455063
O O2 0.761588 0.287968 0.567468
O O3 0.733838 0.240030 0.403883
O O4 0.807812 0.000000 0.495762
O O5 0.112347 0.719751 0.868542
O O6 0.107430 0.788366 0.706869
O O7 0.269809 0.728952 0.764224
O O8 0.181984 0.000000 0.814973
O O9 0.871466 0.500000 0.759358
O O10 0.779831 0.227194 0.726934
O O11 0.939382 0.226129 0.829803
O O12 0.943934 0.275809 0.662673
O O13 0.990243 0.500000 0.908492
O O14 0.000000 0.225469 0.000000
O O15 0.016784 0.000000 0.608469
O O16 0.500000 0.727216 0.500000
O O17 0.608261 0.780181 0.638861
O O18 0.428502 0.729255 0.661163
O O19 0.486090 0.000000 0.589842
O O20 0.690119 0.500000 0.676193
O O21 0.670012 0.000000 0.306502
#
# Coordination Sequence:
#
# PCOD9143214 Si02
#       8
#     4   4   4   4   4   4   4   4
#     4   9  16  29  45  61  83 116 156 190 219 255
#     4   8  14  26  45  69  94 114 137 176 224 268
#     4   9  19  33  44  59  90 122 143 175 227 274
#     4   9  17  31  51  71  90 115 147 178 213 268
#     4   8  15  27  45  64  83 112 152 189 214 250
#     4  10  18  31  50  65  82 117 160 197 226 256
#     4  11  22  31  40  60  90 120 150 187 228 265
#     4   8  14  27  46  65  86 115 150 186 224 259
#
# _framework density 18.137286
#
# number of rings (size 3 to 8) (size 9 to 14) (size 15 to 20)
#    0.000    3.000    1.250    1.875    0.000    2.500 
#    0.000    5.000    0.000    0.000    0.000    0.875 
#    0.000    7.000    0.000    0.000    0.000    0.000 
#
# Total GULP energy -178209.187254 kJ/mol
# GULP energy per Si atom -5569.037102 kJ/mol
# Density = 1.809600 g / cm^3
# Si number density = 18.137286 Si / 1000 Ang^3
#
#
#
# Elastic Constant Matrix: (Units=GPa)
#
#
# Indices 1 2 3 4 5 6 
#
# 1 139.8641 0.1540 54.5061 0.0000 -8.4450 0.0000
# 2 0.1540 13.0406 -3.1516 0.0000 -2.1019 0.0000
# 3 54.5061 -3.1516 73.4233 0.0000 -21.3641 0.0000
# 4 0.0000 0.0000 0.0000 0.9350 0.0000 -11.6856
# 5 -8.4450 -2.1019 -21.3641 0.0000 9.9418 0.0000
# 6 0.0000 0.0000 0.0000 -11.6856 0.0000 22.3414
#
#
#
# Elastic Compliance Matrix: (Units=1/GPa)
#
#
# Indices 1 2 3 4 5 6 
#
# 1 0.012865 -0.010458 -0.019915 0.000000 -0.034079 0.000000
# 2 -0.010458 0.104114 0.042837 0.000000 0.105182 0.000000
# 3 -0.019915 0.042837 0.074602 0.000000 0.152452 0.000000
# 4 0.000000 0.000000 0.000000 -0.193157 0.000000 -0.101030
# 5 -0.034079 0.105182 0.152452 0.000000 0.421481 0.000000
# 6 0.000000 0.000000 0.000000 -0.101030 0.000000 -0.008084
#
#
# Mechanical properties :
#
#
# Convention : Reuss Voigt Hill
#
# Bulk Modulus (GPa) = 4.61874 36.59388 20.60631
# Shear Modulus (GPa) = 10.89181 18.29828 14.59504
#
# Velocity S-wave (km/s) = 2.45321 3.17973 2.83980
# Velocity P-wave (km/s) = 3.25214 5.80523 4.70516
#
# Compressibility (1/GPa) = 0.21650907
#
# Stress axis : x y z
#
# Youngs Moduli (GPa) = 77.73254 9.60490 13.40455
#
# Poissons Ratio (x) = 0.10045 0.26695
# Poissons Ratio (y) = 0.81291 -0.57421
# Poissons Ratio (z) = 1.54803 -0.41145
#
# Static dielectric constant tensor:
#      x y z
#    x 1.666550 0.000000 0.004540 
#    y 0.000000 1.658830 0.000000 
#    z 0.004540 0.000000 1.640870 
# 
# From -- ./inp_files/66058.got.cif
#   From: 2010.05.17/outbox.cif.g08.bks.cpg/sg10_34_cif.got.tgz:66058.got - 2010.06.03 11:33:40.
