data_PCOD9143450
_publ_section_title
;
Structure prediction by ZEFSAII (Michael W. Deem and Ramdas Pophale) SiO2 
 PCOD9143450
Probable space group: P 2/M
;
_chemical_formula_sum "Si O2"
_cell_formula_units_Z 32
_cell_length_a 11.641064
_cell_length_b 15.084047
_cell_length_c 14.080007
_cell_angle_alpha 90.000000
_cell_angle_beta 41.845323
_cell_angle_gamma 90.000000
_cell_volume 1649.372165
_symmetry_space_group_name_H-M "P 2/M"
_symmetry_group_IT_number 10
_symmetry_cell_setting 'monoclinic'
loop_
_space_group_symop_operation_xyz
x,y,z
-x,y,-z
-x,-y,-z
x,-y,z
loop_
_atom_site_type_symbol
_atom_site_label
_atom_site_fract_x
_atom_site_fract_y
_atom_site_fract_z
Si Si1 0.127052 0.092867 0.330487
Si Si2 0.538478 0.657984 0.863910
Si Si3 0.085489 0.597904 0.320448
Si Si4 0.774783 0.104586 0.107394
Si Si5 0.976939 0.220349 0.138457
Si Si6 0.406437 0.162468 0.282688
Si Si7 0.167856 0.598414 0.044185
Si Si8 0.106162 0.234808 0.599050
O O1 0.312465 0.102885 0.262062
O O2 0.000000 0.092536 0.500000
O O3 0.066557 0.176740 0.309608
O O4 0.105226 0.000000 0.291856
O O5 0.729456 0.615689 0.745030
O O6 0.543803 0.749186 0.804006
O O7 0.500000 0.670269 0.000000
O O8 0.375802 0.607181 0.918210
O O9 0.023417 0.500000 0.381841
O O10 0.119895 0.601293 0.185662
O O11 0.942322 0.673197 0.422055
O O12 0.572249 0.116836 0.223591
O O13 0.847224 0.171434 0.144623
O O14 0.813505 0.000000 0.097242
O O15 0.869409 0.146936 0.956722
O O16 0.071327 0.315477 0.059625
O O17 0.877364 0.237321 0.298023
O O18 0.266509 0.189140 0.448808
O O19 0.120080 0.500000 0.036862
#
# Coordination Sequence:
#
# PCOD9143450 Si02
#       8
#     4   4   4   4   4   4   4   4
#     4   9  18  32  51  76 108 144 180 221 276 337
#     4  10  18  31  54  83 118 156 191 230 277 333
#     4   9  17  31  54  83 119 159 191 225 277 338
#     4  11  24  42  62  83 112 147 192 244 290 339
#     4  10  21  40  61  83 111 147 191 241 292 334
#     4  11  21  36  57  81 119 152 188 233 286 339
#     4   9  17  32  57  86 113 149 194 236 281 336
#     4  10  21  36  58  85 117 151 186 234 286 344
#
# _framework density 19.401320999999999
#
# number of rings (size 3 to 8) (size 9 to 14) (size 15 to 20)
#    0.000    2.125    2.500    1.500    0.000    3.500 
#    0.000    3.750    0.000    2.250    0.000    3.500 
#    0.000    0.000    0.000    0.000    0.000    0.000 
#
# Total GULP energy -178183.006605 kJ/mol
# GULP energy per Si atom -5568.218956 kJ/mol
# Density = 1.935716 g / cm^3
# Si number density = 19.401321 Si / 1000 Ang^3
#
#
#
# Elastic Constant Matrix: (Units=GPa)
#
#
# Indices 1 2 3 4 5 6 
#
# 1 74.2358 45.9507 19.7772 0.0000 -18.0069 0.0000
# 2 45.9507 152.7485 12.8190 0.0000 -6.5201 0.0000
# 3 19.7772 12.8190 52.4842 0.0000 -6.3834 0.0000
# 4 0.0000 0.0000 0.0000 16.5144 0.0000 -2.9248
# 5 -18.0069 -6.5201 -6.3834 0.0000 30.4301 0.0000
# 6 0.0000 0.0000 0.0000 -2.9248 0.0000 19.4347
#
#
#
# Elastic Compliance Matrix: (Units=1/GPa)
#
#
# Indices 1 2 3 4 5 6 
#
# 1 0.020573 -0.005325 -0.005244 0.000000 0.009933 0.000000
# 2 -0.005325 0.008099 -0.000148 0.000000 -0.001447 0.000000
# 3 -0.005244 -0.000148 0.021226 0.000000 0.001318 0.000000
# 4 0.000000 0.000000 0.000000 0.062211 0.000000 0.009363
# 5 0.009933 -0.001447 0.001318 0.000000 0.038707 0.000000
# 6 0.000000 0.000000 0.000000 0.009363 0.000000 0.052863
#
#
# Mechanical properties :
#
#
# Convention : Reuss Voigt Hill
#
# Bulk Modulus (GPa) = 35.13017 48.50693 41.81855
# Shear Modulus (GPa) = 21.31287 26.67060 23.99173
#
# Velocity S-wave (km/s) = 3.31800 3.71169 3.52035
# Velocity P-wave (km/s) = 5.72933 6.58976 6.17455
#
# Compressibility (1/GPa) = 0.02846556
#
# Stress axis : x y z
#
# Youngs Moduli (GPa) = 48.60755 123.46908 47.11287
#
# Poissons Ratio (x) = 0.65745 0.24704
# Poissons Ratio (y) = 0.25883 0.00695
# Poissons Ratio (z) = 0.25488 0.01823
#
# Static dielectric constant tensor:
#      x y z
#    x 1.697400 0.000000 0.004370 
#    y 0.000000 1.722710 0.000000 
#    z 0.004370 0.000000 1.704010 
# 
# From -- ./inp_files/65075.got.cif
#   From: 2010.05.17/outbox.cif.g08.bks.cpg/sg10_33_cif.got.tgz:65075.got - 2010.06.03 11:33:40.
