data_PCOD9143130
_publ_section_title
;
Structure prediction by ZEFSAII (Michael W. Deem and Ramdas Pophale) SiO2 
 PCOD9143130
Probable space group: P 2/M
;
_chemical_formula_sum "Si O2"
_cell_formula_units_Z 32
_cell_length_a 12.799220
_cell_length_b 7.501602
_cell_length_c 14.767768
_cell_angle_alpha 90.000000
_cell_angle_beta 87.830467
_cell_angle_gamma 90.000000
_cell_volume 1416.905756
_symmetry_space_group_name_H-M "P 2/M"
_symmetry_group_IT_number 10
_symmetry_cell_setting 'monoclinic'
loop_
_space_group_symop_operation_xyz
x,y,z
-x,y,-z
-x,-y,-z
x,-y,z
loop_
_atom_site_type_symbol
_atom_site_label
_atom_site_fract_x
_atom_site_fract_y
_atom_site_fract_z
Si Si1 0.617388 0.783153 0.967409
Si Si2 0.387820 0.716732 0.534845
Si Si3 0.875325 0.204487 0.287704
Si Si4 0.899114 0.283504 0.685068
Si Si5 0.447691 0.284329 0.728971
Si Si6 0.673575 0.707857 0.758946
Si Si7 0.729318 0.796610 0.135295
Si Si8 0.833698 0.289284 0.497324
O O1 0.649216 0.723832 0.866228
O O2 0.617039 0.000000 0.968680
O O3 0.500000 0.725105 0.000000
O O4 0.703048 0.718661 0.038001
O O5 0.500000 0.782113 0.500000
O O6 0.388929 0.500000 0.525418
O O7 0.383062 0.757115 0.641143
O O8 0.284398 0.782472 0.489480
O O9 0.807150 0.286246 0.207832
O O10 0.862221 0.273314 0.390914
O O11 0.998958 0.216797 0.266334
O O12 0.841706 0.000000 0.294116
O O13 0.905014 0.500000 0.689575
O O14 0.787431 0.222219 0.728265
O O15 0.902257 0.222762 0.579092
O O16 0.449410 0.500000 0.739282
O O17 0.567073 0.220794 0.717072
O O18 0.384831 0.204017 0.813918
O O19 0.677577 0.500000 0.731990
O O20 0.765220 0.000000 0.119386
O O21 0.830006 0.500000 0.513692
#
# Coordination Sequence:
#
# PCOD9143130 Si02
#       8
#     4   4   4   4   4   4   4   4
#     4  10  20  36  59  83 109 146 184 218 270 340
#     4   9  16  27  47  77 110 142 177 215 260 320
#     4  11  23  38  57  80 110 147 190 236 273 314
#     4  10  22  39  57  80 113 149 186 228 275 326
#     4  10  18  30  53  82 110 140 176 218 270 326
#     4  10  21  36  56  86 117 142 177 230 280 324
#     4  10  21  37  55  79 110 141 179 225 271 321
#     4  10  19  34  57  82 109 146 188 227 270 324
#
# _framework density 22.584423000000001
#
# number of rings (size 3 to 8) (size 9 to 14) (size 15 to 20)
#    0.000    2.000    2.500    1.500    0.000    6.750 
#    0.000    0.625    0.000    6.750    0.000    0.000 
#    0.000    0.000    0.000    0.000    0.000    0.000 
#
# Total GULP energy -178609.327180 kJ/mol
# GULP energy per Si atom -5581.541474 kJ/mol
# Density = 2.253302 g / cm^3
# Si number density = 22.584423 Si / 1000 Ang^3
#
#
#
# Elastic Constant Matrix: (Units=GPa)
#
#
# Indices 1 2 3 4 5 6 
#
# 1 136.5987 -4.3106 34.3283 0.0000 25.6531 0.0000
# 2 -4.3106 60.9439 -3.1417 0.0000 3.5681 0.0000
# 3 34.3283 -3.1417 76.4052 0.0000 23.5735 0.0000
# 4 0.0000 0.0000 0.0000 20.0870 0.0000 -4.8325
# 5 25.6531 3.5681 23.5735 0.0000 37.8401 0.0000
# 6 0.0000 0.0000 0.0000 -4.8325 0.0000 10.8001
#
#
#
# Elastic Compliance Matrix: (Units=1/GPa)
#
#
# Indices 1 2 3 4 5 6 
#
# 1 0.008825 0.000753 -0.002558 0.000000 -0.004460 0.000000
# 2 0.000753 0.016692 0.001227 0.000000 -0.002849 0.000000
# 3 -0.002558 0.001227 0.017069 0.000000 -0.009015 0.000000
# 4 0.000000 0.000000 0.000000 0.055789 0.000000 0.024963
# 5 -0.004460 -0.002849 -0.009015 0.000000 0.035336 0.000000
# 6 0.000000 0.000000 0.000000 0.024963 0.000000 0.103761
#
#
# Mechanical properties :
#
#
# Convention : Reuss Voigt Hill
#
# Bulk Modulus (GPa) = 24.13646 36.41108 30.27377
# Shear Modulus (GPa) = 19.80688 30.21691 25.01189
#
# Velocity S-wave (km/s) = 2.96466 3.66177 3.33150
# Velocity P-wave (km/s) = 4.73596 5.83398 5.31341
#
# Compressibility (1/GPa) = 0.04143109
#
# Stress axis : x y z
#
# Youngs Moduli (GPa) = 113.31535 59.90936 58.58452
#
# Poissons Ratio (x) = -0.04514 0.14985
# Poissons Ratio (y) = -0.08538 -0.07187
# Poissons Ratio (z) = 0.28984 -0.07350
#
# Static dielectric constant tensor:
#      x y z
#    x 1.854430 0.000000 0.013990 
#    y 0.000000 1.890830 0.000000 
#    z 0.013990 0.000000 1.854220 
# 
# From -- ./inp_files/63840.got.cif
#   From: 2010.05.17/outbox.cif.g08.bks.cpg/sg10_32_cif.got.tgz:63840.got - 2010.06.03 11:33:40.
