data_PCOD9143959
_publ_section_title
;
Structure prediction by ZEFSAII (Michael W. Deem and Ramdas Pophale) SiO2 
 PCOD9143959
Probable space group: P 2/M
;
_chemical_formula_sum "Si O2"
_cell_formula_units_Z 26
_cell_length_a 16.415299
_cell_length_b 8.257805
_cell_length_c 21.787713
_cell_angle_alpha 90.000000
_cell_angle_beta 156.775267
_cell_angle_gamma 90.000000
_cell_volume 1164.647232
_symmetry_space_group_name_H-M "P 2/M"
_symmetry_group_IT_number 10
_symmetry_cell_setting 'monoclinic'
loop_
_space_group_symop_operation_xyz
x,y,z
-x,y,-z
-x,-y,-z
x,-y,z
loop_
_atom_site_type_symbol
_atom_site_label
_atom_site_fract_x
_atom_site_fract_y
_atom_site_fract_z
Si Si1 0.942926 0.306487 0.359664
Si Si2 0.512560 0.170476 0.386845
Si Si3 0.670592 0.821477 0.870562
Si Si4 0.996132 0.177767 0.261418
Si Si5 0.665317 0.306590 0.279592
Si Si6 0.065001 0.500000 0.973677
Si Si7 0.045810 0.500000 0.236340
Si Si8 0.491444 0.500000 0.422234
O O1 0.937582 0.500000 0.343340
O O2 0.752334 0.266331 0.272629
O O3 0.947136 0.213808 0.298596
O O4 0.147405 0.277476 0.542425
O O5 0.486980 0.174750 0.296313
O O6 0.753425 0.170057 0.570768
O O7 0.406998 0.331750 0.338771
O O8 0.420039 0.000000 0.345428
O O9 0.531998 0.789518 0.834019
O O10 0.809675 0.666266 0.951702
O O11 0.772351 0.000000 0.942475
O O12 0.933384 0.334679 0.178478
O O13 0.916900 0.000000 0.188595
O O14 0.622849 0.500000 0.252287
O O15 0.000000 0.500000 0.000000
O O16 0.916963 0.500000 0.810986
O O17 0.262048 0.500000 0.423801
O O18 0.500000 0.500000 0.500000
#
# Coordination Sequence:
#
# PCOD9143959 Si02
#       8
#     4   4   4   4   4   2   2   2
#     4   9  16  27  51  93 136 166 196 231 280 349
#     4   9  19  33  54  89 119 147 184 228 290 354
#     4  11  22  39  65  89 118 158 200 245 296 357
#     4  10  18  33  59  87 124 162 189 227 286 352
#     4   9  17  29  53  91 132 168 196 234 287 348
#     4  12  29  48  68  82 109 152 205 261 313 348
#     4  10  24  42  57  84 112 149 197 247 293 357
#     4  10  21  34  61  84 110 142 179 230 306 377
#
# _framework density 22.324358
#
# number of rings (size 3 to 8) (size 9 to 14) (size 15 to 20)
#    0.000    2.154    3.077    1.385    2.154    1.846 
#    0.000    1.538    0.000    1.846    0.000    2.154 
#    0.000    0.000    0.000    0.000    0.000    0.000 
#
# Total GULP energy -145083.456087 kJ/mol
# GULP energy per Si atom -5580.132926 kJ/mol
# Density = 2.227355 g / cm^3
# Si number density = 22.324358 Si / 1000 Ang^3
#
#
#
# Elastic Constant Matrix: (Units=GPa)
#
#
# Indices 1 2 3 4 5 6 
#
# 1 101.2564 70.8422 4.2739 0.0000 -5.0519 0.0000
# 2 70.8422 193.5561 29.2144 0.0000 6.1271 0.0000
# 3 4.2739 29.2144 36.1440 0.0000 -7.0217 0.0000
# 4 0.0000 0.0000 0.0000 -3.4549 0.0000 5.6416
# 5 -5.0519 6.1271 -7.0217 0.0000 23.4494 0.0000
# 6 0.0000 0.0000 0.0000 5.6416 0.0000 -26.8812
#
#
#
# Elastic Compliance Matrix: (Units=1/GPa)
#
#
# Indices 1 2 3 4 5 6 
#
# 1 0.014224 -0.006054 0.004368 0.000000 0.005954 0.000000
# 2 -0.006054 0.008688 -0.007433 0.000000 -0.005800 0.000000
# 3 0.004368 -0.007433 0.035801 0.000000 0.013603 0.000000
# 4 0.000000 0.000000 0.000000 -0.440367 0.000000 -0.092421
# 5 0.005954 -0.005800 0.013603 0.000000 0.049517 0.000000
# 6 0.000000 0.000000 0.000000 -0.092421 0.000000 -0.056597
#
#
# Mechanical properties :
#
#
# Convention : Reuss Voigt Hill
#
# Bulk Modulus (GPa) = 24.70642 59.95750 42.33196
# Shear Modulus (GPa) = -14.00541 13.73107 -0.13717
#
# Velocity S-wave (km/s) = -2.50743 2.48275 -0.24815
# Velocity P-wave (km/s) = 1.64563 5.92744 4.34986
#
# Compressibility (1/GPa) = 0.04047531
#
# Stress axis : x y z
#
# Youngs Moduli (GPa) = 70.30342 115.10557 27.93195
#
# Poissons Ratio (x) = 0.69683 -0.12201
# Poissons Ratio (y) = 0.42560 0.20762
# Poissons Ratio (z) = -0.30708 0.85558
#
# Static dielectric constant tensor:
#      x y z
#    x 1.782610 0.000000 0.015450 
#    y 0.000000 1.865350 0.000000 
#    z 0.015450 0.000000 1.855330 
# 
# From -- ./inp_files/84818.got.cif
#   From: 2010.05.17/outbox.cif.g08.bks.cpg/sg10_43_cif.got.tgz:84818.got - 2010.06.03 11:33:40.
