data_PCOD9143340
_publ_section_title
;
Structure prediction by ZEFSAII (Michael W. Deem and Ramdas Pophale) SiO2 
 PCOD9143340
Probable space group: P 2/M
;
_chemical_formula_sum "Si O2"
_cell_formula_units_Z 32
_cell_length_a 25.738926
_cell_length_b 8.783534
_cell_length_c 20.689704
_cell_angle_alpha 90.000000
_cell_angle_beta 156.699887
_cell_angle_gamma 90.000000
_cell_volume 1850.173367
_symmetry_space_group_name_H-M "P 2/M"
_symmetry_group_IT_number 10
_symmetry_cell_setting 'monoclinic'
loop_
_space_group_symop_operation_xyz
x,y,z
-x,y,-z
-x,-y,-z
x,-y,z
loop_
_atom_site_type_symbol
_atom_site_label
_atom_site_fract_x
_atom_site_fract_y
_atom_site_fract_z
Si Si1 0.687347 0.182412 0.517982
Si Si2 0.325920 0.317431 0.001333
Si Si3 0.149689 0.317920 0.182426
Si Si4 0.391756 0.182407 0.713223
Si Si5 0.615756 0.182963 0.798233
Si Si6 0.355296 0.683772 0.808464
Si Si7 0.852251 0.314493 0.319415
Si Si8 0.351774 0.183739 0.310288
O O1 0.793105 0.261658 0.683903
O O2 0.688743 0.222866 0.443706
O O3 0.539731 0.221028 0.373917
O O4 0.701427 0.000000 0.540196
O O5 0.334364 0.500000 0.010463
O O6 0.462864 0.251299 0.130624
O O7 0.313312 0.258780 0.059957
O O8 0.210617 0.269131 0.820908
O O9 0.152958 0.500000 0.184214
O O10 0.245676 0.253704 0.236868
O O11 0.000000 0.266711 0.000000
O O12 0.335057 0.245503 0.714965
O O13 0.402210 0.000000 0.727136
O O14 0.666589 0.226951 0.785683
O O15 0.624549 0.000000 0.814685
O O16 0.352842 0.500000 0.800395
O O17 0.246353 0.731605 0.735960
O O18 0.500000 0.726510 0.000000
O O19 0.854259 0.500000 0.322120
O O20 0.000000 0.260677 0.500000
O O21 0.500000 0.227546 0.500000
O O22 0.344763 0.000000 0.307032
#
# Coordination Sequence:
#
# PCOD9143340 Si02
#       8
#     4   4   4   4   4   4   4   4
#     4   9  18  35  55  76 105 141 178 216 262 323
#     4  10  18  31  52  78 107 138 175 214 260 315
#     4  11  24  38  53  80 115 144 177 224 272 319
#     4  10  20  33  52  79 108 136 173 221 268 309
#     4   9  18  33  54  81 109 134 170 222 268 310
#     4  10  18  32  53  79 105 133 177 222 256 307
#     4   9  18  33  52  74 104 140 173 208 257 314
#     4  10  19  36  59  81 107 141 183 222 262 320
#
# _framework density 17.295676
#
# number of rings (size 3 to 8) (size 9 to 14) (size 15 to 20)
#    0.000    2.250    2.500    1.875    0.000    4.500 
#    0.000    1.250    0.000    7.875    0.000    0.000 
#    0.000    0.000    0.000    0.000    0.000    0.000 
#
# Total GULP energy -178523.911000 kJ/mol
# GULP energy per Si atom -5578.872219 kJ/mol
# Density = 1.725631 g / cm^3
# Si number density = 17.295676 Si / 1000 Ang^3
#
#
#
# Elastic Constant Matrix: (Units=GPa)
#
#
# Indices 1 2 3 4 5 6 
#
# 1 138.9252 36.9888 96.7069 0.0000 -21.2017 0.0000
# 2 36.9888 24.4937 38.8531 0.0000 -7.9435 0.0000
# 3 96.7069 38.8531 153.0940 0.0000 -16.4012 0.0000
# 4 0.0000 0.0000 0.0000 37.4656 0.0000 0.8068
# 5 -21.2017 -7.9435 -16.4012 0.0000 30.3562 0.0000
# 6 0.0000 0.0000 0.0000 0.8068 0.0000 34.3676
#
#
#
# Elastic Compliance Matrix: (Units=1/GPa)
#
#
# Indices 1 2 3 4 5 6 
#
# 1 0.015350 -0.011960 -0.006207 0.000000 0.004238 0.000000
# 2 -0.011960 0.080073 -0.012118 0.000000 0.006053 0.000000
# 3 -0.006207 -0.012118 0.013506 0.000000 -0.000209 0.000000
# 4 0.000000 0.000000 0.000000 0.026705 0.000000 -0.000627
# 5 0.004238 0.006053 -0.000209 0.000000 0.037373 0.000000
# 6 0.000000 0.000000 0.000000 -0.000627 0.000000 0.029112
#
#
# Mechanical properties :
#
#
# Convention : Reuss Voigt Hill
#
# Bulk Modulus (GPa) = 20.67884 73.51228 47.09556
# Shear Modulus (GPa) = 17.93346 30.03550 23.98448
#
# Velocity S-wave (km/s) = 3.22355 4.17176 3.72793
# Velocity P-wave (km/s) = 5.08302 8.11174 6.76895
#
# Compressibility (1/GPa) = 0.04835861
#
# Stress axis : x y z
#
# Youngs Moduli (GPa) = 65.14648 12.48853 74.04278
#
# Poissons Ratio (x) = 0.14937 0.45958
# Poissons Ratio (y) = 0.77918 0.89724
# Poissons Ratio (z) = 0.40436 0.15133
#
# Static dielectric constant tensor:
#      x y z
#    x 1.583070 0.000000 -0.016570 
#    y 0.000000 1.581940 0.000000 
#    z -0.016570 0.000000 1.575540 
# 
# From -- ./inp_files/87048.got.cif
#   From: 2010.05.17/outbox.cif.g08.bks.cpg/sg10_44_cif.got.tgz:87048.got - 2010.06.03 11:33:40.
