data_PCOD9143075
_publ_section_title
;
Structure prediction by ZEFSAII (Michael W. Deem and Ramdas Pophale) SiO2 
 PCOD9143075
Probable space group: P 2/M
;
_chemical_formula_sum "Si O2"
_cell_formula_units_Z 30
_cell_length_a 22.921745
_cell_length_b 14.236969
_cell_length_c 14.560309
_cell_angle_alpha 90.000000
_cell_angle_beta 163.445390
_cell_angle_gamma 90.000000
_cell_volume 1353.856389
_symmetry_space_group_name_H-M "P 2/M"
_symmetry_group_IT_number 10
_symmetry_cell_setting 'monoclinic'
loop_
_space_group_symop_operation_xyz
x,y,z
-x,y,-z
-x,-y,-z
x,-y,z
loop_
_atom_site_type_symbol
_atom_site_label
_atom_site_fract_x
_atom_site_fract_y
_atom_site_fract_z
Si Si1 0.712287 0.102537 0.457244
Si Si2 0.296534 0.687993 0.916380
Si Si3 0.259965 0.105125 0.843339
Si Si4 0.000000 0.244077 0.000000
Si Si5 0.006001 0.104180 0.282542
Si Si6 0.913129 0.606602 0.234119
Si Si7 0.364624 0.391239 0.704216
Si Si8 0.074765 0.298872 0.925458
O O1 0.839737 0.178331 0.705518
O O2 0.785615 0.105772 0.463262
O O3 0.772991 0.000000 0.585560
O O4 0.471614 0.109588 0.105802
O O5 0.275620 0.795809 0.918756
O O6 0.108343 0.668614 0.561272
O O7 0.253771 0.622844 0.939094
O O8 0.501234 0.660089 0.171366
O O9 0.072776 0.111207 0.488982
O O10 0.254962 0.000000 0.878823
O O11 0.124929 0.298703 0.109206
O O12 0.894631 0.194544 0.071687
O O13 0.912195 0.000000 0.126115
O O14 0.986668 0.500000 0.345129
O O15 0.834113 0.633977 0.014473
O O16 0.317642 0.500000 0.607972
O O17 0.161483 0.334153 0.423921
O O18 0.500000 0.393573 0.000000
#
# Coordination Sequence:
#
# PCOD9143075 Si02
#       8
#     4   4   4   2   4   4   4   4
#     4   9  17  29  49  75 110 147 185 223 262 316
#     4  11  20  34  55  83 115 145 175 214 271 341
#     4  10  18  30  51  81 112 144 175 217 272 330
#     4  10  21  32  51  78 108 148 190 228 272 316
#     4   9  16  28  47  77 110 142 174 213 270 331
#     4  11  22  37  55  78 110 148 184 220 273 333
#     4  11  20  33  56  83 108 136 178 233 281 323
#     4  11  21  36  55  80 111 147 184 230 275 318
#
# _framework density 22.158923999999999
#
# number of rings (size 3 to 8) (size 9 to 14) (size 15 to 20)
#    0.000    1.733    2.667    4.200    0.000    2.133 
#    0.000    3.333    0.000    3.200    0.000    6.533 
#    0.000    0.000    0.000    0.000    0.000    0.000 
#
# Total GULP energy -167315.658251 kJ/mol
# GULP energy per Si atom -5577.188608 kJ/mol
# Density = 2.210849 g / cm^3
# Si number density = 22.158924 Si / 1000 Ang^3
#
#
#
# Elastic Constant Matrix: (Units=GPa)
#
#
# Indices 1 2 3 4 5 6 
#
# 1 78.0359 9.7897 11.1453 0.0000 -2.7638 0.0000
# 2 9.7897 142.4372 8.7251 0.0000 -5.7770 0.0000
# 3 11.1453 8.7251 16.4115 0.0000 -5.6664 0.0000
# 4 0.0000 0.0000 0.0000 9.8002 0.0000 1.4381
# 5 -2.7638 -5.7770 -5.6664 0.0000 26.3178 0.0000
# 6 0.0000 0.0000 0.0000 1.4381 0.0000 28.9978
#
#
#
# Elastic Compliance Matrix: (Units=1/GPa)
#
#
# Indices 1 2 3 4 5 6 
#
# 1 0.014224 -0.000413 -0.009675 0.000000 -0.000680 0.000000
# 2 -0.000413 0.007285 -0.003301 0.000000 0.000845 0.000000
# 3 -0.009675 -0.003301 0.074172 0.000000 0.014229 0.000000
# 4 0.000000 0.000000 0.000000 0.102786 0.000000 -0.005098
# 5 -0.000680 0.000845 0.014229 0.000000 0.041175 0.000000
# 6 0.000000 0.000000 0.000000 -0.005098 0.000000 0.034738
#
#
# Mechanical properties :
#
#
# Convention : Reuss Voigt Hill
#
# Bulk Modulus (GPa) = 14.51319 32.91163 23.71241
# Shear Modulus (GPa) = 15.42607 26.83814 21.13210
#
# Velocity S-wave (km/s) = 2.64134 3.48396 3.09149
# Velocity P-wave (km/s) = 3.98322 5.57393 4.84431
#
# Compressibility (1/GPa) = 0.06890283
#
# Stress axis : x y z
#
# Youngs Moduli (GPa) = 70.30296 137.25905 13.48225
#
# Poissons Ratio (x) = 0.05662 0.13045
# Poissons Ratio (y) = 0.02900 0.04451
# Poissons Ratio (z) = 0.68020 0.45314
#
# Static dielectric constant tensor:
#      x y z
#    x 1.852670 0.000000 -0.005040 
#    y 0.000000 1.868270 0.000000 
#    z -0.005040 0.000000 1.799680 
# 
# From -- ./inp_files/71912.got.cif
#   From: 2010.05.17/outbox.cif.g08.bks.cpg/sg10_36_cif.got.tgz:71912.got - 2010.06.03 11:33:40.
