data_PCOD9143713
_publ_section_title
;
Structure prediction by ZEFSAII (Michael W. Deem and Ramdas Pophale) SiO2 
 PCOD9143713
Probable space group: P 2/M
;
_chemical_formula_sum "Si O2"
_cell_formula_units_Z 30
_cell_length_a 25.766707
_cell_length_b 11.664843
_cell_length_c 5.031766
_cell_angle_alpha 90.000000
_cell_angle_beta 96.265656
_cell_angle_gamma 90.000000
_cell_volume 1503.336628
_symmetry_space_group_name_H-M "P 2/M"
_symmetry_group_IT_number 10
_symmetry_cell_setting 'monoclinic'
loop_
_space_group_symop_operation_xyz
x,y,z
-x,y,-z
-x,-y,-z
x,-y,z
loop_
_atom_site_type_symbol
_atom_site_label
_atom_site_fract_x
_atom_site_fract_y
_atom_site_fract_z
Si Si1 0.538643 0.000000 0.268423
Si Si2 0.606920 0.638110 0.681245
Si Si3 0.811406 0.130406 0.730945
Si Si4 0.852987 0.258454 0.254833
Si Si5 0.246127 0.377358 0.922272
Si Si6 0.036150 0.366363 0.778858
Si Si7 0.442981 0.744829 0.830581
Si Si8 0.715943 0.264940 0.556028
O O1 0.500000 0.000000 0.500000
O O2 0.568363 0.877964 0.259157
O O3 0.500000 0.000000 0.000000
O O4 0.615298 0.500000 0.694588
O O5 0.562708 0.669869 0.439321
O O6 0.656993 0.709169 0.602449
O O7 0.593250 0.688553 0.962818
O O8 0.841878 0.211347 0.541384
O O9 0.749277 0.153141 0.654665
O O10 0.823722 0.000000 0.682269
O O11 0.830207 0.166057 0.033533
O O12 0.814346 0.365219 0.183617
O O13 0.911918 0.293021 0.232860
O O14 0.268230 0.500000 0.862133
O O15 0.275222 0.286802 0.750179
O O16 0.253664 0.355911 0.237463
O O17 0.050581 0.500000 0.837838
O O18 0.000000 0.363070 0.500000
O O19 0.000000 0.325946 0.000000
O O20 0.500000 0.743202 0.000000
#
# Coordination Sequence:
#
# PCOD9143713 Si02
#       8
#     2   4   4   4   4   4   4   4
#     4  10  20  42  68  86 112 148 200 258 290 328
#     4  12  24  39  61  91 129 161 194 241 304 370
#     4  10  21  39  60  82 110 147 195 249 290 341
#     4  10  20  34  57  82 109 147 194 234 291 341
#     4  10  18  32  55  80 110 144 186 231 277 346
#     4  10  20  34  54  83 120 154 186 234 291 347
#     4  11  24  42  64  90 118 160 208 249 297 347
#     4  10  22  37  55  84 113 153 188 228 293 349
#
# _framework density 19.955611000000001
#
# number of rings (size 3 to 8) (size 9 to 14) (size 15 to 20)
#    0.000    1.600    0.000    6.000    0.000    1.600 
#    2.400    4.000    0.000    8.000    0.000    0.000 
#    0.000    0.000    0.000    0.000    0.000    0.000 
#
# Total GULP energy -167299.954442 kJ/mol
# GULP energy per Si atom -5576.665148 kJ/mol
# Density = 1.991019 g / cm^3
# Si number density = 19.955611 Si / 1000 Ang^3
#
#
#
# Elastic Constant Matrix: (Units=GPa)
#
#
# Indices 1 2 3 4 5 6 
#
# 1 100.9021 23.5427 15.0712 0.0000 -7.7025 0.0000
# 2 23.5427 71.5982 10.5356 0.0000 -1.3107 0.0000
# 3 15.0712 10.5356 82.0394 0.0000 -20.0605 0.0000
# 4 0.0000 0.0000 0.0000 17.2375 0.0000 -3.4164
# 5 -7.7025 -1.3107 -20.0605 0.0000 31.4864 0.0000
# 6 0.0000 0.0000 0.0000 -3.4164 0.0000 15.3507
#
#
#
# Elastic Compliance Matrix: (Units=1/GPa)
#
#
# Indices 1 2 3 4 5 6 
#
# 1 0.011019 -0.003422 -0.001138 0.000000 0.001828 0.000000
# 2 -0.003422 0.015311 -0.001642 0.000000 -0.001246 0.000000
# 3 -0.001138 -0.001642 0.014836 0.000000 0.009105 0.000000
# 4 0.000000 0.000000 0.000000 0.060690 0.000000 0.013507
# 5 0.001828 -0.001246 0.009105 0.000000 0.037956 0.000000
# 6 0.000000 0.000000 0.000000 0.013507 0.000000 0.068150
#
#
# Mechanical properties :
#
#
# Convention : Reuss Voigt Hill
#
# Bulk Modulus (GPa) = 34.76950 39.20431 36.98690
# Shear Modulus (GPa) = 21.74361 26.50759 24.12560
#
# Velocity S-wave (km/s) = 3.30449 3.64858 3.48079
# Velocity P-wave (km/s) = 5.65869 6.11865 5.89316
#
# Compressibility (1/GPa) = 0.02876084
#
# Stress axis : x y z
#
# Youngs Moduli (GPa) = 90.75598 65.31270 67.40521
#
# Poissons Ratio (x) = 0.22351 0.07668
# Poissons Ratio (y) = 0.31059 0.11070
# Poissons Ratio (z) = 0.10325 0.10726
#
# Static dielectric constant tensor:
#      x y z
#    x 1.716620 0.000000 0.015850 
#    y 0.000000 1.711710 0.000000 
#    z 0.015850 0.000000 1.685850 
# 
# From -- ./inp_files/13203.got.cif
#   From: 2010.05.17/outbox.cif.g08.bks.cpg/sg10_7_cif.got.tgz:13203.got - 2010.06.03 11:33:40.
