data_PCOD9143821
_publ_section_title
;
Structure prediction by ZEFSAII (Michael W. Deem and Ramdas Pophale) SiO2 
 PCOD9143821
Probable space group: P 2/M
;
_chemical_formula_sum "Si O2"
_cell_formula_units_Z 28
_cell_length_a 6.762865
_cell_length_b 34.007840
_cell_length_c 5.387636
_cell_angle_alpha 90.000000
_cell_angle_beta 101.421675
_cell_angle_gamma 90.000000
_cell_volume 1214.565905
_symmetry_space_group_name_H-M "P 2/M"
_symmetry_group_IT_number 10
_symmetry_cell_setting 'monoclinic'
loop_
_space_group_symop_operation_xyz
x,y,z
-x,y,-z
-x,-y,-z
x,-y,z
loop_
_atom_site_type_symbol
_atom_site_label
_atom_site_fract_x
_atom_site_fract_y
_atom_site_fract_z
Si Si1 0.746176 0.544940 0.574202
Si Si2 0.362669 0.128369 0.216312
Si Si3 0.636717 0.042261 0.784342
Si Si4 0.210135 0.210436 0.283843
Si Si5 0.871837 0.326810 0.217143
Si Si6 0.251188 0.757506 0.798930
Si Si7 0.261528 0.414198 0.929026
O O1 0.500000 0.545659 0.500000
O O2 0.804338 0.500000 0.640021
O O3 0.811983 0.559687 0.320047
O O4 0.810174 0.573207 0.815723
O O5 0.500000 0.129140 0.500000
O O6 0.260943 0.085082 0.184180
O O7 0.212253 0.164813 0.210352
O O8 0.500000 0.132985 0.000000
O O9 0.500000 0.042363 0.500000
O O10 0.748686 0.000000 0.809265
O O11 0.500000 0.042012 0.000000
O O12 0.308047 0.217154 0.575132
O O13 0.988980 0.230123 0.244252
O O14 0.324940 0.232187 0.090564
O O15 0.732934 0.289037 0.235322
O O16 0.772359 0.368534 0.135900
O O17 0.000000 0.331422 0.500000
O O18 0.000000 0.317154 0.000000
O O19 0.500000 0.421061 0.000000
#
# Coordination Sequence:
#
# PCOD9143821 Si02
#       7
#     4   4   4   4   4   4   4
#     4   9  17  33  57  83 112 145 177 210 257 319
#     4  10  19  30  46  74 107 132 157 207 271 314
#     4   8  14  25  41  62  93 132 167 194 236 309
#     4  10  18  33  52  72  94 124 173 217 243 302
#     4  12  21  38  60  79 105 143 188 218 261 325
#     4  10  19  35  55  70  88 131 181 219 238 300
#     4  10  21  35  56  87 112 135 177 228 265 300
#
# _framework density 23.053505000000001
#
# number of rings (size 3 to 8) (size 9 to 14) (size 15 to 20)
#    0.000    2.143    2.857    2.143    0.000    1.714 
#    0.000    2.143    0.000    8.571    0.000    4.000 
#    0.000    0.000    0.000    0.000    0.000    0.000 
#
# Total GULP energy -156331.128234 kJ/mol
# GULP energy per Si atom -5583.254580 kJ/mol
# Density = 2.300103 g / cm^3
# Si number density = 23.053505 Si / 1000 Ang^3
#
#
#
# Elastic Constant Matrix: (Units=GPa)
#
#
# Indices 1 2 3 4 5 6 
#
# 1 46.8481 -8.4570 29.1022 0.0000 -14.2173 0.0000
# 2 -8.4570 194.1699 48.7102 0.0000 -1.6911 0.0000
# 3 29.1022 48.7102 191.1497 0.0000 -21.2732 0.0000
# 4 0.0000 0.0000 0.0000 37.9593 0.0000 -8.0275
# 5 -14.2173 -1.6911 -21.2732 0.0000 41.0395 0.0000
# 6 0.0000 0.0000 0.0000 -8.0275 0.0000 25.0858
#
#
#
# Elastic Compliance Matrix: (Units=1/GPa)
#
#
# Indices 1 2 3 4 5 6 
#
# 1 0.026253 0.002144 -0.003737 0.000000 0.007246 0.000000
# 2 0.002144 0.005688 -0.001769 0.000000 0.000060 0.000000
# 3 -0.003737 -0.001769 0.006472 0.000000 0.001988 0.000000
# 4 0.000000 0.000000 0.000000 0.028256 0.000000 0.009042
# 5 0.007246 0.000060 0.001988 0.000000 0.027910 0.000000
# 6 0.000000 0.000000 0.000000 0.009042 0.000000 0.042757
#
#
# Mechanical properties :
#
#
# Convention : Reuss Voigt Hill
#
# Bulk Modulus (GPa) = 31.55648 63.43096 47.49372
# Shear Modulus (GPa) = 32.33667 45.00441 38.67054
#
# Velocity S-wave (km/s) = 3.74930 4.42313 4.10008
# Velocity P-wave (km/s) = 5.69746 7.32529 6.56205
#
# Compressibility (1/GPa) = 0.03168921
#
# Stress axis : x y z
#
# Youngs Moduli (GPa) = 38.09087 175.81330 154.50057
#
# Poissons Ratio (x) = -0.37694 0.57735
# Poissons Ratio (y) = -0.08167 0.27334
# Poissons Ratio (z) = 0.14234 0.31104
#
# Static dielectric constant tensor:
#      x y z
#    x 1.860020 0.000000 -0.070590 
#    y 0.000000 1.847460 0.000000 
#    z -0.070590 0.000000 1.774550 
# 
# From -- ./inp_files/5472.got.cif
#   From: 2010.05.17/outbox.cif.g08.bks.cpg/sg10_3_cif.got.tgz:5472.got - 2010.06.03 11:33:40.
