data_PCOD9143835
_publ_section_title
;
Structure prediction by ZEFSAII (Michael W. Deem and Ramdas Pophale) SiO2 
 PCOD9143835
Probable space group: P 2/M
;
_chemical_formula_sum "Si O2"
_cell_formula_units_Z 32
_cell_length_a 9.675327
_cell_length_b 19.156266
_cell_length_c 15.437012
_cell_angle_alpha 90.000000
_cell_angle_beta 35.459319
_cell_angle_gamma 90.000000
_cell_volume 1659.820653
_symmetry_space_group_name_H-M "P 2/M"
_symmetry_group_IT_number 10
_symmetry_cell_setting 'monoclinic'
loop_
_space_group_symop_operation_xyz
x,y,z
-x,y,-z
-x,-y,-z
x,-y,z
loop_
_atom_site_type_symbol
_atom_site_label
_atom_site_fract_x
_atom_site_fract_y
_atom_site_fract_z
Si Si1 0.802489 0.760209 0.215425
Si Si2 0.764235 0.877558 0.375893
Si Si3 0.325258 0.212105 0.902850
Si Si4 0.713885 0.077876 0.961018
Si Si5 0.997211 0.580207 0.398172
Si Si6 0.673558 0.294373 0.829116
Si Si7 0.434428 0.663269 0.432605
Si Si8 0.086343 0.210196 0.556247
O O1 0.743545 0.805072 0.330523
O O2 0.705608 0.802277 0.182225
O O3 0.689483 0.683605 0.263901
O O4 0.082119 0.755583 0.063025
O O5 0.500000 0.911089 0.500000
O O6 0.806194 0.858580 0.455288
O O7 0.013670 0.910981 0.214092
O O8 0.521523 0.269785 0.824100
O O9 0.350292 0.139798 0.940511
O O10 0.708127 0.000000 0.002495
O O11 0.500000 0.080759 0.000000
O O12 0.059528 0.500000 0.348970
O O13 0.180383 0.634633 0.260885
O O14 0.000000 0.592407 0.500000
O O15 0.728401 0.597357 0.504972
O O16 0.867298 0.232404 0.731006
O O17 0.500000 0.295835 0.000000
O O18 0.500000 0.664440 0.500000
O O19 0.271900 0.727118 0.479240
O O20 0.000000 0.206209 0.500000
#
# Coordination Sequence:
#
# PCOD9143835 Si02
#       8
#     4   4   4   4   4   4   4   4
#     4  10  18  33  53  87 119 144 185 249 304 354
#     4  11  20  35  58  87 118 154 195 256 312 355
#     4  10  20  32  56  87 115 150 197 245 304 357
#     4  10  22  40  59  82 120 166 207 250 311 382
#     4  10  23  41  59  83 118 163 205 241 295 367
#     4  11  21  33  58  86 119 148 200 252 299 349
#     4  11  19  33  58  82 117 146 193 245 298 345
#     4  11  20  33  56  90 120 154 195 247 310 362
#
# _framework density 19.279191000000001
#
# number of rings (size 3 to 8) (size 9 to 14) (size 15 to 20)
#    0.000    1.500    2.500    5.625    1.750    0.750 
#    0.000    5.000    0.000    0.375    0.000    3.500 
#    0.000    0.000    0.000    0.000    0.000    0.000 
#
# Total GULP energy -178219.899517 kJ/mol
# GULP energy per Si atom -5569.371860 kJ/mol
# Density = 1.923531 g / cm^3
# Si number density = 19.279191 Si / 1000 Ang^3
#
#
#
# Elastic Constant Matrix: (Units=GPa)
#
#
# Indices 1 2 3 4 5 6 
#
# 1 117.8878 30.6467 24.4461 0.0000 -3.0629 0.0000
# 2 30.6467 71.5848 28.4082 0.0000 -8.7384 0.0000
# 3 24.4461 28.4082 87.2743 0.0000 -9.7191 0.0000
# 4 0.0000 0.0000 0.0000 12.0324 0.0000 -6.5400
# 5 -3.0629 -8.7384 -9.7191 0.0000 30.2278 0.0000
# 6 0.0000 0.0000 0.0000 -6.5400 0.0000 10.4794
#
#
#
# Elastic Compliance Matrix: (Units=1/GPa)
#
#
# Indices 1 2 3 4 5 6 
#
# 1 0.009739 -0.003596 -0.001621 0.000000 -0.000574 0.000000
# 2 -0.003596 0.017649 -0.004366 0.000000 0.003334 0.000000
# 3 -0.001621 -0.004366 0.013664 0.000000 0.002967 0.000000
# 4 0.000000 0.000000 0.000000 0.125773 0.000000 0.078493
# 5 -0.000574 0.003334 0.002967 0.000000 0.034942 0.000000
# 6 0.000000 0.000000 0.000000 0.078493 0.000000 0.144411
#
#
# Mechanical properties :
#
#
# Convention : Reuss Voigt Hill
#
# Bulk Modulus (GPa) = 45.69495 49.30543 47.50019
# Shear Modulus (GPa) = 13.41782 23.43099 18.42440
#
# Velocity S-wave (km/s) = 2.64099 3.48997 3.09473
# Velocity P-wave (km/s) = 5.74917 6.47069 6.12057
#
# Compressibility (1/GPa) = 0.02188426
#
# Stress axis : x y z
#
# Youngs Moduli (GPa) = 102.68239 56.66172 73.18570
#
# Poissons Ratio (x) = 0.20375 0.11866
# Poissons Ratio (y) = 0.36924 0.31954
# Poissons Ratio (z) = 0.16648 0.24740
#
# Static dielectric constant tensor:
#      x y z
#    x 1.731680 0.000000 -0.023920 
#    y 0.000000 1.646340 0.000000 
#    z -0.023920 0.000000 1.753280 
# 
# From -- ./inp_files/62497.got.cif
#   From: 2010.05.17/outbox.cif.g08.bks.cpg/sg10_32_cif.got.tgz:62497.got - 2010.06.03 11:33:40.
