data_PCOD9143691
_publ_section_title
;
Structure prediction by ZEFSAII (Michael W. Deem and Ramdas Pophale) SiO2 
 PCOD9143691
Probable space group: P 2/M
;
_chemical_formula_sum "Si O2"
_cell_formula_units_Z 24
_cell_length_a 5.376013
_cell_length_b 12.666771
_cell_length_c 16.592466
_cell_angle_alpha 90.000000
_cell_angle_beta 80.137536
_cell_angle_gamma 90.000000
_cell_volume 1113.194768
_symmetry_space_group_name_H-M "P 2/M"
_symmetry_group_IT_number 10
_symmetry_cell_setting 'monoclinic'
loop_
_space_group_symop_operation_xyz
x,y,z
-x,y,-z
-x,-y,-z
x,-y,z
loop_
_atom_site_type_symbol
_atom_site_label
_atom_site_fract_x
_atom_site_fract_y
_atom_site_fract_z
Si Si1 0.717305 0.123318 0.552550
Si Si2 0.947067 0.782282 0.685168
Si Si3 0.436855 0.229554 0.154465
Si Si4 0.090251 0.000000 0.719096
Si Si5 0.165379 0.618979 0.065015
Si Si6 0.210071 0.380563 0.762021
Si Si7 0.476060 0.000000 0.172352
O O1 0.500000 0.149431 0.500000
O O2 0.738540 0.201872 0.627555
O O3 0.000000 0.129438 0.500000
O O4 0.677323 0.000000 0.579768
O O5 0.817280 0.788397 0.779972
O O6 0.108683 0.890335 0.669538
O O7 0.098923 0.673516 0.687039
O O8 0.385009 0.305282 0.082926
O O9 0.604099 0.295086 0.208425
O O10 0.520695 0.111933 0.126252
O O11 0.316186 0.000000 0.769182
O O12 0.808585 0.000000 0.774654
O O13 0.241622 0.500000 0.038554
O O14 0.995478 0.608787 0.154983
O O15 0.000000 0.661625 0.000000
O O16 0.311245 0.500000 0.743457
#
# Coordination Sequence:
#
# PCOD9143691 Si02
#       7
#     4   4   4   2   4   4   2
#     4  10  22  36  56  88 123 152 186 235 293 351
#     4  10  20  35  56  82 117 150 185 240 290 343
#     4  10  20  33  55  84 111 151 193 240 285 347
#     4  10  18  32  54  85 110 147 182 226 289 343
#     4   9  19  36  56  81 114 148 188 243 300 346
#     4  10  20  34  57  85 110 145 197 242 287 341
#     4  10  20  32  53  82 115 146 190 228 285 339
#
# _framework density 21.559569
#
# number of rings (size 3 to 8) (size 9 to 14) (size 15 to 20)
#    0.000    2.167    2.500    0.500    2.333    1.333 
#    0.000    2.917    0.000    2.000    0.000    0.000 
#    0.000    0.000    0.000    0.000    0.000    0.000 
#
# Total GULP energy -133742.568178 kJ/mol
# GULP energy per Si atom -5572.607007 kJ/mol
# Density = 2.151050 g / cm^3
# Si number density = 21.559569 Si / 1000 Ang^3
#
#
#
# Elastic Constant Matrix: (Units=GPa)
#
#
# Indices 1 2 3 4 5 6 
#
# 1 87.7688 36.5409 29.7115 0.0000 34.4752 0.0000
# 2 36.5409 158.9314 25.8976 0.0000 38.5875 0.0000
# 3 29.7115 25.8976 83.5384 0.0000 34.9542 0.0000
# 4 0.0000 0.0000 0.0000 16.1713 0.0000 7.3429
# 5 34.4752 38.5875 34.9542 0.0000 63.0735 0.0000
# 6 0.0000 0.0000 0.0000 7.3429 0.0000 22.2234
#
#
#
# Elastic Compliance Matrix: (Units=1/GPa)
#
#
# Indices 1 2 3 4 5 6 
#
# 1 0.015251 -0.001661 -0.002404 0.000000 -0.005988 0.000000
# 2 -0.001661 0.007588 -0.000259 0.000000 -0.003591 0.000000
# 3 -0.002404 -0.000259 0.016000 0.000000 -0.007394 0.000000
# 4 0.000000 0.000000 0.000000 0.072753 0.000000 -0.024038
# 5 -0.005988 -0.003591 -0.007394 0.000000 0.025422 0.000000
# 6 0.000000 0.000000 0.000000 -0.024038 0.000000 0.052940
#
#
# Mechanical properties :
#
#
# Convention : Reuss Voigt Hill
#
# Bulk Modulus (GPa) = 33.12308 57.17096 45.14702
# Shear Modulus (GPa) = 23.96186 36.16622 30.06404
#
# Velocity S-wave (km/s) = 3.33742 4.10018 3.73830
# Velocity P-wave (km/s) = 5.49982 6.99932 6.29438
#
# Compressibility (1/GPa) = 0.03019043
#
# Stress axis : x y z
#
# Youngs Moduli (GPa) = 65.57070 131.78817 62.50082
#
# Poissons Ratio (x) = 0.21889 0.15025
# Poissons Ratio (y) = 0.10891 0.01620
# Poissons Ratio (z) = 0.15763 0.03415
#
# Static dielectric constant tensor:
#      x y z
#    x 1.783640 0.000000 -0.001510 
#    y 0.000000 1.889770 0.000000 
#    z -0.001510 0.000000 1.787160 
# 
# From -- ./inp_files/10987.got.cif
#   From: 2010.05.17/outbox.cif.g08.bks.cpg/sg10_6_cif.got.tgz:10987.got - 2010.06.03 11:33:40.
