data_PCOD9143004
_publ_section_title
;
Structure prediction by ZEFSAII (Michael W. Deem and Ramdas Pophale) SiO2 
 PCOD9143004
Probable space group: P 2/M
;
_chemical_formula_sum "Si O2"
_cell_formula_units_Z 32
_cell_length_a 20.665041
_cell_length_b 9.128031
_cell_length_c 25.637355
_cell_angle_alpha 90.000000
_cell_angle_beta 22.860169
_cell_angle_gamma 90.000000
_cell_volume 1878.707343
_symmetry_space_group_name_H-M "P 2/M"
_symmetry_group_IT_number 10
_symmetry_cell_setting 'monoclinic'
loop_
_space_group_symop_operation_xyz
x,y,z
-x,y,-z
-x,-y,-z
x,-y,z
loop_
_atom_site_type_symbol
_atom_site_label
_atom_site_fract_x
_atom_site_fract_y
_atom_site_fract_z
Si Si1 0.336489 0.831089 0.158929
Si Si2 0.845367 0.821781 0.150687
Si Si3 0.145107 0.674644 0.213761
Si Si4 0.462672 0.325667 0.904318
Si Si5 0.646577 0.174404 0.117970
Si Si6 0.175431 0.324166 0.615150
Si Si7 0.958588 0.176240 0.180984
Si Si8 0.479612 0.176495 0.671877
O O1 0.192746 0.756842 0.231401
O O2 0.390539 0.745398 0.170536
O O3 0.299831 0.000000 0.197429
O O4 0.500000 0.825805 0.000000
O O5 0.874087 0.778882 0.189133
O O6 0.670857 0.778169 0.254763
O O7 0.849445 0.000000 0.146670
O O8 0.000000 0.772126 0.000000
O O9 0.150475 0.500000 0.218854
O O10 0.968739 0.714342 0.319624
O O11 0.289900 0.707746 0.063687
O O12 0.481321 0.500000 0.888904
O O13 0.444877 0.259576 0.860224
O O14 0.576915 0.208326 0.226982
O O15 0.628354 0.000000 0.122928
O O16 0.843998 0.207049 0.969493
O O17 0.183526 0.500000 0.612265
O O18 0.119057 0.257901 0.712264
O O19 0.350623 0.256446 0.468429
O O20 0.939326 0.000000 0.201376
O O21 0.500107 0.000000 0.652159
#
# Coordination Sequence:
#
# PCOD9143004 Si02
#       8
#     4   4   4   4   4   4   4   4
#     4   9  17  28  46  76 108 136 172 221 269 311
#     4   9  16  32  58  84 107 135 177 228 277 323
#     4   9  18  32  49  71 103 144 180 214 260 317
#     4  10  18  30  50  76 108 143 178 216 262 320
#     4  10  19  32  54  82 108 135 177 230 275 316
#     4  11  23  38  53  76 113 150 183 219 264 323
#     4  10  19  33  58  84 105 137 180 228 275 319
#     4  10  21  37  57  81 108 140 181 227 275 325
#
# _framework density 17.032989000000001
#
# number of rings (size 3 to 8) (size 9 to 14) (size 15 to 20)
#    0.000    2.250    2.500    1.125    0.000    4.000 
#    0.000    3.125    0.000    1.500    0.000    5.250 
#    0.000    0.000    0.000    0.000    0.000    0.000 
#
# Total GULP energy -178528.484270 kJ/mol
# GULP energy per Si atom -5579.015133 kJ/mol
# Density = 1.699422 g / cm^3
# Si number density = 17.032989 Si / 1000 Ang^3
#
#
#
# Elastic Constant Matrix: (Units=GPa)
#
#
# Indices 1 2 3 4 5 6 
#
# 1 191.3787 75.5277 82.7536 0.0000 -21.3614 0.0000
# 2 75.5277 46.5596 52.9359 0.0000 -3.7519 0.0000
# 3 82.7536 52.9359 114.8651 0.0000 -8.7268 0.0000
# 4 0.0000 0.0000 0.0000 12.1158 0.0000 -13.2177
# 5 -21.3614 -3.7519 -8.7268 0.0000 22.9955 0.0000
# 6 0.0000 0.0000 0.0000 -13.2177 0.0000 6.8256
#
#
#
# Elastic Compliance Matrix: (Units=1/GPa)
#
#
# Indices 1 2 3 4 5 6 
#
# 1 0.017277 -0.029292 0.001965 0.000000 0.012016 0.000000
# 2 -0.029292 0.094788 -0.024170 0.000000 -0.020917 0.000000
# 3 0.001965 -0.024170 0.018810 0.000000 0.005021 0.000000
# 4 0.000000 0.000000 0.000000 -0.074184 0.000000 -0.143656
# 5 0.012016 -0.020917 0.005021 0.000000 0.053141 0.000000
# 6 0.000000 0.000000 0.000000 -0.143656 0.000000 -0.131681
#
#
# Mechanical properties :
#
#
# Convention : Reuss Voigt Hill
#
# Bulk Modulus (GPa) = 35.86456 86.13755 61.00106
# Shear Modulus (GPa) = 55.28714 17.82648 36.55681
#
# Velocity S-wave (km/s) = 5.70345 3.23861 4.63777
# Velocity P-wave (km/s) = 8.02958 8.04149 8.03554
#
# Compressibility (1/GPa) = 0.02788267
#
# Stress axis : x y z
#
# Youngs Moduli (GPa) = 57.88163 10.54984 53.16319
#
# Poissons Ratio (x) = 0.30902 -0.10448
# Poissons Ratio (y) = 1.69546 1.28493
# Poissons Ratio (z) = -0.11376 0.25498
#
# Static dielectric constant tensor:
#      x y z
#    x 1.565600 0.000000 -0.008140 
#    y 0.000000 1.565630 0.000000 
#    z -0.008140 0.000000 1.552390 
# 
# From -- ./inp_files/93628.got.cif
#   From: 2010.05.17/outbox.cif.g08.bks.cpg/sg10_47_cif.got.tgz:93628.got - 2010.06.03 11:33:40.
