data_PCOD9143242
_publ_section_title
;
Structure prediction by ZEFSAII (Michael W. Deem and Ramdas Pophale) SiO2 
 PCOD9143242
Probable space group: P 2/M
;
_chemical_formula_sum "Si O2"
_cell_formula_units_Z 32
_cell_length_a 22.717222
_cell_length_b 7.530284
_cell_length_c 29.173646
_cell_angle_alpha 90.000000
_cell_angle_beta 161.324550
_cell_angle_gamma 90.000000
_cell_volume 1598.042211
_symmetry_space_group_name_H-M "P 2/M"
_symmetry_group_IT_number 10
_symmetry_cell_setting 'monoclinic'
loop_
_space_group_symop_operation_xyz
x,y,z
-x,y,-z
-x,-y,-z
x,-y,z
loop_
_atom_site_type_symbol
_atom_site_label
_atom_site_fract_x
_atom_site_fract_y
_atom_site_fract_z
Si Si1 0.202238 0.786860 0.162321
Si Si2 0.930063 0.205592 0.106709
Si Si3 0.388401 0.783931 0.063193
Si Si4 0.536234 0.791726 0.077172
Si Si5 0.679954 0.709285 0.356658
Si Si6 0.360348 0.289202 0.183457
Si Si7 0.949851 0.284366 0.411212
Si Si8 0.700888 0.218034 0.664436
O O1 0.335802 0.744882 0.218763
O O2 0.263300 0.723236 0.257075
O O3 0.189976 0.000000 0.156225
O O4 0.000000 0.718268 0.000000
O O5 0.129895 0.280786 0.242434
O O6 0.958589 0.000000 0.140073
O O7 0.795854 0.281003 0.046944
O O8 0.809723 0.211888 0.971142
O O9 0.422436 0.719445 0.036727
O O10 0.560249 0.730633 0.221981
O O11 0.385577 0.000000 0.061280
O O12 0.750294 0.776625 0.248223
O O13 0.487119 0.000000 0.038516
O O14 0.500000 0.714566 0.000000
O O15 0.702302 0.500000 0.381895
O O16 0.548610 0.781390 0.299821
O O17 0.883383 0.780333 0.497959
O O18 0.353239 0.500000 0.170152
O O19 0.947493 0.500000 0.409239
O O20 0.000000 0.229076 0.500000
O O21 0.500000 0.272584 0.500000
O O22 0.705714 0.000000 0.667554
#
# Coordination Sequence:
#
# PCOD9143242 Si02
#       8
#     4   4   4   4   4   4   4   4
#     4  10  18  31  50  72  98 126 160 202 243 284
#     4   9  16  30  50  71  95 125 165 205 244 291
#     4   9  17  29  49  72  95 129 167 201 243 298
#     4  10  21  35  49  73 109 139 166 206 256 304
#     4   9  18  32  49  73 102 127 159 209 254 290
#     4  10  19  30  48  74 102 129 160 201 251 296
#     4  10  19  33  54  76  98 128 170 212 250 297
#     4   9  17  30  49  72  96 124 160 203 243 280
#
# _framework density 20.024501000000001
#
# number of rings (size 3 to 8) (size 9 to 14) (size 15 to 20)
#    0.000    2.500    2.500    0.375    0.000    1.750 
#    0.000    1.250    0.000    4.500    0.000    0.000 
#    0.000    0.000    0.000    0.000    0.000    0.000 
#
# Total GULP energy -178510.839398 kJ/mol
# GULP energy per Si atom -5578.463731 kJ/mol
# Density = 1.997892 g / cm^3
# Si number density = 20.024501 Si / 1000 Ang^3
#
#
#
# Elastic Constant Matrix: (Units=GPa)
#
#
# Indices 1 2 3 4 5 6 
#
# 1 172.0969 -6.4435 82.3555 0.0000 16.5878 0.0000
# 2 -6.4435 47.5230 -5.2869 0.0000 1.8867 0.0000
# 3 82.3555 -5.2869 109.5951 0.0000 14.9702 0.0000
# 4 0.0000 0.0000 0.0000 12.7225 0.0000 1.4035
# 5 16.5878 1.8867 14.9702 0.0000 33.6077 0.0000
# 6 0.0000 0.0000 0.0000 1.4035 0.0000 0.9788
#
#
#
# Elastic Compliance Matrix: (Units=1/GPa)
#
#
# Indices 1 2 3 4 5 6 
#
# 1 0.009164 0.000567 -0.006641 0.000000 -0.001597 0.000000
# 2 0.000567 0.021288 0.000854 0.000000 -0.001856 0.000000
# 3 -0.006641 0.000854 0.014603 0.000000 -0.003275 0.000000
# 4 0.000000 0.000000 0.000000 0.093371 0.000000 -0.133884
# 5 -0.001597 -0.001856 -0.003275 0.000000 0.032106 0.000000
# 6 0.000000 0.000000 0.000000 -0.133884 0.000000 1.213613
#
#
# Mechanical properties :
#
#
# Convention : Reuss Voigt Hill
#
# Bulk Modulus (GPa) = 28.88804 52.27390 40.58097
# Shear Modulus (GPa) = 3.55588 26.70113 15.12850
#
# Velocity S-wave (km/s) = 1.33402 3.65557 2.75162
# Velocity P-wave (km/s) = 4.10250 6.63168 5.51406
#
# Compressibility (1/GPa) = 0.03461640
#
# Stress axis : x y z
#
# Youngs Moduli (GPa) = 109.12758 46.97471 68.47850
#
# Poissons Ratio (x) = -0.02664 0.45473
# Poissons Ratio (y) = -0.06189 -0.05850
# Poissons Ratio (z) = 0.72467 -0.04013
#
# Static dielectric constant tensor:
#      x y z
#    x 1.732910 0.000000 0.037560 
#    y 0.000000 1.743340 0.000000 
#    z 0.037560 0.000000 1.669390 
# 
# From -- ./inp_files/93735.got.cif
#   From: 2010.05.17/outbox.cif.g08.bks.cpg/sg10_47_cif.got.tgz:93735.got - 2010.06.03 11:33:40.
