data_PCOD9143438
_publ_section_title
;
Structure prediction by ZEFSAII (Michael W. Deem and Ramdas Pophale) SiO2 
 PCOD9143438
Probable space group: P 2/M
;
_chemical_formula_sum "Si O2"
_cell_formula_units_Z 28
_cell_length_a 29.746038
_cell_length_b 8.687485
_cell_length_c 9.260333
_cell_angle_alpha 90.000000
_cell_angle_beta 38.896982
_cell_angle_gamma 90.000000
_cell_volume 1502.642069
_symmetry_space_group_name_H-M "P 2/M"
_symmetry_group_IT_number 10
_symmetry_cell_setting 'monoclinic'
loop_
_space_group_symop_operation_xyz
x,y,z
-x,y,-z
-x,-y,-z
x,-y,z
loop_
_atom_site_type_symbol
_atom_site_label
_atom_site_fract_x
_atom_site_fract_y
_atom_site_fract_z
Si Si1 0.209207 0.685126 0.396755
Si Si2 0.070129 0.313933 0.232164
Si Si3 0.496481 0.822140 0.184333
Si Si4 0.652438 0.683632 0.461391
Si Si5 0.071933 0.184421 0.905726
Si Si6 0.209605 0.312752 0.063345
Si Si7 0.345844 0.814668 0.219785
O O1 0.210047 0.500000 0.399155
O O2 0.141122 0.744902 0.655385
O O3 0.204180 0.736799 0.242692
O O4 0.281568 0.748023 0.287287
O O5 0.071841 0.500000 0.213766
O O6 0.141277 0.264234 0.140135
O O7 0.000000 0.273460 0.500000
O O8 0.067786 0.242085 0.079966
O O9 0.425863 0.729203 0.401622
O O10 0.487540 0.000000 0.250506
O O11 0.500000 0.819524 0.000000
O O12 0.575072 0.765535 0.033670
O O13 0.656274 0.500000 0.468471
O O14 0.661669 0.758405 0.596217
O O15 0.716640 0.735510 0.196993
O O16 0.077424 0.000000 0.889249
O O17 0.000000 0.230307 0.000000
O O18 0.209184 0.500000 0.065331
O O19 0.344804 0.000000 0.221638
#
# Coordination Sequence:
#
# PCOD9143438 Si02
#       7
#     4   4   4   4   4   4   4
#     4  11  22  38  59  80 107 144 185 227 271 321
#     4  10  20  37  62  87 111 144 186 227 269 321
#     4   8  16  31  50  74 107 143 179 224 274 325
#     4  10  18  31  54  81 108 141 184 230 275 327
#     4  11  24  40  58  84 117 148 180 221 270 324
#     4   9  20  36  53  79 111 140 177 228 278 322
#     4  10  20  35  54  79 111 143 179 225 277 331
#
# _framework density 18.633845999999998
#
# number of rings (size 3 to 8) (size 9 to 14) (size 15 to 20)
#    0.000    2.143    0.000    4.286    0.000    6.857 
#    0.000    5.714    0.000    4.286    0.000    0.000 
#    0.000    0.000    0.000    0.000    0.000    0.000 
#
# Total GULP energy -156330.494314 kJ/mol
# GULP energy per Si atom -5583.231940 kJ/mol
# Density = 1.859143 g / cm^3
# Si number density = 18.633846 Si / 1000 Ang^3
#
#
#
# Elastic Constant Matrix: (Units=GPa)
#
#
# Indices 1 2 3 4 5 6 
#
# 1 168.3984 43.3752 107.7519 0.0000 -17.2549 0.0000
# 2 43.3752 42.4382 46.4089 0.0000 -6.5328 0.0000
# 3 107.7519 46.4089 170.9284 0.0000 -16.9027 0.0000
# 4 0.0000 0.0000 0.0000 -12.6119 0.0000 -31.9373
# 5 -17.2549 -6.5328 -16.9027 0.0000 35.5349 0.0000
# 6 0.0000 0.0000 0.0000 -31.9373 0.0000 4.2883
#
#
#
# Elastic Compliance Matrix: (Units=1/GPa)
#
#
# Indices 1 2 3 4 5 6 
#
# 1 0.010772 -0.004979 -0.005259 0.000000 0.001814 0.000000
# 2 -0.004979 0.035942 -0.006512 0.000000 0.001092 0.000000
# 3 -0.005259 -0.006512 0.011084 0.000000 0.001522 0.000000
# 4 0.000000 0.000000 0.000000 -0.003993 0.000000 -0.029735
# 5 0.001814 0.001092 0.001522 0.000000 0.029947 0.000000
# 6 0.000000 0.000000 0.000000 -0.029735 0.000000 0.011742
#
#
# Mechanical properties :
#
#
# Convention : Reuss Voigt Hill
#
# Bulk Modulus (GPa) = 41.15615 86.31522 63.73569
# Shear Modulus (GPa) = 36.47139 17.72420 27.09779
#
# Velocity S-wave (km/s) = 4.42890 3.08747 3.81757
# Velocity P-wave (km/s) = 6.94897 7.68975 7.32873
#
# Compressibility (1/GPa) = 0.02429770
#
# Stress axis : x y z
#
# Youngs Moduli (GPa) = 92.83479 27.82259 90.21806
#
# Poissons Ratio (x) = 0.13853 0.47448
# Poissons Ratio (y) = 0.46224 0.58748
# Poissons Ratio (z) = 0.48824 0.18117
#
# Static dielectric constant tensor:
#      x y z
#    x 1.630030 0.000000 -0.018490 
#    y 0.000000 1.631770 0.000000 
#    z -0.018490 0.000000 1.628540 
# 
# From -- ./inp_files/37046.got.cif
#   From: 2010.05.17/outbox.cif.g08.bks.cpg/sg10_19_cif.got.tgz:37046.got - 2010.06.03 11:33:40.
