data_PCOD9143900
_publ_section_title
;
Structure prediction by ZEFSAII (Michael W. Deem and Ramdas Pophale) SiO2 
 PCOD9143900
Probable space group: P 2/M
;
_chemical_formula_sum "Si O2"
_cell_formula_units_Z 28
_cell_length_a 16.495109
_cell_length_b 7.396229
_cell_length_c 13.337489
_cell_angle_alpha 90.000000
_cell_angle_beta 134.749045
_cell_angle_gamma 90.000000
_cell_volume 1155.629218
_symmetry_space_group_name_H-M "P 2/M"
_symmetry_group_IT_number 10
_symmetry_cell_setting 'monoclinic'
loop_
_space_group_symop_operation_xyz
x,y,z
-x,y,-z
-x,-y,-z
x,-y,z
loop_
_atom_site_type_symbol
_atom_site_label
_atom_site_fract_x
_atom_site_fract_y
_atom_site_fract_z
Si Si1 0.814383 0.220657 0.174539
Si Si2 0.848377 0.794211 0.424676
Si Si3 0.639726 0.291334 0.366929
Si Si4 0.964139 0.780646 0.725513
Si Si5 0.124302 0.703891 0.141319
Si Si6 0.556791 0.218340 0.944700
Si Si7 0.631421 0.721089 0.587546
O O1 0.854188 0.284823 0.319341
O O2 0.902532 0.266746 0.163945
O O3 0.813753 0.000000 0.179129
O O4 0.686147 0.281271 0.048994
O O5 0.718917 0.798106 0.351766
O O6 0.915040 0.716106 0.576696
O O7 0.888898 0.000000 0.451881
O O8 0.673883 0.500000 0.399817
O O9 0.513721 0.277458 0.213171
O O10 0.649204 0.218592 0.487473
O O11 0.896086 0.699045 0.757210
O O12 0.952271 0.000000 0.721360
O O13 0.125835 0.500000 0.100501
O O14 0.255427 0.778498 0.249137
O O15 0.000000 0.787768 0.000000
O O16 0.556222 0.000000 0.946610
O O17 0.500000 0.280260 0.000000
O O18 0.500000 0.773264 0.500000
O O19 0.633473 0.500000 0.591932
#
# Coordination Sequence:
#
# PCOD9143900 Si02
#       7
#     4   4   4   4   4   4   4
#     4   9  18  33  53  80 111 147 186 219 261 321
#     4  10  18  33  56  79 107 145 185 215 258 325
#     4  11  21  33  55  82 108 138 179 228 272 317
#     4  10  20  34  57  84 110 141 182 230 270 316
#     4  10  21  38  60  82 107 144 186 228 279 340
#     4  10  19  34  54  75 107 150 186 218 262 321
#     4   9  19  37  58  79 106 142 183 225 276 336
#
# _framework density 24.229223999999999
#
# number of rings (size 3 to 8) (size 9 to 14) (size 15 to 20)
#    0.000    2.143    2.857    0.857    0.000    3.429 
#    0.000    2.857    0.000    5.571    0.000    0.000 
#    0.000    0.000    0.000    0.000    0.000    0.000 
#
# Total GULP energy -156282.110742 kJ/mol
# GULP energy per Si atom -5581.503955 kJ/mol
# Density = 2.417408 g / cm^3
# Si number density = 24.229224 Si / 1000 Ang^3
#
#
#
# Elastic Constant Matrix: (Units=GPa)
#
#
# Indices 1 2 3 4 5 6 
#
# 1 84.9358 3.3934 20.3682 0.0000 26.9269 0.0000
# 2 3.3934 89.8974 -1.0001 0.0000 2.0425 0.0000
# 3 20.3682 -1.0001 137.0276 0.0000 29.0938 0.0000
# 4 0.0000 0.0000 0.0000 4.6465 0.0000 -7.6656
# 5 26.9269 2.0425 29.0938 0.0000 34.6822 0.0000
# 6 0.0000 0.0000 0.0000 -7.6656 0.0000 2.2478
#
#
#
# Elastic Compliance Matrix: (Units=1/GPa)
#
#
# Indices 1 2 3 4 5 6 
#
# 1 0.015637 -0.000306 0.000301 0.000000 -0.012375 0.000000
# 2 -0.000306 0.011153 0.000263 0.000000 -0.000640 0.000000
# 3 0.000301 0.000263 0.008892 0.000000 -0.007708 0.000000
# 4 0.000000 0.000000 0.000000 -0.046522 0.000000 -0.158652
# 5 -0.012375 -0.000640 -0.007708 0.000000 0.044944 0.000000
# 6 0.000000 0.000000 0.000000 -0.158652 0.000000 -0.096166
#
#
# Mechanical properties :
#
#
# Convention : Reuss Voigt Hill
#
# Bulk Modulus (GPa) = 27.62686 39.70931 33.66808
# Shear Modulus (GPa) = -98.98434 27.58860 -35.69787
#
# Velocity S-wave (km/s) = -6.39859 3.37805 -3.84257
# Velocity P-wave (km/s) = 6.56980 5.62490 2.40028
#
# Compressibility (1/GPa) = 0.03619666
#
# Stress axis : x y z
#
# Youngs Moduli (GPa) = 63.95195 89.66370 112.46642
#
# Poissons Ratio (x) = 0.02741 -0.03384
# Poissons Ratio (y) = 0.01955 -0.02954
# Poissons Ratio (z) = -0.01924 -0.02355
#
# Static dielectric constant tensor:
#      x y z
#    x 1.907150 0.000000 0.063950 
#    y 0.000000 1.976520 0.000000 
#    z 0.063950 0.000000 1.987150 
# 
# From -- ./inp_files/49201.got.cif
#   From: 2010.05.17/outbox.cif.g08.bks.cpg/sg10_25_cif.got.tgz:49201.got - 2010.06.03 11:33:40.
