data_PCOD9143057
_publ_section_title
;
Structure prediction by ZEFSAII (Michael W. Deem and Ramdas Pophale) SiO2 
 PCOD9143057
Probable space group: P 2/M
;
_chemical_formula_sum "Si O2"
_cell_formula_units_Z 30
_cell_length_a 24.339354
_cell_length_b 7.295917
_cell_length_c 9.361973
_cell_angle_alpha 90.000000
_cell_angle_beta 48.396772
_cell_angle_gamma 90.000000
_cell_volume 1243.136859
_symmetry_space_group_name_H-M "P 2/M"
_symmetry_group_IT_number 10
_symmetry_cell_setting 'monoclinic'
loop_
_space_group_symop_operation_xyz
x,y,z
-x,y,-z
-x,-y,-z
x,-y,z
loop_
_atom_site_type_symbol
_atom_site_label
_atom_site_fract_x
_atom_site_fract_y
_atom_site_fract_z
Si Si1 0.447222 0.276289 0.298941
Si Si2 0.736325 0.722215 0.885772
Si Si3 0.092924 0.723543 0.418866
Si Si4 0.183925 0.199050 0.765273
Si Si5 0.397002 0.722850 0.071296
Si Si6 0.944252 0.708915 0.209188
Si Si7 0.092506 0.000000 0.165894
Si Si8 0.678588 0.289541 0.287893
O O1 0.445946 0.500000 0.304109
O O2 0.532457 0.222540 0.145718
O O3 0.395057 0.210361 0.515792
O O4 0.412417 0.220741 0.206867
O O5 0.734524 0.500000 0.890668
O O6 0.820299 0.768030 0.714424
O O7 0.678746 0.784332 0.866634
O O8 0.710474 0.790288 0.086459
O O9 0.084748 0.500000 0.417642
O O10 0.057841 0.788147 0.629421
O O11 0.072032 0.837705 0.316844
O O12 0.135858 0.291270 0.725426
O O13 0.256441 0.287128 0.706589
O O14 0.206958 0.000000 0.668460
O O15 0.128642 0.156632 0.992288
O O16 0.396388 0.500000 0.074057
O O17 0.968798 0.500000 0.186567
O O18 0.000000 0.797672 0.000000
O O19 0.661126 0.500000 0.283929
#
# Coordination Sequence:
#
# PCOD9143057 Si02
#       8
#     4   4   4   4   4   4   2   4
#     4   8  15  25  40  67 104 146 185 241 299 350
#     4   9  16  27  47  75 107 145 189 243 294 349
#     4  10  21  39  63  91 122 160 205 252 303 362
#     4  10  22  38  56  88 116 155 196 242 302 355
#     4   8  14  25  39  66 106 141 190 240 294 357
#     4  10  23  43  66  91 123 160 199 249 302 361
#     4  10  22  40  63  92 125 164 198 246 314 356
#     4  10  18  30  51  77 109 146 192 246 300 356
#
# _framework density 24.132497999999998
#
# number of rings (size 3 to 8) (size 9 to 14) (size 15 to 20)
#    0.400    2.267    1.333    1.200    2.800    1.333 
#    0.000    4.000    0.000    2.400    1.733    2.800 
#    0.000    0.000    0.000    0.000    0.000    0.000 
#
# Total GULP energy -167064.187943 kJ/mol
# GULP energy per Si atom -5568.806265 kJ/mol
# Density = 2.407757 g / cm^3
# Si number density = 24.132498 Si / 1000 Ang^3
#
#
#
# Elastic Constant Matrix: (Units=GPa)
#
#
# Indices 1 2 3 4 5 6 
#
# 1 79.3721 -4.7835 16.6938 0.0000 -12.8808 0.0000
# 2 -4.7835 111.1806 14.9961 0.0000 7.9425 0.0000
# 3 16.6938 14.9961 128.8765 0.0000 -0.7940 0.0000
# 4 0.0000 0.0000 0.0000 -1.4505 0.0000 3.9232
# 5 -12.8808 7.9425 -0.7940 0.0000 21.8435 0.0000
# 6 0.0000 0.0000 0.0000 3.9232 0.0000 -25.2309
#
#
#
# Elastic Compliance Matrix: (Units=1/GPa)
#
#
# Indices 1 2 3 4 5 6 
#
# 1 0.014348 0.000273 -0.001839 0.000000 0.008295 0.000000
# 2 0.000273 0.009397 -0.001149 0.000000 -0.003298 0.000000
# 3 -0.001839 -0.001149 0.008129 0.000000 -0.000371 0.000000
# 4 0.000000 0.000000 0.000000 -1.189786 0.000000 -0.185002
# 5 0.008295 -0.003298 -0.000371 0.000000 0.051857 0.000000
# 6 0.000000 0.000000 0.000000 -0.185002 0.000000 -0.068400
#
#
# Mechanical properties :
#
#
# Convention : Reuss Voigt Hill
#
# Bulk Modulus (GPa) = 37.81704 41.47133 39.64419
# Shear Modulus (GPa) = -4.30956 18.53394 7.11219
#
# Velocity S-wave (km/s) = -1.33779 2.77430 1.71859
# Velocity P-wave (km/s) = 3.64944 5.24256 4.51679
#
# Compressibility (1/GPa) = 0.02644310
#
# Stress axis : x y z
#
# Youngs Moduli (GPa) = 69.69463 106.42061 123.01596
#
# Poissons Ratio (x) = -0.02904 0.22625
# Poissons Ratio (y) = -0.01902 0.14135
# Poissons Ratio (z) = 0.12818 0.12228
#
# Static dielectric constant tensor:
#      x y z
#    x 1.919130 0.000000 -0.020420 
#    y 0.000000 1.927550 0.000000 
#    z -0.020420 0.000000 1.917460 
# 
# From -- ./inp_files/36731.got.cif
#   From: 2010.05.17/outbox.cif.g08.bks.cpg/sg10_19_cif.got.tgz:36731.got - 2010.06.03 11:33:40.
