data_PCOD9143968
_publ_section_title
;
Structure prediction by ZEFSAII (Michael W. Deem and Ramdas Pophale) SiO2 
 PCOD9143968
Probable space group: P 2/M
;
_chemical_formula_sum "Si O2"
_cell_formula_units_Z 28
_cell_length_a 12.807627
_cell_length_b 7.972357
_cell_length_c 15.489607
_cell_angle_alpha 90.000000
_cell_angle_beta 51.556222
_cell_angle_gamma 90.000000
_cell_volume 1238.736163
_symmetry_space_group_name_H-M "P 2/M"
_symmetry_group_IT_number 10
_symmetry_cell_setting 'monoclinic'
loop_
_space_group_symop_operation_xyz
x,y,z
-x,y,-z
-x,-y,-z
x,-y,z
loop_
_atom_site_type_symbol
_atom_site_label
_atom_site_fract_x
_atom_site_fract_y
_atom_site_fract_z
Si Si1 0.967459 0.205581 0.236354
Si Si2 0.489584 0.194663 0.403226
Si Si3 0.686191 0.698947 0.713666
Si Si4 0.387890 0.302048 0.880669
Si Si5 0.765763 0.799212 0.193462
Si Si6 0.734046 0.201006 0.885682
Si Si7 0.799288 0.799033 0.488746
O O1 0.884942 0.261849 0.193728
O O2 0.898572 0.260407 0.362526
O O3 0.119871 0.259917 0.158901
O O4 0.967000 0.000000 0.236308
O O5 0.500000 0.188141 0.500000
O O6 0.626276 0.273549 0.300747
O O7 0.347739 0.273519 0.455555
O O8 0.486815 0.000000 0.374492
O O9 0.683321 0.500000 0.704929
O O10 0.533766 0.764683 0.775232
O O11 0.713798 0.741140 0.798573
O O12 0.801677 0.765902 0.590114
O O13 0.388060 0.500000 0.867845
O O14 0.259417 0.231149 0.894919
O O15 0.371170 0.264222 0.990147
O O16 0.767164 0.000000 0.204598
O O17 0.730107 0.000000 0.888685
O O18 0.797299 0.000000 0.478912
#
# Coordination Sequence:
#
# PCOD9143968 Si02
#       7
#     4   4   4   4   4   4   4
#     4   9  20  37  60  91 123 152 187 238 286 334
#     4   9  14  24  51  88 117 144 181 229 280 332
#     4  11  24  41  60  85 117 151 191 244 298 340
#     4  11  24  41  60  85 117 151 191 244 298 340
#     4  10  18  33  60  91 119 149 189 233 285 344
#     4  11  24  42  62  84 112 152 201 244 286 339
#     4  10  18  33  60  91 119 149 189 233 285 344
#
# _framework density 22.603683
#
# number of rings (size 3 to 8) (size 9 to 14) (size 15 to 20)
#    0.000    1.857    2.857    1.714    0.000    4.571 
#    0.000    9.286    0.000    2.571    0.000    0.000 
#    0.000    0.000    0.000    0.000    0.000    0.000 
#
# Total GULP energy -156159.963827 kJ/mol
# GULP energy per Si atom -5577.141565 kJ/mol
# Density = 2.255224 g / cm^3
# Si number density = 22.603683 Si / 1000 Ang^3
#
#
#
# Elastic Constant Matrix: (Units=GPa)
#
#
# Indices 1 2 3 4 5 6 
#
# 1 66.6433 4.7481 23.2270 0.0000 8.5731 0.0000
# 2 4.7481 31.3378 1.3343 0.0000 -1.4816 0.0000
# 3 23.2270 1.3343 72.8377 0.0000 13.7895 0.0000
# 4 0.0000 0.0000 0.0000 -57.3355 0.0000 -65.0930
# 5 8.5731 -1.4816 13.7895 0.0000 31.1214 0.0000
# 6 0.0000 0.0000 0.0000 -65.0930 0.0000 -65.9654
#
#
#
# Elastic Compliance Matrix: (Units=1/GPa)
#
#
# Indices 1 2 3 4 5 6 
#
# 1 0.017255 -0.002530 -0.004948 0.000000 -0.002681 0.000000
# 2 -0.002530 0.032414 -0.000230 0.000000 0.002342 0.000000
# 3 -0.004948 -0.000230 0.016434 0.000000 -0.005929 0.000000
# 4 0.000000 0.000000 0.000000 0.144999 0.000000 -0.143081
# 5 -0.002681 0.002342 -0.005929 0.000000 0.035610 0.000000
# 6 0.000000 0.000000 0.000000 -0.143081 0.000000 0.126029
#
#
# Mechanical properties :
#
#
# Convention : Reuss Voigt Hill
#
# Bulk Modulus (GPa) = 19.72974 25.49308 22.61141
# Shear Modulus (GPa) = 12.34403 -9.00194 1.67104
#
# Velocity S-wave (km/s) = 2.33943 -1.99779 0.86075
# Velocity P-wave (km/s) = 4.00559 2.44566 3.31858
#
# Compressibility (1/GPa) = 0.05068490
#
# Stress axis : x y z
#
# Youngs Moduli (GPa) = 57.95375 30.85057 60.84969
#
# Poissons Ratio (x) = 0.07807 0.30111
# Poissons Ratio (y) = 0.14665 0.01401
# Poissons Ratio (z) = 0.28678 0.00710
#
# Static dielectric constant tensor:
#      x y z
#    x 1.901520 0.000000 0.039900 
#    y 0.000000 1.821240 0.000000 
#    z 0.039900 0.000000 1.882760 
# 
# From -- ./inp_files/63666.got.cif
#   From: 2010.05.17/outbox.cif.g08.bks.cpg/sg10_32_cif.got.tgz:63666.got - 2010.06.03 11:33:40.
