data_PCOD9143317
_publ_section_title
;
Structure prediction by ZEFSAII (Michael W. Deem and Ramdas Pophale) SiO2 
 PCOD9143317
Probable space group: P 2/M
;
_chemical_formula_sum "Si O2"
_cell_formula_units_Z 24
_cell_length_a 12.309294
_cell_length_b 8.193335
_cell_length_c 21.601662
_cell_angle_alpha 90.000000
_cell_angle_beta 38.445724
_cell_angle_gamma 90.000000
_cell_volume 1354.605642
_symmetry_space_group_name_H-M "P 2/M"
_symmetry_group_IT_number 10
_symmetry_cell_setting 'monoclinic'
loop_
_space_group_symop_operation_xyz
x,y,z
-x,y,-z
-x,-y,-z
x,-y,z
loop_
_atom_site_type_symbol
_atom_site_label
_atom_site_fract_x
_atom_site_fract_y
_atom_site_fract_z
Si Si1 0.451035 0.191844 0.417142
Si Si2 0.150835 0.196432 0.741974
Si Si3 0.109186 0.693750 0.630371
Si Si4 0.132160 0.195189 0.889402
Si Si5 0.523112 0.689791 0.728519
Si Si6 0.112035 0.699437 0.389712
O O1 0.642894 0.238922 0.355031
O O2 0.294912 0.222619 0.533614
O O3 0.417042 0.290836 0.369574
O O4 0.458926 0.000000 0.397665
O O5 0.055614 0.265812 0.724354
O O6 0.098642 0.255370 0.834078
O O7 0.136266 0.000000 0.746847
O O8 0.131392 0.500000 0.614517
O O9 0.979507 0.748496 0.633437
O O10 0.333867 0.227999 0.816738
O O11 0.110095 0.000000 0.896595
O O12 0.000000 0.261287 0.000000
O O13 0.498802 0.500000 0.753959
O O14 0.687293 0.755576 0.693995
O O15 0.115341 0.500000 0.390102
O O16 0.000000 0.752182 0.500000
#
# Coordination Sequence:
#
# PCOD9143317 Si02
#       6
#     4   4   4   4   4   4
#     4  10  19  31  46  67 100 136 166 200 244 290
#     4   9  19  33  47  68  98 127 158 200 249 296
#     4  11  20  30  47  69  97 135 171 200 238 290
#     4   9  19  37  58  76  98 127 157 200 259 307
#     4  10  18  31  52  75 100 129 167 209 244 285
#     4   9  17  31  47  67 101 139 168 199 241 281
#
# _framework density 17.717333
#
# number of rings (size 3 to 8) (size 9 to 14) (size 15 to 20)
#    0.000    2.333    1.667    3.000    0.000    5.667 
#    0.000    4.167    0.000    1.000    0.000    7.000 
#    0.000    0.000    0.000    0.000    0.000    0.000 
#
# Total GULP energy -133796.222352 kJ/mol
# GULP energy per Si atom -5574.842598 kJ/mol
# Density = 1.767701 g / cm^3
# Si number density = 17.717333 Si / 1000 Ang^3
#
#
#
# Elastic Constant Matrix: (Units=GPa)
#
#
# Indices 1 2 3 4 5 6 
#
# 1 135.4092 9.0465 58.6657 0.0000 23.2618 0.0000
# 2 9.0465 8.3216 -0.7033 0.0000 3.0353 0.0000
# 3 58.6657 -0.7033 99.9443 0.0000 14.0619 0.0000
# 4 0.0000 0.0000 0.0000 16.1890 0.0000 1.0524
# 5 23.2618 3.0353 14.0619 0.0000 12.8074 0.0000
# 6 0.0000 0.0000 0.0000 1.0524 0.0000 24.3947
#
#
#
# Elastic Compliance Matrix: (Units=1/GPa)
#
#
# Indices 1 2 3 4 5 6 
#
# 1 0.013048 -0.009008 -0.005545 0.000000 -0.015475 0.000000
# 2 -0.009008 0.141181 0.010274 0.000000 -0.028379 0.000000
# 3 -0.005545 0.010274 0.014498 0.000000 -0.008282 0.000000
# 4 0.000000 0.000000 0.000000 0.061944 0.000000 -0.002672
# 5 -0.015475 -0.028379 -0.008282 0.000000 0.122006 0.000000
# 6 0.000000 0.000000 0.000000 -0.002672 0.000000 0.041108
#
#
# Mechanical properties :
#
#
# Convention : Reuss Voigt Hill
#
# Bulk Modulus (GPa) = 6.24342 41.96588 24.10465
# Shear Modulus (GPa) = 10.97134 22.45596 16.71365
#
# Velocity S-wave (km/s) = 2.49116 3.56400 3.07473
# Velocity P-wave (km/s) = 3.43599 6.37761 5.12250
#
# Compressibility (1/GPa) = 0.16016870
#
# Stress axis : x y z
#
# Youngs Moduli (GPa) = 76.64234 7.08309 68.97590
#
# Poissons Ratio (x) = 0.06381 0.38246
# Poissons Ratio (y) = 0.69041 -0.70865
# Poissons Ratio (z) = 0.42497 -0.07277
#
# Static dielectric constant tensor:
#      x y z
#    x 1.632760 0.000000 0.011210 
#    y 0.000000 1.626450 0.000000 
#    z 0.011210 0.000000 1.596670 
# 
# From -- ./inp_files/48653.got.cif
#   From: 2010.05.17/outbox.cif.g08.bks.cpg/sg10_25_cif.got.tgz:48653.got - 2010.06.03 11:33:40.
