data_PCOD9143669
_publ_section_title
;
Structure prediction by ZEFSAII (Michael W. Deem and Ramdas Pophale) SiO2 
 PCOD9143669
Probable space group: P 2/M
;
_chemical_formula_sum "Si O2"
_cell_formula_units_Z 32
_cell_length_a 25.663749
_cell_length_b 8.291186
_cell_length_c 20.638126
_cell_angle_alpha 90.000000
_cell_angle_beta 20.459659
_cell_angle_gamma 90.000000
_cell_volume 1535.018411
_symmetry_space_group_name_H-M "P 2/M"
_symmetry_group_IT_number 10
_symmetry_cell_setting 'monoclinic'
loop_
_space_group_symop_operation_xyz
x,y,z
-x,y,-z
-x,-y,-z
x,-y,z
loop_
_atom_site_type_symbol
_atom_site_label
_atom_site_fract_x
_atom_site_fract_y
_atom_site_fract_z
Si Si1 0.571435 0.314089 0.082505
Si Si2 0.186256 0.307695 0.709105
Si Si3 0.984635 0.814022 0.717998
Si Si4 0.259033 0.694712 0.481801
Si Si5 0.676459 0.680725 0.107922
Si Si6 0.895980 0.304704 0.679965
Si Si7 0.423911 0.813156 0.652379
Si Si8 0.829619 0.307432 0.128741
O O1 0.562490 0.500000 0.069515
O O2 0.405694 0.242324 0.272859
O O3 0.605065 0.316683 0.120342
O O4 0.724479 0.242791 0.875239
O O5 0.217165 0.500000 0.674756
O O6 0.248907 0.243320 0.568016
O O7 0.224496 0.246914 0.736986
O O8 0.006739 0.289484 0.916228
O O9 0.109241 0.731171 0.616975
O O10 0.965601 0.741321 0.668128
O O11 0.023794 0.000000 0.666865
O O12 0.819874 0.794115 0.940111
O O13 0.274376 0.500000 0.468246
O O14 0.732074 0.500000 0.055635
O O15 0.558575 0.726147 0.300057
O O16 0.887396 0.500000 0.688667
O O17 0.000000 0.250291 0.500000
O O18 0.500000 0.739649 0.500000
O O19 0.252067 0.788907 0.832210
O O20 0.463428 0.000000 0.612059
O O21 0.799038 0.500000 0.158942
#
# Coordination Sequence:
#
# PCOD9143669 Si02
#       8
#     4   4   4   4   4   4   4   4
#     4   8  17  32  55  86 110 134 180 235 280 322
#     4   8  16  29  50  74  96 125 167 225 275 320
#     4  11  22  36  56  85 117 148 181 217 269 335
#     4  10  18  32  54  79 110 142 179 228 277 322
#     4  10  20  37  59  80 103 140 193 240 278 328
#     4   9  18  37  63  87 113 148 190 230 266 314
#     4  11  24  36  46  69 107 143 178 226 284 337
#     4   9  17  32  50  70  93 126 179 224 271 332
#
# _framework density 20.846654999999998
#
# number of rings (size 3 to 8) (size 9 to 14) (size 15 to 20)
#    0.000    2.500    0.000    4.125    1.750    2.250 
#    0.000    5.625    0.000    3.750    0.000    0.000 
#    0.000    0.000    0.000    0.000    0.000    0.000 
#
# Total GULP energy -178466.913698 kJ/mol
# GULP energy per Si atom -5577.091053 kJ/mol
# Density = 2.079921 g / cm^3
# Si number density = 20.846655 Si / 1000 Ang^3
#
#
#
# Elastic Constant Matrix: (Units=GPa)
#
#
# Indices 1 2 3 4 5 6 
#
# 1 45.8788 -4.3705 20.0082 0.0000 10.3025 0.0000
# 2 -4.3705 14.5692 7.3701 0.0000 2.1761 0.0000
# 3 20.0082 7.3701 89.7957 0.0000 16.4073 0.0000
# 4 0.0000 0.0000 0.0000 -25.2391 0.0000 37.0998
# 5 10.3025 2.1761 16.4073 0.0000 36.8150 0.0000
# 6 0.0000 0.0000 0.0000 37.0998 0.0000 -24.5378
#
#
#
# Elastic Compliance Matrix: (Units=1/GPa)
#
#
# Indices 1 2 3 4 5 6 
#
# 1 0.026753 0.011849 -0.005920 0.000000 -0.005549 0.000000
# 2 0.011849 0.076964 -0.008187 0.000000 -0.004217 0.000000
# 3 -0.005920 -0.008187 0.013865 0.000000 -0.004039 0.000000
# 4 0.000000 0.000000 0.000000 0.032411 0.000000 0.049004
# 5 -0.005549 -0.004217 -0.004039 0.000000 0.030765 0.000000
# 6 0.000000 0.000000 0.000000 0.049004 0.000000 0.033338
#
#
# Mechanical properties :
#
#
# Convention : Reuss Voigt Hill
#
# Bulk Modulus (GPa) = 8.84431 21.80657 15.32544
# Shear Modulus (GPa) = 19.50844 5.89002 12.69923
#
# Velocity S-wave (km/s) = 3.06241 1.68272 2.47082
# Velocity P-wave (km/s) = 4.09344 3.77605 3.93795
#
# Compressibility (1/GPa) = 0.11306710
#
# Stress axis : x y z
#
# Youngs Moduli (GPa) = 37.37900 12.99315 72.12249
#
# Poissons Ratio (x) = -0.15395 0.42694
# Poissons Ratio (y) = -0.44290 0.59044
# Poissons Ratio (z) = 0.22127 0.10637
#
# Static dielectric constant tensor:
#      x y z
#    x 1.737290 0.000000 -0.003300 
#    y 0.000000 1.723940 0.000000 
#    z -0.003300 0.000000 1.831480 
# 
# From -- ./inp_files/86917.got.cif
#   From: 2010.05.17/outbox.cif.g08.bks.cpg/sg10_44_cif.got.tgz:86917.got - 2010.06.03 11:33:40.
