data_PCOD9143052
_publ_section_title
;
Structure prediction by ZEFSAII (Michael W. Deem and Ramdas Pophale) SiO2 
 PCOD9143052
Probable space group: P 2/M
;
_chemical_formula_sum "Si O2"
_cell_formula_units_Z 28
_cell_length_a 23.790366
_cell_length_b 8.615087
_cell_length_c 21.409471
_cell_angle_alpha 90.000000
_cell_angle_beta 18.053380
_cell_angle_gamma 90.000000
_cell_volume 1359.854346
_symmetry_space_group_name_H-M "P 2/M"
_symmetry_group_IT_number 10
_symmetry_cell_setting 'monoclinic'
loop_
_space_group_symop_operation_xyz
x,y,z
-x,y,-z
-x,-y,-z
x,-y,z
loop_
_atom_site_type_symbol
_atom_site_label
_atom_site_fract_x
_atom_site_fract_y
_atom_site_fract_z
Si Si1 0.933646 0.177557 0.134762
Si Si2 0.635980 0.185084 0.033502
Si Si3 0.504205 0.177597 0.564545
Si Si4 0.569275 0.316753 0.231382
Si Si5 0.834761 0.187736 0.368168
Si Si6 0.993059 0.812741 0.579725
Si Si7 0.237194 0.684023 0.428154
O O1 0.716362 0.171246 0.357577
O O2 0.960148 0.239291 0.177218
O O3 0.005858 0.000000 0.058213
O O4 0.000000 0.253896 0.000000
O O5 0.800658 0.228685 0.814378
O O6 0.612166 0.000000 0.057668
O O7 0.676574 0.236015 0.061860
O O8 0.445746 0.260700 0.213701
O O9 0.500000 0.249185 0.500000
O O10 0.399865 0.261139 0.730532
O O11 0.437287 0.000000 0.630960
O O12 0.587304 0.500000 0.207572
O O13 0.361610 0.264935 0.436565
O O14 0.874788 0.238172 0.396271
O O15 0.819647 0.000000 0.381103
O O16 0.149443 0.737204 0.456188
O O17 0.000000 0.767294 0.500000
O O18 0.011864 0.000000 0.563401
O O19 0.229510 0.500000 0.443487
#
# Coordination Sequence:
#
# PCOD9143052 Si02
#       7
#     4   4   4   4   4   4   4
#     4   8  14  26  45  69  96 127 169 225 276 317
#     4  10  20  38  64  88 114 151 198 243 286 342
#     4   9  17  30  47  68  97 134 180 227 274 333
#     4  10  18  30  51  76 106 141 181 228 285 343
#     4   9  16  30  53  76 103 140 189 235 275 331
#     4  10  23  43  65  90 119 152 195 245 290 341
#     4  11  22  37  60  88 122 157 191 235 292 355
#
# _framework density 20.590440999999998
#
# number of rings (size 3 to 8) (size 9 to 14) (size 15 to 20)
#    0.000    2.429    0.000    6.000    0.000    2.286 
#    2.571    2.857    0.000   10.714    0.000    0.000 
#    0.000    0.000    0.000    0.000    0.000    0.000 
#
# Total GULP energy -156180.772241 kJ/mol
# GULP energy per Si atom -5577.884723 kJ/mol
# Density = 2.054358 g / cm^3
# Si number density = 20.590441 Si / 1000 Ang^3
#
#
#
# Elastic Constant Matrix: (Units=GPa)
#
#
# Indices 1 2 3 4 5 6 
#
# 1 134.6357 27.8661 50.7079 0.0000 36.0771 0.0000
# 2 27.8661 47.6098 23.5783 0.0000 10.7702 0.0000
# 3 50.7079 23.5783 99.6883 0.0000 23.8892 0.0000
# 4 0.0000 0.0000 0.0000 -3.2688 0.0000 -43.7599
# 5 36.0771 10.7702 23.8892 0.0000 45.8084 0.0000
# 6 0.0000 0.0000 0.0000 -43.7599 0.0000 30.9635
#
#
#
# Elastic Compliance Matrix: (Units=1/GPa)
#
#
# Indices 1 2 3 4 5 6 
#
# 1 0.011039 -0.003419 -0.003332 0.000000 -0.006152 0.000000
# 2 -0.003419 0.025226 -0.003944 0.000000 -0.001181 0.000000
# 3 -0.003332 -0.003944 0.013494 0.000000 -0.003486 0.000000
# 4 0.000000 0.000000 0.000000 -0.015358 0.000000 -0.021705
# 5 -0.006152 -0.001181 -0.003486 0.000000 0.028771 0.000000
# 6 0.000000 0.000000 0.000000 -0.021705 0.000000 0.001621
#
#
# Mechanical properties :
#
#
# Convention : Reuss Voigt Hill
#
# Bulk Modulus (GPa) = 35.25058 54.02649 44.63853
# Shear Modulus (GPa) = 52.27961 26.68605 39.48283
#
# Velocity S-wave (km/s) = 5.04434 3.60396 4.38371
# Velocity P-wave (km/s) = 7.14732 6.60406 6.88105
#
# Compressibility (1/GPa) = 0.02836833
#
# Stress axis : x y z
#
# Youngs Moduli (GPa) = 90.59172 39.64191 74.10509
#
# Poissons Ratio (x) = 0.13554 0.24692
# Poissons Ratio (y) = 0.30974 0.29228
# Poissons Ratio (z) = 0.30185 0.15635
#
# Static dielectric constant tensor:
#      x y z
#    x 1.804710 0.000000 0.000780 
#    y 0.000000 1.696160 0.000000 
#    z 0.000780 0.000000 1.762480 
# 
# From -- ./inp_files/86447.got.cif
#   From: 2010.05.17/outbox.cif.g08.bks.cpg/sg10_44_cif.got.tgz:86447.got - 2010.06.03 11:33:40.
