data_PCOD9143953
_publ_section_title
;
Structure prediction by ZEFSAII (Michael W. Deem and Ramdas Pophale) SiO2 
 PCOD9143953
Probable space group: P 2/M
;
_chemical_formula_sum "Si O2"
_cell_formula_units_Z 28
_cell_length_a 18.952990
_cell_length_b 7.542516
_cell_length_c 13.033258
_cell_angle_alpha 90.000000
_cell_angle_beta 38.317928
_cell_angle_gamma 90.000000
_cell_volume 1155.196485
_symmetry_space_group_name_H-M "P 2/M"
_symmetry_group_IT_number 10
_symmetry_cell_setting 'monoclinic'
loop_
_space_group_symop_operation_xyz
x,y,z
-x,y,-z
-x,-y,-z
x,-y,z
loop_
_atom_site_type_symbol
_atom_site_label
_atom_site_fract_x
_atom_site_fract_y
_atom_site_fract_z
Si Si1 0.629422 0.286358 0.597502
Si Si2 0.566063 0.716299 0.322044
Si Si3 0.818321 0.298492 0.023693
Si Si4 0.050154 0.796738 0.691753
Si Si5 0.876478 0.300076 0.607555
Si Si6 0.367336 0.283257 0.172828
Si Si7 0.842358 0.204287 0.224852
O O1 0.640028 0.500000 0.583661
O O2 0.505309 0.240824 0.697441
O O3 0.651983 0.226908 0.686956
O O4 0.715957 0.214230 0.414488
O O5 0.500000 0.775298 0.500000
O O6 0.572820 0.500000 0.322713
O O7 0.693462 0.783495 0.166285
O O8 0.812588 0.500000 0.993319
O O9 0.850910 0.297001 0.106754
O O10 0.914141 0.206561 0.847260
O O11 0.104347 0.693757 0.536778
O O12 0.086132 0.722750 0.761308
O O13 0.089867 0.000000 0.640934
O O14 0.875226 0.500000 0.653073
O O15 0.745677 0.227073 0.764247
O O16 0.000000 0.216619 0.500000
O O17 0.365589 0.500000 0.169454
O O18 0.500000 0.232065 0.000000
O O19 0.874562 0.000000 0.170648
#
# Coordination Sequence:
#
# PCOD9143953 Si02
#       7
#     4   4   4   4   4   4   4
#     4  10  18  33  59  82 108 148 191 230 279 345
#     4   9  17  31  52  81 111 142 185 235 283 331
#     4  11  22  36  58  86 117 152 194 241 288 341
#     4  11  24  40  57  81 118 157 195 238 288 345
#     4  10  21  38  63  92 117 146 194 250 298 349
#     4   9  18  33  57  88 115 142 184 239 295 347
#     4  11  22  36  55  81 115 153 194 236 281 336
#
# _framework density 24.238302000000001
#
# number of rings (size 3 to 8) (size 9 to 14) (size 15 to 20)
#    0.000    1.857    2.857    1.714    0.000    4.857 
#    0.000    6.429    0.000    1.714    0.000    0.000 
#    0.000    0.000    0.000    0.000    0.000    0.000 
#
# Total GULP energy -156324.610068 kJ/mol
# GULP energy per Si atom -5583.021788 kJ/mol
# Density = 2.418313 g / cm^3
# Si number density = 24.238302 Si / 1000 Ang^3
#
#
#
# Elastic Constant Matrix: (Units=GPa)
#
#
# Indices 1 2 3 4 5 6 
#
# 1 93.8327 2.4716 31.5315 0.0000 -37.7144 0.0000
# 2 2.4716 64.7589 1.4659 0.0000 -0.6309 0.0000
# 3 31.5315 1.4659 120.2779 0.0000 -26.6434 0.0000
# 4 0.0000 0.0000 0.0000-1034.9192 0.0000 -310.0321
# 5 -37.7144 -0.6309 -26.6434 0.0000 34.7998 0.0000
# 6 0.0000 0.0000 0.0000 -310.0321 0.0000 -84.1809
#
#
#
# Elastic Compliance Matrix: (Units=1/GPa)
#
#
# Indices 1 2 3 4 5 6 
#
# 1 0.018925 -0.000515 -0.000498 0.000000 0.020119 0.000000
# 2 -0.000515 0.015461 -0.000138 0.000000 -0.000384 0.000000
# 3 -0.000498 -0.000138 0.010027 0.000000 0.007134 0.000000
# 4 0.000000 0.000000 0.000000 0.009354 0.000000 -0.034450
# 5 0.020119 -0.000384 0.007134 0.000000 0.055995 0.000000
# 6 0.000000 0.000000 0.000000 -0.034450 0.000000 0.114997
#
#
# Mechanical properties :
#
#
# Convention : Reuss Voigt Hill
#
# Bulk Modulus (GPa) = 23.74796 38.86748 31.30772
# Shear Modulus (GPa) = 20.73845 -200.63333 -89.94744
#
# Velocity S-wave (km/s) = 2.92825 -9.10796 -6.09838
# Velocity P-wave (km/s) = 4.60997 9.72298 6.05328
#
# Compressibility (1/GPa) = 0.04210889
#
# Stress axis : x y z
#
# Youngs Moduli (GPa) = 52.84109 64.67916 99.73354
#
# Poissons Ratio (x) = 0.03331 0.04970
# Poissons Ratio (y) = 0.02721 0.01381
# Poissons Ratio (z) = 0.02633 0.00895
#
# Static dielectric constant tensor:
#      x y z
#    x 1.972000 0.000000 -0.086460 
#    y 0.000000 1.926220 0.000000 
#    z -0.086460 0.000000 1.920910 
# 
# From -- ./inp_files/49318.got.cif
#   From: 2010.05.17/outbox.cif.g08.bks.cpg/sg10_25_cif.got.tgz:49318.got - 2010.06.03 11:33:40.
