data_PCOD9143101
_publ_section_title
;
Structure prediction by ZEFSAII (Michael W. Deem and Ramdas Pophale) SiO2 
 PCOD9143101
Probable space group: P 2/M
;
_chemical_formula_sum "Si O2"
_cell_formula_units_Z 30
_cell_length_a 29.370691
_cell_length_b 9.624789
_cell_length_c 16.957785
_cell_angle_alpha 90.000000
_cell_angle_beta 21.747566
_cell_angle_gamma 90.000000
_cell_volume 1776.166989
_symmetry_space_group_name_H-M "P 2/M"
_symmetry_group_IT_number 10
_symmetry_cell_setting 'monoclinic'
loop_
_space_group_symop_operation_xyz
x,y,z
-x,y,-z
-x,-y,-z
x,-y,z
loop_
_atom_site_type_symbol
_atom_site_label
_atom_site_fract_x
_atom_site_fract_y
_atom_site_fract_z
Si Si1 0.899134 0.164242 0.897132
Si Si2 0.278337 0.844307 0.962909
Si Si3 0.579499 0.668535 0.664789
Si Si4 0.368169 0.668985 0.246744
Si Si5 0.500000 0.253231 0.500000
Si Si6 0.850871 0.667508 0.519365
Si Si7 0.300932 0.333851 0.081072
Si Si8 0.304112 0.339525 0.688288
O O1 0.026605 0.246095 0.692514
O O2 0.912104 0.000000 0.893051
O O3 0.834268 0.177161 0.915858
O O4 0.803706 0.239531 0.109150
O O5 0.402035 0.828877 0.711360
O O6 0.273302 0.000000 0.003210
O O7 0.276318 0.737283 0.037454
O O8 0.580706 0.500000 0.663630
O O9 0.640157 0.715338 0.648993
O O10 0.644610 0.708648 0.478780
O O11 0.436684 0.710005 0.891667
O O12 0.370707 0.500000 0.242262
O O13 0.254883 0.707086 0.373362
O O14 0.500000 0.714097 0.000000
O O15 0.414402 0.334055 0.575216
O O16 0.871698 0.500000 0.480166
O O17 0.796663 0.696867 0.693549
O O18 0.303637 0.500000 0.066258
O O19 0.262656 0.500000 0.749326
#
# Coordination Sequence:
#
# PCOD9143101 Si02
#       8
#     4   4   4   4   2   4   4   4
#     4  10  23  40  54  71 105 150 187 220 258 312
#     4  10  21  35  51  74 105 146 187 216 257 315
#     4   9  16  29  50  83 115 136 163 212 272 321
#     4   9  15  28  54  84 111 135 166 214 270 320
#     4  10  18  30  52  80 108 138 176 224 266 306
#     4  10  20  35  58  83 106 138 179 221 265 317
#     4  10  19  32  53  83 113 136 169 219 272 315
#     4  10  19  32  54  81 109 139 176 220 266 316
#
# _framework density 16.890302999999999
#
# number of rings (size 3 to 8) (size 9 to 14) (size 15 to 20)
#    0.000    2.267    2.667    0.800    0.000    4.267 
#    0.000    3.333    0.000    6.000    0.000    0.000 
#    0.000    0.000    0.000    0.000    0.000    0.000 
#
# Total GULP energy -167212.929851 kJ/mol
# GULP energy per Si atom -5573.764328 kJ/mol
# Density = 1.685186 g / cm^3
# Si number density = 16.890303 Si / 1000 Ang^3
#
#
#
# Elastic Constant Matrix: (Units=GPa)
#
#
# Indices 1 2 3 4 5 6 
#
# 1 102.5278 36.2595 68.8917 0.0000 12.7986 0.0000
# 2 36.2595 47.4041 53.6125 0.0000 -0.8404 0.0000
# 3 68.8917 53.6125 135.1956 0.0000 -4.7754 0.0000
# 4 0.0000 0.0000 0.0000 4.9113 0.0000 1.7050
# 5 12.7986 -0.8404 -4.7754 0.0000 24.8532 0.0000
# 6 0.0000 0.0000 0.0000 1.7050 0.0000 -3.1085
#
#
#
# Elastic Compliance Matrix: (Units=1/GPa)
#
#
# Indices 1 2 3 4 5 6 
#
# 1 0.018054 -0.005735 -0.007310 0.000000 -0.010896 0.000000
# 2 -0.005735 0.040138 -0.012930 0.000000 0.001826 0.000000
# 3 -0.007310 -0.012930 0.016479 0.000000 0.006494 0.000000
# 4 0.000000 0.000000 0.000000 0.171041 0.000000 0.093816
# 5 -0.010896 0.001826 0.006494 0.000000 0.047157 0.000000
# 6 0.000000 0.000000 0.000000 0.093816 0.000000 -0.270236
#
#
# Mechanical properties :
#
#
# Convention : Reuss Voigt Hill
#
# Bulk Modulus (GPa) = 44.01456 66.96165 55.48811
# Shear Modulus (GPa) = 60.86036 13.75546 37.30791
#
# Velocity S-wave (km/s) = 6.00924 2.85686 4.70492
# Velocity P-wave (km/s) = 8.61763 7.11430 7.90180
#
# Compressibility (1/GPa) = 0.02271975
#
# Stress axis : x y z
#
# Youngs Moduli (GPa) = 55.39014 24.91434 60.68445
#
# Poissons Ratio (x) = 0.14288 0.44363
# Poissons Ratio (y) = 0.31765 0.78465
# Poissons Ratio (z) = 0.40492 0.32214
#
# Static dielectric constant tensor:
#      x y z
#    x 1.570010 0.000000 0.001770 
#    y 0.000000 1.559970 0.000000 
#    z 0.001770 0.000000 1.555600 
# 
# From -- ./inp_files/56612.got.cif
#   From: 2010.05.17/outbox.cif.g08.bks.cpg/sg10_29_cif.got.tgz:56612.got - 2010.06.03 11:33:40.
