data_PCOD9143939
_publ_section_title
;
Structure prediction by ZEFSAII (Michael W. Deem and Ramdas Pophale) SiO2 
 PCOD9143939
Probable space group: P 2/M
;
_chemical_formula_sum "Si O2"
_cell_formula_units_Z 32
_cell_length_a 26.026592
_cell_length_b 7.501928
_cell_length_c 20.348850
_cell_angle_alpha 90.000000
_cell_angle_beta 21.465063
_cell_angle_gamma 90.000000
_cell_volume 1453.893576
_symmetry_space_group_name_H-M "P 2/M"
_symmetry_group_IT_number 10
_symmetry_cell_setting 'monoclinic'
loop_
_space_group_symop_operation_xyz
x,y,z
-x,y,-z
-x,-y,-z
x,-y,z
loop_
_atom_site_type_symbol
_atom_site_label
_atom_site_fract_x
_atom_site_fract_y
_atom_site_fract_z
Si Si1 0.519186 0.211139 0.664280
Si Si2 0.207015 0.219296 0.071316
Si Si3 0.021723 0.209693 0.761362
Si Si4 0.663184 0.712155 0.628508
Si Si5 0.624335 0.782348 0.399595
Si Si6 0.859591 0.788292 0.701866
Si Si7 0.440797 0.715185 0.000458
Si Si8 0.940046 0.782209 0.001048
O O1 0.617389 0.236717 0.609950
O O2 0.589873 0.280829 0.513976
O O3 0.502044 0.000000 0.674320
O O4 0.363449 0.279814 0.865708
O O5 0.168472 0.279841 0.190840
O O6 0.093945 0.279773 0.151861
O O7 0.207721 0.000000 0.071371
O O8 0.178293 0.228889 0.547508
O O9 0.012231 0.280132 0.847503
O O10 0.990781 0.000000 0.803782
O O11 0.661800 0.500000 0.634834
O O12 0.545899 0.781472 0.818505
O O13 0.500000 0.725486 0.500000
O O14 0.626231 0.000000 0.397597
O O15 0.777112 0.729761 0.192985
O O16 0.719089 0.762803 0.826223
O O17 0.000000 0.715968 0.500000
O O18 0.880510 0.000000 0.684217
O O19 0.446065 0.500000 0.994466
O O20 0.500000 0.777300 0.000000
O O21 0.950205 0.000000 0.990223
O O22 0.000000 0.721728 0.000000
#
# Coordination Sequence:
#
# PCOD9143939 Si02
#       8
#     4   4   4   4   4   4   4   4
#     4  10  18  33  58  82 108 144 181 224 277 328
#     4   9  18  33  53  81 112 138 174 221 268 324
#     4  10  20  34  55  80 109 146 182 222 275 325
#     4  11  23  38  55  79 109 142 185 230 269 317
#     4   9  16  26  47  80 109 134 173 223 271 318
#     4  10  21  37  58  86 116 142 172 216 271 330
#     4  10  23  42  60  80 109 145 185 227 269 319
#     4   9  16  27  44  72 106 136 173 219 262 311
#
# _framework density 22.009865000000001
#
# number of rings (size 3 to 8) (size 9 to 14) (size 15 to 20)
#    0.000    2.250    1.250    1.875    1.750    6.000 
#    0.000    1.250    0.000    3.750    0.000    0.000 
#    0.000    0.000    0.000    0.000    0.000    0.000 
#
# Total GULP energy -178794.918695 kJ/mol
# GULP energy per Si atom -5587.341209 kJ/mol
# Density = 2.195977 g / cm^3
# Si number density = 22.009865 Si / 1000 Ang^3
#
#
#
# Elastic Constant Matrix: (Units=GPa)
#
#
# Indices 1 2 3 4 5 6 
#
# 1 100.3739 -3.4913 16.1579 0.0000 -5.8725 0.0000
# 2 -3.4913 53.8958 -5.5945 0.0000 6.2264 0.0000
# 3 16.1579 -5.5945 120.5266 0.0000 -1.0065 0.0000
# 4 0.0000 0.0000 0.0000 -104.6946 0.0000 117.9331
# 5 -5.8725 6.2264 -1.0065 0.0000 44.7470 0.0000
# 6 0.0000 0.0000 0.0000 117.9331 0.0000 -140.8910
#
#
#
# Elastic Compliance Matrix: (Units=1/GPa)
#
#
# Indices 1 2 3 4 5 6 
#
# 1 0.010267 0.000379 -0.001348 0.000000 0.001264 0.000000
# 2 0.000379 0.018960 0.000808 0.000000 -0.002570 0.000000
# 3 -0.001348 0.000808 0.008514 0.000000 -0.000098 0.000000
# 4 0.000000 0.000000 0.000000 -0.167266 0.000000 -0.140010
# 5 0.001264 -0.002570 -0.000098 0.000000 0.022869 0.000000
# 6 0.000000 0.000000 0.000000 -0.140010 0.000000 -0.124293
#
#
# Mechanical properties :
#
#
# Convention : Reuss Voigt Hill
#
# Bulk Modulus (GPa) = 26.72501 32.10449 29.41475
# Shear Modulus (GPa) = -22.91969 -22.31945 -22.61957
#
# Velocity S-wave (km/s) = -3.23048 -3.18789 -3.20926
# Velocity P-wave (km/s) = 1.32136 1.03337 0.58230
#
# Compressibility (1/GPa) = 0.03741813
#
# Stress axis : x y z
#
# Youngs Moduli (GPa) = 97.39995 52.74359 117.44884
#
# Poissons Ratio (x) = -0.01999 0.15835
# Poissons Ratio (y) = -0.03692 -0.09487
# Poissons Ratio (z) = 0.13132 -0.04260
#
# Static dielectric constant tensor:
#      x y z
#    x 1.767160 0.000000 0.023220 
#    y 0.000000 1.859540 0.000000 
#    z 0.023220 0.000000 1.768020 
# 
# From -- ./inp_files/86814.got.cif
#   From: 2010.05.17/outbox.cif.g08.bks.cpg/sg10_44_cif.got.tgz:86814.got - 2010.06.03 11:33:40.
