data_PCOD9143168
_publ_section_title
;
Structure prediction by ZEFSAII (Michael W. Deem and Ramdas Pophale) SiO2 
 PCOD9143168
Probable space group: P 2/M
;
_chemical_formula_sum "Si O2"
_cell_formula_units_Z 32
_cell_length_a 15.438917
_cell_length_b 14.462775
_cell_length_c 9.494435
_cell_angle_alpha 90.000000
_cell_angle_beta 87.696484
_cell_angle_gamma 90.000000
_cell_volume 2118.295316
_symmetry_space_group_name_H-M "P 2/M"
_symmetry_group_IT_number 10
_symmetry_cell_setting 'monoclinic'
loop_
_space_group_symop_operation_xyz
x,y,z
-x,y,-z
-x,-y,-z
x,-y,z
loop_
_atom_site_type_symbol
_atom_site_label
_atom_site_fract_x
_atom_site_fract_y
_atom_site_fract_z
Si Si1 0.641556 0.397119 0.441332
Si Si2 0.325214 0.794955 0.668448
Si Si3 0.147618 0.111392 0.649760
Si Si4 0.821667 0.888183 0.674042
Si Si5 0.462641 0.603049 0.272918
Si Si6 0.371622 0.889054 0.373611
Si Si7 0.018496 0.112792 0.157333
Si Si8 0.507062 0.205011 0.158908
O O1 0.679676 0.500000 0.424806
O O2 0.693215 0.310120 0.379333
O O3 0.612325 0.382948 0.605210
O O4 0.551841 0.396648 0.357767
O O5 0.235760 0.846400 0.706004
O O6 0.369259 0.844280 0.529228
O O7 0.394939 0.796105 0.788863
O O8 0.146250 0.137337 0.484840
O O9 0.061096 0.139505 0.736605
O O10 0.153962 0.000000 0.656007
O O11 0.720957 0.861729 0.690228
O O12 0.889908 0.854873 0.785162
O O13 0.822694 0.000000 0.679470
O O14 0.453075 0.500000 0.211504
O O15 0.470535 0.689877 0.170447
O O16 0.448906 0.852705 0.272256
O O17 0.374791 0.000000 0.387487
O O18 0.020517 0.000000 0.156342
O O19 0.000000 0.143396 0.000000
O O20 0.500000 0.170762 0.000000
#
# Coordination Sequence:
#
# PCOD9143168 Si02
#       8
#     4   4   4   4   4   4   4   4
#     4   8  13  24  46  68  82 102 137 183 224 254
#     4  10  18  31  47  63  86 115 149 184 212 257
#     4   9  17  28  44  64  84 111 146 178 209 249
#     4   8  15  28  44  60  78 103 139 182 216 246
#     4   8  14  27  45  63  82 106 139 179 224 264
#     4  10  20  33  47  60  80 118 160 187 211 248
#     4   9  16  26  42  63  86 110 135 171 220 261
#     4  11  22  31  41  62  90 119 149 182 218 254
#
# _framework density 15.106487
#
# number of rings (size 3 to 8) (size 9 to 14) (size 15 to 20)
#    0.000    2.875    1.250    2.625    0.000    4.500 
#    0.000    1.250    0.000    0.000    0.000    0.000 
#    0.000    9.500    0.000    0.000    0.000    3.125 
#
# Total GULP energy -178147.890400 kJ/mol
# GULP energy per Si atom -5567.121575 kJ/mol
# Density = 1.507210 g / cm^3
# Si number density = 15.106487 Si / 1000 Ang^3
#
#
#
# Elastic Constant Matrix: (Units=GPa)
#
#
# Indices 1 2 3 4 5 6 
#
# 1 40.6474 1.5307 19.7947 0.0000 15.1106 0.0000
# 2 1.5307 42.7334 3.2703 0.0000 3.8652 0.0000
# 3 19.7947 3.2703 39.8928 0.0000 18.1282 0.0000
# 4 0.0000 0.0000 0.0000 10.2956 0.0000 -0.7659
# 5 15.1106 3.8652 18.1282 0.0000 16.6939 0.0000
# 6 0.0000 0.0000 0.0000 -0.7659 0.0000 4.9184
#
#
#
# Elastic Compliance Matrix: (Units=1/GPa)
#
#
# Indices 1 2 3 4 5 6 
#
# 1 0.037988 0.001647 -0.006290 0.000000 -0.027937 0.000000
# 2 0.001647 0.023997 0.000825 0.000000 -0.007943 0.000000
# 3 -0.006290 0.000825 0.050580 0.000000 -0.049423 0.000000
# 4 0.000000 0.000000 0.000000 0.098268 0.000000 0.015303
# 5 -0.027937 -0.007943 -0.049423 0.000000 0.140699 0.000000
# 6 0.000000 0.000000 0.000000 0.015303 0.000000 0.205702
#
#
# Mechanical properties :
#
#
# Convention : Reuss Voigt Hill
#
# Bulk Modulus (GPa) = 9.53012 19.16278 14.34645
# Shear Modulus (GPa) = 8.33550 12.96009 10.64780
#
# Velocity S-wave (km/s) = 2.35155 2.93220 2.65778
# Velocity P-wave (km/s) = 3.70073 4.91695 4.35154
#
# Compressibility (1/GPa) = 0.10493048
#
# Stress axis : x y z
#
# Youngs Moduli (GPa) = 26.32402 41.67152 19.77083
#
# Poissons Ratio (x) = -0.06865 0.12435
# Poissons Ratio (y) = -0.04337 -0.01631
# Poissons Ratio (z) = 0.16557 -0.03438
#
# Static dielectric constant tensor:
#      x y z
#    x 1.494650 0.000000 0.006680 
#    y 0.000000 1.515440 0.000000 
#    z 0.006680 0.000000 1.506860 
# 
# From -- ./inp_files/29095.got.cif
#   From: 2010.05.17/outbox.cif.g08.bks.cpg/sg10_15_cif.got.tgz:29095.got - 2010.06.03 11:33:40.
