data_PCOD9143739
_publ_section_title
;
Structure prediction by ZEFSAII (Michael W. Deem and Ramdas Pophale) SiO2 
 PCOD9143739
Probable space group: P 2/M
;
_chemical_formula_sum "Si O2"
_cell_formula_units_Z 26
_cell_length_a 12.185831
_cell_length_b 10.091182
_cell_length_c 14.940388
_cell_angle_alpha 90.000000
_cell_angle_beta 131.946094
_cell_angle_gamma 90.000000
_cell_volume 1366.469938
_symmetry_space_group_name_H-M "P 2/M"
_symmetry_group_IT_number 10
_symmetry_cell_setting 'monoclinic'
loop_
_space_group_symop_operation_xyz
x,y,z
-x,y,-z
-x,-y,-z
x,-y,z
loop_
_atom_site_type_symbol
_atom_site_label
_atom_site_fract_x
_atom_site_fract_y
_atom_site_fract_z
Si Si1 0.132924 0.349584 0.503302
Si Si2 0.364147 0.152117 0.357749
Si Si3 0.500000 0.209003 0.000000
Si Si4 0.627852 0.648087 0.235544
Si Si5 0.682912 0.348335 0.833146
Si Si6 0.935393 0.850533 0.690633
Si Si7 0.220939 0.147596 0.969639
O O1 0.173998 0.500000 0.496305
O O2 0.264953 0.286412 0.633662
O O3 0.085686 0.259243 0.395906
O O4 0.000000 0.358894 0.500000
O O5 0.500000 0.178967 0.500000
O O6 0.350041 0.261867 0.272931
O O7 0.209719 0.154033 0.326595
O O8 0.385832 0.000000 0.335178
O O9 0.398342 0.288200 0.874495
O O10 0.375352 0.146054 0.997361
O O11 0.688220 0.500000 0.253943
O O12 0.470585 0.640101 0.197186
O O13 0.735194 0.500000 0.844681
O O14 0.779008 0.259332 0.953718
O O15 0.083845 0.829516 0.828577
O O16 0.944375 0.000000 0.657073
O O17 0.203830 0.000000 0.000075
#
# Coordination Sequence:
#
# PCOD9143739 Si02
#       7
#     4   4   2   4   4   4   4
#     4  10  20  34  53  79 110 142 176 216 265 318
#     4  10  21  38  59  81 107 141 180 221 268 319
#     4  10  18  32  56  80 105 142 185 218 257 316
#     4   9  18  32  51  78 110 141 175 219 269 317
#     4  10  21  36  56  81 107 140 181 222 267 317
#     4  10  22  38  56  80 108 141 179 220 268 317
#     4  10  21  37  55  78 110 142 177 221 267 316
#
# _framework density 19.027128999999999
#
# number of rings (size 3 to 8) (size 9 to 14) (size 15 to 20)
#    0.000    2.154    0.000    2.769    0.000    3.077 
#    0.000    6.923    0.000    0.000    0.000    0.000 
#    0.000    0.000    0.000    0.000    0.000    0.000 
#
# Total GULP energy -144848.471179 kJ/mol
# GULP energy per Si atom -5571.095045 kJ/mol
# Density = 1.898382 g / cm^3
# Si number density = 19.027129 Si / 1000 Ang^3
#
#
#
# Elastic Constant Matrix: (Units=GPa)
#
#
# Indices 1 2 3 4 5 6 
#
# 1 29.7489 25.1272 16.8488 0.0000 -3.2140 0.0000
# 2 25.1272 148.7945 95.7812 0.0000 -27.8843 0.0000
# 3 16.8488 95.7812 136.9427 0.0000 -2.0092 0.0000
# 4 0.0000 0.0000 0.0000 9.3054 0.0000 18.2737
# 5 -3.2140 -27.8843 -2.0092 0.0000 33.1474 0.0000
# 6 0.0000 0.0000 0.0000 18.2737 0.0000 2.2561
#
#
#
# Elastic Compliance Matrix: (Units=1/GPa)
#
#
# Indices 1 2 3 4 5 6 
#
# 1 0.039331 -0.007117 0.000107 0.000000 -0.002167 0.000000
# 2 -0.007117 0.017781 -0.011361 0.000000 0.013579 0.000000
# 3 0.000107 -0.011361 0.015109 0.000000 -0.008631 0.000000
# 4 0.000000 0.000000 0.000000 -0.007209 0.000000 0.058395
# 5 -0.002167 0.013579 -0.008631 0.000000 0.040858 0.000000
# 6 0.000000 0.000000 0.000000 0.058395 0.000000 -0.029736
#
#
# Mechanical properties :
#
#
# Convention : Reuss Voigt Hill
#
# Bulk Modulus (GPa) = 28.18641 65.66673 46.92657
# Shear Modulus (GPa) = 40.09549 20.79037 30.44293
#
# Velocity S-wave (km/s) = 4.59549 3.30914 4.00431
# Velocity P-wave (km/s) = 6.55775 7.01339 6.78939
#
# Compressibility (1/GPa) = 0.03547809
#
# Stress axis : x y z
#
# Youngs Moduli (GPa) = 25.42513 56.24079 66.18541
#
# Poissons Ratio (x) = 0.40024 -0.00705
# Poissons Ratio (y) = 0.18094 0.75196
# Poissons Ratio (z) = -0.00271 0.63898
#
# Static dielectric constant tensor:
#      x y z
#    x 1.653620 0.000000 0.025340 
#    y 0.000000 1.698720 0.000000 
#    z 0.025340 0.000000 1.670060 
# 
# From -- ./inp_files/66897.got.cif
#   From: 2010.05.17/outbox.cif.g08.bks.cpg/sg10_34_cif.got.tgz:66897.got - 2010.06.03 11:33:40.
