data_PCOD9143461
_publ_section_title
;
Structure prediction by ZEFSAII (Michael W. Deem and Ramdas Pophale) SiO2 
 PCOD9143461
Probable space group: P 2/M
;
_chemical_formula_sum "Si O2"
_cell_formula_units_Z 28
_cell_length_a 13.527428
_cell_length_b 9.649248
_cell_length_c 10.654657
_cell_angle_alpha 90.000000
_cell_angle_beta 110.972791
_cell_angle_gamma 90.000000
_cell_volume 1298.610837
_symmetry_space_group_name_H-M "P 2/M"
_symmetry_group_IT_number 10
_symmetry_cell_setting 'monoclinic'
loop_
_space_group_symop_operation_xyz
x,y,z
-x,y,-z
-x,-y,-z
x,-y,z
loop_
_atom_site_type_symbol
_atom_site_label
_atom_site_fract_x
_atom_site_fract_y
_atom_site_fract_z
Si Si1 0.167740 0.275924 0.563166
Si Si2 0.358817 0.346081 0.488249
Si Si3 0.278923 0.333336 0.188103
Si Si4 0.859914 0.162871 0.048917
Si Si5 0.007546 0.660220 0.704942
Si Si6 0.683354 0.849864 0.183097
Si Si7 0.512080 0.665070 0.225051
O O1 0.262068 0.357437 0.541049
O O2 0.103782 0.346461 0.647567
O O3 0.233275 0.155862 0.662359
O O4 0.082884 0.258334 0.413682
O O5 0.389907 0.500000 0.460796
O O6 0.310989 0.281280 0.341475
O O7 0.451736 0.286687 0.617667
O O8 0.255869 0.500000 0.178183
O O9 0.387039 0.312369 0.157138
O O10 0.182318 0.245640 0.090432
O O11 0.951518 0.250984 0.159344
O O12 0.759502 0.168293 0.098898
O O13 0.885463 0.000000 0.041103
O O14 0.976054 0.500000 0.718402
O O15 0.591542 0.738780 0.165498
O O16 0.631954 0.000000 0.154102
O O17 0.529595 0.500000 0.228163
#
# Coordination Sequence:
#
# PCOD9143461 Si02
#       7
#     4   4   4   4   4   4   4
#     4   9  17  30  53  82 107 127 157 205 257 299
#     4   9  16  30  52  77 104 130 160 203 252 299
#     4  10  20  34  52  73  99 135 174 208 245 294
#     4  10  22  37  50  69 101 139 173 206 247 296
#     4  10  18  31  55  83 105 127 161 206 255 303
#     4   9  19  34  52  75 103 134 167 204 250 303
#     4   9  18  32  53  79 102 126 163 212 258 296
#
# _framework density 21.561502000000001
#
# number of rings (size 3 to 8) (size 9 to 14) (size 15 to 20)
#    0.000    2.571    0.000    2.571    0.000    8.000 
#    0.000    9.286    0.000    7.714    0.000    0.000 
#    0.000    0.000    0.000    0.000    0.000    0.000 
#
# Total GULP energy -155982.449001 kJ/mol
# GULP energy per Si atom -5570.801750 kJ/mol
# Density = 2.151243 g / cm^3
# Si number density = 21.561502 Si / 1000 Ang^3
#
#
#
# Elastic Constant Matrix: (Units=GPa)
#
#
# Indices 1 2 3 4 5 6 
#
# 1 59.5270 14.1539 8.5384 0.0000 6.0143 0.0000
# 2 14.1539 56.9407 29.3479 0.0000 5.0826 0.0000
# 3 8.5384 29.3479 101.5605 0.0000 24.8550 0.0000
# 4 0.0000 0.0000 0.0000 5.1999 0.0000 1.6653
# 5 6.0143 5.0826 24.8550 0.0000 22.3867 0.0000
# 6 0.0000 0.0000 0.0000 1.6653 0.0000 -3.5099
#
#
#
# Elastic Compliance Matrix: (Units=1/GPa)
#
#
# Indices 1 2 3 4 5 6 
#
# 1 0.018255 -0.004618 0.001021 0.000000 -0.004989 0.000000
# 2 -0.004618 0.021920 -0.006909 0.000000 0.003935 0.000000
# 3 0.001021 -0.006909 0.015708 0.000000 -0.016146 0.000000
# 4 0.000000 0.000000 0.000000 0.166943 0.000000 0.079210
# 5 -0.004989 0.003935 -0.016146 0.000000 0.063043 0.000000
# 6 0.000000 0.000000 0.000000 0.079210 0.000000 -0.247327
#
#
# Mechanical properties :
#
#
# Convention : Reuss Voigt Hill
#
# Bulk Modulus (GPa) = 28.67775 35.78983 32.23379
# Shear Modulus (GPa) = 70.24566 15.88121 43.06344
#
# Velocity S-wave (km/s) = 5.71401 2.71690 4.47389
# Velocity P-wave (km/s) = 7.54073 5.14558 6.45521
#
# Compressibility (1/GPa) = 0.03487024
#
# Stress axis : x y z
#
# Youngs Moduli (GPa) = 54.77989 45.62077 63.66013
#
# Poissons Ratio (x) = 0.21070 -0.06499
# Poissons Ratio (y) = 0.25300 0.43982
# Poissons Ratio (z) = -0.05592 0.31519
#
# Static dielectric constant tensor:
#      x y z
#    x 1.826880 0.000000 -0.004840 
#    y 0.000000 1.746010 0.000000 
#    z -0.004840 0.000000 1.847620 
# 
# From -- ./inp_files/50079.got.cif
#   From: 2010.05.17/outbox.cif.g08.bks.cpg/sg10_26_cif.got.tgz:50079.got - 2010.06.03 11:33:40.
