data_PCOD9143415
_publ_section_title
;
Structure prediction by ZEFSAII (Michael W. Deem and Ramdas Pophale) SiO2 
 PCOD9143415
Probable space group: P 2/M
;
_chemical_formula_sum "Si O2"
_cell_formula_units_Z 30
_cell_length_a 9.457395
_cell_length_b 33.239122
_cell_length_c 5.156217
_cell_angle_alpha 90.000000
_cell_angle_beta 74.912794
_cell_angle_gamma 90.000000
_cell_volume 1565.014551
_symmetry_space_group_name_H-M "P 2/M"
_symmetry_group_IT_number 10
_symmetry_cell_setting 'monoclinic'
loop_
_space_group_symop_operation_xyz
x,y,z
-x,y,-z
-x,-y,-z
x,-y,z
loop_
_atom_site_type_symbol
_atom_site_label
_atom_site_fract_x
_atom_site_fract_y
_atom_site_fract_z
Si Si1 0.659705 0.870156 0.566857
Si Si2 0.500000 0.182542 0.000000
Si Si3 0.841820 0.205080 0.453529
Si Si4 0.288617 0.242190 0.959427
Si Si5 0.822628 0.454421 0.581444
Si Si6 0.604275 0.044293 0.700648
Si Si7 0.400770 0.668388 0.805524
Si Si8 0.823291 0.596966 0.081712
O O1 0.500000 0.869904 0.500000
O O2 0.624723 0.847909 0.852424
O O3 0.776100 0.838613 0.402437
O O4 0.701135 0.916258 0.599650
O O5 0.572660 0.213013 0.168956
O O6 0.831001 0.231788 0.200344
O O7 0.000000 0.198976 0.500000
O O8 0.756099 0.228742 0.727633
O O9 0.338230 0.287808 0.910783
O O10 0.767114 0.500000 0.637310
O O11 0.784272 0.434068 0.328589
O O12 0.000000 0.456784 0.500000
O O13 0.782137 0.424747 0.833241
O O14 0.500000 0.041675 0.500000
O O15 0.674147 0.000000 0.701962
O O16 0.500000 0.051677 0.000000
O O17 0.500000 0.670933 0.500000
O O18 0.267144 0.637553 0.834953
O O19 0.500000 0.654657 0.000000
O O20 0.000000 0.603807 0.000000
#
# Coordination Sequence:
#
# PCOD9143415 Si02
#       8
#     4   2   4   4   4   4   4   4
#     4  10  18  31  54  77 106 141 183 227 278 330
#     4  10  18  32  55  82 102 132 191 236 266 326
#     4  11  24  38  56  83 115 144 183 237 291 339
#     4  11  23  39  60  80 110 150 194 233 278 334
#     4   9  17  33  60  90 116 148 193 238 279 331
#     4   9  17  28  44  73 106 134 173 224 278 324
#     4  12  25  41  62  85 115 156 196 235 278 342
#     4  10  21  37  59  88 119 150 188 238 287 333
#
# _framework density 19.169150999999999
#
# number of rings (size 3 to 8) (size 9 to 14) (size 15 to 20)
#    0.000    1.733    2.667    2.400    1.867    2.667 
#    0.000    1.333    0.000    8.400    0.000    0.000 
#    0.000    9.333    0.000    0.000    0.000    1.333 
#
# Total GULP energy -167116.824511 kJ/mol
# GULP energy per Si atom -5570.560817 kJ/mol
# Density = 1.912552 g / cm^3
# Si number density = 19.169151 Si / 1000 Ang^3
#
#
#
# Elastic Constant Matrix: (Units=GPa)
#
#
# Indices 1 2 3 4 5 6 
#
# 1 59.0399 31.0242 7.7493 0.0000 6.8298 0.0000
# 2 31.0242 151.1942 15.1166 0.0000 -15.6244 0.0000
# 3 7.7493 15.1166 89.9288 0.0000 1.4402 0.0000
# 4 0.0000 0.0000 0.0000 16.9501 0.0000 -0.3923
# 5 6.8298 -15.6244 1.4402 0.0000 20.8451 0.0000
# 6 0.0000 0.0000 0.0000 -0.3923 0.0000 12.4445
#
#
#
# Elastic Compliance Matrix: (Units=1/GPa)
#
#
# Indices 1 2 3 4 5 6 
#
# 1 0.021129 -0.005389 -0.000740 0.000000 -0.010911 0.000000
# 2 -0.005389 0.008697 -0.001131 0.000000 0.008363 0.000000
# 3 -0.000740 -0.001131 0.011396 0.000000 -0.001393 0.000000
# 4 0.000000 0.000000 0.000000 0.059040 0.000000 0.001861
# 5 -0.010911 0.008363 -0.001393 0.000000 0.057912 0.000000
# 6 0.000000 0.000000 0.000000 0.001861 0.000000 0.080415
#
#
# Mechanical properties :
#
#
# Convention : Reuss Voigt Hill
#
# Bulk Modulus (GPa) = 37.45189 45.32700 41.38944
# Shear Modulus (GPa) = 19.08316 26.46615 22.77466
#
# Velocity S-wave (km/s) = 3.15860 3.71976 3.45061
# Velocity P-wave (km/s) = 5.73431 6.49199 6.12488
#
# Compressibility (1/GPa) = 0.02670092
#
# Stress axis : x y z
#
# Youngs Moduli (GPa) = 47.32854 114.98000 87.74863
#
# Poissons Ratio (x) = 0.61964 0.06494
# Poissons Ratio (y) = 0.25506 0.09929
# Poissons Ratio (z) = 0.03503 0.13010
#
# Static dielectric constant tensor:
#      x y z
#    x 1.693360 0.000000 -0.007540 
#    y 0.000000 1.676780 0.000000 
#    z -0.007540 0.000000 1.709820 
# 
# From -- ./inp_files/5469.got.cif
#   From: 2010.05.17/outbox.cif.g08.bks.cpg/sg10_3_cif.got.tgz:5469.got - 2010.06.03 11:33:40.
