data_PCOD9143813
_publ_section_title
;
Structure prediction by ZEFSAII (Michael W. Deem and Ramdas Pophale) SiO2 
 PCOD9143813
Probable space group: P 2/M
;
_chemical_formula_sum "Si O2"
_cell_formula_units_Z 32
_cell_length_a 19.452213
_cell_length_b 7.631052
_cell_length_c 12.937665
_cell_angle_alpha 90.000000
_cell_angle_beta 41.354110
_cell_angle_gamma 90.000000
_cell_volume 1268.880666
_symmetry_space_group_name_H-M "P 2/M"
_symmetry_group_IT_number 10
_symmetry_cell_setting 'monoclinic'
loop_
_space_group_symop_operation_xyz
x,y,z
-x,y,-z
-x,-y,-z
x,-y,z
loop_
_atom_site_type_symbol
_atom_site_label
_atom_site_fract_x
_atom_site_fract_y
_atom_site_fract_z
Si Si1 0.987212 0.285319 0.346796
Si Si2 0.158952 0.706168 0.300287
Si Si3 0.745522 0.698050 0.081076
Si Si4 0.817501 0.710486 0.386633
Si Si5 0.886411 0.285863 0.090451
Si Si6 0.404236 0.790447 0.328195
Si Si7 0.376167 0.199695 0.983169
Si Si8 0.386332 0.203317 0.580741
O O1 0.990805 0.500000 0.335269
O O2 0.906838 0.228706 0.528463
O O3 0.925000 0.226966 0.316017
O O4 0.100355 0.228335 0.261873
O O5 0.140765 0.500000 0.323787
O O6 0.282176 0.730534 0.159057
O O7 0.764373 0.500000 0.020598
O O8 0.849318 0.773999 0.018805
O O9 0.675520 0.790125 0.073460
O O10 0.678689 0.691875 0.261686
O O11 0.820076 0.500000 0.382071
O O12 0.815059 0.767258 0.269444
O O13 0.715448 0.760139 0.568024
O O14 0.887082 0.500000 0.082452
O O15 0.000000 0.232499 0.000000
O O16 0.507312 0.721286 0.153791
O O17 0.401137 0.721787 0.449240
O O18 0.419520 0.000000 0.317085
O O19 0.388725 0.000000 0.001550
O O20 0.500000 0.196706 0.500000
O O21 0.350379 0.000000 0.617893
#
# Coordination Sequence:
#
# PCOD9143813 Si02
#       8
#     4   4   4   4   4   4   4   4
#     4   8  17  35  62  88 112 138 171 221 283 333
#     4   9  18  37  62  88 109 135 177 225 274 331
#     4  11  21  32  51  79 105 139 183 229 266 312
#     4  10  19  34  57  82 109 144 183 223 267 322
#     4   9  19  32  48  76 112 143 175 217 266 318
#     4  10  21  36  52  72 108 151 186 222 270 323
#     4  11  23  38  54  78 111 149 184 225 279 326
#     4  10  18  33  51  67  98 145 181 215 263 313
#
# _framework density 25.219076999999999
#
# number of rings (size 3 to 8) (size 9 to 14) (size 15 to 20)
#    0.000    2.250    2.500    1.500    1.750    1.250 
#    0.000    3.125    0.000    5.625    0.000    0.000 
#    0.000    0.000    0.000    0.000    0.000    0.000 
#
# Total GULP energy -178534.995444 kJ/mol
# GULP energy per Si atom -5579.218608 kJ/mol
# Density = 2.516168 g / cm^3
# Si number density = 25.219077 Si / 1000 Ang^3
#
#
#
# Elastic Constant Matrix: (Units=GPa)
#
#
# Indices 1 2 3 4 5 6 
#
# 1 38.5287 -0.9687 4.3076 0.0000 -15.3023 0.0000
# 2 -0.9687 43.4968 -2.1839 0.0000 -1.7229 0.0000
# 3 4.3076 -2.1839 111.5941 0.0000 -32.4550 0.0000
# 4 0.0000 0.0000 0.0000 25.1012 0.0000 -5.4646
# 5 -15.3023 -1.7229 -32.4550 0.0000 48.5729 0.0000
# 6 0.0000 0.0000 0.0000 -5.4646 0.0000 -28.0791
#
#
#
# Elastic Compliance Matrix: (Units=1/GPa)
#
#
# Indices 1 2 3 4 5 6 
#
# 1 0.030076 0.001202 0.002024 0.000000 0.010870 0.000000
# 2 0.001202 0.023136 0.000937 0.000000 0.001826 0.000000
# 3 0.002024 0.000937 0.011290 0.000000 0.008215 0.000000
# 4 0.000000 0.000000 0.000000 0.038219 0.000000 -0.007438
# 5 0.010870 0.001826 0.008215 0.000000 0.029566 0.000000
# 6 0.000000 0.000000 0.000000 -0.007438 0.000000 -0.034166
#
#
# Mechanical properties :
#
#
# Convention : Reuss Voigt Hill
#
# Bulk Modulus (GPa) = 13.73080 21.76994 17.75037
# Shear Modulus (GPa) = 43.83221 21.94999 32.89110
#
# Velocity S-wave (km/s) = 4.17352 2.95341 3.61531
# Velocity P-wave (km/s) = 5.35545 4.50347 4.94783
#
# Compressibility (1/GPa) = 0.07282898
#
# Stress axis : x y z
#
# Youngs Moduli (GPa) = 33.24927 43.22205 88.57112
#
# Poissons Ratio (x) = -0.05195 -0.17926
# Poissons Ratio (y) = -0.03996 -0.08302
# Poissons Ratio (z) = -0.06729 -0.04051
#
# Static dielectric constant tensor:
#      x y z
#    x 2.032560 0.000000 -0.038890 
#    y 0.000000 1.941670 0.000000 
#    z -0.038890 0.000000 2.106550 
# 
# From -- ./inp_files/69996.got.cif
#   From: 2010.05.17/outbox.cif.g08.bks.cpg/sg10_35_cif.got.tgz:69996.got - 2010.06.03 11:33:40.
