data_PCOD9143245
_publ_section_title
;
Structure prediction by ZEFSAII (Michael W. Deem and Ramdas Pophale) SiO2 
 PCOD9143245
Probable space group: P 2/M
;
_chemical_formula_sum "Si O2"
_cell_formula_units_Z 32
_cell_length_a 14.830382
_cell_length_b 8.096089
_cell_length_c 14.942103
_cell_angle_alpha 90.000000
_cell_angle_beta 73.032782
_cell_angle_gamma 90.000000
_cell_volume 1715.977322
_symmetry_space_group_name_H-M "P 2/M"
_symmetry_group_IT_number 10
_symmetry_cell_setting 'monoclinic'
loop_
_space_group_symop_operation_xyz
x,y,z
-x,y,-z
-x,-y,-z
x,-y,z
loop_
_atom_site_type_symbol
_atom_site_label
_atom_site_fract_x
_atom_site_fract_y
_atom_site_fract_z
Si Si1 0.208566 0.299656 0.298444
Si Si2 0.944476 0.301144 0.802645
Si Si3 0.104737 0.301569 0.498463
Si Si4 0.264783 0.808725 0.812355
Si Si5 0.889552 0.693678 0.008440
Si Si6 0.410292 0.697148 0.913934
Si Si7 0.146247 0.194849 0.687369
Si Si8 0.375122 0.702501 0.121759
O O1 0.217797 0.500000 0.299011
O O2 0.115529 0.263239 0.267343
O O3 0.183713 0.240630 0.405193
O O4 0.297771 0.238621 0.215510
O O5 0.956262 0.500000 0.805397
O O6 0.885869 0.250489 0.906860
O O7 0.047367 0.225255 0.766610
O O8 0.100438 0.500000 0.490974
O O9 0.132208 0.264677 0.592284
O O10 0.000000 0.239883 0.500000
O O11 0.351869 0.737123 0.842489
O O12 0.228625 0.735644 0.728158
O O13 0.285242 0.000000 0.791468
O O14 0.176265 0.790263 0.905247
O O15 0.861181 0.500000 0.022249
O O16 0.000000 0.703732 0.000000
O O17 0.414158 0.500000 0.920226
O O18 0.518883 0.753832 0.882172
O O19 0.362571 0.755036 0.021403
O O20 0.160918 0.000000 0.674450
O O21 0.370823 0.500000 0.123442
#
# Coordination Sequence:
#
# PCOD9143245 Si02
#       8
#     4   4   4   4   4   4   4   4
#     4   9  16  28  50  76 102 127 157 205 262 308
#     4  10  18  31  50  73 101 132 167 205 248 302
#     4  10  19  33  53  75  98 130 172 214 258 303
#     4  11  23  35  48  69 104 145 175 207 254 303
#     4  10  19  30  49  73  97 131 172 210 245 293
#     4   9  17  32  56  81 104 131 168 208 251 308
#     4  11  23  35  47  67 100 140 175 209 250 297
#     4   8  15  30  54  83 107 127 158 210 265 306
#
# _framework density 18.648264999999999
#
# number of rings (size 3 to 8) (size 9 to 14) (size 15 to 20)
#    0.000    2.250    2.500    2.250    0.000    4.500 
#    0.000    1.250    0.000    3.000    0.000    5.250 
#    0.000    0.000    0.000    0.000    0.000    0.000 
#
# Total GULP energy -178414.818075 kJ/mol
# GULP energy per Si atom -5575.463065 kJ/mol
# Density = 1.860582 g / cm^3
# Si number density = 18.648265 Si / 1000 Ang^3
#
#
#
# Elastic Constant Matrix: (Units=GPa)
#
#
# Indices 1 2 3 4 5 6 
#
# 1 84.8831 7.8719 54.9896 0.0000 7.2484 0.0000
# 2 7.8719 5.3917 8.0085 0.0000 -1.6222 0.0000
# 3 54.9896 8.0085 121.3499 0.0000 14.3946 0.0000
# 4 0.0000 0.0000 0.0000 0.6105 0.0000 -2.8215
# 5 7.2484 -1.6222 14.3946 0.0000 26.8824 0.0000
# 6 0.0000 0.0000 0.0000 -2.8215 0.0000 62.3562
#
#
#
# Elastic Compliance Matrix: (Units=1/GPa)
#
#
# Indices 1 2 3 4 5 6 
#
# 1 0.017891 -0.016790 -0.006735 0.000000 -0.002231 0.000000
# 2 -0.016790 0.233130 -0.010660 0.000000 0.024303 0.000000
# 3 -0.006735 -0.010660 0.012661 0.000000 -0.005607 0.000000
# 4 0.000000 0.000000 0.000000 2.071088 0.000000 0.093714
# 5 -0.002231 0.024303 -0.005607 0.000000 0.042269 0.000000
# 6 0.000000 0.000000 0.000000 0.093714 0.000000 0.020277
#
#
# Mechanical properties :
#
#
# Convention : Reuss Voigt Hill
#
# Bulk Modulus (GPa) = 5.11997 39.26275 22.19136
# Shear Modulus (GPa) = 1.97567 27.35348 14.66457
#
# Velocity S-wave (km/s) = 1.03041 3.83405 2.80728
# Velocity P-wave (km/s) = 2.04136 6.37966 4.73641
#
# Compressibility (1/GPa) = 0.19531376
#
# Stress axis : x y z
#
# Youngs Moduli (GPa) = 55.89259 4.28945 78.98190
#
# Poissons Ratio (x) = 0.07202 0.53193
# Poissons Ratio (y) = 0.93841 0.84196
# Poissons Ratio (z) = 0.37643 0.04573
#
# Static dielectric constant tensor:
#      x y z
#    x 1.654970 0.000000 0.024010 
#    y 0.000000 1.669060 0.000000 
#    z 0.024010 0.000000 1.676970 
# 
# From -- ./inp_files/65981.got.cif
#   From: 2010.05.17/outbox.cif.g08.bks.cpg/sg10_33_cif.got.tgz:65981.got - 2010.06.03 11:33:40.
