data_PCOD9143940
_publ_section_title
;
Structure prediction by ZEFSAII (Michael W. Deem and Ramdas Pophale) SiO2 
 PCOD9143940
Probable space group: P 2/M
;
_chemical_formula_sum "Si O2"
_cell_formula_units_Z 32
_cell_length_a 29.300982
_cell_length_b 7.569987
_cell_length_c 12.182792
_cell_angle_alpha 90.000000
_cell_angle_beta 146.896780
_cell_angle_gamma 90.000000
_cell_volume 1475.826530
_symmetry_space_group_name_H-M "P 2/M"
_symmetry_group_IT_number 10
_symmetry_cell_setting 'monoclinic'
loop_
_space_group_symop_operation_xyz
x,y,z
-x,y,-z
-x,-y,-z
x,-y,z
loop_
_atom_site_type_symbol
_atom_site_label
_atom_site_fract_x
_atom_site_fract_y
_atom_site_fract_z
Si Si1 0.501051 0.213377 0.127570
Si Si2 0.658158 0.207156 0.059364
Si Si3 0.158981 0.217067 0.594157
Si Si4 0.845879 0.703618 0.936991
Si Si5 0.009900 0.795586 0.140614
Si Si6 0.664439 0.289166 0.598472
Si Si7 0.097585 0.786325 0.707513
Si Si8 0.402924 0.286040 0.304505
O O1 0.586150 0.259207 0.361779
O O2 0.497031 0.000000 0.118326
O O3 0.500000 0.275396 0.000000
O O4 0.420455 0.281820 0.032162
O O5 0.750887 0.278615 0.266299
O O6 0.661694 0.000000 0.094195
O O7 0.639398 0.224202 0.892423
O O8 0.143799 0.270495 0.689656
O O9 0.082511 0.279237 0.364620
O O10 0.158405 0.000000 0.594731
O O11 0.847091 0.500000 0.903590
O O12 0.753070 0.780107 0.733543
O O13 0.922329 0.792015 0.027989
O O14 0.864088 0.713186 0.103711
O O15 0.034661 0.000000 0.173674
O O16 0.000000 0.714845 0.000000
O O17 0.675640 0.500000 0.632179
O O18 0.641331 0.221997 0.673577
O O19 0.000000 0.737890 0.500000
O O20 0.101301 0.000000 0.722637
O O21 0.500000 0.230639 0.500000
O O22 0.401699 0.500000 0.302021
#
# Coordination Sequence:
#
# PCOD9143940 Si02
#       8
#     4   4   4   4   4   4   4   4
#     4  10  22  38  56  81 111 143 184 236 280 320
#     4  10  20  34  55  81 110 141 177 225 280 331
#     4   9  18  34  55  82 111 139 177 228 278 327
#     4  11  23  37  56  84 118 147 182 232 281 331
#     4  10  21  39  62  83 107 148 195 231 272 330
#     4  10  22  39  57  81 113 151 186 223 275 336
#     4  10  18  33  58  82 111 146 183 225 275 339
#     4  10  19  34  57  81 110 144 181 225 272 328
#
# _framework density 21.682763999999999
#
# number of rings (size 3 to 8) (size 9 to 14) (size 15 to 20)
#    0.000    2.000    2.500    1.125    0.000    3.500 
#    0.000    3.125    0.000    0.000    0.000    0.000 
#    0.000    0.000    0.000    0.000    0.000    0.000 
#
# Total GULP energy -178808.748246 kJ/mol
# GULP energy per Si atom -5587.773383 kJ/mol
# Density = 2.163341 g / cm^3
# Si number density = 21.682764 Si / 1000 Ang^3
#
#
#
# Elastic Constant Matrix: (Units=GPa)
#
#
# Indices 1 2 3 4 5 6 
#
# 1 121.2952 -9.3071 116.7144 0.0000 -0.5873 0.0000
# 2 -9.3071 46.1749 -8.7410 0.0000 3.7769 0.0000
# 3 116.7144 -8.7410 115.2632 0.0000 29.8978 0.0000
# 4 0.0000 0.0000 0.0000 1.9172 0.0000 26.5151
# 5 -0.5873 3.7769 29.8978 0.0000 41.5871 0.0000
# 6 0.0000 0.0000 0.0000 26.5151 0.0000 -56.0571
#
#
#
# Elastic Compliance Matrix: (Units=1/GPa)
#
#
# Indices 1 2 3 4 5 6 
#
# 1 -0.039038 0.004443 0.049309 0.000000 -0.036404 0.000000
# 2 0.004443 0.022000 -0.002863 0.000000 0.000123 0.000000
# 3 0.049309 -0.002863 -0.051282 0.000000 0.037824 0.000000
# 4 0.000000 0.000000 0.000000 0.069161 0.000000 0.032713
# 5 -0.036404 0.000123 0.037824 0.000000 -0.003672 0.000000
# 6 0.000000 0.000000 0.000000 0.032713 0.000000 -0.002365
#
#
# Mechanical properties :
#
#
# Convention : Reuss Voigt Hill
#
# Bulk Modulus (GPa) = 29.88679 53.34067 41.61373
# Shear Modulus (GPa) = -52.18043 9.76059 -21.20992
#
# Velocity S-wave (km/s) = -4.91097 2.12399 -3.13100
# Velocity P-wave (km/s) = 4.28290 5.53796 2.48251
#
# Compressibility (1/GPa) = 0.03345959
#
# Stress axis : x y z
#
# Youngs Moduli (GPa) = -25.61621 45.45369 -19.49996
#
# Poissons Ratio (x) = -0.20197 0.96152
# Poissons Ratio (y) = 0.11382 -0.05583
# Poissons Ratio (z) = 1.26311 0.13013
#
# Static dielectric constant tensor:
#      x y z
#    x 1.736730 0.000000 0.082220 
#    y 0.000000 1.815260 0.000000 
#    z 0.082220 0.000000 1.655640 
# 
# From -- ./inp_files/58333.got.cif
#   From: 2010.05.17/outbox.cif.g08.bks.cpg/sg10_30_cif.got.tgz:58333.got - 2010.06.03 11:33:40.
