data_PCOD9143671
_publ_section_title
;
Structure prediction by ZEFSAII (Michael W. Deem and Ramdas Pophale) SiO2 
 PCOD9143671
Probable space group: P 2/M
;
_chemical_formula_sum "Si O2"
_cell_formula_units_Z 28
_cell_length_a 14.584845
_cell_length_b 8.787358
_cell_length_c 10.964834
_cell_angle_alpha 90.000000
_cell_angle_beta 99.585324
_cell_angle_gamma 90.000000
_cell_volume 1385.658369
_symmetry_space_group_name_H-M "P 2/M"
_symmetry_group_IT_number 10
_symmetry_cell_setting 'monoclinic'
loop_
_space_group_symop_operation_xyz
x,y,z
-x,y,-z
-x,-y,-z
x,-y,z
loop_
_atom_site_type_symbol
_atom_site_label
_atom_site_fract_x
_atom_site_fract_y
_atom_site_fract_z
Si Si1 0.063626 0.819918 0.895289
Si Si2 0.291086 0.685486 0.198338
Si Si3 0.390682 0.317124 0.468545
Si Si4 0.269006 0.681883 0.927379
Si Si5 0.284371 0.820586 0.677086
Si Si6 0.899476 0.324490 0.739354
Si Si7 0.893960 0.675710 0.460991
O O1 0.160910 0.732867 0.912302
O O2 0.993726 0.768865 0.772896
O O3 0.081564 0.000000 0.896413
O O4 0.000000 0.784197 0.000000
O O5 0.289978 0.500000 0.200989
O O6 0.351073 0.735332 0.328082
O O7 0.184652 0.736056 0.197639
O O8 0.316509 0.729944 0.066145
O O9 0.500000 0.284535 0.500000
O O10 0.377603 0.500000 0.471925
O O11 0.339763 0.246651 0.574277
O O12 0.272496 0.500000 0.919342
O O13 0.311235 0.751632 0.813936
O O14 0.176622 0.774259 0.631560
O O15 0.294053 0.000000 0.681677
O O16 0.920372 0.500000 0.777038
O O17 0.860153 0.325821 0.593681
O O18 0.895047 0.500000 0.415944
O O19 0.000000 0.726595 0.500000
#
# Coordination Sequence:
#
# PCOD9143671 Si02
#       7
#     4   4   4   4   4   4   4
#     4  11  22  33  48  79 124 164 207 252 300 360
#     4   9  18  35  61  91 116 148 199 252 297 354
#     4  10  21  43  74 100 121 151 198 255 313 374
#     4  11  22  38  60  83 119 167 212 252 298 353
#     4  12  25  40  60  90 129 163 201 253 310 371
#     4  10  18  32  54  79 113 154 206 253 289 349
#     4  10  20  35  57  84 117 160 207 252 300 357
#
# _framework density 20.207001999999999
#
# number of rings (size 3 to 8) (size 9 to 14) (size 15 to 20)
#    0.000    1.571    2.857    3.000    0.000    2.857 
#    0.000    2.143    0.000    4.286    0.000    0.000 
#    0.000    0.000    0.000    0.000    0.000    0.000 
#
# Total GULP energy -156359.452306 kJ/mol
# GULP energy per Si atom -5584.266154 kJ/mol
# Density = 2.016101 g / cm^3
# Si number density = 20.207002 Si / 1000 Ang^3
#
#
#
# Elastic Constant Matrix: (Units=GPa)
#
#
# Indices 1 2 3 4 5 6 
#
# 1 73.4343 37.2461 64.1707 0.0000 -4.6083 0.0000
# 2 37.2461 45.2596 39.6054 0.0000 -4.4477 0.0000
# 3 64.1707 39.6054 171.7643 0.0000 -13.5857 0.0000
# 4 0.0000 0.0000 0.0000 5.8074 0.0000 -6.8483
# 5 -4.6083 -4.4477 -13.5857 0.0000 21.0966 0.0000
# 6 0.0000 0.0000 0.0000 -6.8483 0.0000 -4.9479
#
#
#
# Elastic Compliance Matrix: (Units=1/GPa)
#
#
# Indices 1 2 3 4 5 6 
#
# 1 0.028227 -0.017606 -0.006629 0.000000 -0.001815 0.000000
# 2 -0.017606 0.038728 -0.002119 0.000000 0.002955 0.000000
# 3 -0.006629 -0.002119 0.009101 0.000000 0.003966 0.000000
# 4 0.000000 0.000000 0.000000 0.065420 0.000000 -0.090546
# 5 -0.001815 0.002955 0.003966 0.000000 0.050181 0.000000
# 6 0.000000 0.000000 0.000000 -0.090546 0.000000 -0.076784
#
#
# Mechanical properties :
#
#
# Convention : Reuss Voigt Hill
#
# Bulk Modulus (GPa) = 42.83161 63.61137 53.22149
# Shear Modulus (GPa) = 28.51220 14.35363 21.43291
#
# Velocity S-wave (km/s) = 3.76041 2.66809 3.26032
# Velocity P-wave (km/s) = 6.33219 6.40623 6.36932
#
# Compressibility (1/GPa) = 0.02334724
#
# Stress axis : x y z
#
# Youngs Moduli (GPa) = 35.42744 25.82116 109.88021
#
# Poissons Ratio (x) = 0.45461 0.72843
# Poissons Ratio (y) = 0.62374 0.23279
# Poissons Ratio (z) = 0.23486 0.05470
#
# Static dielectric constant tensor:
#      x y z
#    x 1.711290 0.000000 -0.046110 
#    y 0.000000 1.676380 0.000000 
#    z -0.046110 0.000000 1.803910 
# 
# From -- ./inp_files/49377.got.cif
#   From: 2010.05.17/outbox.cif.g08.bks.cpg/sg10_25_cif.got.tgz:49377.got - 2010.06.03 11:33:40.
