data_PCOD9143908
_publ_section_title
;
Structure prediction by ZEFSAII (Michael W. Deem and Ramdas Pophale) SiO2 
 PCOD9143908
Probable space group: P 2/M
;
_chemical_formula_sum "Si O2"
_cell_formula_units_Z 28
_cell_length_a 15.522277
_cell_length_b 8.005133
_cell_length_c 11.966388
_cell_angle_alpha 90.000000
_cell_angle_beta 118.027634
_cell_angle_gamma 90.000000
_cell_volume 1312.533965
_symmetry_space_group_name_H-M "P 2/M"
_symmetry_group_IT_number 10
_symmetry_cell_setting 'monoclinic'
loop_
_space_group_symop_operation_xyz
x,y,z
-x,y,-z
-x,-y,-z
x,-y,z
loop_
_atom_site_type_symbol
_atom_site_label
_atom_site_fract_x
_atom_site_fract_y
_atom_site_fract_z
Si Si1 0.303110 0.703106 0.243730
Si Si2 0.794126 0.297540 0.037067
Si Si3 0.388706 0.692998 0.930607
Si Si4 0.190875 0.697114 0.386836
Si Si5 0.994975 0.803092 0.867297
Si Si6 0.308792 0.186605 0.654805
Si Si7 0.514182 0.696936 0.375749
O O1 0.307776 0.500000 0.253488
O O2 0.269198 0.764155 0.343525
O O3 0.409470 0.754974 0.267424
O O4 0.225096 0.747659 0.103590
O O5 0.798140 0.500000 0.049791
O O6 0.698868 0.236522 0.046190
O O7 0.900425 0.227286 0.127234
O O8 0.400519 0.500000 0.975026
O O9 0.342478 0.700583 0.778706
O O10 0.500000 0.764365 0.000000
O O11 0.207499 0.500000 0.408883
O O12 0.088459 0.725176 0.262162
O O13 0.213961 0.770961 0.522526
O O14 0.974715 0.000000 0.861985
O O15 0.000000 0.737807 0.000000
O O16 0.398183 0.202845 0.622819
O O17 0.300375 0.000000 0.693963
O O18 0.500000 0.709326 0.500000
O O19 0.530408 0.500000 0.360422
#
# Coordination Sequence:
#
# PCOD9143908 Si02
#       7
#     4   4   4   4   4   4   4
#     4   9  17  31  56  88 117 149 196 253 303 348
#     4  10  20  37  63  92 118 156 211 260 303 357
#     4  10  22  43  70  93 119 160 213 263 301 356
#     4  11  21  38  63  88 118 159 208 255 298 358
#     4  11  23  38  58  91 132 168 198 245 314 377
#     4  12  25  39  57  87 129 166 200 250 315 377
#     4  10  18  33  56  83 115 155 203 249 297 357
#
# _framework density 21.33278
#
# number of rings (size 3 to 8) (size 9 to 14) (size 15 to 20)
#    0.000    1.571    2.857    3.000    0.000    4.000 
#    0.000    2.857    0.000    4.286    0.000    0.000 
#    0.000    0.000    0.000    0.000    0.000    0.000 
#
# Total GULP energy -156216.515719 kJ/mol
# GULP energy per Si atom -5579.161276 kJ/mol
# Density = 2.128423 g / cm^3
# Si number density = 21.332780 Si / 1000 Ang^3
#
#
#
# Elastic Constant Matrix: (Units=GPa)
#
#
# Indices 1 2 3 4 5 6 
#
# 1 89.6387 -6.4598 29.0828 0.0000 13.3300 0.0000
# 2 -6.4598 25.9683 -9.1286 0.0000 -1.9262 0.0000
# 3 29.0828 -9.1286 98.8650 0.0000 14.8923 0.0000
# 4 0.0000 0.0000 0.0000 18.5849 0.0000 18.6466
# 5 13.3300 -1.9262 14.8923 0.0000 33.6652 0.0000
# 6 0.0000 0.0000 0.0000 18.6466 0.0000 54.7099
#
#
#
# Elastic Compliance Matrix: (Units=1/GPa)
#
#
# Indices 1 2 3 4 5 6 
#
# 1 0.012818 0.001846 -0.003055 0.000000 -0.003618 0.000000
# 2 0.001846 0.040082 0.003131 0.000000 0.000177 0.000000
# 3 -0.003055 0.003131 0.011885 0.000000 -0.003869 0.000000
# 4 0.000000 0.000000 0.000000 0.081769 0.000000 -0.027869
# 5 -0.003618 0.000177 -0.003869 0.000000 0.032858 0.000000
# 6 0.000000 0.000000 0.000000 -0.027869 0.000000 0.027777
#
#
# Mechanical properties :
#
#
# Convention : Reuss Voigt Hill
#
# Bulk Modulus (GPa) = 14.57098 26.82897 20.69998
# Shear Modulus (GPa) = 22.10226 34.79052 28.44639
#
# Velocity S-wave (km/s) = 3.22230 4.04276 3.65562
# Velocity P-wave (km/s) = 4.54856 5.86477 5.24809
#
# Compressibility (1/GPa) = 0.06862955
#
# Stress axis : x y z
#
# Youngs Moduli (GPa) = 78.01363 24.94914 84.13673
#
# Poissons Ratio (x) = -0.04606 0.25705
# Poissons Ratio (y) = -0.14403 -0.26344
# Poissons Ratio (z) = 0.23835 -0.07812
#
# Static dielectric constant tensor:
#      x y z
#    x 1.785970 0.000000 0.020920 
#    y 0.000000 1.777300 0.000000 
#    z 0.020920 0.000000 1.827750 
# 
# From -- ./inp_files/50056.got.cif
#   From: 2010.05.17/outbox.cif.g08.bks.cpg/sg10_26_cif.got.tgz:50056.got - 2010.06.03 11:33:40.
