data_PCOD9143119
_publ_section_title
;
Structure prediction by ZEFSAII (Michael W. Deem and Ramdas Pophale) SiO2 
 PCOD9143119
Probable space group: P 2/M
;
_chemical_formula_sum "Si O2"
_cell_formula_units_Z 28
_cell_length_a 20.542232
_cell_length_b 7.555494
_cell_length_c 14.852658
_cell_angle_alpha 90.000000
_cell_angle_beta 32.806095
_cell_angle_gamma 90.000000
_cell_volume 1248.969326
_symmetry_space_group_name_H-M "P 2/M"
_symmetry_group_IT_number 10
_symmetry_cell_setting 'monoclinic'
loop_
_space_group_symop_operation_xyz
x,y,z
-x,y,-z
-x,-y,-z
x,-y,z
loop_
_atom_site_type_symbol
_atom_site_label
_atom_site_fract_x
_atom_site_fract_y
_atom_site_fract_z
Si Si1 0.624964 0.294107 0.320705
Si Si2 0.804293 0.291643 0.969113
Si Si3 0.932955 0.213034 0.283483
Si Si4 0.712072 0.207330 0.893506
Si Si5 0.451091 0.784869 0.251450
Si Si6 0.758505 0.784317 0.641355
Si Si7 0.270748 0.785282 0.615165
O O1 0.500000 0.212210 0.500000
O O2 0.600516 0.500000 0.327955
O O3 0.713101 0.284327 0.303669
O O4 0.693123 0.214635 0.155823
O O5 0.786245 0.500000 0.982505
O O6 0.805129 0.220604 0.866918
O O7 0.928665 0.262303 0.875876
O O8 0.867680 0.276058 0.451062
O O9 0.849685 0.271614 0.297140
O O10 0.927005 0.000000 0.289986
O O11 0.754417 0.280515 0.748427
O O12 0.689237 0.000000 0.903355
O O13 0.584926 0.281500 0.077187
O O14 0.363424 0.738418 0.270444
O O15 0.383644 0.728166 0.421189
O O16 0.453761 0.000000 0.252899
O O17 0.765144 0.000000 0.634467
O O18 0.271177 0.000000 0.618549
#
# Coordination Sequence:
#
# PCOD9143119 Si02
#       7
#     4   4   4   4   4   4   4
#     4  10  22  39  56  75 102 136 169 203 252 311
#     4  11  24  38  51  71 102 137 173 213 253 298
#     4   9  19  37  56  76 104 135 170 209 251 300
#     4  10  18  30  53  80 104 135 172 209 251 297
#     4   8  14  27  50  82 111 130 159 207 258 304
#     4   8  15  29  52  80 106 133 167 207 250 301
#     4   9  18  33  56  82 105 131 165 211 258 297
#
# _framework density 22.418483999999999
#
# number of rings (size 3 to 8) (size 9 to 14) (size 15 to 20)
#    0.000    2.714    0.000    3.429    0.000    4.857 
#    0.000    6.429    0.000    3.429    0.000    0.000 
#    0.000    0.000    0.000    0.000    0.000    0.000 
#
# Total GULP energy -156341.482242 kJ/mol
# GULP energy per Si atom -5583.624366 kJ/mol
# Density = 2.236746 g / cm^3
# Si number density = 22.418484 Si / 1000 Ang^3
#
#
#
# Elastic Constant Matrix: (Units=GPa)
#
#
# Indices 1 2 3 4 5 6 
#
# 1 76.2363 -11.1990 26.3053 0.0000 15.7415 0.0000
# 2 -11.1990 52.8216 -0.0751 0.0000 -0.1692 0.0000
# 3 26.3053 -0.0751 56.3906 0.0000 -8.1333 0.0000
# 4 0.0000 0.0000 0.0000 5.4816 0.0000 1.8639
# 5 15.7415 -0.1692 -8.1333 0.0000 30.4360 0.0000
# 6 0.0000 0.0000 0.0000 1.8639 0.0000 28.3956
#
#
#
# Elastic Compliance Matrix: (Units=1/GPa)
#
#
# Indices 1 2 3 4 5 6 
#
# 1 0.020570 0.004301 -0.011567 0.000000 -0.013706 0.000000
# 2 0.004301 0.019831 -0.002376 0.000000 -0.002749 0.000000
# 3 -0.011567 -0.002376 0.024948 0.000000 0.012636 0.000000
# 4 0.000000 0.000000 0.000000 0.186594 0.000000 -0.012248
# 5 -0.013706 -0.002749 0.012636 0.000000 0.043306 0.000000
# 6 0.000000 0.000000 0.000000 -0.012248 0.000000 0.036021
#
#
# Mechanical properties :
#
#
# Convention : Reuss Voigt Hill
#
# Bulk Modulus (GPa) = 21.70832 23.94566 22.82699
# Shear Modulus (GPa) = 13.66460 24.22381 18.94420
#
# Velocity S-wave (km/s) = 2.47153 3.29071 2.91009
# Velocity P-wave (km/s) = 4.22479 5.01425 4.63636
#
# Compressibility (1/GPa) = 0.04606530
#
# Stress axis : x y z
#
# Youngs Moduli (GPa) = 48.61461 50.42536 40.08274
#
# Poissons Ratio (x) = -0.21687 0.46362
# Poissons Ratio (y) = -0.20908 0.09525
# Poissons Ratio (z) = 0.56231 0.11983
#
# Static dielectric constant tensor:
#      x y z
#    x 1.806860 0.000000 0.006520 
#    y 0.000000 1.878860 0.000000 
#    z 0.006520 0.000000 1.838040 
# 
# From -- ./inp_files/49338.got.cif
#   From: 2010.05.17/outbox.cif.g08.bks.cpg/sg10_25_cif.got.tgz:49338.got - 2010.06.03 11:33:40.
