data_PCOD9143828
_publ_section_title
;
Structure prediction by ZEFSAII (Michael W. Deem and Ramdas Pophale) SiO2 
 PCOD9143828
Probable space group: P 2/M
;
_chemical_formula_sum "Si O2"
_cell_formula_units_Z 32
_cell_length_a 14.649774
_cell_length_b 7.380118
_cell_length_c 14.727681
_cell_angle_alpha 90.000000
_cell_angle_beta 59.891844
_cell_angle_gamma 90.000000
_cell_volume 1377.478669
_symmetry_space_group_name_H-M "P 2/M"
_symmetry_group_IT_number 10
_symmetry_cell_setting 'monoclinic'
loop_
_space_group_symop_operation_xyz
x,y,z
-x,y,-z
-x,-y,-z
x,-y,z
loop_
_atom_site_type_symbol
_atom_site_label
_atom_site_fract_x
_atom_site_fract_y
_atom_site_fract_z
Si Si1 0.612106 0.295305 0.962423
Si Si2 0.323418 0.282381 0.355353
Si Si3 0.552321 0.788483 0.184921
Si Si4 0.382490 0.278095 0.528441
Si Si5 0.887292 0.279106 0.015430
Si Si6 0.902239 0.278740 0.610014
Si Si7 0.157202 0.278259 0.166782
Si Si8 0.715799 0.292073 0.244104
O O1 0.606482 0.500000 0.927077
O O2 0.612567 0.302722 0.071389
O O3 0.500000 0.203665 0.000000
O O4 0.722273 0.216652 0.876680
O O5 0.317977 0.500000 0.360703
O O6 0.426773 0.237469 0.244511
O O7 0.349245 0.218712 0.444676
O O8 0.211228 0.219567 0.373002
O O9 0.601354 0.712182 0.252844
O O10 0.575067 0.000000 0.170254
O O11 0.500000 0.221770 0.500000
O O12 0.382327 0.500000 0.528719
O O13 0.301639 0.215619 0.647132
O O14 0.880990 0.500000 0.015628
O O15 0.796879 0.213951 0.130090
O O16 0.875864 0.218124 0.916958
O O17 0.000000 0.229843 0.000000
O O18 0.902009 0.500000 0.608406
O O19 0.909811 0.225457 0.712050
O O20 0.000000 0.218692 0.500000
O O21 0.160009 0.500000 0.163199
O O22 0.749185 0.500000 0.240275
#
# Coordination Sequence:
#
# PCOD9143828 Si02
#       8
#     4   4   4   4   4   4   4   4
#     4  10  19  33  55  79 104 142 182 215 264 324
#     4  10  19  34  54  76 106 144 181 218 267 323
#     4  12  23  33  50  78 111 141 176 223 272 317
#     4   9  16  27  49  76 100 133 179 220 259 313
#     4   9  17  28  47  75 104 133 170 218 264 310
#     4   9  18  31  50  78 109 137 170 217 262 306
#     4   9  16  28  47  74 105 137 172 209 256 316
#     4  10  18  33  53  73 103 140 177 217 268 324
#
# _framework density 23.230848999999999
#
# number of rings (size 3 to 8) (size 9 to 14) (size 15 to 20)
#    0.000    2.250    2.500    1.875    0.000    3.250 
#    0.000    6.250    0.000    0.750    0.000    0.000 
#    0.000    0.000    0.000    0.000    0.000    0.000 
#
# Total GULP energy -178787.578082 kJ/mol
# GULP energy per Si atom -5587.111815 kJ/mol
# Density = 2.317797 g / cm^3
# Si number density = 23.230849 Si / 1000 Ang^3
#
#
#
# Elastic Constant Matrix: (Units=GPa)
#
#
# Indices 1 2 3 4 5 6 
#
# 1 102.5591 -0.5112 63.6316 0.0000 -10.8429 0.0000
# 2 -0.5112 91.3030 5.5564 0.0000 1.9218 0.0000
# 3 63.6316 5.5564 200.7259 0.0000 -8.5953 0.0000
# 4 0.0000 0.0000 0.0000 -43.5621 0.0000 -5.4780
# 5 -10.8429 1.9218 -8.5953 0.0000 36.1193 0.0000
# 6 0.0000 0.0000 0.0000 -5.4780 0.0000 -26.0034
#
#
#
# Elastic Compliance Matrix: (Units=1/GPa)
#
#
# Indices 1 2 3 4 5 6 
#
# 1 0.012421 0.000243 -0.003824 0.000000 0.002806 0.000000
# 2 0.000243 0.010992 -0.000407 0.000000 -0.000609 0.000000
# 3 -0.003824 -0.000407 0.006221 0.000000 0.000354 0.000000
# 4 0.000000 0.000000 0.000000 -0.023580 0.000000 0.004968
# 5 0.002806 -0.000609 0.000354 0.000000 0.028645 0.000000
# 6 0.000000 0.000000 0.000000 0.004968 0.000000 -0.039503
#
#
# Mechanical properties :
#
#
# Convention : Reuss Voigt Hill
#
# Bulk Modulus (GPa) = 46.17570 59.10463 52.64017
# Shear Modulus (GPa) = 481.22339 15.03816 248.13078
#
# Velocity S-wave (km/s) = 14.40827 2.54704 10.34615
# Velocity P-wave (km/s) = 17.22549 5.84358 12.86206
#
# Compressibility (1/GPa) = 0.02165641
#
# Stress axis : x y z
#
# Youngs Moduli (GPa) = 80.50916 90.97927 160.75545
#
# Poissons Ratio (x) = -0.02213 0.61475
# Poissons Ratio (y) = -0.01958 0.06550
# Poissons Ratio (z) = 0.30788 0.03707
#
# Static dielectric constant tensor:
#      x y z
#    x 1.854400 0.000000 0.018420 
#    y 0.000000 1.879710 0.000000 
#    z 0.018420 0.000000 1.868450 
# 
# From -- ./inp_files/66452.got.cif
#   From: 2010.05.17/outbox.cif.g08.bks.cpg/sg10_34_cif.got.tgz:66452.got - 2010.06.03 11:33:40.
