data_PCOD9143188
_publ_section_title
;
Structure prediction by ZEFSAII (Michael W. Deem and Ramdas Pophale) SiO2 
 PCOD9143188
Probable space group: P 2/M
;
_chemical_formula_sum "Si O2"
_cell_formula_units_Z 30
_cell_length_a 22.903043
_cell_length_b 20.868426
_cell_length_c 20.075009
_cell_angle_alpha 90.000000
_cell_angle_beta 169.078977
_cell_angle_gamma 90.000000
_cell_volume 1817.801168
_symmetry_space_group_name_H-M "P 2/M"
_symmetry_group_IT_number 10
_symmetry_cell_setting 'monoclinic'
loop_
_space_group_symop_operation_xyz
x,y,z
-x,y,-z
-x,-y,-z
x,-y,z
loop_
_atom_site_type_symbol
_atom_site_label
_atom_site_fract_x
_atom_site_fract_y
_atom_site_fract_z
Si Si1 0.875067 0.706527 0.787924
Si Si2 0.278934 0.372868 0.142542
Si Si3 0.584745 0.075515 0.172496
Si Si4 0.668745 0.236287 0.428940
Si Si5 0.821226 0.848641 0.181440
Si Si6 0.141185 0.282072 0.589352
Si Si7 0.367698 0.500000 0.424778
Si Si8 0.930583 0.684847 0.218514
O O1 0.532130 0.682599 0.419292
O O2 0.852035 0.759472 0.703795
O O3 0.000000 0.725657 0.000000
O O4 0.071223 0.647879 0.973494
O O5 0.477963 0.437209 0.370030
O O6 0.083142 0.368190 0.854910
O O7 0.900886 0.113180 0.540964
O O8 0.614603 0.000000 0.218732
O O9 0.500000 0.084380 0.000000
O O10 0.317792 0.106491 0.917339
O O11 0.893847 0.255566 0.620719
O O12 0.462919 0.174548 0.182884
O O13 0.415438 0.293456 0.150692
O O14 0.961239 0.783711 0.370203
O O15 0.000000 0.307408 0.500000
O O16 0.094433 0.326870 0.472279
O O17 0.500000 0.267865 0.000000
O O18 0.500000 0.500000 0.500000
O O19 0.000000 0.500000 0.000000
#
# Coordination Sequence:
#
# PCOD9143188 Si02
#       8
#     4   4   4   4   4   4   2   4
#     4  10  18  31  48  68  95 122 147 179 226 272
#     4  10  20  32  46  65  94 128 152 182 221 262
#     4  11  22  32  43  61  87 121 155 182 213 257
#     4   9  18  29  46  66  87 118 149 180 223 275
#     4  11  19  31  45  62  90 117 146 185 223 261
#     4  11  19  28  46  69  88 113 150 190 231 271
#     4  12  22  32  48  72  94 120 164 194 210 252
#     4   9  18  31  43  63  92 118 147 182 229 276
#
# _framework density 16.503454999999999
#
# number of rings (size 3 to 8) (size 9 to 14) (size 15 to 20)
#    0.000    1.733    0.000    8.400    0.000    1.067 
#    0.000    0.000    0.000    0.000    0.000    0.933 
#    0.000    3.200    0.000    0.800    0.000    0.000 
#
# Total GULP energy -167189.076563 kJ/mol
# GULP energy per Si atom -5572.969219 kJ/mol
# Density = 1.646589 g / cm^3
# Si number density = 16.503455 Si / 1000 Ang^3
#
#
#
# Elastic Constant Matrix: (Units=GPa)
#
#
# Indices 1 2 3 4 5 6 
#
# 1 103.7144 14.8451 38.5356 0.0000 -13.9356 0.0000
# 2 14.8451 42.8283 21.9443 0.0000 -15.2257 0.0000
# 3 38.5356 21.9443 82.3060 0.0000 -2.3662 0.0000
# 4 0.0000 0.0000 0.0000 -4.5268 0.0000 1.7975
# 5 -13.9356 -15.2257 -2.3662 0.0000 42.1260 0.0000
# 6 0.0000 0.0000 0.0000 1.7975 0.0000 13.7026
#
#
#
# Elastic Compliance Matrix: (Units=1/GPa)
#
#
# Indices 1 2 3 4 5 6 
#
# 1 0.012231 -0.000046 -0.005608 0.000000 0.003715 0.000000
# 2 -0.000046 0.031335 -0.008021 0.000000 0.010860 0.000000
# 3 -0.005608 -0.008021 0.016804 0.000000 -0.003810 0.000000
# 4 0.000000 0.000000 0.000000 -0.209970 0.000000 0.027544
# 5 0.003715 0.010860 -0.003810 0.000000 0.028678 0.000000
# 6 0.000000 0.000000 0.000000 0.027544 0.000000 0.069366
#
#
# Mechanical properties :
#
#
# Convention : Reuss Voigt Hill
#
# Bulk Modulus (GPa) = 30.28271 42.16650 36.22461
# Shear Modulus (GPa) = -378.81620 20.49526 -179.16047
#
# Velocity S-wave (km/s) = -15.16693 3.52785 -10.43049
# Velocity P-wave (km/s) = 16.98014 6.49614 11.09336
#
# Compressibility (1/GPa) = 0.03302214
#
# Stress axis : x y z
#
# Youngs Moduli (GPa) = 81.75909 31.91276 59.50876
#
# Poissons Ratio (x) = 0.00146 0.33370
# Poissons Ratio (y) = 0.00374 0.47732
# Poissons Ratio (z) = 0.45847 0.25597
#
# Static dielectric constant tensor:
#      x y z
#    x 1.608530 0.000000 -0.025230 
#    y 0.000000 1.527570 0.000000 
#    z -0.025230 0.000000 1.587900 
# 
# From -- ./inp_files/86645.got.cif
#   From: 2010.05.17/outbox.cif.g08.bks.cpg/sg10_44_cif.got.tgz:86645.got - 2010.06.03 11:33:40.
