data_PCOD9143979
_publ_section_title
;
Structure prediction by ZEFSAII (Michael W. Deem and Ramdas Pophale) SiO2 
 PCOD9143979
Probable space group: P 2/M
;
_chemical_formula_sum "Si O2"
_cell_formula_units_Z 15
_cell_length_a 15.839925
_cell_length_b 5.170364
_cell_length_c 10.044538
_cell_angle_alpha 90.000000
_cell_angle_beta 96.304991
_cell_angle_gamma 90.000000
_cell_volume 817.653599
_symmetry_space_group_name_H-M "P 2/M"
_symmetry_group_IT_number 10
_symmetry_cell_setting 'monoclinic'
loop_
_space_group_symop_operation_xyz
x,y,z
-x,y,-z
-x,-y,-z
x,-y,z
loop_
_atom_site_type_symbol
_atom_site_label
_atom_site_fract_x
_atom_site_fract_y
_atom_site_fract_z
Si Si1 0.256488 0.500000 0.630644
Si Si2 0.500000 0.000000 0.500000
Si Si3 0.079282 0.000000 0.836848
Si Si4 0.613701 0.500000 0.566507
Si Si5 0.224780 0.500000 0.210748
Si Si6 0.888874 0.000000 0.748861
Si Si7 0.190294 0.500000 0.912681
Si Si8 0.146547 0.000000 0.553571
O O1 0.347922 0.500000 0.577996
O O2 0.247711 0.500000 0.789103
O O3 0.206491 0.750158 0.570547
O O4 0.561517 0.765676 0.571542
O O5 0.128701 0.251325 0.897368
O O6 0.978568 0.000000 0.840199
O O7 0.092907 0.000000 0.679133
O O8 0.693294 0.500000 0.681149
O O9 0.166705 0.250659 0.228682
O O10 0.244010 0.500000 0.056639
O O11 0.903649 0.000000 0.592305
#
# Coordination Sequence:
#
# PCOD9143979 Si02
#       8
#     2   1   2   2   2   2   2   2
#     4  10  19  36  63  77 115 146 196 221 277 331
#     4  10  24  36  66  92 118 126 174 222 304 324
#     4  10  22  35  53  74 123 152 208 238 281 312
#     4  11  20  41  61  91 109 145 170 235 268 362
#     4  12  24  36  61  81 119 145 197 229 287 327
#     4  12  21  34  54  84 110 162 192 252 279 317
#     4  10  23  39  52  85 110 165 191 236 270 328
#     4  10  18  34  52  84 106 154 195 249 272 320
#
# _framework density 18.345178000000001
#
# number of rings (size 3 to 8) (size 9 to 14) (size 15 to 20)
#    0.000    1.333    2.667    3.600    0.000    3.200 
#    0.000    5.333    0.000    4.800    0.000    0.000 
#    0.000    0.000    0.000    0.000    0.000    0.000 
#
# Total GULP energy -83505.048734 kJ/mol
# GULP energy per Si atom -5567.003249 kJ/mol
# Density = 1.830342 g / cm^3
# Si number density = 18.345178 Si / 1000 Ang^3
#
#
#
# Elastic Constant Matrix: (Units=GPa)
#
#
# Indices 1 2 3 4 5 6 
#
# 1 39.6461 30.6820 41.6991 0.0000 15.6593 0.0000
# 2 30.6820 186.3799 28.4803 0.0000 9.3083 0.0000
# 3 41.6991 28.4803 123.3785 0.0000 8.4845 0.0000
# 4 0.0000 0.0000 0.0000 -3.3319 0.0000 8.6979
# 5 15.6593 9.3083 8.4845 0.0000 13.2562 0.0000
# 6 0.0000 0.0000 0.0000 8.6979 0.0000 9.8598
#
#
#
# Elastic Compliance Matrix: (Units=1/GPa)
#
#
# Indices 1 2 3 4 5 6 
#
# 1 0.086346 -0.006708 -0.021908 0.000000 -0.083266 0.000000
# 2 -0.006708 0.006218 0.000614 0.000000 0.003165 0.000000
# 3 -0.021908 0.000614 0.014245 0.000000 0.016331 0.000000
# 4 0.000000 0.000000 0.000000 -0.090870 0.000000 0.080161
# 5 -0.083266 0.003165 0.016331 0.000000 0.161123 0.000000
# 6 0.000000 0.000000 0.000000 0.080161 0.000000 0.030707
#
#
# Mechanical properties :
#
#
# Convention : Reuss Voigt Hill
#
# Bulk Modulus (GPa) = 19.68350 61.23637 40.45993
# Shear Modulus (GPa) = 17.81215 20.52635 19.16925
#
# Velocity S-wave (km/s) = 3.11938 3.34862 3.23603
# Velocity P-wave (km/s) = 4.87102 6.95727 6.00543
#
# Compressibility (1/GPa) = 0.05080398
#
# Stress axis : x y z
#
# Youngs Moduli (GPa) = 11.58136 160.83016 70.20115
#
# Poissons Ratio (x) = 1.07885 1.53799
# Poissons Ratio (y) = 0.07769 -0.04312
# Poissons Ratio (z) = 0.25373 -0.09878
#
# Static dielectric constant tensor:
#      x y z
#    x 1.633760 0.000000 -0.041500 
#    y 0.000000 1.617030 0.000000 
#    z -0.041500 0.000000 1.652440 
# 
# From -- ./inp_files/26394.got.cif
#   From: 2010.05.17/outbox.cif.g08.bks.cpg/sg10_14_cif.got.tgz:26394.got - 2010.06.03 11:33:40.
