data_PCOD9143668
_publ_section_title
;
Structure prediction by ZEFSAII (Michael W. Deem and Ramdas Pophale) SiO2 
 PCOD9143668
Probable space group: P 2/M
;
_chemical_formula_sum "Si O2"
_cell_formula_units_Z 32
_cell_length_a 9.033697
_cell_length_b 25.232328
_cell_length_c 15.196398
_cell_angle_alpha 90.000000
_cell_angle_beta 151.671453
_cell_angle_gamma 90.000000
_cell_volume 1643.706532
_symmetry_space_group_name_H-M "P 2/M"
_symmetry_group_IT_number 10
_symmetry_cell_setting 'monoclinic'
loop_
_space_group_symop_operation_xyz
x,y,z
-x,y,-z
-x,-y,-z
x,-y,z
loop_
_atom_site_type_symbol
_atom_site_label
_atom_site_fract_x
_atom_site_fract_y
_atom_site_fract_z
Si Si1 0.282785 0.868940 0.970566
Si Si2 0.626073 0.147103 0.794453
Si Si3 0.130548 0.758312 0.827954
Si Si4 0.307456 0.060886 0.309248
Si Si5 0.861400 0.358717 0.163608
Si Si6 0.709224 0.560774 0.699599
Si Si7 0.248896 0.752306 0.552010
Si Si8 0.763475 0.367430 0.456450
O O1 0.093150 0.813280 0.859823
O O2 0.037113 0.916056 0.852750
O O3 0.500000 0.875918 0.000000
O O4 0.487698 0.863029 0.165730
O O5 0.545441 0.099634 0.686531
O O6 0.504164 0.202731 0.696196
O O7 0.000000 0.147291 0.000000
O O8 0.068963 0.700473 0.837169
O O9 0.928414 0.759461 0.633366
O O10 0.500000 0.757235 0.000000
O O11 0.500000 0.063961 0.500000
O O12 0.295188 0.000000 0.273300
O O13 0.992387 0.403399 0.167624
O O14 0.041967 0.364081 0.350836
O O15 0.500000 0.363660 0.000000
O O16 0.500000 0.560860 0.500000
O O17 0.783032 0.500000 0.759049
O O18 0.502314 0.589321 0.665822
O O19 0.369036 0.692088 0.624208
O O20 0.000000 0.759165 0.500000
O O21 0.000000 0.378578 0.500000
#
# Coordination Sequence:
#
# PCOD9143668 Si02
#       8
#     4   4   4   4   4   4   4   4
#     4  10  20  35  56  82 110 140 179 221 267 321
#     4  10  22  36  55  83 113 144 179 220 273 327
#     4   9  17  30  51  79 109 138 173 218 271 327
#     4  10  22  40  58  77 106 145 186 225 268 317
#     4   9  18  33  54  78 105 139 176 220 271 323
#     4   9  18  33  52  74 102 139 183 223 264 323
#     4  10  18  32  54  79 110 141 176 222 270 325
#     4   9  19  34  52  77 105 139 178 219 272 324
#
# _framework density 19.468195000000001
#
# number of rings (size 3 to 8) (size 9 to 14) (size 15 to 20)
#    0.000    2.500    0.000    2.250    0.000    6.000 
#    0.000    4.375    0.000    2.625    0.000    0.000 
#    0.000    0.000    0.000    0.000    0.000    0.000 
#
# Total GULP energy -178530.345856 kJ/mol
# GULP energy per Si atom -5579.073308 kJ/mol
# Density = 1.942388 g / cm^3
# Si number density = 19.468195 Si / 1000 Ang^3
#
#
#
# Elastic Constant Matrix: (Units=GPa)
#
#
# Indices 1 2 3 4 5 6 
#
# 1 98.0291 60.2146 4.5642 0.0000 -6.4588 0.0000
# 2 60.2146 164.6994 28.6072 0.0000 -0.0352 0.0000
# 3 4.5642 28.6072 34.0995 0.0000 -2.1865 0.0000
# 4 0.0000 0.0000 0.0000 22.4035 0.0000 2.0637
# 5 -6.4588 -0.0352 -2.1865 0.0000 17.5064 0.0000
# 6 0.0000 0.0000 0.0000 2.0637 0.0000 41.4323
#
#
#
# Elastic Compliance Matrix: (Units=1/GPa)
#
#
# Indices 1 2 3 4 5 6 
#
# 1 0.013872 -0.005630 0.003219 0.000000 0.005509 0.000000
# 2 -0.005630 0.009401 -0.007324 0.000000 -0.002973 0.000000
# 3 0.003219 -0.007324 0.035398 0.000000 0.005594 0.000000
# 4 0.000000 0.000000 0.000000 0.044842 0.000000 -0.002234
# 5 0.005509 -0.002973 0.005594 0.000000 0.059847 0.000000
# 6 0.000000 0.000000 0.000000 -0.002234 0.000000 0.024247
#
#
# Mechanical properties :
#
#
# Convention : Reuss Voigt Hill
#
# Bulk Modulus (GPa) = 25.50841 53.73334 39.62088
# Shear Modulus (GPa) = 22.71233 29.83123 26.27178
#
# Velocity S-wave (km/s) = 3.41931 3.91871 3.67750
# Velocity P-wave (km/s) = 5.35910 6.93798 6.19902
#
# Compressibility (1/GPa) = 0.03920275
#
# Stress axis : x y z
#
# Youngs Moduli (GPa) = 72.08674 106.36656 28.24991
#
# Poissons Ratio (x) = 0.59881 -0.09095
# Poissons Ratio (y) = 0.40583 0.20691
# Poissons Ratio (z) = -0.23208 0.77906
#
# Static dielectric constant tensor:
#      x y z
#    x 1.686300 0.000000 -0.016560 
#    y 0.000000 1.687190 0.000000 
#    z -0.016560 0.000000 1.668500 
# 
# From -- ./inp_files/62703.got.cif
#   From: 2010.05.17/outbox.cif.g08.bks.cpg/sg10_32_cif.got.tgz:62703.got - 2010.06.03 11:33:40.
