data_PCOD9143786
_publ_section_title
;
Structure prediction by ZEFSAII (Michael W. Deem and Ramdas Pophale) SiO2 
 PCOD9143786
Probable space group: P 2/M
;
_chemical_formula_sum "Si O2"
_cell_formula_units_Z 28
_cell_length_a 13.646122
_cell_length_b 8.814828
_cell_length_c 17.864930
_cell_angle_alpha 90.000000
_cell_angle_beta 43.968199
_cell_angle_gamma 90.000000
_cell_volume 1491.921366
_symmetry_space_group_name_H-M "P 2/M"
_symmetry_group_IT_number 10
_symmetry_cell_setting 'monoclinic'
loop_
_space_group_symop_operation_xyz
x,y,z
-x,y,-z
-x,-y,-z
x,-y,z
loop_
_atom_site_type_symbol
_atom_site_label
_atom_site_fract_x
_atom_site_fract_y
_atom_site_fract_z
Si Si1 0.301270 0.819283 0.955196
Si Si2 0.381071 0.317845 0.758266
Si Si3 0.124408 0.316624 0.604819
Si Si4 0.687980 0.818904 0.623087
Si Si5 0.822658 0.680447 0.835315
Si Si6 0.378361 0.819707 0.173232
Si Si7 0.344559 0.315606 0.611445
O O1 0.297146 0.746911 0.875283
O O2 0.457989 0.782829 0.901472
O O3 0.291617 0.000000 0.954401
O O4 0.192244 0.755802 0.075330
O O5 0.384069 0.500000 0.760313
O O6 0.541926 0.257590 0.676061
O O7 0.321497 0.270272 0.710112
O O8 0.131699 0.500000 0.594019
O O9 0.184792 0.243607 0.496332
O O10 0.227826 0.268350 0.615819
O O11 0.966027 0.273860 0.714092
O O12 0.699646 0.786670 0.705201
O O13 0.674322 0.000000 0.622476
O O14 0.823389 0.500000 0.843952
O O15 0.692739 0.731504 0.855026
O O16 0.369449 0.000000 0.162829
O O17 0.500000 0.264964 0.500000
O O18 0.345690 0.500000 0.609869
#
# Coordination Sequence:
#
# PCOD9143786 Si02
#       7
#     4   4   4   4   4   4   4
#     4  10  21  38  58  79 108 143 180 221 267 321
#     4  10  18  32  58  85 108 137 178 226 268 309
#     4  10  21  37  54  78 112 144 180 222 266 320
#     4  10  20  34  53  81 112 143 178 218 269 322
#     4  11  23  36  54  80 108 141 182 228 270 311
#     4   9  20  37  56  77 105 142 180 219 267 323
#     4   9  16  31  57  83 106 140 178 214 265 320
#
# _framework density 18.767745000000001
#
# number of rings (size 3 to 8) (size 9 to 14) (size 15 to 20)
#    0.000    2.143    1.429    3.000    0.000    6.857 
#    0.000    5.714    0.000    4.286    0.000    0.000 
#    0.000    0.000    0.000    0.000    0.000    0.000 
#
# Total GULP energy -156325.195059 kJ/mol
# GULP energy per Si atom -5583.042681 kJ/mol
# Density = 1.872503 g / cm^3
# Si number density = 18.767745 Si / 1000 Ang^3
#
#
#
# Elastic Constant Matrix: (Units=GPa)
#
#
# Indices 1 2 3 4 5 6 
#
# 1 25.6331 10.3318 4.4159 0.0000 15.6193 0.0000
# 2 10.3318 31.4811 32.7429 0.0000 10.3385 0.0000
# 3 4.4159 32.7429 115.4018 0.0000 25.2316 0.0000
# 4 0.0000 0.0000 0.0000 55.5214 0.0000 38.4725
# 5 15.6193 10.3385 25.2316 0.0000 22.8235 0.0000
# 6 0.0000 0.0000 0.0000 38.4725 0.0000 57.3258
#
#
#
# Elastic Compliance Matrix: (Units=1/GPa)
#
#
# Indices 1 2 3 4 5 6 
#
# 1 0.089536 -0.026466 0.019595 0.000000 -0.070949 0.000000
# 2 -0.026466 0.054105 -0.017065 0.000000 0.012469 0.000000
# 3 0.019595 -0.017065 0.018462 0.000000 -0.026090 0.000000
# 4 0.000000 0.000000 0.000000 0.033668 0.000000 -0.022595
# 5 -0.070949 0.012469 -0.026090 0.000000 0.115563 0.000000
# 6 0.000000 0.000000 0.000000 -0.022595 0.000000 0.032608
#
#
# Mechanical properties :
#
#
# Convention : Reuss Voigt Hill
#
# Bulk Modulus (GPa) = 8.75412 29.72190 19.23801
# Shear Modulus (GPa) = 11.63092 35.46918 23.55005
#
# Velocity S-wave (km/s) = 2.49214 4.35202 3.54618
# Velocity P-wave (km/s) = 3.59938 6.41284 5.20000
#
# Compressibility (1/GPa) = 0.11423192
#
# Stress axis : x y z
#
# Youngs Moduli (GPa) = 11.16871 18.48266 54.16660
#
# Poissons Ratio (x) = 0.48916 -1.06141
# Poissons Ratio (y) = 0.29559 0.92433
# Poissons Ratio (z) = -0.21885 0.31540
#
# Static dielectric constant tensor:
#      x y z
#    x 1.631170 0.000000 0.008680 
#    y 0.000000 1.630700 0.000000 
#    z 0.008680 0.000000 1.658890 
# 
# From -- ./inp_files/57439.got.cif
#   From: 2010.05.17/outbox.cif.g08.bks.cpg/sg10_29_cif.got.tgz:57439.got - 2010.06.03 11:33:40.
