data_PCOD9143282
_publ_section_title
;
Structure prediction by ZEFSAII (Michael W. Deem and Ramdas Pophale) SiO2 
 PCOD9143282
Probable space group: P 2/M
;
_chemical_formula_sum "Si O2"
_cell_formula_units_Z 20
_cell_length_a 15.588398
_cell_length_b 10.540726
_cell_length_c 9.128909
_cell_angle_alpha 90.000000
_cell_angle_beta 139.180574
_cell_angle_gamma 90.000000
_cell_volume 980.514997
_symmetry_space_group_name_H-M "P 2/M"
_symmetry_group_IT_number 10
_symmetry_cell_setting 'monoclinic'
loop_
_space_group_symop_operation_xyz
x,y,z
-x,y,-z
-x,-y,-z
x,-y,z
loop_
_atom_site_type_symbol
_atom_site_label
_atom_site_fract_x
_atom_site_fract_y
_atom_site_fract_z
Si Si1 0.263622 0.148158 0.615497
Si Si2 0.133966 0.149969 0.745488
Si Si3 0.300321 0.243914 0.214750
Si Si4 0.482239 0.141530 0.682209
Si Si5 0.143044 0.359138 0.255731
O O1 0.244054 0.168367 0.762463
O O2 0.409779 0.164365 0.741007
O O3 0.175758 0.247979 0.412273
O O4 0.226597 0.000000 0.539835
O O5 0.000000 0.200040 0.500000
O O6 0.116489 0.000000 0.745618
O O7 0.178123 0.206208 0.956217
O O8 0.363053 0.142582 0.409378
O O9 0.419204 0.248459 0.250603
O O10 0.249238 0.349401 0.260463
O O11 0.543280 0.000000 0.762433
O O12 0.149446 0.500000 0.330284
O O13 0.000000 0.341740 0.000000
#
# Coordination Sequence:
#
# PCOD9143282 Si02
#       5
#     4   4   4   4   4
#     4   9  19  34  52  78 108 139 176 215 264 319
#     4  10  19  30  48  78 112 141 172 215 265 315
#     4  10  18  31  51  74 102 136 173 216 260 308
#     4   9  17  31  52  78 105 138 179 220 261 307
#     4  10  21  37  55  76 104 140 182 223 263 312
#
# _framework density 20.397445999999999
#
# number of rings (size 3 to 8) (size 9 to 14) (size 15 to 20)
#    0.000    2.400    0.000    3.600    0.000    2.800 
#    0.000   12.000    0.000    3.600    0.000   14.000 
#    0.000    0.000    0.000    0.000    0.000    0.000 
#
# Total GULP energy -111352.580822 kJ/mol
# GULP energy per Si atom -5567.629041 kJ/mol
# Density = 2.035102 g / cm^3
# Si number density = 20.397446 Si / 1000 Ang^3
#
#
#
# Elastic Constant Matrix: (Units=GPa)
#
#
# Indices 1 2 3 4 5 6 
#
# 1 74.3222 8.7670 -1.9217 0.0000 -1.8436 0.0000
# 2 8.7670 75.6505 24.4280 0.0000 -6.9228 0.0000
# 3 -1.9217 24.4280 95.2956 0.0000 -10.4121 0.0000
# 4 0.0000 0.0000 0.0000 8.3095 0.0000 1.5285
# 5 -1.8436 -6.9228 -10.4121 0.0000 27.6486 0.0000
# 6 0.0000 0.0000 0.0000 1.5285 0.0000 12.4282
#
#
#
# Elastic Compliance Matrix: (Units=1/GPa)
#
#
# Indices 1 2 3 4 5 6 
#
# 1 0.013705 -0.001781 0.000818 0.000000 0.000776 0.000000
# 2 -0.001781 0.014786 -0.003582 0.000000 0.002235 0.000000
# 3 0.000818 -0.003582 0.011823 0.000000 0.003610 0.000000
# 4 0.000000 0.000000 0.000000 0.123130 0.000000 -0.015143
# 5 0.000776 0.002235 0.003610 0.000000 0.038139 0.000000
# 6 0.000000 0.000000 0.000000 -0.015143 0.000000 0.082325
#
#
# Mechanical properties :
#
#
# Convention : Reuss Voigt Hill
#
# Bulk Modulus (GPa) = 32.02746 34.20164 33.11455
# Shear Modulus (GPa) = 16.47953 23.94359 20.21156
#
# Velocity S-wave (km/s) = 2.84548 3.42987 3.15125
# Velocity P-wave (km/s) = 5.15087 5.69994 5.43235
#
# Compressibility (1/GPa) = 0.03122321
#
# Stress axis : x y z
#
# Youngs Moduli (GPa) = 72.96372 67.63032 84.58222
#
# Poissons Ratio (x) = 0.12047 -0.06917
# Poissons Ratio (y) = 0.12997 0.30298
# Poissons Ratio (z) = -0.05967 0.24226
#
# Static dielectric constant tensor:
#      x y z
#    x 1.810680 0.000000 0.042780 
#    y 0.000000 1.672690 0.000000 
#    z 0.042780 0.000000 1.774600 
# 
# From -- ./inp_files/28046.got.cif
#   From: 2010.05.17/outbox.cif.g08.bks.cpg/sg10_15_cif.got.tgz:28046.got - 2010.06.03 11:33:40.
