data_PCOD9143153
_publ_section_title
;
Structure prediction by ZEFSAII (Michael W. Deem and Ramdas Pophale) SiO2 
 PCOD9143153
Probable space group: P 2/M
;
_chemical_formula_sum "Si O2"
_cell_formula_units_Z 24
_cell_length_a 23.821293
_cell_length_b 9.492261
_cell_length_c 17.076672
_cell_angle_alpha 90.000000
_cell_angle_beta 22.482515
_cell_angle_gamma 90.000000
_cell_volume 1476.582768
_symmetry_space_group_name_H-M "P 2/M"
_symmetry_group_IT_number 10
_symmetry_cell_setting 'monoclinic'
loop_
_space_group_symop_operation_xyz
x,y,z
-x,y,-z
-x,-y,-z
x,-y,z
loop_
_atom_site_type_symbol
_atom_site_label
_atom_site_fract_x
_atom_site_fract_y
_atom_site_fract_z
Si Si1 0.367710 0.830715 0.972553
Si Si2 0.110579 0.332738 0.600501
Si Si3 0.176347 0.160202 0.069441
Si Si4 0.332079 0.000000 0.741578
Si Si5 0.175073 0.000000 0.779121
Si Si6 0.656385 0.332510 0.837474
Si Si7 0.707857 0.159631 0.510482
O O1 0.323618 0.753201 0.108765
O O2 0.359004 0.000000 0.992855
O O3 0.264249 0.792627 0.032886
O O4 0.538121 0.797093 0.734174
O O5 0.097448 0.500000 0.627510
O O6 0.216814 0.306171 0.389204
O O7 0.189187 0.262361 0.573760
O O8 0.954772 0.260928 0.785412
O O9 0.289254 0.131759 0.852412
O O10 0.117372 0.000000 0.160289
O O11 0.500000 0.000000 0.500000
O O12 0.231556 0.000000 0.794333
O O13 0.239284 0.132006 0.646552
O O14 0.000000 0.000000 0.000000
O O15 0.652367 0.500000 0.859496
O O16 0.500000 0.294204 0.000000
O O17 0.719482 0.000000 0.530628
#
# Coordination Sequence:
#
# PCOD9143153 Si02
#       7
#     4   4   4   2   2   4   4
#     4  10  19  35  53  80 110 139 181 235 270 312
#     4  11  21  36  54  78 113 153 185 220 268 319
#     4   9  21  36  56  83 113 139 178 226 278 327
#     4  10  18  36  64  83 106 140 176 225 268 340
#     4  10  18  30  56  83 106 132 174 217 274 334
#     4  10  21  35  53  77 108 151 196 221 255 315
#     4   9  19  32  54  81 109 133 184 227 274 322
#
# _framework density 16.253744999999999
#
# number of rings (size 3 to 8) (size 9 to 14) (size 15 to 20)
#    1.000    1.167    1.667    2.500    0.000    3.000 
#    0.000    3.333    0.000    5.000    0.000    0.000 
#    0.000    0.000    0.000    0.000    0.000    0.000 
#
# Total GULP energy -133681.655491 kJ/mol
# GULP energy per Si atom -5570.068979 kJ/mol
# Density = 1.621675 g / cm^3
# Si number density = 16.253745 Si / 1000 Ang^3
#
#
#
# Elastic Constant Matrix: (Units=GPa)
#
#
# Indices 1 2 3 4 5 6 
#
# 1 111.0062 30.9941 18.1715 0.0000 -4.0920 0.0000
# 2 30.9941 34.8439 25.2901 0.0000 -7.7691 0.0000
# 3 18.1715 25.2901 64.9384 0.0000 -5.7321 0.0000
# 4 0.0000 0.0000 0.0000 16.0542 0.0000 -0.9896
# 5 -4.0920 -7.7691 -5.7321 0.0000 27.8574 0.0000
# 6 0.0000 0.0000 0.0000 -0.9896 0.0000 -4.8152
#
#
#
# Elastic Compliance Matrix: (Units=1/GPa)
#
#
# Indices 1 2 3 4 5 6 
#
# 1 0.012087 -0.011854 0.001119 0.000000 -0.001300 0.000000
# 2 -0.011854 0.053512 -0.016662 0.000000 0.009754 0.000000
# 3 0.001119 -0.016662 0.021571 0.000000 -0.000044 0.000000
# 4 0.000000 0.000000 0.000000 0.061510 0.000000 -0.012642
# 5 -0.001300 0.009754 -0.000044 0.000000 0.038417 0.000000
# 6 0.000000 0.000000 0.000000 -0.012642 0.000000 -0.205080
#
#
# Mechanical properties :
#
#
# Convention : Reuss Voigt Hill
#
# Bulk Modulus (GPa) = 30.88612 39.96666 35.42639
# Shear Modulus (GPa) = 105.03345 16.90814 60.97079
#
# Velocity S-wave (km/s) = 8.04744 3.22881 6.13134
# Velocity P-wave (km/s) = 10.26607 6.20829 8.48337
#
# Compressibility (1/GPa) = 0.03237700
#
# Stress axis : x y z
#
# Youngs Moduli (GPa) = 82.73287 18.68732 46.35824
#
# Poissons Ratio (x) = 0.22152 -0.05190
# Poissons Ratio (y) = 0.98072 0.77243
# Poissons Ratio (z) = -0.09262 0.31137
#
# Static dielectric constant tensor:
#      x y z
#    x 1.531600 0.000000 0.002750 
#    y 0.000000 1.533430 0.000000 
#    z 0.002750 0.000000 1.543370 
# 
# From -- ./inp_files/80095.got.cif
#   From: 2010.05.17/outbox.cif.g08.bks.cpg/sg10_41_cif.got.tgz:80095.got - 2010.06.03 11:33:40.
