data_PCOD9143357
_publ_section_title
;
Structure prediction by ZEFSAII (Michael W. Deem and Ramdas Pophale) SiO2 
 PCOD9143357
Probable space group: P 2/M
;
_chemical_formula_sum "Si O2"
_cell_formula_units_Z 30
_cell_length_a 17.237698
_cell_length_b 13.122449
_cell_length_c 10.950727
_cell_angle_alpha 90.000000
_cell_angle_beta 135.142322
_cell_angle_gamma 90.000000
_cell_volume 1747.192068
_symmetry_space_group_name_H-M "P 2/M"
_symmetry_group_IT_number 10
_symmetry_cell_setting 'monoclinic'
loop_
_space_group_symop_operation_xyz
x,y,z
-x,y,-z
-x,-y,-z
x,-y,z
loop_
_atom_site_type_symbol
_atom_site_label
_atom_site_fract_x
_atom_site_fract_y
_atom_site_fract_z
Si Si1 0.665219 0.621332 0.997160
Si Si2 0.437744 0.221261 0.308710
Si Si3 0.983384 0.272398 0.126556
Si Si4 0.832765 0.110011 0.643063
Si Si5 0.500000 0.284381 0.000000
Si Si6 0.410963 0.883299 0.717900
Si Si7 0.920887 0.621429 0.300884
Si Si8 0.788251 0.113813 0.880937
O O1 0.664278 0.500000 0.971866
O O2 0.588861 0.648209 0.027634
O O3 0.792194 0.654690 0.161951
O O4 0.609993 0.685963 0.825742
O O5 0.500000 0.257131 0.500000
O O6 0.523833 0.151801 0.330151
O O7 0.332384 0.152426 0.221571
O O8 0.965182 0.353666 0.213840
O O9 0.087251 0.204353 0.281189
O O10 0.879088 0.196628 0.018280
O O11 0.000000 0.302674 0.000000
O O12 0.719532 0.117869 0.445323
O O13 0.799645 0.107911 0.747953
O O14 0.886652 0.000000 0.675443
O O15 0.440333 0.205625 0.843659
O O16 0.442921 0.000000 0.785889
O O17 0.918243 0.500000 0.311982
O O18 0.000000 0.661086 0.500000
O O19 0.808509 0.000000 0.953256
#
# Coordination Sequence:
#
# PCOD9143357 Si02
#       8
#     4   4   4   4   2   4   4   4
#     4  10  22  41  61  81 108 142 187 239 289 339
#     4  11  20  33  56  83 113 147 185 224 278 334
#     4  10  20  35  58  82 113 145 188 236 279 329
#     4   9  18  31  51  78 110 146 180 221 269 323
#     4  10  22  36  58  80 104 146 188 226 274 334
#     4  10  20  33  51  79 113 147 181 222 270 326
#     4  10  22  40  62  83 109 146 187 236 293 343
#     4  10  18  31  52  81 112 146 183 221 271 332
#
# _framework density 17.170407000000001
#
# number of rings (size 3 to 8) (size 9 to 14) (size 15 to 20)
#    0.000    2.000    2.667    1.200    1.867    2.667 
#    0.000    0.000    0.000    1.600    0.000    0.000 
#    0.000    0.000    0.000    0.000    0.000    0.000 
#
# Total GULP energy -167053.166716 kJ/mol
# GULP energy per Si atom -5568.438891 kJ/mol
# Density = 1.713133 g / cm^3
# Si number density = 17.170407 Si / 1000 Ang^3
#
#
#
# Elastic Constant Matrix: (Units=GPa)
#
#
# Indices 1 2 3 4 5 6 
#
# 1 63.2700 4.2682 33.0752 0.0000 5.5946 0.0000
# 2 4.2682 31.2875 16.9613 0.0000 -1.8972 0.0000
# 3 33.0752 16.9613 82.2920 0.0000 4.0206 0.0000
# 4 0.0000 0.0000 0.0000 5.0844 0.0000 -14.2211
# 5 5.5946 -1.8972 4.0206 0.0000 18.2031 0.0000
# 6 0.0000 0.0000 0.0000 -14.2211 0.0000 -9.6206
#
#
#
# Elastic Compliance Matrix: (Units=1/GPa)
#
#
# Indices 1 2 3 4 5 6 
#
# 1 0.020425 0.001452 -0.008299 0.000000 -0.004293 0.000000
# 2 0.001452 0.036628 -0.008388 0.000000 0.005224 0.000000
# 3 -0.008299 -0.008388 0.017321 0.000000 -0.002150 0.000000
# 4 0.000000 0.000000 0.000000 0.038305 0.000000 -0.056623
# 5 -0.004293 0.005224 -0.002150 0.000000 0.057275 0.000000
# 6 0.000000 0.000000 0.000000 -0.056623 0.000000 -0.020244
#
#
# Mechanical properties :
#
#
# Convention : Reuss Voigt Hill
#
# Bulk Modulus (GPa) = 22.77680 31.71763 27.24722
# Shear Modulus (GPa) = 25.66534 10.90303 18.28419
#
# Velocity S-wave (km/s) = 3.87038 2.52263 3.26677
# Velocity P-wave (km/s) = 5.76777 5.19589 5.48928
#
# Compressibility (1/GPa) = 0.04390432
#
# Stress axis : x y z
#
# Youngs Moduli (GPa) = 48.95880 27.30176 57.73214
#
# Poissons Ratio (x) = -0.03965 0.47912
# Poissons Ratio (y) = -0.07110 0.48427
# Poissons Ratio (z) = 0.40631 0.22902
#
# Static dielectric constant tensor:
#      x y z
#    x 1.583080 0.000000 -0.010840 
#    y 0.000000 1.576110 0.000000 
#    z -0.010840 0.000000 1.607990 
# 
# From -- ./inp_files/53682.got.cif
#   From: 2010.05.17/outbox.cif.g08.bks.cpg/sg10_27_cif.got.tgz:53682.got - 2010.06.03 11:33:40.
