data_PCOD9143399
_publ_section_title
;
Structure prediction by ZEFSAII (Michael W. Deem and Ramdas Pophale) SiO2 
 PCOD9143399
Probable space group: P 2/M
;
_chemical_formula_sum "Si O2"
_cell_formula_units_Z 32
_cell_length_a 14.839253
_cell_length_b 7.424410
_cell_length_c 14.793468
_cell_angle_alpha 90.000000
_cell_angle_beta 120.123778
_cell_angle_gamma 90.000000
_cell_volume 1409.715842
_symmetry_space_group_name_H-M "P 2/M"
_symmetry_group_IT_number 10
_symmetry_cell_setting 'monoclinic'
loop_
_space_group_symop_operation_xyz
x,y,z
-x,y,-z
-x,-y,-z
x,-y,z
loop_
_atom_site_type_symbol
_atom_site_label
_atom_site_fract_x
_atom_site_fract_y
_atom_site_fract_z
Si Si1 0.595326 0.289396 0.105950
Si Si2 0.762197 0.218193 0.461451
Si Si3 0.912493 0.219381 0.386678
Si Si4 0.544988 0.216802 0.289856
Si Si5 0.588579 0.219922 0.617657
Si Si6 0.169972 0.787311 0.838511
Si Si7 0.177581 0.219714 0.317163
Si Si8 0.014915 0.220327 0.905095
O O1 0.598606 0.500000 0.089143
O O2 0.566776 0.267356 0.197379
O O3 0.709313 0.228263 0.129439
O O4 0.500000 0.209063 0.000000
O O5 0.808125 0.267153 0.388002
O O6 0.643308 0.275694 0.400249
O O7 0.828216 0.277506 0.580808
O O8 0.763666 0.000000 0.465519
O O9 0.900175 0.286133 0.279371
O O10 0.000000 0.282173 0.500000
O O11 0.922450 0.000000 0.387452
O O12 0.445668 0.275143 0.298230
O O13 0.543841 0.000000 0.288722
O O14 0.500000 0.275318 0.500000
O O15 0.706467 0.275461 0.655288
O O16 0.588998 0.000000 0.614264
O O17 0.121878 0.721405 0.908751
O O18 0.150641 0.000000 0.830542
O O19 0.082969 0.276960 0.206325
O O20 0.174990 0.000000 0.315003
O O21 0.013902 0.000000 0.908069
O O22 0.000000 0.282714 0.000000
#
# Coordination Sequence:
#
# PCOD9143399 Si02
#       8
#     4   4   4   4   4   4   4   4
#     4  11  25  42  57  75 104 143 182 224 278 333
#     4   9  14  22  40  68 102 132 164 210 257 302
#     4   9  15  23  41  74 107 133 166 210 259 306
#     4  10  18  31  53  81 108 138 179 224 265 313
#     4   9  15  24  43  76 116 147 172 212 267 319
#     4  10  19  34  57  82 106 137 179 223 264 314
#     4   9  15  24  40  69 110 148 174 207 260 314
#     4   9  18  30  45  72 111 145 173 212 262 311
#
# _framework density 22.699611999999998
#
# number of rings (size 3 to 8) (size 9 to 14) (size 15 to 20)
#    0.000    2.500    2.500    1.125    0.000    5.000 
#    0.000    2.500    0.000    1.125    0.000    0.875 
#    0.000    0.000    0.000    0.000    0.000    0.000 
#
# Total GULP energy -178479.832177 kJ/mol
# GULP energy per Si atom -5577.494756 kJ/mol
# Density = 2.264795 g / cm^3
# Si number density = 22.699612 Si / 1000 Ang^3
#
#
#
# Elastic Constant Matrix: (Units=GPa)
#
#
# Indices 1 2 3 4 5 6 
#
# 1 135.7242 -0.9857 71.1730 0.0000 -27.7321 0.0000
# 2 -0.9857 66.3220 -1.1730 0.0000 -1.7409 0.0000
# 3 71.1730 -1.1730 146.1430 0.0000 -22.9630 0.0000
# 4 0.0000 0.0000 0.0000 13.1571 0.0000 13.6215
# 5 -27.7321 -1.7409 -22.9630 0.0000 38.2220 0.0000
# 6 0.0000 0.0000 0.0000 13.6215 0.0000 -27.8006
#
#
#
# Elastic Compliance Matrix: (Units=1/GPa)
#
#
# Indices 1 2 3 4 5 6 
#
# 1 0.010738 0.000217 -0.004419 0.000000 0.005146 0.000000
# 2 0.000217 0.015109 0.000164 0.000000 0.000944 0.000000
# 3 -0.004419 0.000164 0.009379 0.000000 0.002436 0.000000
# 4 0.000000 0.000000 0.000000 0.050425 0.000000 0.024707
# 5 0.005146 0.000944 0.002436 0.000000 0.031403 0.000000
# 6 0.000000 0.000000 0.000000 0.024707 0.000000 -0.023865
#
#
# Mechanical properties :
#
#
# Convention : Reuss Voigt Hill
#
# Bulk Modulus (GPa) = 36.83415 54.02419 45.42917
# Shear Modulus (GPa) = 45.32389 23.32734 34.32561
#
# Velocity S-wave (km/s) = 4.47327 3.20918 3.89288
# Velocity P-wave (km/s) = 6.55303 6.13050 6.34529
#
# Compressibility (1/GPa) = 0.02714872
#
# Stress axis : x y z
#
# Youngs Moduli (GPa) = 93.12335 66.18634 106.62204
#
# Poissons Ratio (x) = -0.01433 0.47120
# Poissons Ratio (y) = -0.02016 -0.01750
# Poissons Ratio (z) = 0.41155 -0.01086
#
# Static dielectric constant tensor:
#      x y z
#    x 1.893210 0.000000 0.004050 
#    y 0.000000 1.877870 0.000000 
#    z 0.004050 0.000000 1.826740 
# 
# From -- ./inp_files/66610.got.cif
#   From: 2010.05.17/outbox.cif.g08.bks.cpg/sg10_34_cif.got.tgz:66610.got - 2010.06.03 11:33:40.
