data_PCOD9143050
_publ_section_title
;
Structure prediction by ZEFSAII (Michael W. Deem and Ramdas Pophale) SiO2 
 PCOD9143050
Probable space group: P 2/M
;
_chemical_formula_sum "Si O2"
_cell_formula_units_Z 32
_cell_length_a 13.939180
_cell_length_b 7.321856
_cell_length_c 32.823080
_cell_angle_alpha 90.000000
_cell_angle_beta 23.335950
_cell_angle_gamma 90.000000
_cell_volume 1326.986104
_symmetry_space_group_name_H-M "P 2/M"
_symmetry_group_IT_number 10
_symmetry_cell_setting 'monoclinic'
loop_
_space_group_symop_operation_xyz
x,y,z
-x,y,-z
-x,-y,-z
x,-y,z
loop_
_atom_site_type_symbol
_atom_site_label
_atom_site_fract_x
_atom_site_fract_y
_atom_site_fract_z
Si Si1 0.386620 0.778162 0.914040
Si Si2 0.779419 0.777031 0.825423
Si Si3 0.925312 0.777146 0.215579
Si Si4 0.854840 0.221336 0.149641
Si Si5 0.226666 0.778439 0.594957
Si Si6 0.514025 0.208922 0.774640
Si Si7 0.997660 0.711309 0.545240
Si Si8 0.596732 0.780955 0.556462
O O1 0.544199 0.717223 0.891771
O O2 0.475644 0.712956 0.834921
O O3 0.408818 0.000000 0.905717
O O4 0.106413 0.734015 0.029367
O O5 0.846152 0.720270 0.845655
O O6 0.007401 0.718818 0.708421
O O7 0.772175 0.000000 0.829372
O O8 0.886521 0.715675 0.184192
O O9 0.680769 0.722350 0.335134
O O10 0.933255 0.000000 0.211311
O O11 0.636902 0.285531 0.205195
O O12 0.832176 0.000000 0.161777
O O13 0.500000 0.726688 0.500000
O O14 0.225991 0.717483 0.548549
O O15 0.217263 0.000000 0.600656
O O16 0.795589 0.206091 0.653215
O O17 0.425773 0.000000 0.812504
O O18 0.928931 0.500000 0.569084
O O19 0.000000 0.795977 0.500000
O O20 0.269271 0.727491 0.455119
O O21 0.588449 0.000000 0.556761
#
# Coordination Sequence:
#
# PCOD9143050 Si02
#       8
#     4   4   4   4   4   4   4   4
#     4   9  17  28  45  71  99 129 164 207 255 295
#     4   9  15  23  36  62 100 135 166 197 242 299
#     4   9  16  25  40  67 100 134 168 203 242 291
#     4   9  17  28  44  68  99 130 163 208 257 297
#     4   9  14  23  41  69 100 129 163 204 243 281
#     4  10  19  34  55  76  97 127 170 210 247 298
#     4  11  24  38  51  72 104 136 163 201 257 309
#     4  10  18  30  51  76 101 133 174 210 241 289
#
# _framework density 24.114798
#
# number of rings (size 3 to 8) (size 9 to 14) (size 15 to 20)
#    0.000    2.500    1.250    2.250    0.000    6.000 
#    0.000    2.500    0.000    1.875    0.000    0.000 
#    0.000    0.000    0.000    8.500    0.000    8.750 
#
# Total GULP energy -178599.930634 kJ/mol
# GULP energy per Si atom -5581.247832 kJ/mol
# Density = 2.405991 g / cm^3
# Si number density = 24.114798 Si / 1000 Ang^3
#
#
#
# Elastic Constant Matrix: (Units=GPa)
#
#
# Indices 1 2 3 4 5 6 
#
# 1 129.2721 0.0316 -1.7753 0.0000 -6.4728 0.0000
# 2 0.0316 90.0808 -4.2289 0.0000 1.9890 0.0000
# 3 -1.7753 -4.2289 32.9980 0.0000 -2.3475 0.0000
# 4 0.0000 0.0000 0.0000 -122.9220 0.0000 43.2776
# 5 -6.4728 1.9890 -2.3475 0.0000 40.2960 0.0000
# 6 0.0000 0.0000 0.0000 43.2776 0.0000 -22.0764
#
#
#
# Elastic Compliance Matrix: (Units=1/GPa)
#
#
# Indices 1 2 3 4 5 6 
#
# 1 0.007807 -0.000007 0.000510 0.000000 0.001284 0.000000
# 2 -0.000007 0.011177 0.001399 0.000000 -0.000471 0.000000
# 3 0.000510 0.001399 0.030639 0.000000 0.001798 0.000000
# 4 0.000000 0.000000 0.000000 -0.026259 0.000000 -0.051477
# 5 0.001284 -0.000471 0.001798 0.000000 0.025151 0.000000
# 6 0.000000 0.000000 0.000000 -0.051477 0.000000 -0.146210
#
#
# Mechanical properties :
#
#
# Convention : Reuss Voigt Hill
#
# Bulk Modulus (GPa) = 18.71702 26.71173 22.71438
# Shear Modulus (GPa) = -59.74524 -3.71890 -31.73207
#
# Velocity S-wave (km/s) = -4.98288 -1.24319 -3.63143
# Velocity P-wave (km/s) = 5.03260 3.00670 2.85366
#
# Compressibility (1/GPa) = 0.05342730
#
# Stress axis : x y z
#
# Youngs Moduli (GPa) = 128.09136 89.46774 32.63765
#
# Poissons Ratio (x) = 0.00064 -0.01666
# Poissons Ratio (y) = 0.00091 -0.04564
# Poissons Ratio (z) = -0.06539 -0.12512
#
# Static dielectric constant tensor:
#      x y z
#    x 1.977550 0.000000 0.034730 
#    y 0.000000 1.976410 0.000000 
#    z 0.034730 0.000000 1.840310 
# 
# From -- ./inp_files/94946.got.cif
#   From: 2010.05.17/outbox.cif.g08.bks.cpg/sg10_48_cif.got.tgz:94946.got - 2010.06.03 11:33:40.
