data_PCOD9143159
_publ_section_title
;
Structure prediction by ZEFSAII (Michael W. Deem and Ramdas Pophale) SiO2 
 PCOD9143159
Probable space group: P 2/M
;
_chemical_formula_sum "Si O2"
_cell_formula_units_Z 32
_cell_length_a 12.618713
_cell_length_b 7.704613
_cell_length_c 22.716822
_cell_angle_alpha 90.000000
_cell_angle_beta 133.535466
_cell_angle_gamma 90.000000
_cell_volume 1601.107191
_symmetry_space_group_name_H-M "P 2/M"
_symmetry_group_IT_number 10
_symmetry_cell_setting 'monoclinic'
loop_
_space_group_symop_operation_xyz
x,y,z
-x,y,-z
-x,-y,-z
x,-y,z
loop_
_atom_site_type_symbol
_atom_site_label
_atom_site_fract_x
_atom_site_fract_y
_atom_site_fract_z
Si Si1 0.123511 0.296022 0.727261
Si Si2 0.113014 0.712398 0.592315
Si Si3 0.264593 0.206475 0.217824
Si Si4 0.552192 0.708569 0.277271
Si Si5 0.728046 0.305249 0.028614
Si Si6 0.015262 0.797945 0.208864
Si Si7 0.827738 0.798972 0.942462
Si Si8 0.450877 0.712476 0.860262
O O1 0.148437 0.500000 0.728154
O O2 0.078050 0.229029 0.645714
O O3 0.009998 0.275383 0.736114
O O4 0.284490 0.228392 0.807251
O O5 0.108762 0.500000 0.589263
O O6 0.281565 0.763366 0.646401
O O7 0.000000 0.774347 0.500000
O O8 0.438547 0.231261 0.283710
O O9 0.227725 0.280240 0.139484
O O10 0.151622 0.275565 0.223227
O O11 0.234774 0.000000 0.202708
O O12 0.549596 0.500000 0.275229
O O13 0.516450 0.764401 0.195567
O O14 0.711179 0.500000 0.046696
O O15 0.860727 0.221469 0.115376
O O16 0.786605 0.306490 0.984035
O O17 0.567195 0.227410 0.953944
O O18 0.044138 0.000000 0.227527
O O19 0.777798 0.000000 0.931829
O O20 0.000000 0.806741 0.000000
O O21 0.459064 0.500000 0.865266
#
# Coordination Sequence:
#
# PCOD9143159 Si02
#       8
#     4   4   4   4   4   4   4   4
#     4   9  18  35  55  74  98 129 166 201 242 300
#     4   8  15  31  59  89 110 126 147 190 254 309
#     4  10  20  32  47  66  97 138 170 206 253 295
#     4   9  16  29  51  79 105 126 159 204 246 295
#     4  11  20  30  47  70  95 129 174 218 256 292
#     4  11  23  37  47  64  99 140 178 210 249 292
#     4  10  18  31  45  62  93 133 173 215 260 293
#     4   8  16  30  47  69  98 127 158 208 260 290
#
# _framework density 19.986169
#
# number of rings (size 3 to 8) (size 9 to 14) (size 15 to 20)
#    0.000    2.500    2.500    2.250    0.000    1.750 
#    0.000    6.250    0.000    2.250    0.000    5.250 
#    0.000    0.000    0.000    0.000    0.000    0.000 
#
# Total GULP energy -178311.128356 kJ/mol
# GULP energy per Si atom -5572.222761 kJ/mol
# Density = 1.994068 g / cm^3
# Si number density = 19.986169 Si / 1000 Ang^3
#
#
#
# Elastic Constant Matrix: (Units=GPa)
#
#
# Indices 1 2 3 4 5 6 
#
# 1 126.9270 -5.2436 63.1046 0.0000 -10.9407 0.0000
# 2 -5.2436 28.2098 -4.7086 0.0000 -0.0507 0.0000
# 3 63.1046 -4.7086 94.9448 0.0000 2.2076 0.0000
# 4 0.0000 0.0000 0.0000-1188.8010 0.0000 2558.1118
# 5 -10.9407 -0.0507 2.2076 0.0000 17.1089 0.0000
# 6 0.0000 0.0000 0.0000 2558.1118 0.0000-5528.6172
#
#
#
# Elastic Compliance Matrix: (Units=1/GPa)
#
#
# Indices 1 2 3 4 5 6 
#
# 1 0.013192 0.000977 -0.008942 0.000000 0.009592 0.000000
# 2 0.000977 0.035817 0.001113 0.000000 0.000587 0.000000
# 3 -0.008942 0.001113 0.016714 0.000000 -0.007872 0.000000
# 4 0.000000 0.000000 0.000000 -0.194056 0.000000 -0.089791
# 5 0.009592 0.000587 -0.007872 0.000000 0.065601 0.000000
# 6 0.000000 0.000000 0.000000 -0.089791 0.000000 -0.041727
#
#
# Mechanical properties :
#
#
# Convention : Reuss Voigt Hill
#
# Bulk Modulus (GPa) = 19.22389 39.59849 29.41119
# Shear Modulus (GPa) = -68.10495 -1326.93326 -697.51910
#
# Velocity S-wave (km/s) = -5.84380 -25.79471 -18.70183
# Velocity P-wave (km/s) = 5.99115 29.44996 21.25081
#
# Compressibility (1/GPa) = 0.05201860
#
# Stress axis : x y z
#
# Youngs Moduli (GPa) = 75.80577 27.91956 59.82951
#
# Poissons Ratio (x) = -0.02727 0.53502
# Poissons Ratio (y) = -0.07404 -0.06662
# Poissons Ratio (z) = 0.67788 -0.03109
#
# Static dielectric constant tensor:
#      x y z
#    x 1.775400 0.000000 0.042100 
#    y 0.000000 1.758770 0.000000 
#    z 0.042100 0.000000 1.724180 
# 
# From -- ./inp_files/80003.got.cif
#   From: 2010.05.17/outbox.cif.g08.bks.cpg/sg10_41_cif.got.tgz:80003.got - 2010.06.03 11:33:40.
