data_PCOD9143684
_publ_section_title
;
Structure prediction by ZEFSAII (Michael W. Deem and Ramdas Pophale) SiO2 
 PCOD9143684
Probable space group: P 2/M
;
_chemical_formula_sum "Si O2"
_cell_formula_units_Z 30
_cell_length_a 14.812345
_cell_length_b 9.857031
_cell_length_c 12.653855
_cell_angle_alpha 90.000000
_cell_angle_beta 106.755983
_cell_angle_gamma 90.000000
_cell_volume 1769.091484
_symmetry_space_group_name_H-M "P 2/M"
_symmetry_group_IT_number 10
_symmetry_cell_setting 'monoclinic'
loop_
_space_group_symop_operation_xyz
x,y,z
-x,y,-z
-x,-y,-z
x,-y,z
loop_
_atom_site_type_symbol
_atom_site_label
_atom_site_fract_x
_atom_site_fract_y
_atom_site_fract_z
Si Si1 0.689049 0.342123 0.300352
Si Si2 0.223894 0.660500 0.897551
Si Si3 0.528900 0.652181 0.744016
Si Si4 0.837727 0.159310 0.746920
Si Si5 0.500000 0.254439 0.500000
Si Si6 0.296310 0.843359 0.494029
Si Si7 0.309370 0.160672 0.111232
Si Si8 0.994360 0.340190 0.122942
O O1 0.705489 0.500000 0.332945
O O2 0.742802 0.311564 0.210308
O O3 0.576349 0.327095 0.246930
O O4 0.716779 0.249173 0.408009
O O5 0.242871 0.500000 0.926279
O O6 0.112177 0.681694 0.874279
O O7 0.277813 0.757610 0.997000
O O8 0.561676 0.500000 0.783043
O O9 0.519448 0.662721 0.613693
O O10 0.598787 0.766402 0.809831
O O11 0.773231 0.196144 0.624666
O O12 0.772964 0.175535 0.829090
O O13 0.929677 0.250421 0.790516
O O14 0.862270 0.000000 0.746725
O O15 0.595508 0.171985 0.508763
O O16 0.279314 0.000000 0.514422
O O17 0.323946 0.000000 0.097956
O O18 0.016841 0.500000 0.141797
O O19 0.000000 0.307166 0.000000
#
# Coordination Sequence:
#
# PCOD9143684 Si02
#       8
#     4   4   4   4   2   4   4   4
#     4   9  21  39  57  79 109 149 188 224 269 325
#     4  10  21  40  60  79 110 144 182 230 278 326
#     4  10  20  34  53  80 111 147 188 224 268 320
#     4  10  21  36  53  82 116 144 174 220 279 330
#     4  10  18  32  54  82 110 144 186 228 270 318
#     4  10  20  35  56  81 112 147 183 225 271 321
#     4  11  22  35  54  83 115 146 182 221 274 330
#     4  10  20  35  58  86 106 135 182 230 278 326
#
# _framework density 16.957854999999999
#
# number of rings (size 3 to 8) (size 9 to 14) (size 15 to 20)
#    0.000    2.000    2.667    0.800    0.000    5.600 
#    0.000    3.333    0.000    4.000    0.000    0.000 
#    0.000    0.000    0.000    0.000    0.000    0.000 
#
# Total GULP energy -167391.487396 kJ/mol
# GULP energy per Si atom -5579.716247 kJ/mol
# Density = 1.691926 g / cm^3
# Si number density = 16.957855 Si / 1000 Ang^3
#
#
#
# Elastic Constant Matrix: (Units=GPa)
#
#
# Indices 1 2 3 4 5 6 
#
# 1 95.3499 58.0309 73.4693 0.0000 -10.2776 0.0000
# 2 58.0309 91.5007 81.3235 0.0000 4.0448 0.0000
# 3 73.4693 81.3235 124.7758 0.0000 2.6644 0.0000
# 4 0.0000 0.0000 0.0000 32.8641 0.0000 6.0156
# 5 -10.2776 4.0448 2.6644 0.0000 28.5075 0.0000
# 6 0.0000 0.0000 0.0000 6.0156 0.0000 12.1626
#
#
#
# Elastic Compliance Matrix: (Units=1/GPa)
#
#
# Indices 1 2 3 4 5 6 
#
# 1 0.022760 -0.006599 -0.009314 0.000000 0.010012 0.000000
# 2 -0.006599 0.028016 -0.014267 0.000000 -0.005021 0.000000
# 3 -0.009314 -0.014267 0.022871 0.000000 -0.003471 0.000000
# 4 0.000000 0.000000 0.000000 0.033457 0.000000 -0.016548
# 5 0.010012 -0.005021 -0.003471 0.000000 0.039725 0.000000
# 6 0.000000 0.000000 0.000000 -0.016548 0.000000 0.090404
#
#
# Mechanical properties :
#
#
# Convention : Reuss Voigt Hill
#
# Bulk Modulus (GPa) = 75.26051 81.91931 78.58991
# Shear Modulus (GPa) = 16.55508 21.29369 18.92438
#
# Velocity S-wave (km/s) = 3.12789 3.54741 3.34423
# Velocity P-wave (km/s) = 7.58434 8.07411 7.83305
#
# Compressibility (1/GPa) = 0.01328718
#
# Stress axis : x y z
#
# Youngs Moduli (GPa) = 43.93705 35.69385 43.72323
#
# Poissons Ratio (x) = 0.23555 0.40724
# Poissons Ratio (y) = 0.28995 0.62379
# Poissons Ratio (z) = 0.40923 0.50924
#
# Static dielectric constant tensor:
#      x y z
#    x 1.555770 0.000000 -0.001860 
#    y 0.000000 1.568510 0.000000 
#    z -0.001860 0.000000 1.549530 
# 
# From -- ./inp_files/50018.got.cif
#   From: 2010.05.17/outbox.cif.g08.bks.cpg/sg10_26_cif.got.tgz:50018.got - 2010.06.03 11:33:40.
