data_PCOD9143217
_publ_section_title
;
Structure prediction by ZEFSAII (Michael W. Deem and Ramdas Pophale) SiO2 
 PCOD9143217
Probable space group: P 2/M
;
_chemical_formula_sum "Si O2"
_cell_formula_units_Z 24
_cell_length_a 12.293351
_cell_length_b 7.960118
_cell_length_c 20.554796
_cell_angle_alpha 90.000000
_cell_angle_beta 139.231616
_cell_angle_gamma 90.000000
_cell_volume 1313.463464
_symmetry_space_group_name_H-M "P 2/M"
_symmetry_group_IT_number 10
_symmetry_cell_setting 'monoclinic'
loop_
_space_group_symop_operation_xyz
x,y,z
-x,y,-z
-x,-y,-z
x,-y,z
loop_
_atom_site_type_symbol
_atom_site_label
_atom_site_fract_x
_atom_site_fract_y
_atom_site_fract_z
Si Si1 0.076739 0.809142 0.859081
Si Si2 0.842514 0.706374 0.386284
Si Si3 0.802398 0.702229 0.220004
Si Si4 0.521577 0.304948 0.759016
Si Si5 0.432518 0.304898 0.064163
Si Si6 0.876144 0.696921 0.888457
O O1 0.079869 0.754325 0.785512
O O2 0.964553 0.708175 0.859064
O O3 0.022658 0.000000 0.839809
O O4 0.267896 0.790301 0.968904
O O5 0.838255 0.500000 0.384297
O O6 0.853341 0.758234 0.315413
O O7 0.664127 0.766411 0.333458
O O8 0.000000 0.759163 0.500000
O O9 0.793705 0.500000 0.217660
O O10 0.611336 0.759207 0.120466
O O11 0.510405 0.500000 0.732283
O O12 0.551965 0.304101 0.850608
O O13 0.689694 0.228917 0.805120
O O14 0.410385 0.500000 0.033584
O O15 0.854533 0.500000 0.896182
O O16 0.000000 0.769282 0.000000
#
# Coordination Sequence:
#
# PCOD9143217 Si02
#       6
#     4   4   4   4   4   4
#     4  12  23  30  41  65 100 132 160 196 234 272
#     4   8  14  27  51  80 100 111 139 199 256 284
#     4   9  18  31  49  70  94 125 159 191 233 290
#     4   8  14  26  46  71  94 120 154 190 233 281
#     4   9  16  30  48  66  91 126 164 193 225 278
#     4  10  18  31  50  66  90 130 169 195 220 273
#
# _framework density 18.272302
#
# number of rings (size 3 to 8) (size 9 to 14) (size 15 to 20)
#    0.000    2.667    1.667    4.000    0.000    3.000 
#    0.000    0.000    0.000    1.500    0.000    7.000 
#    0.000    0.000    0.000    0.000    0.000    0.000 
#
# Total GULP energy -133751.239269 kJ/mol
# GULP energy per Si atom -5572.968303 kJ/mol
# Density = 1.823071 g / cm^3
# Si number density = 18.272302 Si / 1000 Ang^3
#
#
#
# Elastic Constant Matrix: (Units=GPa)
#
#
# Indices 1 2 3 4 5 6 
#
# 1 123.4766 -5.2995 55.1289 0.0000 17.5763 0.0000
# 2 -5.2995 14.0445 4.6697 0.0000 3.4040 0.0000
# 3 55.1289 4.6697 113.1436 0.0000 17.8662 0.0000
# 4 0.0000 0.0000 0.0000 71.5095 0.0000 -28.7809
# 5 17.5763 3.4040 17.8662 0.0000 17.5516 0.0000
# 6 0.0000 0.0000 0.0000 -28.7809 0.0000 -2.0958
#
#
#
# Elastic Compliance Matrix: (Units=1/GPa)
#
#
# Indices 1 2 3 4 5 6 
#
# 1 0.011769 0.008082 -0.004718 0.000000 -0.008551 0.000000
# 2 0.008082 0.080350 -0.004189 0.000000 -0.019413 0.000000
# 3 -0.004718 -0.004189 0.012434 0.000000 -0.007120 0.000000
# 4 0.000000 0.000000 0.000000 0.002143 0.000000 -0.029422
# 5 -0.008551 -0.019413 -0.007120 0.000000 0.076550 0.000000
# 6 0.000000 0.000000 0.000000 -0.029422 0.000000 -0.073102
#
#
# Mechanical properties :
#
#
# Convention : Reuss Voigt Hill
#
# Bulk Modulus (GPa) = 9.71779 39.96256 24.84017
# Shear Modulus (GPa) = 34.22453 30.47077 32.34765
#
# Velocity S-wave (km/s) = 4.33254 4.08805 4.21207
# Velocity P-wave (km/s) = 5.50979 6.64838 6.10568
#
# Compressibility (1/GPa) = 0.10290403
#
# Stress axis : x y z
#
# Youngs Moduli (GPa) = 84.96838 12.44560 80.42269
#
# Poissons Ratio (x) = -0.10059 0.37942
# Poissons Ratio (y) = -0.68672 0.33687
# Poissons Ratio (z) = 0.40086 0.05213
#
# Static dielectric constant tensor:
#      x y z
#    x 1.656530 0.000000 0.014480 
#    y 0.000000 1.651120 0.000000 
#    z 0.014480 0.000000 1.623570 
# 
# From -- ./inp_files/45147.got.cif
#   From: 2010.05.17/outbox.cif.g08.bks.cpg/sg10_23_cif.got.tgz:45147.got - 2010.06.03 11:33:40.
