data_PCOD9143618
_publ_section_title
;
Structure prediction by ZEFSAII (Michael W. Deem and Ramdas Pophale) SiO2 
 PCOD9143618
Probable space group: P 2/M
;
_chemical_formula_sum "Si O2"
_cell_formula_units_Z 28
_cell_length_a 19.596738
_cell_length_b 8.641958
_cell_length_c 14.769758
_cell_angle_alpha 90.000000
_cell_angle_beta 41.749271
_cell_angle_gamma 90.000000
_cell_volume 1665.559621
_symmetry_space_group_name_H-M "P 2/M"
_symmetry_group_IT_number 10
_symmetry_cell_setting 'monoclinic'
loop_
_space_group_symop_operation_xyz
x,y,z
-x,y,-z
-x,-y,-z
x,-y,z
loop_
_atom_site_type_symbol
_atom_site_label
_atom_site_fract_x
_atom_site_fract_y
_atom_site_fract_z
Si Si1 0.603420 0.183940 0.291154
Si Si2 0.209157 0.312920 0.005488
Si Si3 0.195568 0.816628 0.594618
Si Si4 0.618339 0.316027 0.475734
Si Si5 0.120717 0.312702 0.484059
Si Si6 0.000346 0.686213 0.105892
Si Si7 0.119052 0.687632 0.282882
O O1 0.690642 0.237942 0.136115
O O2 0.634240 0.239860 0.361377
O O3 0.493246 0.260415 0.380955
O O4 0.592451 0.000000 0.301972
O O5 0.219827 0.500000 0.993312
O O6 0.108768 0.274709 0.044853
O O7 0.185414 0.261621 0.131725
O O8 0.292022 0.736201 0.546565
O O9 0.182492 0.762543 0.504136
O O10 0.093009 0.764898 0.749260
O O11 0.207051 0.000000 0.588495
O O12 0.618499 0.500000 0.464675
O O13 0.127390 0.500000 0.484152
O O14 0.151514 0.264643 0.351693
O O15 0.000271 0.270391 0.613241
O O16 0.987122 0.500000 0.126870
O O17 0.000000 0.726072 0.000000
O O18 0.120408 0.500000 0.281615
#
# Coordination Sequence:
#
# PCOD9143618 Si02
#       7
#     4   4   4   4   4   4   4
#     4  11  22  37  56  82 112 139 172 221 272 317
#     4  10  18  32  53  79 109 144 183 219 258 312
#     4  12  23  34  51  79 112 141 171 218 277 325
#     4  11  22  39  60  78 100 140 188 225 257 310
#     4   9  16  32  54  77 103 140 184 223 261 309
#     4  10  20  33  51  75 105 143 182 216 256 313
#     4   8  15  29  54  79 103 138 185 227 256 302
#
# _framework density 16.811167000000001
#
# number of rings (size 3 to 8) (size 9 to 14) (size 15 to 20)
#    0.000    1.857    1.429    6.429    0.000    2.000 
#    0.000    2.143    0.000    0.857    0.000    6.000 
#    0.000    0.000    0.000    0.000    0.000    0.000 
#
# Total GULP energy -156342.281212 kJ/mol
# GULP energy per Si atom -5583.652900 kJ/mol
# Density = 1.677290 g / cm^3
# Si number density = 16.811167 Si / 1000 Ang^3
#
#
#
# Elastic Constant Matrix: (Units=GPa)
#
#
# Indices 1 2 3 4 5 6 
#
# 1 43.8747 -10.6145 32.5089 0.0000 6.6089 0.0000
# 2 -10.6145 23.6108 2.9662 0.0000 2.0303 0.0000
# 3 32.5089 2.9662 102.4130 0.0000 13.5848 0.0000
# 4 0.0000 0.0000 0.0000 -4.2378 0.0000 8.3074
# 5 6.6089 2.0303 13.5848 0.0000 19.6272 0.0000
# 6 0.0000 0.0000 0.0000 8.3074 0.0000 -4.4881
#
#
#
# Elastic Compliance Matrix: (Units=1/GPa)
#
#
# Indices 1 2 3 4 5 6 
#
# 1 0.036582 0.018416 -0.011296 0.000000 -0.006404 0.000000
# 2 0.018416 0.052052 -0.006404 0.000000 -0.007153 0.000000
# 3 -0.011296 -0.006404 0.014252 0.000000 -0.005398 0.000000
# 4 0.000000 0.000000 0.000000 0.089773 0.000000 0.166169
# 5 -0.006404 -0.007153 -0.005398 0.000000 0.057582 0.000000
# 6 0.000000 0.000000 0.000000 0.166169 0.000000 0.084766
#
#
# Mechanical properties :
#
#
# Convention : Reuss Voigt Hill
#
# Bulk Modulus (GPa) = 9.58625 24.40217 16.99421
# Shear Modulus (GPa) = 13.57409 11.84946 12.71178
#
# Velocity S-wave (km/s) = 2.84464 2.65779 2.75280
# Velocity P-wave (km/s) = 4.06251 4.89545 4.49830
#
# Compressibility (1/GPa) = 0.10431605
#
# Stress axis : x y z
#
# Youngs Moduli (GPa) = 27.33594 19.21149 70.16763
#
# Poissons Ratio (x) = -0.35379 0.79261
# Poissons Ratio (y) = -0.50341 0.44939
# Poissons Ratio (z) = 0.30879 0.12304
#
# Static dielectric constant tensor:
#      x y z
#    x 1.555370 0.000000 0.017180 
#    y 0.000000 1.561980 0.000000 
#    z 0.017180 0.000000 1.553590 
# 
# From -- ./inp_files/54705.got.cif
#   From: 2010.05.17/outbox.cif.g08.bks.cpg/sg10_28_cif.got.tgz:54705.got - 2010.06.03 11:33:40.
