data_PCOD9143041
_publ_section_title
;
Structure prediction by ZEFSAII (Michael W. Deem and Ramdas Pophale) SiO2 
 PCOD9143041
Probable space group: P 2/M
;
_chemical_formula_sum "Si O2"
_cell_formula_units_Z 32
_cell_length_a 15.378006
_cell_length_b 8.546584
_cell_length_c 15.511515
_cell_angle_alpha 90.000000
_cell_angle_beta 79.422176
_cell_angle_gamma 90.000000
_cell_volume 2004.025236
_symmetry_space_group_name_H-M "P 2/M"
_symmetry_group_IT_number 10
_symmetry_cell_setting 'monoclinic'
loop_
_space_group_symop_operation_xyz
x,y,z
-x,y,-z
-x,-y,-z
x,-y,z
loop_
_atom_site_type_symbol
_atom_site_label
_atom_site_fract_x
_atom_site_fract_y
_atom_site_fract_z
Si Si1 0.119343 0.687901 0.116374
Si Si2 0.203554 0.814416 0.925842
Si Si3 0.573209 0.813475 0.873417
Si Si4 0.752174 0.189624 0.756832
Si Si5 0.388712 0.315332 0.944497
Si Si6 0.872624 0.810185 0.582405
Si Si7 0.081433 0.313092 0.798440
Si Si8 0.068222 0.189331 0.612471
O O1 0.123951 0.500000 0.111432
O O2 0.184926 0.747625 0.178785
O O3 0.018847 0.733847 0.157352
O O4 0.150108 0.756215 0.019617
O O5 0.300206 0.736932 0.912933
O O6 0.149848 0.764997 0.851204
O O7 0.213331 0.000000 0.928363
O O8 0.651493 0.764025 0.794986
O O9 0.478974 0.730865 0.879591
O O10 0.560973 0.000000 0.870334
O O11 0.606114 0.771111 0.963929
O O12 0.793267 0.242097 0.658308
O O13 0.755402 0.000000 0.759529
O O14 0.387269 0.500000 0.960935
O O15 0.876460 0.760374 0.482103
O O16 0.966190 0.767195 0.609646
O O17 0.871452 0.000000 0.580802
O O18 0.087628 0.500000 0.805620
O O19 0.096180 0.262875 0.697249
O O20 0.071683 0.000000 0.618444
#
# Coordination Sequence:
#
# PCOD9143041 Si02
#       8
#     4   4   4   4   4   4   4   4
#     4  11  22  34  48  70 103 136 168 206 245 292
#     4  12  24  37  53  71  94 131 175 213 246 295
#     4  10  19  31  50  75 101 131 169 207 243 295
#     4  10  18  30  51  75 102 135 169 205 245 290
#     4  11  21  34  51  71  99 132 163 206 256 298
#     4   8  15  28  49  75 100 129 168 209 247 287
#     4  11  23  36  49  71 102 135 170 209 250 295
#     4   9  16  30  51  72  97 132 172 209 243 289
#
# _framework density 15.967862
#
# number of rings (size 3 to 8) (size 9 to 14) (size 15 to 20)
#    0.000    1.750    2.500    5.250    0.000    3.500 
#    0.000    1.875    0.000    0.000    0.000    0.875 
#    0.000    7.000    0.000    0.000    0.000    0.000 
#
# Total GULP energy -178624.461586 kJ/mol
# GULP energy per Si atom -5582.014425 kJ/mol
# Density = 1.593152 g / cm^3
# Si number density = 15.967862 Si / 1000 Ang^3
#
#
#
# Elastic Constant Matrix: (Units=GPa)
#
#
# Indices 1 2 3 4 5 6 
#
# 1 77.6665 6.3711 55.8563 0.0000 -9.6001 0.0000
# 2 6.3711 20.5076 8.1524 0.0000 -0.9184 0.0000
# 3 55.8563 8.1524 109.8420 0.0000 -13.9624 0.0000
# 4 0.0000 0.0000 0.0000 101.6315 0.0000 -1.4892
# 5 -9.6001 -0.9184 -13.9624 0.0000 24.1259 0.0000
# 6 0.0000 0.0000 0.0000 -1.4892 0.0000 20.2469
#
#
#
# Elastic Compliance Matrix: (Units=1/GPa)
#
#
# Indices 1 2 3 4 5 6 
#
# 1 0.020521 -0.002308 -0.009970 0.000000 0.002307 0.000000
# 2 -0.002308 0.050506 -0.002641 0.000000 -0.000525 0.000000
# 3 -0.009970 -0.002641 0.014953 0.000000 0.004586 0.000000
# 4 0.000000 0.000000 0.000000 0.009850 0.000000 0.000724
# 5 0.002307 -0.000525 0.004586 0.000000 0.045001 0.000000
# 6 0.000000 0.000000 0.000000 0.000724 0.000000 0.049444
#
#
# Mechanical properties :
#
#
# Convention : Reuss Voigt Hill
#
# Bulk Modulus (GPa) = 17.81275 38.75285 28.28280
# Shear Modulus (GPa) = 20.93553 38.37661 29.65607
#
# Velocity S-wave (km/s) = 3.62485 4.90773 4.31424
# Velocity P-wave (km/s) = 5.35714 7.51242 6.52439
#
# Compressibility (1/GPa) = 0.05613957
#
# Stress axis : x y z
#
# Youngs Moduli (GPa) = 48.73132 19.79957 66.87592
#
# Poissons Ratio (x) = 0.04570 0.66678
# Poissons Ratio (y) = 0.11249 0.17664
# Poissons Ratio (z) = 0.48587 0.05230
#
# Static dielectric constant tensor:
#      x y z
#    x 1.529640 0.000000 -0.029360 
#    y 0.000000 1.537290 0.000000 
#    z -0.029360 0.000000 1.524520 
# 
# From -- ./inp_files/66110.got.cif
#   From: 2010.05.17/outbox.cif.g08.bks.cpg/sg10_34_cif.got.tgz:66110.got - 2010.06.03 11:33:40.
