data_PCOD9143990
_publ_section_title
;
Structure prediction by ZEFSAII (Michael W. Deem and Ramdas Pophale) SiO2 
 PCOD9143990
Probable space group: P 2/M
;
_chemical_formula_sum "Si O2"
_cell_formula_units_Z 24
_cell_length_a 12.418947
_cell_length_b 17.552475
_cell_length_c 17.217901
_cell_angle_alpha 90.000000
_cell_angle_beta 19.846271
_cell_angle_gamma 90.000000
_cell_volume 1274.207369
_symmetry_space_group_name_H-M "P 2/M"
_symmetry_group_IT_number 10
_symmetry_cell_setting 'monoclinic'
loop_
_space_group_symop_operation_xyz
x,y,z
-x,y,-z
-x,-y,-z
x,-y,z
loop_
_atom_site_type_symbol
_atom_site_label
_atom_site_fract_x
_atom_site_fract_y
_atom_site_fract_z
Si Si1 0.259493 0.713224 0.049566
Si Si2 0.636633 0.585701 0.720890
Si Si3 0.773544 0.753706 0.257956
Si Si4 0.037878 0.916105 0.067495
Si Si5 0.316072 0.711002 0.437022
Si Si6 0.657753 0.838560 0.710861
O O1 0.461507 0.636767 0.904836
O O2 0.484351 0.788287 0.896226
O O3 0.085655 0.717837 0.083108
O O4 0.989643 0.711834 0.298318
O O5 0.508158 0.500000 0.801749
O O6 0.637289 0.631517 0.639072
O O7 0.000000 0.582066 0.500000
O O8 0.500000 0.725499 0.500000
O O9 0.633116 0.734782 0.269531
O O10 0.826173 0.843907 0.234177
O O11 0.949358 0.000000 0.157435
O O12 0.393513 0.895175 0.854858
O O13 0.000000 0.917819 0.000000
O O14 0.264088 0.775112 0.407214
O O15 0.000000 0.872907 0.500000
#
# Coordination Sequence:
#
# PCOD9143990 Si02
#       6
#     4   4   4   4   4   4
#     4   9  19  33  54  78 102 133 176 213 254 309
#     4  10  22  36  50  74 104 135 172 208 253 315
#     4   9  18  33  54  80 100 130 175 217 252 305
#     4  10  19  33  53  75 103 141 175 207 260 317
#     4  10  18  34  55  76 104 135 169 216 261 298
#     4  10  20  32  51  79 106 135 177 221 256 302
#
# _framework density 18.835239000000001
#
# number of rings (size 3 to 8) (size 9 to 14) (size 15 to 20)
#    0.000    2.333    1.667    2.000    0.000    4.000 
#    0.000    3.333    0.000    3.000    0.000    4.667 
#    0.000    0.000    0.000    0.000    0.000    0.000 
#
# Total GULP energy -133655.385299 kJ/mol
# GULP energy per Si atom -5568.974387 kJ/mol
# Density = 1.879237 g / cm^3
# Si number density = 18.835239 Si / 1000 Ang^3
#
#
#
# Elastic Constant Matrix: (Units=GPa)
#
#
# Indices 1 2 3 4 5 6 
#
# 1 35.2683 5.4967 12.2343 0.0000 -4.7792 0.0000
# 2 5.4967 83.8939 11.2668 0.0000 -6.2641 0.0000
# 3 12.2343 11.2668 87.7919 0.0000 -3.4724 0.0000
# 4 0.0000 0.0000 0.0000 6.3255 0.0000 4.0555
# 5 -4.7792 -6.2641 -3.4724 0.0000 40.3351 0.0000
# 6 0.0000 0.0000 0.0000 4.0555 0.0000 5.0126
#
#
#
# Elastic Compliance Matrix: (Units=1/GPa)
#
#
# Indices 1 2 3 4 5 6 
#
# 1 0.030330 -0.001228 -0.003948 0.000000 0.003063 0.000000
# 2 -0.001228 0.012304 -0.001343 0.000000 0.001650 0.000000
# 3 -0.003948 -0.001343 0.012128 0.000000 0.000368 0.000000
# 4 0.000000 0.000000 0.000000 0.328467 0.000000 -0.265747
# 5 0.003063 0.001650 0.000368 0.000000 0.025443 0.000000
# 6 0.000000 0.000000 0.000000 -0.265747 0.000000 0.414501
#
#
# Mechanical properties :
#
#
# Convention : Reuss Voigt Hill
#
# Bulk Modulus (GPa) = 23.96708 29.43886 26.70297
# Shear Modulus (GPa) = 5.88154 22.19840 14.03997
#
# Velocity S-wave (km/s) = 1.76901 3.43674 2.73318
# Velocity P-wave (km/s) = 4.11397 5.60462 4.91612
#
# Compressibility (1/GPa) = 0.04172389
#
# Stress axis : x y z
#
# Youngs Moduli (GPa) = 32.97057 81.27584 82.45671
#
# Poissons Ratio (x) = 0.09983 0.32553
# Poissons Ratio (y) = 0.04050 0.11071
# Poissons Ratio (z) = 0.13016 0.10912
#
# Static dielectric constant tensor:
#      x y z
#    x 1.689530 0.000000 -0.019960 
#    y 0.000000 1.642910 0.000000 
#    z -0.019960 0.000000 1.695540 
# 
# From -- ./inp_files/54171.got.cif
#   From: 2010.05.17/outbox.cif.g08.bks.cpg/sg10_28_cif.got.tgz:54171.got - 2010.06.03 11:33:40.
