data_PCOD9143108
_publ_section_title
;
Structure prediction by ZEFSAII (Michael W. Deem and Ramdas Pophale) SiO2 
 PCOD9143108
Probable space group: P 2/M
;
_chemical_formula_sum "Si O2"
_cell_formula_units_Z 30
_cell_length_a 11.703183
_cell_length_b 9.449349
_cell_length_c 15.134269
_cell_angle_alpha 90.000000
_cell_angle_beta 111.848149
_cell_angle_gamma 90.000000
_cell_volume 1553.447070
_symmetry_space_group_name_H-M "P 2/M"
_symmetry_group_IT_number 10
_symmetry_cell_setting 'monoclinic'
loop_
_space_group_symop_operation_xyz
x,y,z
-x,y,-z
-x,-y,-z
x,-y,z
loop_
_atom_site_type_symbol
_atom_site_label
_atom_site_fract_x
_atom_site_fract_y
_atom_site_fract_z
Si Si1 0.029675 0.161296 0.311900
Si Si2 0.141725 0.827508 0.037917
Si Si3 0.000000 0.750293 0.500000
Si Si4 0.719863 0.330778 0.621622
Si Si5 0.653594 0.168962 0.767746
Si Si6 0.784144 0.828579 0.132524
Si Si7 0.394456 0.169072 0.769832
Si Si8 0.276935 0.660105 0.577562
O O1 0.000030 0.164903 0.407935
O O2 0.143437 0.265040 0.328655
O O3 0.909068 0.203859 0.222378
O O4 0.062948 0.000000 0.295860
O O5 0.222352 0.787141 0.145581
O O6 0.141501 0.000000 0.037049
O O7 0.203297 0.778350 0.964122
O O8 0.000000 0.781737 0.000000
O O9 0.872118 0.665171 0.464842
O O10 0.720568 0.500000 0.631484
O O11 0.640140 0.255176 0.673609
O O12 0.682425 0.298180 0.509741
O O13 0.538721 0.195936 0.799305
O O14 0.657500 0.000000 0.751079
O O15 0.668942 0.779916 0.158008
O O16 0.777402 0.000000 0.126211
O O17 0.326484 0.238293 0.667145
O O18 0.376473 0.000000 0.760208
O O19 0.318039 0.500000 0.606494
#
# Coordination Sequence:
#
# PCOD9143108 Si02
#       8
#     4   4   2   4   4   4   4   4
#     4  10  18  30  53  82 112 144 179 223 276 327
#     4   9  17  31  56  85 111 140 180 228 279 331
#     4  10  18  30  52  82 112 142 182 228 268 318
#     4  10  22  37  54  78 109 147 189 235 278 328
#     4  10  21  37  57  81 108 144 188 235 281 327
#     4   9  17  31  52  82 115 145 178 222 274 331
#     4  10  21  36  54  81 115 146 185 230 275 328
#     4  10  21  36  54  78 110 150 190 225 272 329
#
# _framework density 19.311889999999998
#
# number of rings (size 3 to 8) (size 9 to 14) (size 15 to 20)
#    0.000    2.267    1.333    1.600    0.000    6.933 
#    0.000    5.333    0.000    4.400    0.000    1.867 
#    0.000    0.000    0.000    0.000    0.000    0.000 
#
# Total GULP energy -167369.574397 kJ/mol
# GULP energy per Si atom -5578.985813 kJ/mol
# Density = 1.926794 g / cm^3
# Si number density = 19.311890 Si / 1000 Ang^3
#
#
#
# Elastic Constant Matrix: (Units=GPa)
#
#
# Indices 1 2 3 4 5 6 
#
# 1 74.7525 18.4295 31.9829 0.0000 -21.0461 0.0000
# 2 18.4295 21.2618 13.4922 0.0000 -5.9342 0.0000
# 3 31.9829 13.4922 73.7909 0.0000 -20.2678 0.0000
# 4 0.0000 0.0000 0.0000 -7.3956 0.0000 2.4291
# 5 -21.0461 -5.9342 -20.2678 0.0000 33.8529 0.0000
# 6 0.0000 0.0000 0.0000 2.4291 0.0000 3.5969
#
#
#
# Elastic Compliance Matrix: (Units=1/GPa)
#
#
# Indices 1 2 3 4 5 6 
#
# 1 0.020692 -0.012908 -0.004424 0.000000 0.007953 0.000000
# 2 -0.012908 0.061761 -0.005898 0.000000 -0.000730 0.000000
# 3 -0.004424 -0.005898 0.018560 0.000000 0.007328 0.000000
# 4 0.000000 0.000000 0.000000 -0.110668 0.000000 0.074738
# 5 0.007953 -0.000730 0.007328 0.000000 0.038743 0.000000
# 6 0.000000 0.000000 0.000000 0.074738 0.000000 0.227542
#
#
# Mechanical properties :
#
#
# Convention : Reuss Voigt Hill
#
# Bulk Modulus (GPa) = 18.33118 33.06824 25.69971
# Shear Modulus (GPa) = 15.56302 13.07091 14.31696
#
# Velocity S-wave (km/s) = 2.84188 2.60442 2.72574
# Velocity P-wave (km/s) = 4.50346 5.11903 4.82108
#
# Compressibility (1/GPa) = 0.05455185
#
# Stress axis : x y z
#
# Youngs Moduli (GPa) = 48.32869 16.19151 53.87825
#
# Poissons Ratio (x) = 0.20901 0.23835
# Poissons Ratio (y) = 0.62385 0.31778
# Poissons Ratio (z) = 0.21380 0.09550
#
# Static dielectric constant tensor:
#      x y z
#    x 1.711980 0.000000 -0.018000 
#    y 0.000000 1.638700 0.000000 
#    z -0.018000 0.000000 1.658530 
# 
# From -- ./inp_files/63854.got.cif
#   From: 2010.05.17/outbox.cif.g08.bks.cpg/sg10_32_cif.got.tgz:63854.got - 2010.06.03 11:33:40.
