data_PCOD9143599
_publ_section_title
;
Structure prediction by ZEFSAII (Michael W. Deem and Ramdas Pophale) SiO2 
 PCOD9143599
Probable space group: P 2/M
;
_chemical_formula_sum "Si O2"
_cell_formula_units_Z 28
_cell_length_a 29.049148
_cell_length_b 8.535147
_cell_length_c 9.941845
_cell_angle_alpha 90.000000
_cell_angle_beta 39.260271
_cell_angle_gamma 90.000000
_cell_volume 1559.940933
_symmetry_space_group_name_H-M "P 2/M"
_symmetry_group_IT_number 10
_symmetry_cell_setting 'monoclinic'
loop_
_space_group_symop_operation_xyz
x,y,z
-x,y,-z
-x,-y,-z
x,-y,z
loop_
_atom_site_type_symbol
_atom_site_label
_atom_site_fract_x
_atom_site_fract_y
_atom_site_fract_z
Si Si1 0.952232 0.687655 0.298030
Si Si2 0.691425 0.689877 0.826259
Si Si3 0.813342 0.310844 0.768129
Si Si4 0.900844 0.186169 0.125805
Si Si5 0.257422 0.688345 0.578173
Si Si6 0.417308 0.689822 0.705049
Si Si7 0.296840 0.814005 0.773431
O O1 0.960354 0.500000 0.282251
O O2 0.894982 0.734362 0.542837
O O3 0.917010 0.734831 0.234053
O O4 0.031088 0.766169 0.121554
O O5 0.690382 0.500000 0.825073
O O6 0.760533 0.733537 0.762628
O O7 0.702560 0.743533 0.649014
O O8 0.620154 0.740654 0.069757
O O9 0.810578 0.500000 0.786558
O O10 0.776587 0.238187 0.982307
O O11 0.824593 0.247218 0.243232
O O12 0.899453 0.000000 0.146265
O O13 0.254828 0.500000 0.583482
O O14 0.295220 0.746357 0.627648
O O15 0.500000 0.743252 0.500000
O O16 0.416768 0.500000 0.703654
O O17 0.363818 0.747598 0.708904
O O18 0.300559 0.000000 0.761879
#
# Coordination Sequence:
#
# PCOD9143599 Si02
#       7
#     4   4   4   4   4   4   4
#     4  10  18  32  53  76 103 141 189 229 267 318
#     4   8  15  30  55  83 103 131 179 225 260 303
#     4   9  17  34  56  78 102 137 188 231 264 317
#     4  11  21  31  47  77 113 142 177 227 281 322
#     4  11  20  36  56  76 106 146 187 225 265 319
#     4   9  18  37  63  87 109 137 177 220 260 314
#     4  11  23  36  53  81 114 144 174 217 277 330
#
# _framework density 17.949399
#
# number of rings (size 3 to 8) (size 9 to 14) (size 15 to 20)
#    0.000    2.143    1.429    5.143    0.000    1.429 
#    0.000    2.143    0.000    8.571    0.000    0.000 
#    0.000    0.000    0.000    0.000    0.000    0.000 
#
# Total GULP energy -156236.721178 kJ/mol
# GULP energy per Si atom -5579.882899 kJ/mol
# Density = 1.790855 g / cm^3
# Si number density = 17.949399 Si / 1000 Ang^3
#
#
#
# Elastic Constant Matrix: (Units=GPa)
#
#
# Indices 1 2 3 4 5 6 
#
# 1 74.7734 11.0565 65.4003 0.0000 7.8062 0.0000
# 2 11.0565 27.2471 19.8739 0.0000 0.4906 0.0000
# 3 65.4003 19.8739 147.6562 0.0000 -3.0762 0.0000
# 4 0.0000 0.0000 0.0000 -9.2390 0.0000 -8.2580
# 5 7.8062 0.4906 -3.0762 0.0000 31.2928 0.0000
# 6 0.0000 0.0000 0.0000 -8.2580 0.0000 -2.0144
#
#
#
# Elastic Compliance Matrix: (Units=1/GPa)
#
#
# Indices 1 2 3 4 5 6 
#
# 1 0.023281 -0.001886 -0.010199 0.000000 -0.006781 0.000000
# 2 -0.001886 0.040893 -0.004682 0.000000 -0.000631 0.000000
# 3 -0.010199 -0.004682 0.011999 0.000000 0.003797 0.000000
# 4 0.000000 0.000000 0.000000 0.040627 0.000000 -0.166548
# 5 -0.006781 -0.000631 0.003797 0.000000 0.034031 0.000000
# 6 0.000000 0.000000 0.000000 -0.166548 0.000000 0.186333
#
#
# Mechanical properties :
#
#
# Convention : Reuss Voigt Hill
#
# Bulk Modulus (GPa) = 23.45258 49.14870 36.30064
# Shear Modulus (GPa) = 12.99001 14.23094 13.61048
#
# Velocity S-wave (km/s) = 2.69309 2.81879 2.75666
# Velocity P-wave (km/s) = 4.77123 6.16728 5.51362
#
# Compressibility (1/GPa) = 0.04263924
#
# Stress axis : x y z
#
# Youngs Moduli (GPa) = 42.95316 24.45427 83.33885
#
# Poissons Ratio (x) = 0.04612 0.84999
# Poissons Ratio (y) = 0.08100 0.39018
# Poissons Ratio (z) = 0.43809 0.11449
#
# Static dielectric constant tensor:
#      x y z
#    x 1.582670 0.000000 0.003050 
#    y 0.000000 1.596830 0.000000 
#    z 0.003050 0.000000 1.639070 
# 
# From -- ./inp_files/37092.got.cif
#   From: 2010.05.17/outbox.cif.g08.bks.cpg/sg10_19_cif.got.tgz:37092.got - 2010.06.03 11:33:40.
