data_PCOD9143400
_publ_section_title
;
Structure prediction by ZEFSAII (Michael W. Deem and Ramdas Pophale) SiO2 
 PCOD9143400
Probable space group: P 2/M
;
_chemical_formula_sum "Si O2"
_cell_formula_units_Z 28
_cell_length_a 27.849083
_cell_length_b 13.933501
_cell_length_c 22.002680
_cell_angle_alpha 90.000000
_cell_angle_beta 11.381537
_cell_angle_gamma 90.000000
_cell_volume 1684.864751
_symmetry_space_group_name_H-M "P 2/M"
_symmetry_group_IT_number 10
_symmetry_cell_setting 'monoclinic'
loop_
_space_group_symop_operation_xyz
x,y,z
-x,y,-z
-x,-y,-z
x,-y,z
loop_
_atom_site_type_symbol
_atom_site_label
_atom_site_fract_x
_atom_site_fract_y
_atom_site_fract_z
Si Si1 0.825745 0.611118 0.388346
Si Si2 0.091804 0.888664 0.113603
Si Si3 0.429417 0.794757 0.255065
Si Si4 0.195226 0.112519 0.128196
Si Si5 0.352075 0.295115 0.745915
Si Si6 0.259844 0.386597 0.648911
Si Si7 0.313123 0.111009 0.175685
O O1 0.791035 0.500000 0.447433
O O2 0.662479 0.685778 0.628372
O O3 0.759050 0.624350 0.400022
O O4 0.107178 0.641248 0.047526
O O5 0.135352 0.874776 0.131689
O O6 0.813144 0.859737 0.446406
O O7 0.134627 0.000000 0.045751
O O8 0.262582 0.813868 0.866666
O O9 0.586899 0.822500 0.118365
O O10 0.593047 0.821645 0.994147
O O11 0.953468 0.132707 0.467647
O O12 0.256134 0.000000 0.061906
O O13 0.500000 0.306618 0.500000
O O14 0.525505 0.328347 0.585522
O O15 0.295133 0.500000 0.618668
O O16 0.000000 0.357961 0.000000
O O17 0.313727 0.000000 0.152967
O O18 0.500000 0.116258 0.000000
#
# Coordination Sequence:
#
# PCOD9143400 Si02
#       7
#     4   4   4   4   4   4   4
#     4  10  22  37  54  78 104 133 171 218 263 307
#     4  10  21  35  50  74 109 143 172 209 253 305
#     4  11  20  33  54  77 105 138 171 210 260 309
#     4  10  19  32  54  80 105 135 173 213 252 299
#     4  11  21  34  55  79 103 136 175 213 259 313
#     4  10  19  33  55  78 100 124 163 223 271 301
#     4  10  18  31  53  81 109 135 169 213 254 296
#
# _framework density 16.618544
#
# number of rings (size 3 to 8) (size 9 to 14) (size 15 to 20)
#    0.000    1.714    2.857    3.000    0.000    2.000 
#    0.000    0.000    0.000    2.571    0.000    0.000 
#    0.000    0.000    0.000    0.000    0.000    0.000 
#
# Total GULP energy -156326.818661 kJ/mol
# GULP energy per Si atom -5583.100666 kJ/mol
# Density = 1.658072 g / cm^3
# Si number density = 16.618544 Si / 1000 Ang^3
#
#
#
# Elastic Constant Matrix: (Units=GPa)
#
#
# Indices 1 2 3 4 5 6 
#
# 1 45.5571 30.0370 25.5283 0.0000 -14.6880 0.0000
# 2 30.0370 93.1831 43.0024 0.0000 -10.2211 0.0000
# 3 25.5283 43.0024 74.9487 0.0000 -20.8940 0.0000
# 4 0.0000 0.0000 0.0000 16.6400 0.0000 -2.2652
# 5 -14.6880 -10.2211 -20.8940 0.0000 31.9432 0.0000
# 6 0.0000 0.0000 0.0000 -2.2652 0.0000 21.3862
#
#
#
# Elastic Compliance Matrix: (Units=1/GPa)
#
#
# Indices 1 2 3 4 5 6 
#
# 1 0.032290 -0.007508 -0.003939 0.000000 0.009868 0.000000
# 2 -0.007508 0.016368 -0.007749 0.000000 -0.003284 0.000000
# 3 -0.003939 -0.007749 0.021934 0.000000 0.010056 0.000000
# 4 0.000000 0.000000 0.000000 0.060975 0.000000 0.006459
# 5 0.009868 -0.003284 0.010056 0.000000 0.041370 0.000000
# 6 0.000000 0.000000 0.000000 0.006459 0.000000 0.047443
#
#
# Mechanical properties :
#
#
# Convention : Reuss Voigt Hill
#
# Bulk Modulus (GPa) = 31.05787 45.64714 38.35251
# Shear Modulus (GPa) = 18.55250 21.66865 20.11058
#
# Velocity S-wave (km/s) = 3.34484 3.61485 3.48246
# Velocity P-wave (km/s) = 5.80056 6.70448 6.26884
#
# Compressibility (1/GPa) = 0.03219796
#
# Stress axis : x y z
#
# Youngs Moduli (GPa) = 30.96959 61.09610 45.59174
#
# Poissons Ratio (x) = 0.45871 0.17960
# Poissons Ratio (y) = 0.23252 0.35330
# Poissons Ratio (z) = 0.12200 0.47345
#
# Static dielectric constant tensor:
#      x y z
#    x 1.559190 0.000000 -0.010140 
#    y 0.000000 1.545400 0.000000 
#    z -0.010140 0.000000 1.541970 
# 
# From -- ./inp_files/79508.got.cif
#   From: 2010.05.17/outbox.cif.g08.bks.cpg/sg10_40_cif.got.tgz:79508.got - 2010.06.03 11:33:40.
