data_PCOD9143555
_publ_section_title
;
Structure prediction by ZEFSAII (Michael W. Deem and Ramdas Pophale) SiO2 
 PCOD9143555
Probable space group: P 2/M
;
_chemical_formula_sum "Si O2"
_cell_formula_units_Z 28
_cell_length_a 9.928487
_cell_length_b 8.708085
_cell_length_c 29.423114
_cell_angle_alpha 90.000000
_cell_angle_beta 141.378455
_cell_angle_gamma 90.000000
_cell_volume 1587.814056
_symmetry_space_group_name_H-M "P 2/M"
_symmetry_group_IT_number 10
_symmetry_cell_setting 'monoclinic'
loop_
_space_group_symop_operation_xyz
x,y,z
-x,y,-z
-x,-y,-z
x,-y,z
loop_
_atom_site_type_symbol
_atom_site_label
_atom_site_fract_x
_atom_site_fract_y
_atom_site_fract_z
Si Si1 0.309703 0.184699 0.416919
Si Si2 0.548500 0.315194 0.737162
Si Si3 0.874639 0.683447 0.904263
Si Si4 0.300662 0.817529 0.047189
Si Si5 0.181613 0.183151 0.699534
Si Si6 0.254724 0.683503 0.817945
Si Si7 0.235780 0.314817 0.298958
O O1 0.500000 0.239734 0.500000
O O2 0.319707 0.250888 0.368819
O O3 0.070866 0.222138 0.372783
O O4 0.323629 0.000000 0.417588
O O5 0.520848 0.500000 0.729698
O O6 0.736354 0.280261 0.823273
O O7 0.331691 0.238117 0.698279
O O8 0.625802 0.265052 0.707854
O O9 0.871015 0.500000 0.910363
O O10 0.767088 0.762728 0.919867
O O11 0.120570 0.741168 0.967624
O O12 0.543926 0.760814 0.104084
O O13 0.286615 0.000000 0.040858
O O14 0.258498 0.265371 0.766110
O O15 0.200811 0.000000 0.710815
O O16 0.276427 0.500000 0.826227
O O17 0.016837 0.729439 0.772588
O O18 0.239750 0.500000 0.301896
#
# Coordination Sequence:
#
# PCOD9143555 Si02
#       7
#     4   4   4   4   4   4   4
#     4   9  19  37  58  81 108 137 170 208 252 306
#     4  10  20  35  53  76 107 138 171 214 261 311
#     4  10  19  31  49  71 100 138 175 214 267 311
#     4  11  20  30  47  73 103 132 175 225 264 304
#     4  10  19  31  53  80 103 133 173 213 254 304
#     4  10  18  32  52  73 100 135 176 219 259 307
#     4   9  20  36  55  79 105 136 174 213 257 307
#
# _framework density 17.634307
#
# number of rings (size 3 to 8) (size 9 to 14) (size 15 to 20)
#    0.000    2.143    1.429    3.429    0.000    2.571 
#    0.000    1.429    0.000    8.571    0.000    0.000 
#    0.000    0.000    0.000    0.000    0.000    0.000 
#
# Total GULP energy -156257.800419 kJ/mol
# GULP energy per Si atom -5580.635729 kJ/mol
# Density = 1.759417 g / cm^3
# Si number density = 17.634307 Si / 1000 Ang^3
#
#
#
# Elastic Constant Matrix: (Units=GPa)
#
#
# Indices 1 2 3 4 5 6 
#
# 1 114.6827 22.3574 43.0779 0.0000 3.4624 0.0000
# 2 22.3574 38.5144 25.4126 0.0000 1.7777 0.0000
# 3 43.0779 25.4126 105.9476 0.0000 7.6651 0.0000
# 4 0.0000 0.0000 0.0000 31.4476 0.0000 -12.6700
# 5 3.4624 1.7777 7.6651 0.0000 15.3137 0.0000
# 6 0.0000 0.0000 0.0000 -12.6700 0.0000 60.7500
#
#
#
# Elastic Compliance Matrix: (Units=1/GPa)
#
#
# Indices 1 2 3 4 5 6 
#
# 1 0.010788 -0.004002 -0.003407 0.000000 -0.000269 0.000000
# 2 -0.004002 0.032331 -0.006144 0.000000 0.000227 0.000000
# 3 -0.003407 -0.006144 0.012648 0.000000 -0.004847 0.000000
# 4 0.000000 0.000000 0.000000 0.034716 0.000000 0.007240
# 5 -0.000269 0.000227 -0.004847 0.000000 0.067762 0.000000
# 6 0.000000 0.000000 0.000000 0.007240 0.000000 0.017971
#
#
# Mechanical properties :
#
#
# Convention : Reuss Voigt Hill
#
# Bulk Modulus (GPa) = 34.89048 48.98227 41.93637
# Shear Modulus (GPa) = 23.48795 32.72207 28.10501
#
# Velocity S-wave (km/s) = 3.65354 4.31233 3.99653
# Velocity P-wave (km/s) = 6.13403 7.25479 6.71782
#
# Compressibility (1/GPa) = 0.02866112
#
# Stress axis : x y z
#
# Youngs Moduli (GPa) = 92.69811 30.93016 79.06206
#
# Poissons Ratio (x) = 0.12378 0.26935
# Poissons Ratio (y) = 0.37096 0.48577
# Poissons Ratio (z) = 0.31581 0.19004
#
# Static dielectric constant tensor:
#      x y z
#    x 1.595250 0.000000 0.025740 
#    y 0.000000 1.593200 0.000000 
#    z 0.025740 0.000000 1.602370 
# 
# From -- ./inp_files/79280.got.cif
#   From: 2010.05.17/outbox.cif.g08.bks.cpg/sg10_40_cif.got.tgz:79280.got - 2010.06.03 11:33:40.
