data_PCOD9143879
_publ_section_title
;
Structure prediction by ZEFSAII (Michael W. Deem and Ramdas Pophale) SiO2 
 PCOD9143879
Probable space group: P 2/M
;
_chemical_formula_sum "Si O2"
_cell_formula_units_Z 32
_cell_length_a 16.884042
_cell_length_b 13.840156
_cell_length_c 23.338267
_cell_angle_alpha 90.000000
_cell_angle_beta 19.238068
_cell_angle_gamma 90.000000
_cell_volume 1796.939942
_symmetry_space_group_name_H-M "P 2/M"
_symmetry_group_IT_number 10
_symmetry_cell_setting 'monoclinic'
loop_
_space_group_symop_operation_xyz
x,y,z
-x,y,-z
-x,-y,-z
x,-y,z
loop_
_atom_site_type_symbol
_atom_site_label
_atom_site_fract_x
_atom_site_fract_y
_atom_site_fract_z
Si Si1 0.841468 0.393392 0.160393
Si Si2 0.217206 0.113873 0.181348
Si Si3 0.553618 0.220719 0.233869
Si Si4 0.251407 0.388349 0.972377
Si Si5 0.028644 0.113401 0.881955
Si Si6 0.111175 0.883937 0.484836
Si Si7 0.959684 0.215704 0.812206
Si Si8 0.496323 0.226804 0.405147
O O1 0.770654 0.500000 0.189503
O O2 0.615889 0.330668 0.328916
O O3 0.008808 0.397073 0.101097
O O4 0.000000 0.351429 0.000000
O O5 0.064682 0.141375 0.342039
O O6 0.145735 0.174405 0.174470
O O7 0.167856 0.000000 0.203948
O O8 0.500000 0.124232 0.000000
O O9 0.372054 0.160523 0.318358
O O10 0.453814 0.215106 0.366303
O O11 0.578828 0.326486 0.187132
O O12 0.817889 0.172290 0.057839
O O13 0.326008 0.500000 0.935065
O O14 0.179570 0.312932 0.071940
O O15 0.954144 0.138166 0.867544
O O16 0.294777 0.154034 0.715132
O O17 0.018570 0.000000 0.900700
O O18 0.000000 0.852556 0.500000
O O19 0.131909 0.000000 0.469402
O O20 0.244803 0.227580 0.608703
#
# Coordination Sequence:
#
# PCOD9143879 Si02
#       8
#     4   4   4   4   4   4   4   4
#     4  10  18  33  55  79 110 148 193 241 283 324
#     4  10  22  40  62  89 118 151 191 236 290 346
#     4  11  21  38  61  83 117 152 197 245 291 343
#     4  10  22  38  59  84 113 155 201 247 292 346
#     4  11  24  36  52  79 119 167 197 225 277 353
#     4  10  22  39  62  93 118 144 191 244 289 339
#     4  11  23  38  58  82 119 155 195 240 291 348
#     4  12  21  36  53  85 117 152 198 235 286 340
#
# _framework density 17.808050999999999
#
# number of rings (size 3 to 8) (size 9 to 14) (size 15 to 20)
#    0.000    1.375    5.000    1.500    3.500    3.500 
#    0.000    1.250    0.000    0.750    0.000    0.000 
#    0.000    0.000    0.000    0.000    0.000    0.000 
#
# Total GULP energy -178410.557443 kJ/mol
# GULP energy per Si atom -5575.329920 kJ/mol
# Density = 1.776752 g / cm^3
# Si number density = 17.808051 Si / 1000 Ang^3
#
#
#
# Elastic Constant Matrix: (Units=GPa)
#
#
# Indices 1 2 3 4 5 6 
#
# 1 97.8626 34.0423 5.2352 0.0000 2.3974 0.0000
# 2 34.0423 98.4486 19.6929 0.0000 1.0047 0.0000
# 3 5.2352 19.6929 39.0875 0.0000 2.9525 0.0000
# 4 0.0000 0.0000 0.0000 11.3558 0.0000 -2.0870
# 5 2.3974 1.0047 2.9525 0.0000 26.6930 0.0000
# 6 0.0000 0.0000 0.0000 -2.0870 0.0000 25.2306
#
#
#
# Elastic Compliance Matrix: (Units=1/GPa)
#
#
# Indices 1 2 3 4 5 6 
#
# 1 0.011649 -0.004138 0.000597 0.000000 -0.000957 0.000000
# 2 -0.004138 0.012767 -0.005919 0.000000 0.000546 0.000000
# 3 0.000597 -0.005919 0.028713 0.000000 -0.003007 0.000000
# 4 0.000000 0.000000 0.000000 0.089420 0.000000 0.007397
# 5 -0.000957 0.000546 -0.003007 0.000000 0.037861 0.000000
# 6 0.000000 0.000000 0.000000 0.007397 0.000000 0.040246
#
#
# Mechanical properties :
#
#
# Convention : Reuss Voigt Hill
#
# Bulk Modulus (GPa) = 29.23242 39.25996 34.24619
# Shear Modulus (GPa) = 19.92194 24.41778 22.16986
#
# Velocity S-wave (km/s) = 3.34833 3.70694 3.53219
# Velocity P-wave (km/s) = 5.60351 6.35735 5.99230
#
# Compressibility (1/GPa) = 0.03420859
#
# Stress axis : x y z
#
# Youngs Moduli (GPa) = 85.84223 78.32796 34.82741
#
# Poissons Ratio (x) = 0.32410 -0.02078
# Poissons Ratio (y) = 0.35520 0.20615
# Poissons Ratio (z) = -0.05122 0.46364
#
# Static dielectric constant tensor:
#      x y z
#    x 1.579120 0.000000 -0.015860 
#    y 0.000000 1.635790 0.000000 
#    z -0.015860 0.000000 1.578270 
# 
# From -- ./inp_files/85379.got.cif
#   From: 2010.05.17/outbox.cif.g08.bks.cpg/sg10_43_cif.got.tgz:85379.got - 2010.06.03 11:33:40.
