data_PCOD9143676
_publ_section_title
;
Structure prediction by ZEFSAII (Michael W. Deem and Ramdas Pophale) SiO2 
 PCOD9143676
Probable space group: P 2/M
;
_chemical_formula_sum "Si O2"
_cell_formula_units_Z 28
_cell_length_a 10.194149
_cell_length_b 8.505838
_cell_length_c 28.868797
_cell_angle_alpha 90.000000
_cell_angle_beta 142.542330
_cell_angle_gamma 90.000000
_cell_volume 1522.388277
_symmetry_space_group_name_H-M "P 2/M"
_symmetry_group_IT_number 10
_symmetry_cell_setting 'monoclinic'
loop_
_space_group_symop_operation_xyz
x,y,z
-x,y,-z
-x,-y,-z
x,-y,z
loop_
_atom_site_type_symbol
_atom_site_label
_atom_site_fract_x
_atom_site_fract_y
_atom_site_fract_z
Si Si1 0.685886 0.313700 0.706120
Si Si2 0.230169 0.307982 0.546506
Si Si3 0.955167 0.186314 0.698891
Si Si4 0.741896 0.311119 0.551747
Si Si5 0.848508 0.687724 0.000062
Si Si6 0.368150 0.811225 0.874480
Si Si7 0.932671 0.812882 0.125628
O O1 0.691741 0.500000 0.716912
O O2 0.438971 0.257755 0.634250
O O3 0.786770 0.280206 0.683777
O O4 0.843765 0.229065 0.786267
O O5 0.235801 0.500000 0.548847
O O6 0.244201 0.259487 0.497199
O O7 0.000000 0.255343 0.500000
O O8 0.910330 0.232197 0.633723
O O9 0.191050 0.224367 0.785308
O O10 0.921585 0.000000 0.696587
O O11 0.500000 0.274545 0.500000
O O12 0.771107 0.500000 0.562263
O O13 0.855099 0.500000 0.000603
O O14 0.924223 0.742655 0.072127
O O15 0.599725 0.741482 0.927658
O O16 0.000000 0.746350 0.000000
O O17 0.258501 0.758063 0.892596
O O18 0.390780 0.000000 0.883898
O O19 0.910965 0.000000 0.115941
#
# Coordination Sequence:
#
# PCOD9143676 Si02
#       7
#     4   4   4   4   4   4   4
#     4  10  18  33  57  82 111 143 185 231 273 321
#     4   9  18  33  52  76 108 145 183 226 275 324
#     4  10  20  34  54  83 114 142 181 229 278 324
#     4  10  18  32  54  80 106 141 188 228 272 324
#     4  11  24  40  58  85 116 145 184 227 271 326
#     4   9  20  38  59  83 112 146 185 226 274 334
#     4  10  21  38  61  87 113 145 184 226 278 334
#
# _framework density 18.392154000000001
#
# number of rings (size 3 to 8) (size 9 to 14) (size 15 to 20)
#    0.000    2.143    1.429    3.000    0.000    6.571 
#    2.571    0.000    0.000    3.000    0.000    0.000 
#    0.000    0.000    0.000    0.000    0.000    0.000 
#
# Total GULP energy -156219.749242 kJ/mol
# GULP energy per Si atom -5579.276759 kJ/mol
# Density = 1.835029 g / cm^3
# Si number density = 18.392154 Si / 1000 Ang^3
#
#
#
# Elastic Constant Matrix: (Units=GPa)
#
#
# Indices 1 2 3 4 5 6 
#
# 1 132.1076 26.8271 78.8861 0.0000 9.9224 0.0000
# 2 26.8271 18.4764 19.7886 0.0000 2.8000 0.0000
# 3 78.8861 19.7886 122.3195 0.0000 7.4279 0.0000
# 4 0.0000 0.0000 0.0000 42.5263 0.0000 1.5242
# 5 9.9224 2.8000 7.4279 0.0000 27.0457 0.0000
# 6 0.0000 0.0000 0.0000 1.5242 0.0000 18.7628
#
#
#
# Elastic Compliance Matrix: (Units=1/GPa)
#
#
# Indices 1 2 3 4 5 6 
#
# 1 0.014755 -0.013372 -0.007228 0.000000 -0.002044 0.000000
# 2 -0.013372 0.077999 -0.003867 0.000000 -0.002107 0.000000
# 3 -0.007228 -0.003867 0.013502 0.000000 -0.000656 0.000000
# 4 0.000000 0.000000 0.000000 0.023584 0.000000 -0.001916
# 5 -0.002044 -0.002107 -0.000656 0.000000 0.038123 0.000000
# 6 0.000000 0.000000 0.000000 -0.001916 0.000000 0.053453
#
#
# Mechanical properties :
#
#
# Convention : Reuss Voigt Hill
#
# Bulk Modulus (GPa) = 17.44516 58.21190 37.82853
# Shear Modulus (GPa) = 17.27373 27.49372 22.38373
#
# Velocity S-wave (km/s) = 3.06795 3.87054 3.49237
# Velocity P-wave (km/s) = 4.69632 7.18984 6.07245
#
# Compressibility (1/GPa) = 0.05732247
#
# Stress axis : x y z
#
# Youngs Moduli (GPa) = 67.77458 12.82061 74.06137
#
# Poissons Ratio (x) = 0.17144 0.53533
# Poissons Ratio (y) = 0.90629 0.28637
# Poissons Ratio (z) = 0.48989 0.04957
#
# Static dielectric constant tensor:
#      x y z
#    x 1.626770 0.000000 0.002470 
#    y 0.000000 1.630600 0.000000 
#    z 0.002470 0.000000 1.634990 
# 
# From -- ./inp_files/92070.got.cif
#   From: 2010.05.17/outbox.cif.g08.bks.cpg/sg10_47_cif.got.tgz:92070.got - 2010.06.03 11:33:40.
