data_PCOD9143938
_publ_section_title
;
Structure prediction by ZEFSAII (Michael W. Deem and Ramdas Pophale) SiO2 
 PCOD9143938
Probable space group: P 2/M
;
_chemical_formula_sum "Si O2"
_cell_formula_units_Z 28
_cell_length_a 14.599231
_cell_length_b 7.690077
_cell_length_c 18.493890
_cell_angle_alpha 90.000000
_cell_angle_beta 138.412345
_cell_angle_gamma 90.000000
_cell_volume 1378.171730
_symmetry_space_group_name_H-M "P 2/M"
_symmetry_group_IT_number 10
_symmetry_cell_setting 'monoclinic'
loop_
_space_group_symop_operation_xyz
x,y,z
-x,y,-z
-x,-y,-z
x,-y,z
loop_
_atom_site_type_symbol
_atom_site_label
_atom_site_fract_x
_atom_site_fract_y
_atom_site_fract_z
Si Si1 0.300159 0.699299 0.653932
Si Si2 0.895312 0.711823 0.587034
Si Si3 0.401669 0.197350 0.172662
Si Si4 0.144185 0.710285 0.120745
Si Si5 0.782647 0.288512 0.240018
Si Si6 0.250056 0.289515 0.938591
Si Si7 0.929303 0.711991 0.766180
O O1 0.250044 0.500000 0.631271
O O2 0.207489 0.777402 0.535363
O O3 0.460849 0.696528 0.730130
O O4 0.282169 0.776462 0.723630
O O5 0.886614 0.500000 0.583714
O O6 0.054438 0.753409 0.663495
O O7 0.868670 0.771055 0.653599
O O8 0.273896 0.235773 0.149705
O O9 0.349679 0.226453 0.060211
O O10 0.444123 0.000000 0.207076
O O11 0.141893 0.500000 0.119012
O O12 0.144389 0.769988 0.204106
O O13 0.000000 0.769007 0.000000
O O14 0.770425 0.500000 0.230538
O O15 0.722006 0.229479 0.127020
O O16 0.255486 0.500000 0.943147
O O17 0.091632 0.239744 0.863485
O O18 0.927215 0.500000 0.764916
#
# Coordination Sequence:
#
# PCOD9143938 Si02
#       7
#     4   4   4   4   4   4   4
#     4  10  19  33  53  77 105 139 173 206 251 303
#     4   8  14  27  52  84 109 126 159 214 261 298
#     4  12  25  36  47  70 107 143 174 210 252 300
#     4  10  18  33  58  81  99 128 167 209 259 311
#     4   8  15  28  54  85 105 125 165 219 261 296
#     4   9  16  32  54  77 103 131 166 210 259 306
#     4   8  14  27  52  83 105 122 156 210 262 303
#
# _framework density 20.316770000000002
#
# number of rings (size 3 to 8) (size 9 to 14) (size 15 to 20)
#    0.000    2.714    1.429    3.429    0.000    2.571 
#    0.000    4.286    0.000   10.286    0.000    0.000 
#    0.000    0.000    0.000    0.000    0.000    0.000 
#
# Total GULP energy -156178.429429 kJ/mol
# GULP energy per Si atom -5577.801051 kJ/mol
# Density = 2.027053 g / cm^3
# Si number density = 20.316770 Si / 1000 Ang^3
#
#
#
# Elastic Constant Matrix: (Units=GPa)
#
#
# Indices 1 2 3 4 5 6 
#
# 1 95.9979 1.1109 35.4420 0.0000 -21.9173 0.0000
# 2 1.1109 35.7544 -1.7649 0.0000 -6.6322 0.0000
# 3 35.4420 -1.7649 34.4258 0.0000 -11.7695 0.0000
# 4 0.0000 0.0000 0.0000 -195.2237 0.0000 -52.8915
# 5 -21.9173 -6.6322 -11.7695 0.0000 22.9172 0.0000
# 6 0.0000 0.0000 0.0000 -52.8915 0.0000 -32.2695
#
#
#
# Elastic Compliance Matrix: (Units=1/GPa)
#
#
# Indices 1 2 3 4 5 6 
#
# 1 0.018381 0.000461 -0.015579 0.000000 0.009711 0.000000
# 2 0.000461 0.030413 0.005148 0.000000 0.011887 0.000000
# 3 -0.015579 0.005148 0.049449 0.000000 0.011986 0.000000
# 4 0.000000 0.000000 0.000000 -0.009214 0.000000 0.015102
# 5 0.009711 0.011887 0.011986 0.000000 0.062518 0.000000
# 6 0.000000 0.000000 0.000000 0.015102 0.000000 -0.055742
#
#
# Mechanical properties :
#
#
# Convention : Reuss Voigt Hill
#
# Bulk Modulus (GPa) = 12.77098 26.19490 19.48294
# Shear Modulus (GPa) = 35.24956 -32.15586 1.54685
#
# Velocity S-wave (km/s) = 4.16985 -3.98266 0.87351
# Velocity P-wave (km/s) = 5.42983 2.86838 3.26002
#
# Compressibility (1/GPa) = 0.07830252
#
# Stress axis : x y z
#
# Youngs Moduli (GPa) = 54.40540 32.88036 20.22287
#
# Poissons Ratio (x) = -0.01516 0.31506
# Poissons Ratio (y) = -0.02509 -0.10411
# Poissons Ratio (z) = 0.84761 -0.16927
#
# Static dielectric constant tensor:
#      x y z
#    x 1.714940 0.000000 -0.037800 
#    y 0.000000 1.774650 0.000000 
#    z -0.037800 0.000000 1.709960 
# 
# From -- ./inp_files/68572.got.cif
#   From: 2010.05.17/outbox.cif.g08.bks.cpg/sg10_35_cif.got.tgz:68572.got - 2010.06.03 11:33:40.
