data_PCOD9143592
_publ_section_title
;
Structure prediction by ZEFSAII (Michael W. Deem and Ramdas Pophale) SiO2 
 PCOD9143592
Probable space group: P 2/M
;
_chemical_formula_sum "Si O2"
_cell_formula_units_Z 20
_cell_length_a 29.989969
_cell_length_b 9.317679
_cell_length_c 12.879890
_cell_angle_alpha 90.000000
_cell_angle_beta 160.893921
_cell_angle_gamma 90.000000
_cell_volume 1178.056201
_symmetry_space_group_name_H-M "P 2/M"
_symmetry_group_IT_number 10
_symmetry_cell_setting 'monoclinic'
loop_
_space_group_symop_operation_xyz
x,y,z
-x,y,-z
-x,-y,-z
x,-y,z
loop_
_atom_site_type_symbol
_atom_site_label
_atom_site_fract_x
_atom_site_fract_y
_atom_site_fract_z
Si Si1 0.655010 0.830161 0.379341
Si Si2 0.840832 0.668437 0.624999
Si Si3 0.290133 0.169767 0.853621
Si Si4 0.386433 0.168887 0.473516
Si Si5 0.663446 0.664905 0.838749
O O1 0.754130 0.736307 0.527704
O O2 0.661007 0.796101 0.514740
O O3 0.685376 0.000000 0.432265
O O4 0.500000 0.808746 0.000000
O O5 0.808513 0.500000 0.541691
O O6 0.799633 0.752807 0.430429
O O7 0.000000 0.683215 0.000000
O O8 0.263264 0.000000 0.798731
O O9 0.449446 0.188238 0.171691
O O10 0.273487 0.242845 0.929239
O O11 0.319546 0.262609 0.235930
O O12 0.361237 0.000000 0.398459
O O13 0.500000 0.666022 0.500000
O O14 0.708988 0.500000 0.941126
#
# Coordination Sequence:
#
# PCOD9143592 Si02
#       5
#     4   4   4   4   4
#     4  10  19  35  56  80 107 138 178 222 266 313
#     4  11  24  38  52  76 110 145 180 218 265 320
#     4  10  18  32  53  75 103 139 178 219 263 310
#     4   9  17  30  50  77 107 135 170 217 263 311
#     4   9  17  28  45  74 108 138 171 211 260 316
#
# _framework density 16.977118000000001
#
# number of rings (size 3 to 8) (size 9 to 14) (size 15 to 20)
#    0.000    2.200    2.000    1.800    0.000    6.000 
#    0.000    0.000    0.000    1.200    0.000    8.400 
#    0.000    0.000    0.000    0.000    0.000    0.000 
#
# Total GULP energy -111598.036866 kJ/mol
# GULP energy per Si atom -5579.901843 kJ/mol
# Density = 1.693848 g / cm^3
# Si number density = 16.977118 Si / 1000 Ang^3
#
#
#
# Elastic Constant Matrix: (Units=GPa)
#
#
# Indices 1 2 3 4 5 6 
#
# 1 105.3537 87.2191 59.3554 0.0000 -38.3954 0.0000
# 2 87.2191 138.5006 77.4118 0.0000 -30.6558 0.0000
# 3 59.3554 77.4118 62.2806 0.0000 -25.8732 0.0000
# 4 0.0000 0.0000 0.0000 22.5960 0.0000 5.5243
# 5 -38.3954 -30.6558 -25.8732 0.0000 29.4563 0.0000
# 6 0.0000 0.0000 0.0000 5.5243 0.0000 -23.6161
#
#
#
# Elastic Compliance Matrix: (Units=1/GPa)
#
#
# Indices 1 2 3 4 5 6 
#
# 1 0.029692 -0.010245 -0.006164 0.000000 0.022626 0.000000
# 2 -0.010245 0.027254 -0.028146 0.000000 -0.009713 0.000000
# 3 -0.006164 -0.028146 0.065200 0.000000 0.019942 0.000000
# 4 0.000000 0.000000 0.000000 0.041862 0.000000 0.009792
# 5 0.022626 -0.009713 0.019942 0.000000 0.070849 0.000000
# 6 0.000000 0.000000 0.000000 0.009792 0.000000 -0.040053
#
#
# Mechanical properties :
#
#
# Convention : Reuss Voigt Hill
#
# Bulk Modulus (GPa) = 30.27069 83.78971 57.03020
# Shear Modulus (GPa) = 16.95349 11.16382 14.05865
#
# Velocity S-wave (km/s) = 3.16350 2.56711 2.88078
# Velocity P-wave (km/s) = 5.58683 7.63206 6.68809
#
# Compressibility (1/GPa) = 0.03303525
#
# Stress axis : x y z
#
# Youngs Moduli (GPa) = 33.67920 36.69228 15.33746
#
# Poissons Ratio (x) = 0.37591 0.09454
# Poissons Ratio (y) = 0.34504 0.43169
# Poissons Ratio (z) = 0.20759 1.03276
#
# Static dielectric constant tensor:
#      x y z
#    x 1.558540 0.000000 -0.009770 
#    y 0.000000 1.566460 0.000000 
#    z -0.009770 0.000000 1.549480 
# 
# From -- ./inp_files/22151.got.cif
#   From: 2010.05.17/outbox.cif.g08.bks.cpg/sg10_12_cif.got.tgz:22151.got - 2010.06.03 11:33:40.
