data_PCOD9143537
_publ_section_title
;
Structure prediction by ZEFSAII (Michael W. Deem and Ramdas Pophale) SiO2 
 PCOD9143537
Probable space group: P 2/M
;
_chemical_formula_sum "Si O2"
_cell_formula_units_Z 28
_cell_length_a 36.115190
_cell_length_b 7.543271
_cell_length_c 9.781317
_cell_angle_alpha 90.000000
_cell_angle_beta 31.014181
_cell_angle_gamma 90.000000
_cell_volume 1372.982899
_symmetry_space_group_name_H-M "P 2/M"
_symmetry_group_IT_number 10
_symmetry_cell_setting 'monoclinic'
loop_
_space_group_symop_operation_xyz
x,y,z
-x,y,-z
-x,-y,-z
x,-y,z
loop_
_atom_site_type_symbol
_atom_site_label
_atom_site_fract_x
_atom_site_fract_y
_atom_site_fract_z
Si Si1 0.799375 0.782577 0.834031
Si Si2 0.737981 0.213759 0.311682
Si Si3 0.563676 0.215950 0.197210
Si Si4 0.804203 0.297734 0.396803
Si Si5 0.692717 0.196590 0.958623
Si Si6 0.918761 0.786030 0.236815
Si Si7 0.429392 0.216633 0.136739
O O1 0.727526 0.721786 0.981792
O O2 0.866886 0.726217 0.526849
O O3 0.799919 0.000000 0.829267
O O4 0.787340 0.727711 0.027948
O O5 0.777679 0.262839 0.327472
O O6 0.653667 0.272241 0.567181
O O7 0.734788 0.000000 0.319364
O O8 0.500000 0.259048 0.500000
O O9 0.569466 0.000000 0.169635
O O10 0.632709 0.286104 0.058225
O O11 0.557832 0.274205 0.060326
O O12 0.786402 0.500000 0.484601
O O13 0.757982 0.180832 0.646356
O O14 0.884762 0.267718 0.197788
O O15 0.665675 0.000000 0.084548
O O16 0.919347 0.000000 0.238498
O O17 0.000000 0.723224 0.000000
O O18 0.428770 0.000000 0.146175
O O19 0.500000 0.273114 0.000000
#
# Coordination Sequence:
#
# PCOD9143537 Si02
#       7
#     4   4   4   4   4   4   4
#     4   8  16  28  50  78  99 125 166 208 251 300
#     4  10  18  32  51  73 104 137 170 213 258 305
#     4   9  16  24  40  68  99 126 161 213 265 305
#     4  11  21  33  52  76 102 137 176 209 247 299
#     4   9  16  31  50  72  99 131 172 216 262 306
#     4   9  18  36  60  83 106 131 162 204 255 310
#     4   9  17  26  40  68 101 131 165 210 263 303
#
# _framework density 20.393556
#
# number of rings (size 3 to 8) (size 9 to 14) (size 15 to 20)
#    0.000    2.714    1.429    2.143    2.000    0.286 
#    0.000    3.571    0.000    5.143    0.000    0.000 
#    0.000    0.000    0.000    0.000    0.000    0.000 
#
# Total GULP energy -155889.995795 kJ/mol
# GULP energy per Si atom -5567.499850 kJ/mol
# Density = 2.034714 g / cm^3
# Si number density = 20.393556 Si / 1000 Ang^3
#
#
#
# Elastic Constant Matrix: (Units=GPa)
#
#
# Indices 1 2 3 4 5 6 
#
# 1 148.1491 1.8649 76.2898 0.0000 -14.0285 0.0000
# 2 1.8649 61.9305 5.8066 0.0000 -0.5686 0.0000
# 3 76.2898 5.8066 98.1659 0.0000 -9.8649 0.0000
# 4 0.0000 0.0000 0.0000 -14.9083 0.0000 -22.5231
# 5 -14.0285 -0.5686 -9.8649 0.0000 40.2424 0.0000
# 6 0.0000 0.0000 0.0000 -22.5231 0.0000 -84.3169
#
#
#
# Elastic Compliance Matrix: (Units=1/GPa)
#
#
# Indices 1 2 3 4 5 6 
#
# 1 0.011400 0.000490 -0.008703 0.000000 0.001848 0.000000
# 2 0.000490 0.016258 -0.001335 0.000000 0.000073 0.000000
# 3 -0.008703 -0.001335 0.017145 0.000000 0.001150 0.000000
# 4 0.000000 0.000000 0.000000 -0.112463 0.000000 0.030041
# 5 0.001848 0.000073 0.001150 0.000000 0.025776 0.000000
# 6 0.000000 0.000000 0.000000 0.030041 0.000000 -0.019885
#
#
# Mechanical properties :
#
#
# Convention : Reuss Voigt Hill
#
# Bulk Modulus (GPa) = 38.89997 52.90759 45.90378
# Shear Modulus (GPa) = -146.62185 3.15571 -71.73307
#
# Velocity S-wave (km/s) = -8.48836 1.24530 -5.93723
# Velocity P-wave (km/s) = 8.77232 5.29786 4.94400
#
# Compressibility (1/GPa) = 0.02570696
#
# Stress axis : x y z
#
# Youngs Moduli (GPa) = 87.71549 61.50730 58.32578
#
# Poissons Ratio (x) = -0.03012 0.50762
# Poissons Ratio (y) = -0.04295 0.07786
# Poissons Ratio (z) = 0.76341 0.08211
#
# Static dielectric constant tensor:
#      x y z
#    x 1.794950 0.000000 -0.137250 
#    y 0.000000 1.806610 0.000000 
#    z -0.137250 0.000000 1.922160 
# 
# From -- ./inp_files/37924.got.cif
#   From: 2010.05.17/outbox.cif.g08.bks.cpg/sg10_19_cif.got.tgz:37924.got - 2010.06.03 11:33:40.
