data_PCOD9143430
_publ_section_title
;
Structure prediction by ZEFSAII (Michael W. Deem and Ramdas Pophale) SiO2 
 PCOD9143430
Probable space group: P 2/M
;
_chemical_formula_sum "Si O2"
_cell_formula_units_Z 32
_cell_length_a 25.299526
_cell_length_b 7.535504
_cell_length_c 20.472791
_cell_angle_alpha 90.000000
_cell_angle_beta 23.142035
_cell_angle_gamma 90.000000
_cell_volume 1533.936471
_symmetry_space_group_name_H-M "P 2/M"
_symmetry_group_IT_number 10
_symmetry_cell_setting 'monoclinic'
loop_
_space_group_symop_operation_xyz
x,y,z
-x,y,-z
-x,-y,-z
x,-y,z
loop_
_atom_site_type_symbol
_atom_site_label
_atom_site_fract_x
_atom_site_fract_y
_atom_site_fract_z
Si Si1 0.004174 0.784857 0.285206
Si Si2 0.495211 0.703570 0.433089
Si Si3 0.698736 0.282300 0.459586
Si Si4 0.004328 0.714710 0.919811
Si Si5 0.213028 0.206272 0.940737
Si Si6 0.696387 0.293209 0.605056
Si Si7 0.066438 0.782850 0.491916
Si Si8 0.635807 0.204306 0.817309
O O1 0.858594 0.723989 0.424813
O O2 0.010237 0.731163 0.354317
O O3 0.002723 0.000000 0.284049
O O4 0.123769 0.722719 0.102426
O O5 0.500000 0.786055 0.500000
O O6 0.447968 0.500000 0.496343
O O7 0.393985 0.780531 0.494486
O O8 0.644981 0.704042 0.234080
O O9 0.695438 0.500000 0.464412
O O10 0.653690 0.223356 0.582758
O O11 0.852863 0.230069 0.272402
O O12 0.998525 0.500000 0.925350
O O13 0.881542 0.779806 0.015489
O O14 0.000000 0.771366 0.000000
O O15 0.242104 0.000000 0.920420
O O16 0.661469 0.500000 0.648887
O O17 0.637647 0.205874 0.736653
O O18 0.220484 0.719342 0.324053
O O19 0.000000 0.724992 0.500000
O O20 0.068151 0.000000 0.490120
O O21 0.638256 0.000000 0.837432
O O22 0.500000 0.286575 0.000000
#
# Coordination Sequence:
#
# PCOD9143430 Si02
#       8
#     4   4   4   4   4   4   4   4
#     4   9  18  33  52  76 107 139 173 211 258 313
#     4  10  21  39  59  75 100 142 185 223 264 316
#     4   9  18  33  53  79 104 132 178 225 264 308
#     4  10  19  34  58  82 102 133 181 225 258 310
#     4  11  22  35  52  80 114 141 171 217 272 324
#     4  10  18  31  54  79 105 136 173 219 265 306
#     4   8  14  28  51  73  95 129 171 210 243 286
#     4   9  18  33  51  75 104 135 172 211 254 311
#
# _framework density 20.861357999999999
#
# number of rings (size 3 to 8) (size 9 to 14) (size 15 to 20)
#    0.000    2.500    1.250    2.250    0.000    3.250 
#    2.250    1.875    0.000    6.000    0.000    0.000 
#    0.000    0.000    0.000    0.000    0.000    0.000 
#
# Total GULP energy -178608.118092 kJ/mol
# GULP energy per Si atom -5581.503690 kJ/mol
# Density = 2.081388 g / cm^3
# Si number density = 20.861358 Si / 1000 Ang^3
#
#
#
# Elastic Constant Matrix: (Units=GPa)
#
#
# Indices 1 2 3 4 5 6 
#
# 1 113.6961 -4.8846 -0.0628 0.0000 15.1048 0.0000
# 2 -4.8846 52.5241 -6.5767 0.0000 0.5014 0.0000
# 3 -0.0628 -6.5767 56.2195 0.0000 18.0035 0.0000
# 4 0.0000 0.0000 0.0000 29.5358 0.0000 1.2696
# 5 15.1048 0.5014 18.0035 0.0000 30.1520 0.0000
# 6 0.0000 0.0000 0.0000 1.2696 0.0000 8.4272
#
#
#
# Elastic Compliance Matrix: (Units=1/GPa)
#
#
# Indices 1 2 3 4 5 6 
#
# 1 0.009663 0.001222 0.002115 0.000000 -0.006124 0.000000
# 2 0.001222 0.019581 0.003205 0.000000 -0.002851 0.000000
# 3 0.002115 0.003205 0.022900 0.000000 -0.014786 0.000000
# 4 0.000000 0.000000 0.000000 0.034078 0.000000 -0.005134
# 5 -0.006124 -0.002851 -0.014786 0.000000 0.045109 0.000000
# 6 0.000000 0.000000 0.000000 -0.005134 0.000000 0.119437
#
#
# Mechanical properties :
#
#
# Convention : Reuss Voigt Hill
#
# Bulk Modulus (GPa) = 15.33115 22.15461 18.74288
# Shear Modulus (GPa) = 19.27332 29.22059 24.24696
#
# Velocity S-wave (km/s) = 3.04283 3.74666 3.41294
# Velocity P-wave (km/s) = 4.43961 5.41845 4.95327
#
# Compressibility (1/GPa) = 0.06522669
#
# Stress axis : x y z
#
# Youngs Moduli (GPa) = 103.49221 51.06980 43.66867
#
# Poissons Ratio (x) = -0.06240 -0.09235
# Poissons Ratio (y) = -0.12645 -0.13996
# Poissons Ratio (z) = -0.21886 -0.16369
#
# Static dielectric constant tensor:
#      x y z
#    x 1.774290 0.000000 0.033220 
#    y 0.000000 1.815340 0.000000 
#    z 0.033220 0.000000 1.725720 
# 
# From -- ./inp_files/86859.got.cif
#   From: 2010.05.17/outbox.cif.g08.bks.cpg/sg10_44_cif.got.tgz:86859.got - 2010.06.03 11:33:40.
