data_PCOD9143659
_publ_section_title
;
Structure prediction by ZEFSAII (Michael W. Deem and Ramdas Pophale) SiO2 
 PCOD9143659
Probable space group: P 2/M
;
_chemical_formula_sum "Si O2"
_cell_formula_units_Z 28
_cell_length_a 10.487894
_cell_length_b 8.944085
_cell_length_c 27.262261
_cell_angle_alpha 90.000000
_cell_angle_beta 38.857405
_cell_angle_gamma 90.000000
_cell_volume 1604.426177
_symmetry_space_group_name_H-M "P 2/M"
_symmetry_group_IT_number 10
_symmetry_cell_setting 'monoclinic'
loop_
_space_group_symop_operation_xyz
x,y,z
-x,y,-z
-x,-y,-z
x,-y,z
loop_
_atom_site_type_symbol
_atom_site_label
_atom_site_fract_x
_atom_site_fract_y
_atom_site_fract_z
Si Si1 0.799416 0.180961 0.591565
Si Si2 0.311169 0.176078 0.593266
Si Si3 0.664812 0.328212 0.994974
Si Si4 0.386776 0.322277 0.674873
Si Si5 0.341945 0.179553 0.157294
Si Si6 0.121995 0.181515 0.320638
Si Si7 0.980899 0.821856 0.832604
O O1 0.598250 0.252761 0.629502
O O2 0.827375 0.230155 0.639643
O O3 0.000000 0.218960 0.500000
O O4 0.779499 0.000000 0.596245
O O5 0.500000 0.187557 0.500000
O O6 0.349333 0.269949 0.630360
O O7 0.105131 0.223521 0.627761
O O8 0.288550 0.000000 0.614050
O O9 0.719205 0.500000 0.988215
O O10 0.854687 0.236708 0.917067
O O11 0.500000 0.325891 0.000000
O O12 0.545010 0.255338 0.076037
O O13 0.391186 0.500000 0.677108
O O14 0.196813 0.256735 0.762135
O O15 0.273990 0.228940 0.231761
O O16 0.158086 0.212534 0.174008
O O17 0.367423 0.000000 0.149113
O O18 0.125864 0.000000 0.320112
O O19 0.005181 0.000000 0.827396
#
# Coordination Sequence:
#
# PCOD9143659 Si02
#       7
#     4   4   4   4   4   4   4
#     4  10  21  39  61  81 104 143 193 235 275 325
#     4  10  19  35  59  83 106 137 182 233 279 324
#     4   9  17  28  45  75 113 144 174 214 269 332
#     4  12  24  36  53  80 117 150 180 223 278 334
#     4   9  16  29  50  77 108 140 179 225 273 321
#     4   9  17  32  55  82 107 136 182 237 276 317
#     4  10  18  32  54  78 107 143 186 227 268 318
#
# _framework density 17.451723000000001
#
# number of rings (size 3 to 8) (size 9 to 14) (size 15 to 20)
#    0.000    2.143    1.429    3.000    0.000    5.143 
#    0.000    1.429    0.000    0.857    0.000    6.000 
#    0.000    0.000    0.000    0.000    0.000    0.000 
#
# Total GULP energy -156260.064622 kJ/mol
# GULP energy per Si atom -5580.716594 kJ/mol
# Density = 1.741200 g / cm^3
# Si number density = 17.451723 Si / 1000 Ang^3
#
#
#
# Elastic Constant Matrix: (Units=GPa)
#
#
# Indices 1 2 3 4 5 6 
#
# 1 68.1009 30.3647 37.9859 0.0000 -6.8867 0.0000
# 2 30.3647 58.9194 54.3174 0.0000 -7.4923 0.0000
# 3 37.9859 54.3174 129.0173 0.0000 -4.1523 0.0000
# 4 0.0000 0.0000 0.0000 9.8678 0.0000 -4.0855
# 5 -6.8867 -7.4923 -4.1523 0.0000 24.7980 0.0000
# 6 0.0000 0.0000 0.0000 -4.0855 0.0000 7.4510
#
#
#
# Elastic Compliance Matrix: (Units=1/GPa)
#
#
# Indices 1 2 3 4 5 6 
#
# 1 0.019721 -0.007416 -0.002594 0.000000 0.002802 0.000000
# 2 -0.007416 0.031596 -0.010937 0.000000 0.005655 0.000000
# 3 -0.002594 -0.010937 0.013060 0.000000 -0.001838 0.000000
# 4 0.000000 0.000000 0.000000 0.131102 0.000000 0.071886
# 5 0.002802 0.005655 -0.001838 0.000000 0.042505 0.000000
# 6 0.000000 0.000000 0.000000 0.071886 0.000000 0.173627
#
#
# Mechanical properties :
#
#
# Convention : Reuss Voigt Hill
#
# Bulk Modulus (GPa) = 44.47664 55.70818 50.09241
# Shear Modulus (GPa) = 10.84604 17.31467 14.08035
#
# Velocity S-wave (km/s) = 2.49567 3.15325 2.84353
# Velocity P-wave (km/s) = 5.81768 6.72666 6.28861
#
# Compressibility (1/GPa) = 0.02248371
#
# Stress axis : x y z
#
# Youngs Moduli (GPa) = 50.70788 31.64994 76.56980
#
# Poissons Ratio (x) = 0.23470 0.19863
# Poissons Ratio (y) = 0.37602 0.83742
# Poissons Ratio (z) = 0.13154 0.34615
#
# Static dielectric constant tensor:
#      x y z
#    x 1.573040 0.000000 0.011730 
#    y 0.000000 1.579250 0.000000 
#    z 0.011730 0.000000 1.590290 
# 
# From -- ./inp_files/79296.got.cif
#   From: 2010.05.17/outbox.cif.g08.bks.cpg/sg10_40_cif.got.tgz:79296.got - 2010.06.03 11:33:40.
