data_PCOD9143857
_publ_section_title
;
Structure prediction by ZEFSAII (Michael W. Deem and Ramdas Pophale) SiO2 
 PCOD9143857
Probable space group: P 2/M
;
_chemical_formula_sum "Si O2"
_cell_formula_units_Z 28
_cell_length_a 19.840432
_cell_length_b 7.373317
_cell_length_c 16.426384
_cell_angle_alpha 90.000000
_cell_angle_beta 148.214484
_cell_angle_gamma 90.000000
_cell_volume 1265.764958
_symmetry_space_group_name_H-M "P 2/M"
_symmetry_group_IT_number 10
_symmetry_cell_setting 'monoclinic'
loop_
_space_group_symop_operation_xyz
x,y,z
-x,y,-z
-x,-y,-z
x,-y,z
loop_
_atom_site_type_symbol
_atom_site_label
_atom_site_fract_x
_atom_site_fract_y
_atom_site_fract_z
Si Si1 0.612500 0.221092 0.674701
Si Si2 0.361073 0.709791 0.830162
Si Si3 0.257163 0.207091 0.549368
Si Si4 0.899948 0.778846 0.965532
Si Si5 0.477464 0.221765 0.239479
Si Si6 0.973214 0.221896 0.224479
Si Si7 0.254408 0.780988 0.890998
O O1 0.500000 0.282154 0.500000
O O2 0.755093 0.278368 0.797817
O O3 0.580673 0.275346 0.734060
O O4 0.612357 0.000000 0.673194
O O5 0.381939 0.500000 0.830451
O O6 0.299912 0.795206 0.687377
O O7 0.267878 0.722636 0.811834
O O8 0.500000 0.785837 0.000000
O O9 0.378418 0.287233 0.626428
O O10 0.116218 0.285035 0.392644
O O11 0.246293 0.000000 0.508509
O O12 0.901744 0.000000 0.967137
O O13 0.935707 0.724334 0.094263
O O14 0.000000 0.718456 0.000000
O O15 0.479942 0.000000 0.239995
O O16 0.382300 0.278591 0.069987
O O17 0.868128 0.280256 0.182975
O O18 0.970499 0.000000 0.223638
O O19 0.253194 0.000000 0.889774
#
# Coordination Sequence:
#
# PCOD9143857 Si02
#       7
#     4   4   4   4   4   4   4
#     4   9  16  24  37  63  99 136 169 200 241 293
#     4  11  23  37  53  76 103 127 162 213 262 302
#     4  10  20  33  52  76 100 132 173 209 247 298
#     4   9  16  25  38  61  99 139 165 196 249 298
#     4   9  16  27  45  68  96 133 173 205 236 289
#     4   9  18  31  47  71 102 134 170 209 246 293
#     4  10  18  33  55  73  98 136 171 204 247 298
#
# _framework density 22.121009000000001
#
# number of rings (size 3 to 8) (size 9 to 14) (size 15 to 20)
#    0.000    2.429    2.857    0.429    2.000    1.143 
#    0.000    3.571    0.000    0.000    0.000    0.000 
#    0.000    6.857    0.000    0.000    0.000    0.000 
#
# Total GULP energy -156447.256747 kJ/mol
# GULP energy per Si atom -5587.402027 kJ/mol
# Density = 2.207066 g / cm^3
# Si number density = 22.121009 Si / 1000 Ang^3
#
#
#
# Elastic Constant Matrix: (Units=GPa)
#
#
# Indices 1 2 3 4 5 6 
#
# 1 159.8672 -7.4452 59.5717 0.0000 32.8310 0.0000
# 2 -7.4452 79.1459 -0.7481 0.0000 5.5497 0.0000
# 3 59.5717 -0.7481 146.4441 0.0000 34.1435 0.0000
# 4 0.0000 0.0000 0.0000 -20.7000 0.0000 27.4648
# 5 32.8310 5.5497 34.1435 0.0000 40.5182 0.0000
# 6 0.0000 0.0000 0.0000 27.4648 0.0000 -80.7460
#
#
#
# Elastic Compliance Matrix: (Units=1/GPa)
#
#
# Indices 1 2 3 4 5 6 
#
# 1 0.008116 0.001088 -0.002151 0.000000 -0.004913 0.000000
# 2 0.001088 0.012944 0.000302 0.000000 -0.002909 0.000000
# 3 -0.002151 0.000302 0.009095 0.000000 -0.005963 0.000000
# 4 0.000000 0.000000 0.000000 -0.088042 0.000000 -0.029947
# 5 -0.004913 -0.002909 -0.005963 0.000000 0.034085 0.000000
# 6 0.000000 0.000000 0.000000 -0.029947 0.000000 -0.022570
#
#
# Mechanical properties :
#
#
# Convention : Reuss Voigt Hill
#
# Bulk Modulus (GPa) = 34.92437 54.24601 44.58519
# Shear Modulus (GPa) = -141.61861 10.08634 -65.76614
#
# Velocity S-wave (km/s) = -8.00993 2.13764 -5.45845
# Velocity P-wave (km/s) = 8.35004 5.53790 4.41898
#
# Compressibility (1/GPa) = 0.02863330
#
# Stress axis : x y z
#
# Youngs Moduli (GPa) = 123.21069 77.25584 109.94833
#
# Poissons Ratio (x) = -0.08403 0.23644
# Poissons Ratio (y) = -0.13401 -0.03318
# Poissons Ratio (z) = 0.26496 -0.02332
#
# Static dielectric constant tensor:
#      x y z
#    x 1.768200 0.000000 0.019860 
#    y 0.000000 1.867140 0.000000 
#    z 0.019860 0.000000 1.776130 
# 
# From -- ./inp_files/79292.got.cif
#   From: 2010.05.17/outbox.cif.g08.bks.cpg/sg10_40_cif.got.tgz:79292.got - 2010.06.03 11:33:40.
