data_PCOD9143398
_publ_section_title
;
Structure prediction by ZEFSAII (Michael W. Deem and Ramdas Pophale) SiO2 
 PCOD9143398
Probable space group: P 2/M
;
_chemical_formula_sum "Si O2"
_cell_formula_units_Z 28
_cell_length_a 10.402895
_cell_length_b 7.687906
_cell_length_c 18.056670
_cell_angle_alpha 90.000000
_cell_angle_beta 72.743892
_cell_angle_gamma 90.000000
_cell_volume 1379.107129
_symmetry_space_group_name_H-M "P 2/M"
_symmetry_group_IT_number 10
_symmetry_cell_setting 'monoclinic'
loop_
_space_group_symop_operation_xyz
x,y,z
-x,y,-z
-x,-y,-z
x,-y,z
loop_
_atom_site_type_symbol
_atom_site_label
_atom_site_fract_x
_atom_site_fract_y
_atom_site_fract_z
Si Si1 0.137495 0.710738 0.164859
Si Si2 0.151372 0.712761 0.995123
Si Si3 0.089026 0.201585 0.590338
Si Si4 0.836687 0.202776 0.263583
Si Si5 0.352394 0.713946 0.251881
Si Si6 0.648160 0.701577 0.164362
Si Si7 0.198775 0.299963 0.418970
O O1 0.130166 0.500000 0.167778
O O2 0.242783 0.766192 0.209372
O O3 0.988461 0.777763 0.207557
O O4 0.179892 0.762399 0.074812
O O5 0.150759 0.500000 0.991723
O O6 0.260169 0.777248 0.917112
O O7 0.000000 0.768242 0.000000
O O8 0.157853 0.270444 0.652995
O O9 0.179703 0.211356 0.501483
O O10 0.948198 0.293098 0.595186
O O11 0.054516 0.000000 0.610149
O O12 0.735657 0.291841 0.224126
O O13 0.799160 0.000000 0.271476
O O14 0.351777 0.500000 0.254294
O O15 0.500515 0.775783 0.204386
O O16 0.303324 0.772263 0.341357
O O17 0.625449 0.500000 0.148021
O O18 0.232172 0.500000 0.428421
#
# Coordination Sequence:
#
# PCOD9143398 Si02
#       7
#     4   4   4   4   4   4   4
#     4  10  18  33  56  79 107 138 175 220 264 313
#     4   9  16  28  52  83 105 134 178 217 261 314
#     4  10  20  33  51  77 106 136 176 217 260 309
#     4  11  22  35  52  79 106 138 183 219 259 315
#     4   9  19  33  53  82 109 138 174 215 266 319
#     4  10  20  36  55  76 109 143 175 218 266 315
#     4  10  18  31  53  81 108 133 171 215 263 314
#
# _framework density 20.302992
#
# number of rings (size 3 to 8) (size 9 to 14) (size 15 to 20)
#    0.000    2.143    2.857    2.143    0.000    2.286 
#    0.000    7.143    0.000    4.286    0.000    2.000 
#    0.000    0.000    0.000    0.000    0.000    0.000 
#
# Total GULP energy -156304.911257 kJ/mol
# GULP energy per Si atom -5582.318259 kJ/mol
# Density = 2.025678 g / cm^3
# Si number density = 20.302992 Si / 1000 Ang^3
#
#
#
# Elastic Constant Matrix: (Units=GPa)
#
#
# Indices 1 2 3 4 5 6 
#
# 1 80.7586 -10.1739 32.4046 0.0000 -17.9641 0.0000
# 2 -10.1739 35.2095 -5.0216 0.0000 -2.7328 0.0000
# 3 32.4046 -5.0216 135.2285 0.0000 -11.1825 0.0000
# 4 0.0000 0.0000 0.0000 21.9306 0.0000 -12.3866
# 5 -17.9641 -2.7328 -11.1825 0.0000 31.9676 0.0000
# 6 0.0000 0.0000 0.0000 -12.3866 0.0000 -17.2123
#
#
#
# Elastic Compliance Matrix: (Units=1/GPa)
#
#
# Indices 1 2 3 4 5 6 
#
# 1 0.016057 0.004868 -0.002972 0.000000 0.008399 0.000000
# 2 0.004868 0.030291 0.000411 0.000000 0.005468 0.000000
# 3 -0.002972 0.000411 0.008225 0.000000 0.001242 0.000000
# 4 0.000000 0.000000 0.000000 0.032421 0.000000 -0.023331
# 5 0.008399 0.005468 0.001242 0.000000 0.036904 0.000000
# 6 0.000000 0.000000 0.000000 -0.023331 0.000000 -0.041308
#
#
# Mechanical properties :
#
#
# Convention : Reuss Voigt Hill
#
# Bulk Modulus (GPa) = 16.89622 31.73497 24.31559
# Shear Modulus (GPa) = 51.17414 22.93635 37.05525
#
# Velocity S-wave (km/s) = 5.02593 3.36475 4.27677
# Velocity P-wave (km/s) = 6.48228 5.54617 6.03241
#
# Compressibility (1/GPa) = 0.05918484
#
# Stress axis : x y z
#
# Youngs Moduli (GPa) = 62.27869 33.01317 121.57907
#
# Poissons Ratio (x) = -0.16070 0.36137
# Poissons Ratio (y) = -0.30315 -0.04992
# Poissons Ratio (z) = 0.18511 -0.01356
#
# Static dielectric constant tensor:
#      x y z
#    x 1.674610 0.000000 -0.005630 
#    y 0.000000 1.743450 0.000000 
#    z -0.005630 0.000000 1.736030 
# 
# From -- ./inp_files/74332.got.cif
#   From: 2010.05.17/outbox.cif.g08.bks.cpg/sg10_38_cif.got.tgz:74332.got - 2010.06.03 11:33:40.
