data_PCOD9143158
_publ_section_title
;
Structure prediction by ZEFSAII (Michael W. Deem and Ramdas Pophale) SiO2 
 PCOD9143158
Probable space group: P 2/M
;
_chemical_formula_sum "Si O2"
_cell_formula_units_Z 32
_cell_length_a 7.864784
_cell_length_b 15.294492
_cell_length_c 14.832925
_cell_angle_alpha 90.000000
_cell_angle_beta 77.325203
_cell_angle_gamma 90.000000
_cell_volume 1740.741636
_symmetry_space_group_name_H-M "P 2/M"
_symmetry_group_IT_number 10
_symmetry_cell_setting 'monoclinic'
loop_
_space_group_symop_operation_xyz
x,y,z
-x,y,-z
-x,-y,-z
x,-y,z
loop_
_atom_site_type_symbol
_atom_site_label
_atom_site_fract_x
_atom_site_fract_y
_atom_site_fract_z
Si Si1 0.860018 0.718386 0.447034
Si Si2 0.098871 0.393892 0.896182
Si Si3 0.329089 0.720259 0.350526
Si Si4 0.150535 0.603992 0.238741
Si Si5 0.422843 0.904355 0.361602
Si Si6 0.214574 0.904466 0.572581
Si Si7 0.603096 0.402065 0.391502
Si Si8 0.522361 0.604616 0.098688
O O1 0.705005 0.733726 0.538634
O O2 0.899288 0.816249 0.407527
O O3 0.780890 0.649602 0.387890
O O4 0.000000 0.681769 0.500000
O O5 0.095827 0.500000 0.896512
O O6 0.298570 0.362671 0.877604
O O7 0.992505 0.370514 0.818815
O O8 0.000000 0.367057 0.000000
O O9 0.170076 0.672297 0.318539
O O10 0.376459 0.817064 0.311849
O O11 0.486522 0.651612 0.335603
O O12 0.131785 0.500000 0.265994
O O13 0.339902 0.615117 0.170002
O O14 0.291120 0.909729 0.462251
O O15 0.616034 0.893784 0.382843
O O16 0.416494 0.000000 0.317171
O O17 0.132534 0.000000 0.600966
O O18 0.500000 0.408940 0.500000
O O19 0.634050 0.500000 0.355162
O O20 0.547840 0.500000 0.088038
O O21 0.500000 0.639726 0.000000
#
# Coordination Sequence:
#
# PCOD9143158 Si02
#       8
#     4   4   4   4   4   4   4   4
#     4  10  19  30  43  60  82 112 150 189 224 266
#     4   9  15  26  44  64  89 118 146 176 209 257
#     4  10  18  31  45  61  85 111 145 186 224 262
#     4  10  19  29  43  65  92 121 149 180 218 257
#     4   8  13  24  45  65  79 102 139 181 223 269
#     4   8  13  24  43  65  82  99 134 183 230 272
#     4   9  17  30  45  54  70 110 153 181 209 248
#     4   9  15  26  45  66  87 117 150 173 209 265
#
# _framework density 18.382971000000001
#
# number of rings (size 3 to 8) (size 9 to 14) (size 15 to 20)
#    0.000    2.875    2.500    1.125    0.000    1.000 
#    2.250    0.000    0.000    0.000    0.000    0.000 
#    0.000    1.000    0.000    0.000    0.000    0.250 
#
# Total GULP energy -178171.255774 kJ/mol
# GULP energy per Si atom -5567.851743 kJ/mol
# Density = 1.834113 g / cm^3
# Si number density = 18.382971 Si / 1000 Ang^3
#
#
#
# Elastic Constant Matrix: (Units=GPa)
#
#
# Indices 1 2 3 4 5 6 
#
# 1 84.4258 23.6917 19.0183 0.0000 29.2901 0.0000
# 2 23.6917 92.7160 31.3455 0.0000 22.4123 0.0000
# 3 19.0183 31.3455 49.4491 0.0000 12.1911 0.0000
# 4 0.0000 0.0000 0.0000 6.2944 0.0000 5.7941
# 5 29.2901 22.4123 12.1911 0.0000 25.7261 0.0000
# 6 0.0000 0.0000 0.0000 5.7941 0.0000 15.6470
#
#
#
# Elastic Compliance Matrix: (Units=1/GPa)
#
#
# Indices 1 2 3 4 5 6 
#
# 1 0.019926 0.001341 -0.002981 0.000000 -0.022442 0.000000
# 2 0.001341 0.015874 -0.007691 0.000000 -0.011712 0.000000
# 3 -0.002981 -0.007691 0.026898 0.000000 -0.002653 0.000000
# 4 0.000000 0.000000 0.000000 0.241034 0.000000 -0.089256
# 5 -0.022442 -0.011712 -0.002653 0.000000 0.075882 0.000000
# 6 0.000000 0.000000 0.000000 -0.089256 0.000000 0.096962
#
#
# Mechanical properties :
#
#
# Convention : Reuss Voigt Hill
#
# Bulk Modulus (GPa) = 22.70822 41.63354 32.17088
# Shear Modulus (GPa) = 9.80553 19.70251 14.75402
#
# Velocity S-wave (km/s) = 2.31206 3.27736 2.83608
# Velocity P-wave (km/s) = 4.41669 6.08428 5.31628
#
# Compressibility (1/GPa) = 0.04403693
#
# Stress axis : x y z
#
# Youngs Moduli (GPa) = 50.18631 62.99535 37.17681
#
# Poissons Ratio (x) = -0.08448 0.11082
# Poissons Ratio (y) = -0.06730 0.28593
# Poissons Ratio (z) = 0.14960 0.48450
#
# Static dielectric constant tensor:
#      x y z
#    x 1.734960 0.000000 -0.050070 
#    y 0.000000 1.701300 0.000000 
#    z -0.050070 0.000000 1.678510 
# 
# From -- ./inp_files/61545.got.cif
#   From: 2010.05.17/outbox.cif.g08.bks.cpg/sg10_31_cif.got.tgz:61545.got - 2010.06.03 11:33:40.
