data_PCOD9143829
_publ_section_title
;
Structure prediction by ZEFSAII (Michael W. Deem and Ramdas Pophale) SiO2 
 PCOD9143829
Probable space group: P 2/M
;
_chemical_formula_sum "Si O2"
_cell_formula_units_Z 28
_cell_length_a 23.052109
_cell_length_b 14.423561
_cell_length_c 9.304799
_cell_angle_alpha 90.000000
_cell_angle_beta 29.677017
_cell_angle_gamma 90.000000
_cell_volume 1531.764589
_symmetry_space_group_name_H-M "P 2/M"
_symmetry_group_IT_number 10
_symmetry_cell_setting 'monoclinic'
loop_
_space_group_symop_operation_xyz
x,y,z
-x,y,-z
-x,-y,-z
x,-y,z
loop_
_atom_site_type_symbol
_atom_site_label
_atom_site_fract_x
_atom_site_fract_y
_atom_site_fract_z
Si Si1 0.234704 0.216357 0.587886
Si Si2 0.529735 0.604520 0.269720
Si Si3 0.931370 0.107872 0.876152
Si Si4 0.624896 0.607917 0.655647
Si Si5 0.182283 0.892725 0.190724
Si Si6 0.560576 0.895802 0.712479
Si Si7 0.653670 0.208052 0.956849
O O1 0.271108 0.323677 0.526506
O O2 0.325554 0.163645 0.498400
O O3 0.266333 0.189695 0.356220
O O4 0.111395 0.178971 0.910378
O O5 0.500000 0.610840 0.500000
O O6 0.571831 0.500000 0.145450
O O7 0.411335 0.617494 0.432581
O O8 0.621196 0.683941 0.033650
O O9 0.859573 0.123784 0.882046
O O10 0.066235 0.117666 0.539149
O O11 0.911746 0.000000 0.962321
O O12 0.647344 0.500000 0.639447
O O13 0.500000 0.634813 0.000000
O O14 0.281739 0.827305 0.040455
O O15 0.220278 0.000000 0.119999
O O16 0.588119 0.000000 0.604984
O O17 0.500000 0.901073 0.000000
O O18 0.468097 0.846041 0.808295
#
# Coordination Sequence:
#
# PCOD9143829 Si02
#       7
#     4   4   4   4   4   4   4
#     4  11  19  31  50  79 105 135 171 211 260 307
#     4  10  21  35  51  76 109 141 173 210 255 308
#     4   9  20  38  56  73 100 138 179 218 258 306
#     4  10  18  33  53  75 107 141 172 207 251 310
#     4   9  20  38  55  73 100 139 180 216 257 305
#     4   9  17  28  42  69 107 136 157 196 253 305
#     4  11  20  31  52  79 106 133 171 217 256 305
#
# _framework density 18.279572999999999
#
# number of rings (size 3 to 8) (size 9 to 14) (size 15 to 20)
#    0.000    2.143    2.857    2.143    2.000    2.286 
#    0.000    1.429    0.000    4.286    0.000    4.000 
#    0.000    0.000    0.000    0.000    0.000    0.000 
#
# Total GULP energy -156199.540074 kJ/mol
# GULP energy per Si atom -5578.555003 kJ/mol
# Density = 1.823797 g / cm^3
# Si number density = 18.279573 Si / 1000 Ang^3
#
#
#
# Elastic Constant Matrix: (Units=GPa)
#
#
# Indices 1 2 3 4 5 6 
#
# 1 48.9121 10.7938 -9.6709 0.0000 -5.8939 0.0000
# 2 10.7938 90.3610 16.9522 0.0000 -3.8899 0.0000
# 3 -9.6709 16.9522 38.9779 0.0000 11.1887 0.0000
# 4 0.0000 0.0000 0.0000 13.9899 0.0000 -8.2567
# 5 -5.8939 -3.8899 11.1887 0.0000 19.2522 0.0000
# 6 0.0000 0.0000 0.0000 -8.2567 0.0000 -6.0343
#
#
#
# Elastic Compliance Matrix: (Units=1/GPa)
#
#
# Indices 1 2 3 4 5 6 
#
# 1 0.022912 -0.003896 0.006711 0.000000 0.002327 0.000000
# 2 -0.003896 0.013449 -0.008706 0.000000 0.006584 0.000000
# 3 0.006711 -0.008706 0.037234 0.000000 -0.021343 0.000000
# 4 0.000000 0.000000 0.000000 0.039545 0.000000 -0.054109
# 5 0.002327 0.006584 -0.021343 0.000000 0.066389 0.000000
# 6 0.000000 0.000000 0.000000 -0.054109 0.000000 -0.091681
#
#
# Mechanical properties :
#
#
# Convention : Reuss Voigt Hill
#
# Bulk Modulus (GPa) = 16.17769 23.82235 20.00002
# Shear Modulus (GPa) = 41.58615 16.11994 28.85304
#
# Velocity S-wave (km/s) = 4.77488 2.97283 3.97726
# Velocity P-wave (km/s) = 6.26647 4.98439 5.66183
#
# Compressibility (1/GPa) = 0.06181352
#
# Stress axis : x y z
#
# Youngs Moduli (GPa) = 43.64555 74.35644 26.85751
#
# Poissons Ratio (x) = 0.28967 -0.18024
# Poissons Ratio (y) = 0.17003 0.23381
# Poissons Ratio (z) = -0.29291 0.64732
#
# Static dielectric constant tensor:
#      x y z
#    x 1.639560 0.000000 0.030570 
#    y 0.000000 1.641370 0.000000 
#    z 0.030570 0.000000 1.655350 
# 
# From -- ./inp_files/28969.got.cif
#   From: 2010.05.17/outbox.cif.g08.bks.cpg/sg10_15_cif.got.tgz:28969.got - 2010.06.03 11:33:40.
