data_PCOD9143978
_publ_section_title
;
Structure prediction by ZEFSAII (Michael W. Deem and Ramdas Pophale) SiO2 
 PCOD9143978
Probable space group: P 2/M
;
_chemical_formula_sum "Si O2"
_cell_formula_units_Z 32
_cell_length_a 14.762695
_cell_length_b 18.140458
_cell_length_c 11.571720
_cell_angle_alpha 90.000000
_cell_angle_beta 30.240285
_cell_angle_gamma 90.000000
_cell_volume 1560.706527
_symmetry_space_group_name_H-M "P 2/M"
_symmetry_group_IT_number 10
_symmetry_cell_setting 'monoclinic'
loop_
_space_group_symop_operation_xyz
x,y,z
-x,y,-z
-x,-y,-z
x,-y,z
loop_
_atom_site_type_symbol
_atom_site_label
_atom_site_fract_x
_atom_site_fract_y
_atom_site_fract_z
Si Si1 0.064038 0.693429 0.608804
Si Si2 0.105831 0.207589 0.003138
Si Si3 0.207732 0.640423 0.817031
Si Si4 0.240404 0.582452 0.033861
Si Si5 0.609195 0.652048 0.622312
Si Si6 0.611331 0.915821 0.259017
Si Si7 0.466739 0.821448 0.222187
Si Si8 0.802714 0.819323 0.684128
O O1 0.210924 0.640317 0.503205
O O2 0.151166 0.736796 0.407998
O O3 0.012014 0.755674 0.763861
O O4 0.892121 0.644726 0.773190
O O5 0.237270 0.275601 0.827602
O O6 0.215161 0.136678 0.921639
O O7 0.000000 0.192906 0.000000
O O8 0.228642 0.590431 0.906420
O O9 0.340181 0.630572 0.564301
O O10 0.000000 0.636617 0.000000
O O11 0.194248 0.500000 0.119286
O O12 0.440878 0.605036 0.846946
O O13 0.569079 0.739570 0.686725
O O14 0.500000 0.914230 0.500000
O O15 0.483183 0.880371 0.304436
O O16 0.660021 0.000000 0.178205
O O17 0.314400 0.845644 0.297521
O O18 0.660736 0.819657 0.944473
O O19 0.000000 0.851943 0.500000
#
# Coordination Sequence:
#
# PCOD9143978 Si02
#       8
#     4   4   4   4   4   4   4   4
#     4  10  21  38  61  90 119 152 209 268 315 360
#     4  10  18  34  60  86 114 161 216 261 300 357
#     4  10  18  34  52  81 113 158 209 254 304 352
#     4  11  23  34  51  84 126 169 204 241 308 385
#     4  11  19  35  57  81 112 153 205 257 304 358
#     4  11  24  39  59  92 136 177 202 241 312 383
#     4  10  22  39  65  95 120 158 211 267 314 370
#     4  10  20  38  68  96 116 148 206 274 323 357
#
# _framework density 20.503534999999999
#
# number of rings (size 3 to 8) (size 9 to 14) (size 15 to 20)
#    0.000    1.625    3.750    4.125    1.750    2.000 
#    0.000    1.250    0.000    7.125    0.000    8.750 
#    0.000    0.000    0.000    0.000    0.000    0.000 
#
# Total GULP energy -178619.840227 kJ/mol
# GULP energy per Si atom -5581.870007 kJ/mol
# Density = 2.045687 g / cm^3
# Si number density = 20.503535 Si / 1000 Ang^3
#
#
#
# Elastic Constant Matrix: (Units=GPa)
#
#
# Indices 1 2 3 4 5 6 
#
# 1 86.2709 24.4159 24.8362 0.0000 -7.8867 0.0000
# 2 24.4159 67.9739 12.2154 0.0000 0.0013 0.0000
# 3 24.8362 12.2154 86.2442 0.0000 -13.7135 0.0000
# 4 0.0000 0.0000 0.0000 0.9920 0.0000 0.5829
# 5 -7.8867 0.0013 -13.7135 0.0000 27.2586 0.0000
# 6 0.0000 0.0000 0.0000 0.5829 0.0000 -30.0245
#
#
#
# Elastic Compliance Matrix: (Units=1/GPa)
#
#
# Indices 1 2 3 4 5 6 
#
# 1 0.013947 -0.004474 -0.002979 0.000000 0.002537 0.000000
# 2 -0.004474 0.016566 -0.001374 0.000000 -0.001986 0.000000
# 3 -0.002979 -0.001374 0.013598 0.000000 0.005979 0.000000
# 4 0.000000 0.000000 0.000000 0.996734 0.000000 0.019350
# 5 0.002537 -0.001986 0.005979 0.000000 0.040428 0.000000
# 6 0.000000 0.000000 0.000000 0.019350 0.000000 -0.032930
#
#
# Mechanical properties :
#
#
# Convention : Reuss Voigt Hill
#
# Bulk Modulus (GPa) = 37.79821 40.38045 39.08933
# Shear Modulus (GPa) = 4.65196 11.57998 8.11597
#
# Velocity S-wave (km/s) = 1.50791 2.37909 1.99171
# Velocity P-wave (km/s) = 4.63753 5.22340 4.93916
#
# Compressibility (1/GPa) = 0.02645628
#
# Stress axis : x y z
#
# Youngs Moduli (GPa) = 71.69817 60.36597 73.53878
#
# Poissons Ratio (x) = 0.27011 0.21910
# Poissons Ratio (y) = 0.32081 0.10102
# Poissons Ratio (z) = 0.21362 0.08292
#
# Static dielectric constant tensor:
#      x y z
#    x 1.814540 0.000000 -0.009620 
#    y 0.000000 1.681460 0.000000 
#    z -0.009620 0.000000 1.757910 
# 
# From -- ./inp_files/51932.got.cif
#   From: 2010.05.17/outbox.cif.g08.bks.cpg/sg10_26_cif.got.tgz:51932.got - 2010.06.03 11:33:40.
