data_PCOD9143402
_publ_section_title
;
Structure prediction by ZEFSAII (Michael W. Deem and Ramdas Pophale) SiO2 
 PCOD9143402
Probable space group: P 2/M
;
_chemical_formula_sum "Si O2"
_cell_formula_units_Z 32
_cell_length_a 15.735705
_cell_length_b 7.654447
_cell_length_c 25.296413
_cell_angle_alpha 90.000000
_cell_angle_beta 28.787551
_cell_angle_gamma 90.000000
_cell_volume 1467.277698
_symmetry_space_group_name_H-M "P 2/M"
_symmetry_group_IT_number 10
_symmetry_cell_setting 'monoclinic'
loop_
_space_group_symop_operation_xyz
x,y,z
-x,y,-z
-x,-y,-z
x,-y,z
loop_
_atom_site_type_symbol
_atom_site_label
_atom_site_fract_x
_atom_site_fract_y
_atom_site_fract_z
Si Si1 0.061786 0.297888 0.819799
Si Si2 0.167283 0.699963 0.871861
Si Si3 0.242952 0.799273 0.090214
Si Si4 0.719718 0.291315 0.529749
Si Si5 0.551484 0.790785 0.845220
Si Si6 0.529709 0.703265 0.427558
Si Si7 0.887818 0.210989 0.724570
Si Si8 0.484369 0.710854 0.259049
O O1 0.997675 0.500000 0.859606
O O2 0.089817 0.214052 0.861760
O O3 0.261045 0.300011 0.691278
O O4 0.926990 0.205338 0.854890
O O5 0.221591 0.500000 0.825984
O O6 0.334270 0.773182 0.811849
O O7 0.000000 0.686942 0.000000
O O8 0.179880 0.723129 0.180983
O O9 0.294030 0.000000 0.073967
O O10 0.402166 0.722505 0.967762
O O11 0.699274 0.500000 0.543858
O O12 0.574889 0.224508 0.566015
O O13 0.670149 0.228865 0.616184
O O14 0.914792 0.257963 0.400995
O O15 0.742766 0.730191 0.760935
O O16 0.523738 0.757262 0.798217
O O17 0.546579 0.000000 0.853167
O O18 0.500000 0.791189 0.500000
O O19 0.467840 0.500000 0.464675
O O20 0.886938 0.000000 0.727587
O O21 0.488183 0.500000 0.256829
#
# Coordination Sequence:
#
# PCOD9143402 Si02
#       8
#     4   4   4   4   4   4   4   4
#     4  10  18  31  53  81 109 141 178 213 263 330
#     4   9  16  28  49  77 108 141 177 216 260 317
#     4  10  21  38  58  82 112 143 183 238 291 335
#     4  10  20  36  57  84 117 148 183 229 278 328
#     4  10  22  40  60  80 106 146 192 236 286 340
#     4   9  16  28  49  77 108 141 177 216 260 317
#     4  10  22  40  60  80 106 146 192 236 286 340
#     4  10  20  36  57  84 117 148 183 229 278 328
#
# _framework density 21.809097000000001
#
# number of rings (size 3 to 8) (size 9 to 14) (size 15 to 20)
#    0.000    2.250    1.250    1.875    0.000    6.000 
#    0.000    3.750    0.000    6.750    0.000    0.000 
#    0.000    0.000    0.000    0.000    0.000    0.000 
#
# Total GULP energy -178390.960748 kJ/mol
# GULP energy per Si atom -5574.717523 kJ/mol
# Density = 2.175946 g / cm^3
# Si number density = 21.809097 Si / 1000 Ang^3
#
#
#
# Elastic Constant Matrix: (Units=GPa)
#
#
# Indices 1 2 3 4 5 6 
#
# 1 122.3116 0.9443 56.7893 0.0000 14.3848 0.0000
# 2 0.9443 44.5469 5.7198 0.0000 4.0633 0.0000
# 3 56.7893 5.7198 133.7234 0.0000 15.2430 0.0000
# 4 0.0000 0.0000 0.0000 23.2424 0.0000 1.1583
# 5 14.3848 4.0633 15.2430 0.0000 47.2435 0.0000
# 6 0.0000 0.0000 0.0000 1.1583 0.0000 15.5139
#
#
#
# Elastic Compliance Matrix: (Units=1/GPa)
#
#
# Indices 1 2 3 4 5 6 
#
# 1 0.010339 0.000488 -0.004203 0.000000 -0.001834 0.000000
# 2 0.000488 0.022726 -0.000975 0.000000 -0.001788 0.000000
# 3 -0.004203 -0.000975 0.009498 0.000000 -0.001701 0.000000
# 4 0.000000 0.000000 0.000000 0.043185 0.000000 -0.003224
# 5 -0.001834 -0.001788 -0.001701 0.000000 0.022428 0.000000
# 6 0.000000 0.000000 0.000000 -0.003224 0.000000 0.064699
#
#
# Mechanical properties :
#
#
# Convention : Reuss Voigt Hill
#
# Bulk Modulus (GPa) = 30.13550 47.49875 38.81713
# Shear Modulus (GPa) = 25.86417 33.00854 29.43635
#
# Velocity S-wave (km/s) = 3.44748 3.89462 3.67785
# Velocity P-wave (km/s) = 5.44928 6.48465 5.98938
#
# Compressibility (1/GPa) = 0.03318345
#
# Stress axis : x y z
#
# Youngs Moduli (GPa) = 96.72102 44.00191 105.27996
#
# Poissons Ratio (x) = -0.02146 0.44244
# Poissons Ratio (y) = -0.04717 0.10268
# Poissons Ratio (z) = 0.40647 0.04292
#
# Static dielectric constant tensor:
#      x y z
#    x 1.788690 0.000000 0.003380 
#    y 0.000000 1.848290 0.000000 
#    z 0.003380 0.000000 1.723450 
# 
# From -- ./inp_files/71676.got.cif
#   From: 2010.05.17/outbox.cif.g08.bks.cpg/sg10_36_cif.got.tgz:71676.got - 2010.06.03 11:33:40.
