data_PCOD9143208
_publ_section_title
;
Structure prediction by ZEFSAII (Michael W. Deem and Ramdas Pophale) SiO2 
 PCOD9143208
Probable space group: P 2/M
;
_chemical_formula_sum "Si O2"
_cell_formula_units_Z 24
_cell_length_a 8.445388
_cell_length_b 11.993604
_cell_length_c 24.194891
_cell_angle_alpha 90.000000
_cell_angle_beta 31.089442
_cell_angle_gamma 90.000000
_cell_volume 1265.489772
_symmetry_space_group_name_H-M "P 2/M"
_symmetry_group_IT_number 10
_symmetry_cell_setting 'monoclinic'
loop_
_space_group_symop_operation_xyz
x,y,z
-x,y,-z
-x,-y,-z
x,-y,z
loop_
_atom_site_type_symbol
_atom_site_label
_atom_site_fract_x
_atom_site_fract_y
_atom_site_fract_z
Si Si1 0.854841 0.130369 0.954279
Si Si2 0.116574 0.500000 0.528321
Si Si3 0.510025 0.869448 0.164526
Si Si4 0.111814 0.309708 0.809204
Si Si5 0.433879 0.500000 0.182484
Si Si6 0.832668 0.500000 0.297768
Si Si7 0.304662 0.310507 0.298451
Si Si8 0.239594 0.500000 0.030574
O O1 0.176522 0.138504 0.892534
O O2 0.912497 0.199164 0.880738
O O3 0.800670 0.000000 0.959181
O O4 0.600015 0.169276 0.075426
O O5 0.481508 0.500000 0.420708
O O6 0.000000 0.500000 0.500000
O O7 0.973602 0.387672 0.597944
O O8 0.263156 0.798171 0.272878
O O9 0.430726 0.000000 0.184978
O O10 0.105092 0.387587 0.756997
O O11 0.466335 0.287549 0.718868
O O12 0.961665 0.392034 0.898878
O O13 0.488871 0.391687 0.202010
O O14 0.617287 0.500000 0.071780
O O15 0.075451 0.500000 0.273711
O O16 0.500000 0.500000 0.000000
#
# Coordination Sequence:
#
# PCOD9143208 Si02
#       8
#     4   2   4   4   2   2   4   2
#     4   8  14  25  46  72  99 128 158 195 236 288
#     4  11  19  35  53  69  97 127 170 207 253 292
#     4   8  14  27  46  73 102 124 153 199 247 283
#     4  10  18  31  49  71  98 132 164 187 248 296
#     4  11  21  32  46  74 101 122 167 200 241 297
#     4  11  21  34  49  67  98 142 158 205 253 292
#     4  10  20  31  52  77  92 124 169 212 235 287
#     4  11  19  29  44  68 100 137 154 187 245 298
#
# _framework density 18.964991000000001
#
# number of rings (size 3 to 8) (size 9 to 14) (size 15 to 20)
#    0.000    2.333    3.333    3.500    0.000    4.000 
#    0.000    0.000    0.000    3.000    0.000    1.167 
#    0.000    0.000    0.000    0.000    0.000    0.000 
#
# Total GULP energy -133690.113454 kJ/mol
# GULP energy per Si atom -5570.421394 kJ/mol
# Density = 1.892183 g / cm^3
# Si number density = 18.964991 Si / 1000 Ang^3
#
#
#
# Elastic Constant Matrix: (Units=GPa)
#
#
# Indices 1 2 3 4 5 6 
#
# 1 59.3575 9.7020 19.2024 0.0000 -0.9218 0.0000
# 2 9.7020 82.1698 28.8929 0.0000 11.7041 0.0000
# 3 19.2024 28.8929 89.6564 0.0000 4.1079 0.0000
# 4 0.0000 0.0000 0.0000 27.7256 0.0000 13.0198
# 5 -0.9218 11.7041 4.1079 0.0000 24.4402 0.0000
# 6 0.0000 0.0000 0.0000 13.0198 0.0000 10.4156
#
#
#
# Elastic Compliance Matrix: (Units=1/GPa)
#
#
# Indices 1 2 3 4 5 6 
#
# 1 0.018234 -0.001142 -0.003622 0.000000 0.001843 0.000000
# 2 -0.001142 0.014688 -0.004197 0.000000 -0.006372 0.000000
# 3 -0.003622 -0.004197 0.013298 0.000000 -0.000362 0.000000
# 4 0.000000 0.000000 0.000000 0.087332 0.000000 -0.109168
# 5 0.001843 -0.006372 -0.000362 0.000000 0.044098 0.000000
# 6 0.000000 0.000000 0.000000 -0.109168 0.000000 0.232472
#
#
# Mechanical properties :
#
#
# Convention : Reuss Voigt Hill
#
# Bulk Modulus (GPa) = 35.33664 38.53093 36.93378
# Shear Modulus (GPa) = 11.42917 24.07536 17.75227
#
# Velocity S-wave (km/s) = 2.45755 3.56682 3.06282
# Velocity P-wave (km/s) = 5.16969 6.10933 5.65905
#
# Compressibility (1/GPa) = 0.02829924
#
# Stress axis : x y z
#
# Youngs Moduli (GPa) = 54.84255 68.08255 75.19656
#
# Poissons Ratio (x) = 0.07775 0.27234
# Poissons Ratio (y) = 0.06263 0.31559
# Poissons Ratio (z) = 0.19863 0.28573
#
# Static dielectric constant tensor:
#      x y z
#    x 1.675500 0.000000 -0.000200 
#    y 0.000000 1.746280 0.000000 
#    z -0.000200 0.000000 1.688000 
# 
# From -- ./inp_files/92220.got.cif
#   From: 2010.05.17/outbox.cif.g08.bks.cpg/sg10_47_cif.got.tgz:92220.got - 2010.06.03 11:33:40.
