data_PCOD9143692
_publ_section_title
;
Structure prediction by ZEFSAII (Michael W. Deem and Ramdas Pophale) SiO2 
 PCOD9143692
Probable space group: P 2/M
;
_chemical_formula_sum "Si O2"
_cell_formula_units_Z 30
_cell_length_a 11.360452
_cell_length_b 9.391993
_cell_length_c 14.843273
_cell_angle_alpha 90.000000
_cell_angle_beta 67.297120
_cell_angle_gamma 90.000000
_cell_volume 1461.026928
_symmetry_space_group_name_H-M "P 2/M"
_symmetry_group_IT_number 10
_symmetry_cell_setting 'monoclinic'
loop_
_space_group_symop_operation_xyz
x,y,z
-x,y,-z
-x,-y,-z
x,-y,z
loop_
_atom_site_type_symbol
_atom_site_label
_atom_site_fract_x
_atom_site_fract_y
_atom_site_fract_z
Si Si1 0.286985 0.339775 0.417751
Si Si2 0.847228 0.666173 0.045268
Si Si3 0.290970 0.329874 0.620074
Si Si4 0.664276 0.169001 0.221677
Si Si5 0.034692 0.840528 0.688816
Si Si6 0.782553 0.831442 0.884784
Si Si7 0.000000 0.747032 0.500000
Si Si8 0.600934 0.168955 0.781023
O O1 0.333135 0.500000 0.388659
O O2 0.328748 0.294994 0.505963
O O3 0.332627 0.241471 0.323853
O O4 0.132516 0.338172 0.463871
O O5 0.811567 0.500000 0.064007
O O6 0.796771 0.736324 0.968379
O O7 0.788511 0.757106 0.143801
O O8 0.000000 0.675938 0.000000
O O9 0.299143 0.500000 0.629167
O O10 0.365873 0.245450 0.674882
O O11 0.144921 0.274604 0.672192
O O12 0.548889 0.195141 0.186125
O O13 0.678706 0.000000 0.228473
O O14 0.998068 0.832848 0.594148
O O15 0.910221 0.816814 0.786233
O O16 0.084219 0.000000 0.693498
O O17 0.665354 0.786717 0.855448
O O18 0.769749 0.000000 0.912254
O O19 0.622931 0.000000 0.767930
#
# Coordination Sequence:
#
# PCOD9143692 Si02
#       8
#     4   4   4   4   4   4   2   4
#     4  10  21  36  57  87 124 169 210 249 304 362
#     4  11  25  44  67  95 123 155 195 249 309 366
#     4  10  22  38  57  86 125 163 205 259 308 361
#     4  11  24  43  66  89 118 160 207 256 308 366
#     4  10  19  32  57  88 120 159 202 248 301 358
#     4  10  21  39  61  90 124 160 200 248 303 360
#     4  10  18  32  54  88 124 160 202 252 298 350
#     4  10  23  42  62  89 125 163 206 254 303 358
#
# _framework density 20.533501999999999
#
# number of rings (size 3 to 8) (size 9 to 14) (size 15 to 20)
#    0.000    1.733    1.333    2.400    0.000    9.600 
#    0.000    5.333    0.000    0.000    0.000    0.000 
#    0.000    0.000    0.000    0.000    0.000    0.000 
#
# Total GULP energy -167637.435748 kJ/mol
# GULP energy per Si atom -5587.914525 kJ/mol
# Density = 2.048677 g / cm^3
# Si number density = 20.533502 Si / 1000 Ang^3
#
#
#
# Elastic Constant Matrix: (Units=GPa)
#
#
# Indices 1 2 3 4 5 6 
#
# 1 68.7777 29.7742 22.6612 0.0000 24.7302 0.0000
# 2 29.7742 70.6248 31.2899 0.0000 10.0512 0.0000
# 3 22.6612 31.2899 73.2412 0.0000 21.1898 0.0000
# 4 0.0000 0.0000 0.0000 40.7823 0.0000 14.1495
# 5 24.7302 10.0512 21.1898 0.0000 36.8106 0.0000
# 6 0.0000 0.0000 0.0000 14.1495 0.0000 0.1261
#
#
#
# Elastic Compliance Matrix: (Units=1/GPa)
#
#
# Indices 1 2 3 4 5 6 
#
# 1 0.022546 -0.007683 0.000098 0.000000 -0.013105 0.000000
# 2 -0.007683 0.020093 -0.007335 0.000000 0.003897 0.000000
# 3 0.000098 -0.007335 0.019433 0.000000 -0.009250 0.000000
# 4 0.000000 0.000000 0.000000 -0.000646 0.000000 0.072537
# 5 -0.013105 0.003897 -0.009250 0.000000 0.040231 0.000000
# 6 0.000000 0.000000 0.000000 0.072537 0.000000 -0.209069
#
#
# Mechanical properties :
#
#
# Convention : Reuss Voigt Hill
#
# Bulk Modulus (GPa) = 31.02463 42.23270 36.62867
# Shear Modulus (GPa) = -74.81705 24.13835 -25.33935
#
# Velocity S-wave (km/s) = -6.04282 3.43236 -3.51671
# Velocity P-wave (km/s) = 5.79185 6.02665 1.17792
#
# Compressibility (1/GPa) = 0.03223245
#
# Stress axis : x y z
#
# Youngs Moduli (GPa) = 44.35459 49.76785 51.45989
#
# Poissons Ratio (x) = 0.38238 -0.00506
# Poissons Ratio (y) = 0.34079 0.37743
# Poissons Ratio (z) = -0.00436 0.36502
#
# Static dielectric constant tensor:
#      x y z
#    x 1.769800 0.000000 0.009610 
#    y 0.000000 1.689340 0.000000 
#    z 0.009610 0.000000 1.713170 
# 
# From -- ./inp_files/63734.got.cif
#   From: 2010.05.17/outbox.cif.g08.bks.cpg/sg10_32_cif.got.tgz:63734.got - 2010.06.03 11:33:40.
