data_PCOD9143883
_publ_section_title
;
Structure prediction by ZEFSAII (Michael W. Deem and Ramdas Pophale) SiO2 
 PCOD9143883
Probable space group: P 2/M
;
_chemical_formula_sum "Si O2"
_cell_formula_units_Z 32
_cell_length_a 27.691391
_cell_length_b 8.219919
_cell_length_c 21.548683
_cell_angle_alpha 90.000000
_cell_angle_beta 160.252704
_cell_angle_gamma 90.000000
_cell_volume 1657.240852
_symmetry_space_group_name_H-M "P 2/M"
_symmetry_group_IT_number 10
_symmetry_cell_setting 'monoclinic'
loop_
_space_group_symop_operation_xyz
x,y,z
-x,y,-z
-x,-y,-z
x,-y,z
loop_
_atom_site_type_symbol
_atom_site_label
_atom_site_fract_x
_atom_site_fract_y
_atom_site_fract_z
Si Si1 0.345796 0.194394 0.290145
Si Si2 0.940995 0.696750 0.994935
Si Si3 0.713834 0.696750 0.922471
Si Si4 0.489069 0.699090 0.753125
Si Si5 0.835931 0.301571 0.630825
Si Si6 0.713400 0.811557 0.278690
Si Si7 0.031930 0.303460 0.340601
Si Si8 0.446171 0.308958 0.030385
O O1 0.500000 0.256393 0.500000
O O2 0.218228 0.249787 0.180787
O O3 0.310909 0.250825 0.178119
O O4 0.349998 0.000000 0.295188
O O5 0.942392 0.500000 0.996561
O O6 0.000000 0.752735 0.000000
O O7 0.048847 0.752820 0.179304
O O8 0.715108 0.500000 0.924211
O O9 0.588515 0.752744 0.816901
O O10 0.868238 0.750260 0.135190
O O11 0.488713 0.500000 0.752958
O O12 0.324663 0.752003 0.548779
O O13 0.547510 0.749991 0.891265
O O14 0.836101 0.500000 0.631516
O O15 0.886268 0.252097 0.623386
O O16 0.874289 0.762246 0.489454
O O17 0.664159 0.777555 0.149007
O O18 0.690967 0.000000 0.265571
O O19 0.602689 0.713392 0.188558
O O20 0.033107 0.500000 0.344902
O O21 0.412488 0.500000 0.989767
#
# Coordination Sequence:
#
# PCOD9143883 Si02
#       8
#     4   4   4   4   4   4   4   4
#     4  11  25  42  57  79 119 163 195 226 279 349
#     4  10  21  37  62  93 116 143 189 245 291 330
#     4  10  21  38  62  86 109 142 190 240 282 328
#     4   9  18  32  56  86 111 138 178 233 287 333
#     4   9  16  31  54  84 113 136 176 234 283 329
#     4  11  21  32  51  81 113 146 187 228 274 331
#     4  10  18  34  57  81 109 143 183 230 280 330
#     4  10  18  33  55  80 111 146 183 229 288 334
#
# _framework density 19.309204000000001
#
# number of rings (size 3 to 8) (size 9 to 14) (size 15 to 20)
#    0.000    2.000    2.500    2.625    1.750    1.750 
#    0.000    1.875    0.000    3.750    0.000    0.000 
#    0.000    0.000    0.000    0.000    0.000    0.000 
#
# Total GULP energy -178667.202386 kJ/mol
# GULP energy per Si atom -5583.350075 kJ/mol
# Density = 1.926526 g / cm^3
# Si number density = 19.309204 Si / 1000 Ang^3
#
#
#
# Elastic Constant Matrix: (Units=GPa)
#
#
# Indices 1 2 3 4 5 6 
#
# 1 94.9650 5.2332 57.8674 0.0000 16.5359 0.0000
# 2 5.2332 12.6320 8.2139 0.0000 0.7428 0.0000
# 3 57.8674 8.2139 160.5826 0.0000 8.3819 0.0000
# 4 0.0000 0.0000 0.0000 2.5382 0.0000 6.4114
# 5 16.5359 0.7428 8.3819 0.0000 32.5944 0.0000
# 6 0.0000 0.0000 0.0000 6.4114 0.0000 -17.8261
#
#
#
# Elastic Compliance Matrix: (Units=1/GPa)
#
#
# Indices 1 2 3 4 5 6 
#
# 1 0.014694 -0.002577 -0.004842 0.000000 -0.006151 0.000000
# 2 -0.002577 0.082361 -0.003299 0.000000 0.000279 0.000000
# 3 -0.004842 -0.003299 0.008118 0.000000 0.000444 0.000000
# 4 0.000000 0.000000 0.000000 0.206435 0.000000 0.074247
# 5 -0.006151 0.000279 0.000444 0.000000 0.033680 0.000000
# 6 0.000000 0.000000 0.000000 0.074247 0.000000 -0.029394
#
#
# Mechanical properties :
#
#
# Convention : Reuss Voigt Hill
#
# Bulk Modulus (GPa) = 11.94226 45.64538 28.79382
# Shear Modulus (GPa) = 13.68958 16.58565 15.13762
#
# Velocity S-wave (km/s) = 2.66553 2.93397 2.80296
# Velocity P-wave (km/s) = 3.95874 5.93026 5.04181
#
# Compressibility (1/GPa) = 0.08373624
#
# Stress axis : x y z
#
# Youngs Moduli (GPa) = 68.05590 12.14174 123.18616
#
# Poissons Ratio (x) = 0.03129 0.59649
# Poissons Ratio (y) = 0.17538 0.40635
# Poissons Ratio (z) = 0.32954 0.04005
#
# Static dielectric constant tensor:
#      x y z
#    x 1.652390 0.000000 -0.005230 
#    y 0.000000 1.670880 0.000000 
#    z -0.005230 0.000000 1.673980 
# 
# From -- ./inp_files/85752.got.cif
#   From: 2010.05.17/outbox.cif.g08.bks.cpg/sg10_43_cif.got.tgz:85752.got - 2010.06.03 11:33:40.
