data_PCOD9143888
_publ_section_title
;
Structure prediction by ZEFSAII (Michael W. Deem and Ramdas Pophale) SiO2 
 PCOD9143888
Probable space group: P 2/M
;
_chemical_formula_sum "Si O2"
_cell_formula_units_Z 32
_cell_length_a 14.629954
_cell_length_b 19.829429
_cell_length_c 9.027790
_cell_angle_alpha 90.000000
_cell_angle_beta 141.574285
_cell_angle_gamma 90.000000
_cell_volume 1627.703753
_symmetry_space_group_name_H-M "P 2/M"
_symmetry_group_IT_number 10
_symmetry_cell_setting 'monoclinic'
loop_
_space_group_symop_operation_xyz
x,y,z
-x,y,-z
-x,-y,-z
x,-y,z
loop_
_atom_site_type_symbol
_atom_site_label
_atom_site_fract_x
_atom_site_fract_y
_atom_site_fract_z
Si Si1 0.207889 0.252176 0.663032
Si Si2 0.456642 0.749662 0.618423
Si Si3 0.165629 0.301296 0.153144
Si Si4 0.663494 0.424213 0.775589
Si Si5 0.387028 0.363961 0.986403
Si Si6 0.610912 0.140321 0.261672
Si Si7 0.087965 0.799489 0.816397
Si Si8 0.068229 0.079434 0.251392
O O1 0.335275 0.207499 0.755278
O O2 0.171050 0.215413 0.771337
O O3 0.062141 0.243002 0.383421
O O4 0.245927 0.329853 0.732508
O O5 0.500000 0.746051 0.500000
O O6 0.293003 0.718112 0.429930
O O7 0.553640 0.699447 0.840551
O O8 0.464031 0.826110 0.688961
O O9 0.226272 0.366863 0.143670
O O10 0.170077 0.234366 0.056344
O O11 0.000000 0.310790 0.000000
O O12 0.500000 0.412392 0.500000
O O13 0.708363 0.500000 0.790109
O O14 0.648044 0.418185 0.933376
O O15 0.500000 0.383047 0.000000
O O16 0.761168 0.102022 0.502971
O O17 0.500000 0.106463 0.000000
O O18 0.035075 0.875378 0.774282
O O19 0.057509 0.000000 0.264944
O O20 0.000000 0.092680 0.000000
#
# Coordination Sequence:
#
# PCOD9143888 Si02
#       8
#     4   4   4   4   4   4   4   4
#     4  10  18  33  55  89 121 148 188 258 314 350
#     4  12  20  35  60  96 119 158 208 261 312 366
#     4  12  22  34  61  90 124 155 209 259 310 358
#     4  11  24  43  62  87 126 167 207 250 307 383
#     4  12  20  36  63  87 121 154 202 257 306 364
#     4  11  21  35  59  94 123 153 205 267 323 359
#     4  10  20  33  57  90 117 153 203 252 301 365
#     4  10  22  41  60  84 126 173 208 250 317 391
#
# _framework density 19.659596000000001
#
# number of rings (size 3 to 8) (size 9 to 14) (size 15 to 20)
#    0.000    1.000    6.250    2.625    0.000    0.750 
#    0.000    5.000    0.000    1.875    0.000    0.000 
#    0.000    0.000    0.000    0.000    0.000    0.000 
#
# Total GULP energy -178459.682729 kJ/mol
# GULP energy per Si atom -5576.865085 kJ/mol
# Density = 1.961485 g / cm^3
# Si number density = 19.659596 Si / 1000 Ang^3
#
#
#
# Elastic Constant Matrix: (Units=GPa)
#
#
# Indices 1 2 3 4 5 6 
#
# 1 84.9601 19.2241 11.9472 0.0000 -0.4132 0.0000
# 2 19.2241 83.9317 20.9061 0.0000 0.8968 0.0000
# 3 11.9472 20.9061 83.6992 0.0000 11.4006 0.0000
# 4 0.0000 0.0000 0.0000 14.1613 0.0000 -3.9996
# 5 -0.4132 0.8968 11.4006 0.0000 23.3305 0.0000
# 6 0.0000 0.0000 0.0000 -3.9996 0.0000 19.2779
#
#
#
# Elastic Compliance Matrix: (Units=1/GPa)
#
#
# Indices 1 2 3 4 5 6 
#
# 1 0.012534 -0.002563 -0.001278 0.000000 0.000945 0.000000
# 2 -0.002563 0.013257 -0.003075 0.000000 0.000947 0.000000
# 3 -0.001278 -0.003075 0.013804 0.000000 -0.006650 0.000000
# 4 0.000000 0.000000 0.000000 0.075011 0.000000 0.015563
# 5 0.000945 0.000947 -0.006650 0.000000 0.046092 0.000000
# 6 0.000000 0.000000 0.000000 0.015563 0.000000 0.055102
#
#
# Mechanical properties :
#
#
# Convention : Reuss Voigt Hill
#
# Bulk Modulus (GPa) = 38.81229 39.63841 39.22535
# Shear Modulus (GPa) = 20.98918 24.72151 22.85535
#
# Velocity S-wave (km/s) = 3.27101 3.54994 3.41332
# Velocity P-wave (km/s) = 5.83532 6.08350 5.96070
#
# Compressibility (1/GPa) = 0.02576504
#
# Stress axis : x y z
#
# Youngs Moduli (GPa) = 79.78057 75.43109 72.44479
#
# Poissons Ratio (x) = 0.19331 0.09257
# Poissons Ratio (y) = 0.20446 0.22274
# Poissons Ratio (z) = 0.10194 0.23192
#
# Static dielectric constant tensor:
#      x y z
#    x 1.752370 0.000000 -0.001300 
#    y 0.000000 1.659860 0.000000 
#    z -0.001300 0.000000 1.779050 
# 
# From -- ./inp_files/30312.got.cif
#   From: 2010.05.17/outbox.cif.g08.bks.cpg/sg10_16_cif.got.tgz:30312.got - 2010.06.03 11:33:40.
