data_PCOD9143952
_publ_section_title
;
Structure prediction by ZEFSAII (Michael W. Deem and Ramdas Pophale) SiO2 
 PCOD9143952
Probable space group: P 2/M
;
_chemical_formula_sum "Si O2"
_cell_formula_units_Z 32
_cell_length_a 18.721439
_cell_length_b 15.836943
_cell_length_c 14.092196
_cell_angle_alpha 90.000000
_cell_angle_beta 19.102509
_cell_angle_gamma 90.000000
_cell_volume 1367.354814
_symmetry_space_group_name_H-M "P 2/M"
_symmetry_group_IT_number 10
_symmetry_cell_setting 'monoclinic'
loop_
_space_group_symop_operation_xyz
x,y,z
-x,y,-z
-x,-y,-z
x,-y,z
loop_
_atom_site_type_symbol
_atom_site_label
_atom_site_fract_x
_atom_site_fract_y
_atom_site_fract_z
Si Si1 0.496342 0.408179 0.758820
Si Si2 0.044808 0.228651 0.192407
Si Si3 0.818599 0.860661 0.293908
Si Si4 0.618429 0.308290 0.942886
Si Si5 0.464576 0.272754 0.441816
Si Si6 0.023992 0.599480 0.627822
Si Si7 0.530193 0.127954 0.119371
Si Si8 0.155572 0.091838 0.432483
O O1 0.580027 0.500000 0.634516
O O2 0.584121 0.343092 0.573929
O O3 0.528875 0.380670 0.825742
O O4 0.231941 0.404181 0.080731
O O5 0.931315 0.185887 0.243420
O O6 0.979239 0.327165 0.287199
O O7 0.980915 0.173818 0.365751
O O8 0.304191 0.227120 0.862220
O O9 0.723043 0.794679 0.337801
O O10 0.598874 0.897512 0.622280
O O11 0.000000 0.906941 0.000000
O O12 0.830871 0.355462 0.636168
O O13 0.500000 0.271988 0.000000
O O14 0.594488 0.228278 0.042960
O O15 0.500000 0.313023 0.500000
O O16 0.084023 0.500000 0.568743
O O17 0.353495 0.101655 0.260404
O O18 0.749436 0.093634 0.793604
O O19 0.052224 0.000000 0.580234
#
# Coordination Sequence:
#
# PCOD9143952 Si02
#       8
#     4   4   4   4   4   4   4   4
#     4  10  23  38  54  82 120 167 217 262 318 381
#     4  10  21  39  65  95 129 164 213 260 320 385
#     4  11  21  38  63  91 124 164 218 265 308 383
#     4  12  19  33  54  86 125 159 200 252 312 380
#     4  11  22  39  64  92 117 170 222 268 323 366
#     4  10  21  37  56  84 126 168 206 255 317 384
#     4  10  18  33  58  93 126 160 203 252 310 377
#     4  10  19  37  66  97 131 166 202 252 320 391
#
# _framework density 23.402850000000001
#
# number of rings (size 3 to 8) (size 9 to 14) (size 15 to 20)
#    0.000    1.500    5.000    2.250    0.000    2.250 
#    0.000    0.625    0.000   15.000    0.000    0.000 
#    0.000    0.000    0.000    0.000    0.000    0.000 
#
# Total GULP energy -178234.400379 kJ/mol
# GULP energy per Si atom -5569.825012 kJ/mol
# Density = 2.334958 g / cm^3
# Si number density = 23.402850 Si / 1000 Ang^3
#
#
#
# Elastic Constant Matrix: (Units=GPa)
#
#
# Indices 1 2 3 4 5 6 
#
# 1 72.2503 5.3916 8.0923 0.0000 16.3059 0.0000
# 2 5.3916 134.5151 30.2809 0.0000 3.7480 0.0000
# 3 8.0923 30.2809 106.8915 0.0000 20.2071 0.0000
# 4 0.0000 0.0000 0.0000 41.6090 0.0000 -28.8867
# 5 16.3059 3.7480 20.2071 0.0000 44.4720 0.0000
# 6 0.0000 0.0000 0.0000 -28.8867 0.0000 20.0282
#
#
#
# Elastic Compliance Matrix: (Units=1/GPa)
#
#
# Indices 1 2 3 4 5 6 
#
# 1 0.015117 -0.000459 0.000028 0.000000 -0.005517 0.000000
# 2 -0.000459 0.007960 -0.002325 0.000000 0.000554 0.000000
# 3 0.000028 -0.002325 0.010914 0.000000 -0.004774 0.000000
# 4 0.000000 0.000000 0.000000-18.342848 0.000000-26.456019
# 5 -0.005517 0.000554 -0.004774 0.000000 0.026631 0.000000
# 6 0.000000 0.000000 0.000000-26.456019 0.000000-38.107773
#
#
# Mechanical properties :
#
#
# Convention : Reuss Voigt Hill
#
# Bulk Modulus (GPa) = 35.11096 44.57629 39.84363
# Shear Modulus (GPa) = -0.08869 39.21464 19.56298
#
# Velocity S-wave (km/s) = -0.19488 4.09789 2.89437
# Velocity P-wave (km/s) = 3.87102 6.44042 5.31337
#
# Compressibility (1/GPa) = 0.02848113
#
# Stress axis : x y z
#
# Youngs Moduli (GPa) = 66.15102 125.62088 91.62372
#
# Poissons Ratio (x) = 0.05761 -0.00260
# Poissons Ratio (y) = 0.03034 0.21303
# Poissons Ratio (z) = -0.00188 0.29207
#
# Static dielectric constant tensor:
#      x y z
#    x 1.956900 0.000000 -0.024850 
#    y 0.000000 1.885510 0.000000 
#    z -0.024850 0.000000 1.967710 
# 
# From -- ./inp_files/70751.got.cif
#   From: 2010.05.17/outbox.cif.g08.bks.cpg/sg10_36_cif.got.tgz:70751.got - 2010.06.03 11:33:40.
