data_PCOD9143999
_publ_section_title
;
Structure prediction by ZEFSAII (Michael W. Deem and Ramdas Pophale) SiO2 
 PCOD9143999
Probable space group: P 2/M
;
_chemical_formula_sum "Si O2"
_cell_formula_units_Z 28
_cell_length_a 8.762749
_cell_length_b 13.190439
_cell_length_c 12.308886
_cell_angle_alpha 90.000000
_cell_angle_beta 69.353807
_cell_angle_gamma 90.000000
_cell_volume 1331.343352
_symmetry_space_group_name_H-M "P 2/M"
_symmetry_group_IT_number 10
_symmetry_cell_setting 'monoclinic'
loop_
_space_group_symop_operation_xyz
x,y,z
-x,y,-z
-x,-y,-z
x,-y,z
loop_
_atom_site_type_symbol
_atom_site_label
_atom_site_fract_x
_atom_site_fract_y
_atom_site_fract_z
Si Si1 0.982169 0.886100 0.702860
Si Si2 0.850099 0.185637 0.962164
Si Si3 0.533834 0.110820 0.119619
Si Si4 0.669845 0.609687 0.021336
Si Si5 0.500624 0.693858 0.266025
Si Si6 0.163762 0.708853 0.415491
Si Si7 0.333347 0.189708 0.581531
O O1 0.178207 0.870784 0.666629
O O2 0.898441 0.871525 0.840847
O O3 0.906864 0.798826 0.643985
O O4 0.952120 0.000000 0.668659
O O5 0.728221 0.121238 0.068058
O O6 0.768503 0.293583 0.955879
O O7 0.000000 0.209869 0.000000
O O8 0.468901 0.200281 0.209530
O O9 0.477056 0.000000 0.167569
O O10 0.500000 0.125313 0.000000
O O11 0.750192 0.500000 0.988120
O O12 0.617607 0.629496 0.159101
O O13 0.500000 0.609227 0.000000
O O14 0.318043 0.649534 0.325691
O O15 0.599210 0.727621 0.348882
O O16 0.254476 0.759031 0.495498
O O17 0.000000 0.654063 0.500000
O O18 0.500000 0.134503 0.500000
#
# Coordination Sequence:
#
# PCOD9143999 Si02
#       7
#     4   4   4   4   4   4   4
#     4  11  21  33  51  76 110 152 189 222 263 310
#     4  11  22  35  53  81 115 143 177 225 278 334
#     4  10  20  33  50  74 106 146 187 222 261 320
#     4  10  21  38  61  86 110 138 175 220 274 342
#     4  10  18  34  56  77 104 139 179 219 269 324
#     4   9  19  34  52  74 102 142 185 224 264 307
#     4   9  20  35  51  72 101 143 187 228 265 303
#
# _framework density 21.031386999999999
#
# number of rings (size 3 to 8) (size 9 to 14) (size 15 to 20)
#    0.000    2.000    0.000    5.571    0.000    7.714 
#    0.000    4.286    0.000    4.286    0.000    4.000 
#    0.000    0.000    0.000    0.000    0.000    0.000 
#
# Total GULP energy -156114.080221 kJ/mol
# GULP energy per Si atom -5575.502865 kJ/mol
# Density = 2.098352 g / cm^3
# Si number density = 21.031387 Si / 1000 Ang^3
#
#
#
# Elastic Constant Matrix: (Units=GPa)
#
#
# Indices 1 2 3 4 5 6 
#
# 1 101.3165 3.9926 17.3910 0.0000 -6.1169 0.0000
# 2 3.9926 51.4030 -10.6428 0.0000 6.2632 0.0000
# 3 17.3910 -10.6428 57.8600 0.0000 -5.2577 0.0000
# 4 0.0000 0.0000 0.0000 38.0760 0.0000 -11.3402
# 5 -6.1169 6.2632 -5.2577 0.0000 41.3152 0.0000
# 6 0.0000 0.0000 0.0000 -11.3402 0.0000 5.1212
#
#
#
# Elastic Compliance Matrix: (Units=1/GPa)
#
#
# Indices 1 2 3 4 5 6 
#
# 1 0.010600 -0.001691 -0.003370 0.000000 0.001397 0.000000
# 2 -0.001691 0.020779 0.004069 0.000000 -0.002883 0.000000
# 3 -0.003370 0.004069 0.019165 0.000000 0.001323 0.000000
# 4 0.000000 0.000000 0.000000 0.077133 0.000000 0.170799
# 5 0.001397 -0.002883 0.001323 0.000000 0.025016 0.000000
# 6 0.000000 0.000000 0.000000 0.170799 0.000000 0.573475
#
#
# Mechanical properties :
#
#
# Convention : Reuss Voigt Hill
#
# Bulk Modulus (GPa) = 20.59407 25.78456 23.18931
# Shear Modulus (GPa) = 6.71737 30.22507 18.47122
#
# Velocity S-wave (km/s) = 1.78911 3.79508 2.96678
# Velocity P-wave (km/s) = 3.75249 5.61161 4.77343
#
# Compressibility (1/GPa) = 0.04855767
#
# Stress axis : x y z
#
# Youngs Moduli (GPa) = 94.34393 48.12529 52.17942
#
# Poissons Ratio (x) = 0.08139 0.17585
# Poissons Ratio (y) = 0.15956 -0.21229
# Poissons Ratio (z) = 0.31795 -0.19580
#
# Static dielectric constant tensor:
#      x y z
#    x 1.906950 0.000000 -0.053330 
#    y 0.000000 1.736960 0.000000 
#    z -0.053330 0.000000 1.815540 
# 
# From -- ./inp_files/24950.got.cif
#   From: 2010.05.17/outbox.cif.g08.bks.cpg/sg10_13_cif.got.tgz:24950.got - 2010.06.03 11:33:40.
