data_PCOD9143482
_publ_section_title
;
Structure prediction by ZEFSAII (Michael W. Deem and Ramdas Pophale) SiO2 
 PCOD9143482
Probable space group: P 2/M
;
_chemical_formula_sum "Si O2"
_cell_formula_units_Z 30
_cell_length_a 11.578280
_cell_length_b 18.805025
_cell_length_c 13.758402
_cell_angle_alpha 90.000000
_cell_angle_beta 33.924930
_cell_angle_gamma 90.000000
_cell_volume 1671.871165
_symmetry_space_group_name_H-M "P 2/M"
_symmetry_group_IT_number 10
_symmetry_cell_setting 'monoclinic'
loop_
_space_group_symop_operation_xyz
x,y,z
-x,y,-z
-x,-y,-z
x,-y,z
loop_
_atom_site_type_symbol
_atom_site_label
_atom_site_fract_x
_atom_site_fract_y
_atom_site_fract_z
Si Si1 0.604321 0.678641 0.181071
Si Si2 0.243077 0.919211 0.497146
Si Si3 0.500000 0.117169 0.500000
Si Si4 0.457389 0.821004 0.191860
Si Si5 0.842626 0.182068 0.782035
Si Si6 0.020139 0.684698 0.215367
Si Si7 0.180117 0.222493 0.813370
Si Si8 0.367843 0.415277 0.493794
O O1 0.464912 0.742291 0.234353
O O2 0.732484 0.716500 0.177871
O O3 0.482816 0.616008 0.318806
O O4 0.771605 0.657392 0.982697
O O5 0.354901 0.921499 0.523876
O O6 0.394656 0.878765 0.315930
O O7 0.035396 0.871610 0.649157
O O8 0.198709 0.000000 0.496610
O O9 0.355323 0.168485 0.663582
O O10 0.288639 0.825527 0.224409
O O11 0.682315 0.830753 0.983709
O O12 0.919102 0.263791 0.738467
O O13 0.911518 0.740499 0.217515
O O14 0.853549 0.623629 0.348242
O O15 0.000000 0.185214 0.000000
O O16 0.500000 0.397664 0.500000
O O17 0.348678 0.500000 0.503294
#
# Coordination Sequence:
#
# PCOD9143482 Si02
#       8
#     4   4   2   4   4   4   4   4
#     4  10  19  34  57  81 106 139 183 231 275 320
#     4  12  25  38  55  82 116 151 183 222 279 340
#     4  12  21  36  56  78 115 148 180 226 275 334
#     4  10  22  40  62  85 107 140 190 239 278 321
#     4  10  22  40  62  85 107 140 190 239 278 321
#     4  10  19  34  57  81 106 139 183 231 275 320
#     4  10  18  31  57  83 101 139 190 234 278 320
#     4  11  22  33  49  80 119 151 177 212 267 333
#
# _framework density 17.943966
#
# number of rings (size 3 to 8) (size 9 to 14) (size 15 to 20)
#    0.000    1.467    4.000    2.200    0.000    2.133 
#    0.000    2.667    0.000    4.000    0.000    3.733 
#    0.000    0.000    0.000    0.000    0.000    0.000 
#
# Total GULP energy -167395.188165 kJ/mol
# GULP energy per Si atom -5579.839606 kJ/mol
# Density = 1.790312 g / cm^3
# Si number density = 17.943966 Si / 1000 Ang^3
#
#
#
# Elastic Constant Matrix: (Units=GPa)
#
#
# Indices 1 2 3 4 5 6 
#
# 1 67.7894 15.4769 16.5442 0.0000 -4.5424 0.0000
# 2 15.4769 94.5043 69.5178 0.0000 -1.5966 0.0000
# 3 16.5442 69.5178 111.7489 0.0000 -8.0137 0.0000
# 4 0.0000 0.0000 0.0000 -37.0826 0.0000 5.7219
# 5 -4.5424 -1.5966 -8.0137 0.0000 16.7605 0.0000
# 6 0.0000 0.0000 0.0000 5.7219 0.0000 7.8176
#
#
#
# Elastic Compliance Matrix: (Units=1/GPa)
#
#
# Indices 1 2 3 4 5 6 
#
# 1 0.015635 -0.001821 -0.000922 0.000000 0.003623 0.000000
# 2 -0.001821 0.019995 -0.012496 0.000000 -0.004564 0.000000
# 3 -0.000922 -0.012496 0.017351 0.000000 0.006856 0.000000
# 4 0.000000 0.000000 0.000000 -0.024230 0.000000 0.017735
# 5 0.003623 -0.004564 0.006856 0.000000 0.063489 0.000000
# 6 0.000000 0.000000 0.000000 0.017735 0.000000 0.114935
#
#
# Mechanical properties :
#
#
# Convention : Reuss Voigt Hill
#
# Bulk Modulus (GPa) = 44.44090 53.01338 48.72714
# Shear Modulus (GPa) = 20.39531 8.99935 14.69733
#
# Velocity S-wave (km/s) = 3.37502 2.24191 2.86504
# Velocity P-wave (km/s) = 6.32519 6.02574 6.17728
#
# Compressibility (1/GPa) = 0.02250180
#
# Stress axis : x y z
#
# Youngs Moduli (GPa) = 63.95849 50.01228 57.63471
#
# Poissons Ratio (x) = 0.09108 0.05314
# Poissons Ratio (y) = 0.11647 0.72023
# Poissons Ratio (z) = 0.05898 0.62497
#
# Static dielectric constant tensor:
#      x y z
#    x 1.628640 0.000000 0.001400 
#    y 0.000000 1.576650 0.000000 
#    z 0.001400 0.000000 1.638380 
# 
# From -- ./inp_files/65336.got.cif
#   From: 2010.05.17/outbox.cif.g08.bks.cpg/sg10_33_cif.got.tgz:65336.got - 2010.06.03 11:33:40.
