data_PCOD9143871
_publ_section_title
;
Structure prediction by ZEFSAII (Michael W. Deem and Ramdas Pophale) SiO2 
 PCOD9143871
Probable space group: P 2/M
;
_chemical_formula_sum "Si O2"
_cell_formula_units_Z 32
_cell_length_a 20.482606
_cell_length_b 7.443300
_cell_length_c 14.482818
_cell_angle_alpha 90.000000
_cell_angle_beta 40.882842
_cell_angle_gamma 90.000000
_cell_volume 1445.183638
_symmetry_space_group_name_H-M "P 2/M"
_symmetry_group_IT_number 10
_symmetry_cell_setting 'monoclinic'
loop_
_space_group_symop_operation_xyz
x,y,z
-x,y,-z
-x,-y,-z
x,-y,z
loop_
_atom_site_type_symbol
_atom_site_label
_atom_site_fract_x
_atom_site_fract_y
_atom_site_fract_z
Si Si1 0.304264 0.719381 0.304310
Si Si2 0.894952 0.704956 0.807778
Si Si3 0.895700 0.716672 0.156021
Si Si4 0.226502 0.790379 0.888407
Si Si5 0.450145 0.785336 0.646793
Si Si6 0.705227 0.279854 0.898987
Si Si7 0.110194 0.279645 0.625740
Si Si8 0.502360 0.714671 0.791917
O O1 0.305467 0.500000 0.304044
O O2 0.299875 0.772694 0.202301
O O3 0.206285 0.775615 0.465001
O O4 0.404835 0.781688 0.247463
O O5 0.907480 0.500000 0.761771
O O6 0.806249 0.783847 0.840698
O O7 0.005488 0.783812 0.694365
O O8 0.851916 0.702363 0.958100
O O9 0.898008 0.500000 0.154817
O O10 0.808905 0.771493 0.178782
O O11 0.883720 0.777570 0.273936
O O12 0.000000 0.779435 0.000000
O O13 0.337715 0.715357 0.781198
O O14 0.226526 0.000000 0.913187
O O15 0.500000 0.715386 0.500000
O O16 0.512208 0.751127 0.672815
O O17 0.440198 0.000000 0.646595
O O18 0.705815 0.500000 0.902887
O O19 0.605157 0.218179 0.058130
O O20 0.107633 0.500000 0.629022
O O21 0.500578 0.500000 0.805805
#
# Coordination Sequence:
#
# PCOD9143871 Si02
#       8
#     4   4   4   4   4   4   4   4
#     4   9  18  31  49  80 113 137 170 218 269 311
#     4  10  18  33  55  78 106 139 176 216 259 309
#     4  10  19  33  53  75 106 142 172 211 258 307
#     4  11  22  35  53  77 103 137 177 218 260 311
#     4  10  23  40  54  74 108 143 172 212 267 316
#     4   9  17  30  52  79 106 137 173 219 267 310
#     4   9  18  31  48  75 110 143 173 210 260 311
#     4  10  19  33  56  82 107 136 175 220 262 310
#
# _framework density 22.142515
#
# number of rings (size 3 to 8) (size 9 to 14) (size 15 to 20)
#    0.000    2.250    2.500    0.750    1.750    3.000 
#    0.000    2.500    0.000    3.000    0.000    0.875 
#    0.000    0.000    0.000    0.000    0.000    0.000 
#
# Total GULP energy -178831.946612 kJ/mol
# GULP energy per Si atom -5588.498332 kJ/mol
# Density = 2.209212 g / cm^3
# Si number density = 22.142515 Si / 1000 Ang^3
#
#
#
# Elastic Constant Matrix: (Units=GPa)
#
#
# Indices 1 2 3 4 5 6 
#
# 1 192.0964 -7.0877 73.1326 0.0000 3.7907 0.0000
# 2 -7.0877 69.1933 -3.8908 0.0000 -2.3122 0.0000
# 3 73.1326 -3.8908 100.3927 0.0000 14.8063 0.0000
# 4 0.0000 0.0000 0.0000 0.7374 0.0000 27.1401
# 5 3.7907 -2.3122 14.8063 0.0000 36.1927 0.0000
# 6 0.0000 0.0000 0.0000 27.1401 0.0000 60.9238
#
#
#
# Elastic Compliance Matrix: (Units=1/GPa)
#
#
# Indices 1 2 3 4 5 6 
#
# 1 0.007295 0.000488 -0.005520 0.000000 0.001525 0.000000
# 2 0.000488 0.014535 0.000084 0.000000 0.000843 0.000000
# 3 -0.005520 0.000084 0.014792 0.000000 -0.005468 0.000000
# 4 0.000000 0.000000 0.000000 -0.088084 0.000000 0.039239
# 5 0.001525 0.000843 -0.005468 0.000000 0.029761 0.000000
# 6 0.000000 0.000000 0.000000 0.039239 0.000000 -0.001066
#
#
# Mechanical properties :
#
#
# Convention : Reuss Voigt Hill
#
# Bulk Modulus (GPa) = 37.41906 53.99894 45.70900
# Shear Modulus (GPa) = -1262.52885 39.53933 -611.49476
#
# Velocity S-wave (km/s) = -23.90441 4.23031 -16.63619
# Velocity P-wave (km/s) = 27.29393 6.94987 18.66358
#
# Compressibility (1/GPa) = 0.02672435
#
# Stress axis : x y z
#
# Youngs Moduli (GPa) = 137.07456 68.79889 67.60409
#
# Poissons Ratio (x) = -0.03356 0.37321
# Poissons Ratio (y) = -0.06687 -0.00565
# Poissons Ratio (z) = 0.75671 -0.00575
#
# Static dielectric constant tensor:
#      x y z
#    x 1.783470 0.000000 -0.018160 
#    y 0.000000 1.843670 0.000000 
#    z -0.018160 0.000000 1.767150 
# 
# From -- ./inp_files/69961.got.cif
#   From: 2010.05.17/outbox.cif.g08.bks.cpg/sg10_35_cif.got.tgz:69961.got - 2010.06.03 11:33:40.
