data_PCOD9143568
_publ_section_title
;
Structure prediction by ZEFSAII (Michael W. Deem and Ramdas Pophale) SiO2 
 PCOD9143568
Probable space group: P 2/M
;
_chemical_formula_sum "Si O2"
_cell_formula_units_Z 30
_cell_length_a 30.464876
_cell_length_b 8.900382
_cell_length_c 12.464631
_cell_angle_alpha 90.000000
_cell_angle_beta 150.531774
_cell_angle_gamma 90.000000
_cell_volume 1662.648128
_symmetry_space_group_name_H-M "P 2/M"
_symmetry_group_IT_number 10
_symmetry_cell_setting 'monoclinic'
loop_
_space_group_symop_operation_xyz
x,y,z
-x,y,-z
-x,-y,-z
x,-y,z
loop_
_atom_site_type_symbol
_atom_site_label
_atom_site_fract_x
_atom_site_fract_y
_atom_site_fract_z
Si Si1 0.762953 0.819271 0.300917
Si Si2 0.732350 0.818322 0.790056
Si Si3 0.917460 0.168717 0.105555
Si Si4 0.949790 0.816588 0.786401
Si Si5 0.802607 0.672785 0.154610
Si Si6 0.597163 0.319595 0.338912
Si Si7 0.613134 0.319750 0.129081
Si Si8 0.000000 0.247938 0.500000
O O1 0.848270 0.770562 0.554024
O O2 0.782020 0.755586 0.222632
O O3 0.675980 0.758187 0.175978
O O4 0.759733 0.000000 0.287924
O O5 0.648317 0.761230 0.544189
O O6 0.733883 0.000000 0.799029
O O7 0.820335 0.762180 0.912212
O O8 0.748408 0.752715 0.942854
O O9 0.961727 0.161176 0.316527
O O10 0.989178 0.241601 0.180819
O O11 0.902230 0.000000 0.031867
O O12 0.947584 0.000000 0.778942
O O13 0.000000 0.770299 0.000000
O O14 0.775092 0.500000 0.104322
O O15 0.908896 0.675291 0.350624
O O16 0.608344 0.500000 0.372204
O O17 0.631285 0.274684 0.292074
O O18 0.491282 0.288233 0.114826
O O19 0.624731 0.500000 0.147717
#
# Coordination Sequence:
#
# PCOD9143568 Si02
#       8
#     4   4   4   4   4   4   4   2
#     4  11  22  36  58  85 114 149 192 240 282 327
#     4  10  21  34  56  86 115 144 186 239 284 328
#     4   9  17  29  48  75 109 148 183 223 276 327
#     4   9  18  31  48  73 110 150 184 218 268 332
#     4  11  22  37  56  79 112 153 193 233 283 340
#     4   9  19  39  63  85 113 150 187 225 280 344
#     4   9  20  39  62  85 113 151 188 226 279 343
#     4  10  18  32  52  76 103 146 195 238 269 314
#
# _framework density 18.043505
#
# number of rings (size 3 to 8) (size 9 to 14) (size 15 to 20)
#    0.000    2.267    1.333    2.400    1.867    2.133 
#    0.000    2.000    0.000    5.600    0.000    0.000 
#    0.000    0.000    0.000    0.000    0.000    0.000 
#
# Total GULP energy -167101.222045 kJ/mol
# GULP energy per Si atom -5570.040735 kJ/mol
# Density = 1.800244 g / cm^3
# Si number density = 18.043505 Si / 1000 Ang^3
#
#
#
# Elastic Constant Matrix: (Units=GPa)
#
#
# Indices 1 2 3 4 5 6 
#
# 1 130.7968 40.4582 55.2766 0.0000 3.8983 0.0000
# 2 40.4582 58.5593 40.0472 0.0000 0.3370 0.0000
# 3 55.2766 40.0472 116.5362 0.0000 -12.4715 0.0000
# 4 0.0000 0.0000 0.0000 23.0935 0.0000 -5.5019
# 5 3.8983 0.3370 -12.4715 0.0000 18.5992 0.0000
# 6 0.0000 0.0000 0.0000 -5.5019 0.0000 22.1215
#
#
#
# Elastic Compliance Matrix: (Units=1/GPa)
#
#
# Indices 1 2 3 4 5 6 
#
# 1 0.011007 -0.004759 -0.004118 0.000000 -0.004982 0.000000
# 2 -0.004759 0.025015 -0.006766 0.000000 -0.003993 0.000000
# 3 -0.004118 -0.006766 0.013968 0.000000 0.010352 0.000000
# 4 0.000000 0.000000 0.000000 0.046030 0.000000 0.011448
# 5 -0.004982 -0.003993 0.010352 0.000000 0.061824 0.000000
# 6 0.000000 0.000000 0.000000 0.011448 0.000000 0.048052
#
#
# Mechanical properties :
#
#
# Convention : Reuss Voigt Hill
#
# Bulk Modulus (GPa) = 53.47187 64.16181 58.81684
# Shear Modulus (GPa) = 20.54095 24.10351 22.32223
#
# Velocity S-wave (km/s) = 3.37770 3.65890 3.52111
# Velocity P-wave (km/s) = 6.70157 7.31347 7.01419
#
# Compressibility (1/GPa) = 0.01870142
#
# Stress axis : x y z
#
# Youngs Moduli (GPa) = 90.85469 39.97606 71.59453
#
# Poissons Ratio (x) = 0.19025 0.29486
# Poissons Ratio (y) = 0.43239 0.48442
# Poissons Ratio (z) = 0.37418 0.27049
#
# Static dielectric constant tensor:
#      x y z
#    x 1.625070 0.000000 0.008870 
#    y 0.000000 1.627200 0.000000 
#    z 0.008870 0.000000 1.608360 
# 
# From -- ./inp_files/58035.got.cif
#   From: 2010.05.17/outbox.cif.g08.bks.cpg/sg10_30_cif.got.tgz:58035.got - 2010.06.03 11:33:40.
