data_PCOD9143113
_publ_section_title
;
Structure prediction by ZEFSAII (Michael W. Deem and Ramdas Pophale) SiO2 
 PCOD9143113
Probable space group: P 2/M
;
_chemical_formula_sum "Si O2"
_cell_formula_units_Z 28
_cell_length_a 18.871953
_cell_length_b 7.948836
_cell_length_c 14.018088
_cell_angle_alpha 90.000000
_cell_angle_beta 32.566255
_cell_angle_gamma 90.000000
_cell_volume 1131.912842
_symmetry_space_group_name_H-M "P 2/M"
_symmetry_group_IT_number 10
_symmetry_cell_setting 'monoclinic'
loop_
_space_group_symop_operation_xyz
x,y,z
-x,y,-z
-x,-y,-z
x,-y,z
loop_
_atom_site_type_symbol
_atom_site_label
_atom_site_fract_x
_atom_site_fract_y
_atom_site_fract_z
Si Si1 0.363146 0.310325 0.240310
Si Si2 0.757992 0.813133 0.435540
Si Si3 0.455650 0.701416 0.446469
Si Si4 0.948687 0.191504 0.962765
Si Si5 0.604874 0.801855 0.081403
Si Si6 0.125954 0.793923 0.146364
Si Si7 0.099360 0.699800 0.464267
O O1 0.375075 0.500000 0.193724
O O2 0.293063 0.307215 0.424123
O O3 0.509548 0.250078 0.102140
O O4 0.246278 0.225810 0.310407
O O5 0.691414 0.761912 0.411661
O O6 0.912223 0.822063 0.249446
O O7 0.709061 0.000000 0.518301
O O8 0.500000 0.764173 0.500000
O O9 0.460295 0.500000 0.442059
O O10 0.537595 0.760850 0.260511
O O11 0.854123 0.259286 0.987285
O O12 0.903936 0.000000 0.038942
O O13 0.000000 0.281174 0.000000
O O14 0.616900 0.000000 0.060569
O O15 0.753005 0.733276 0.924860
O O16 0.990733 0.721769 0.340391
O O17 0.120728 0.000000 0.152468
O O18 0.114057 0.500000 0.428778
O O19 0.000000 0.778232 0.500000
#
# Coordination Sequence:
#
# PCOD9143113 Si02
#       7
#     4   4   4   4   4   4   4
#     4  10  19  35  58  80 110 145 181 226 276 330
#     4  10  18  30  53  76 101 140 186 230 276 326
#     4  10  21  34  48  70 107 148 190 237 279 325
#     4   9  18  31  50  77 110 145 182 228 279 329
#     4  10  21  35  56  82 111 148 188 230 282 340
#     4  10  21  38  59  86 117 147 187 238 286 333
#     4  10  22  40  63  89 114 146 188 231 282 345
#
# _framework density 24.736886999999999
#
# number of rings (size 3 to 8) (size 9 to 14) (size 15 to 20)
#    0.000    2.143    1.429    3.429    2.000    3.143 
#    0.000    0.714    0.000    6.429    0.000    0.000 
#    0.000    0.000    0.000    0.000    0.000    0.000 
#
# Total GULP energy -156194.237856 kJ/mol
# GULP energy per Si atom -5578.365638 kJ/mol
# Density = 2.468058 g / cm^3
# Si number density = 24.736887 Si / 1000 Ang^3
#
#
#
# Elastic Constant Matrix: (Units=GPa)
#
#
# Indices 1 2 3 4 5 6 
#
# 1 206.6514 9.6952 32.4807 0.0000 -33.7081 0.0000
# 2 9.6952 48.8890 4.5636 0.0000 -7.8788 0.0000
# 3 32.4807 4.5636 66.1511 0.0000 -29.0367 0.0000
# 4 0.0000 0.0000 0.0000 12.3567 0.0000 -1.4613
# 5 -33.7081 -7.8788 -29.0367 0.0000 47.8430 0.0000
# 6 0.0000 0.0000 0.0000 -1.4613 0.0000 18.3382
#
#
#
# Elastic Compliance Matrix: (Units=1/GPa)
#
#
# Indices 1 2 3 4 5 6 
#
# 1 0.005569 -0.000491 -0.001382 0.000000 0.003004 0.000000
# 2 -0.000491 0.021056 0.000216 0.000000 0.003253 0.000000
# 3 -0.001382 0.000216 0.020950 0.000000 0.011777 0.000000
# 4 0.000000 0.000000 0.000000 0.081698 0.000000 0.006510
# 5 0.003004 0.003253 0.011777 0.000000 0.030702 0.000000
# 6 0.000000 0.000000 0.000000 0.006510 0.000000 0.055050
#
#
# Mechanical properties :
#
#
# Convention : Reuss Voigt Hill
#
# Bulk Modulus (GPa) = 22.59307 46.13004 34.36156
# Shear Modulus (GPa) = 21.45078 34.03772 27.74425
#
# Velocity S-wave (km/s) = 2.94795 3.71346 3.35262
# Velocity P-wave (km/s) = 4.55416 6.08894 5.37659
#
# Compressibility (1/GPa) = 0.04426136
#
# Stress axis : x y z
#
# Youngs Moduli (GPa) = 179.55320 47.49262 47.73292
#
# Poissons Ratio (x) = 0.02333 0.06597
# Poissons Ratio (y) = 0.08822 -0.01033
# Poissons Ratio (z) = 0.24814 -0.01028
#
# Static dielectric constant tensor:
#      x y z
#    x 2.110700 0.000000 0.003320 
#    y 0.000000 1.887810 0.000000 
#    z 0.003320 0.000000 2.010390 
# 
# From -- ./inp_files/68621.got.cif
#   From: 2010.05.17/outbox.cif.g08.bks.cpg/sg10_35_cif.got.tgz:68621.got - 2010.06.03 11:33:40.
