data_PCOD9143937
_publ_section_title
;
Structure prediction by ZEFSAII (Michael W. Deem and Ramdas Pophale) SiO2 
 PCOD9143937
Probable space group: P 2/M
;
_chemical_formula_sum "Si O2"
_cell_formula_units_Z 32
_cell_length_a 21.235928
_cell_length_b 8.554540
_cell_length_c 12.637996
_cell_angle_alpha 90.000000
_cell_angle_beta 128.279638
_cell_angle_gamma 90.000000
_cell_volume 1802.245227
_symmetry_space_group_name_H-M "P 2/M"
_symmetry_group_IT_number 10
_symmetry_cell_setting 'monoclinic'
loop_
_space_group_symop_operation_xyz
x,y,z
-x,y,-z
-x,-y,-z
x,-y,z
loop_
_atom_site_type_symbol
_atom_site_label
_atom_site_fract_x
_atom_site_fract_y
_atom_site_fract_z
Si Si1 0.033938 0.186451 0.920061
Si Si2 0.288202 0.309308 0.932762
Si Si3 0.762802 0.688889 0.348014
Si Si4 0.376896 0.186619 0.647050
Si Si5 0.211785 0.687057 0.073743
Si Si6 0.117736 0.313018 0.348019
Si Si7 0.528965 0.688549 0.913692
Si Si8 0.256992 0.187015 0.342186
O O1 0.966489 0.234019 0.765438
O O2 0.044551 0.000000 0.933288
O O3 0.118985 0.264605 0.986323
O O4 0.000000 0.235340 0.000000
O O5 0.287983 0.500000 0.933443
O O6 0.240795 0.260831 0.777487
O O7 0.248799 0.257417 0.001153
O O8 0.380692 0.259106 0.016571
O O9 0.758370 0.500000 0.346527
O O10 0.684712 0.752026 0.327768
O O11 0.840024 0.735074 0.497742
O O12 0.463682 0.255771 0.761268
O O13 0.335443 0.229910 0.492368
O O14 0.380581 0.000000 0.656760
O O15 0.217884 0.500000 0.084864
O O16 0.256966 0.757902 0.221958
O O17 0.108456 0.500000 0.337056
O O18 0.181239 0.263475 0.323510
O O19 0.529139 0.500000 0.915622
O O20 0.500000 0.742199 0.000000
O O21 0.246850 0.000000 0.336318
#
# Coordination Sequence:
#
# PCOD9143937 Si02
#       8
#     4   4   4   4   4   4   4   4
#     4  11  22  36  55  78 110 145 176 217 270 322
#     4   9  19  36  56  81 110 141 176 220 271 317
#     4   9  17  34  56  79 109 142 176 216 270 321
#     4  10  20  32  51  81 112 139 177 225 266 311
#     4  11  22  36  57  81 107 139 182 226 261 315
#     4  10  19  31  56  86 106 133 179 228 264 308
#     4  10  18  33  58  81 107 142 180 221 268 317
#     4  10  20  35  52  75 111 147 175 215 273 322
#
# _framework density 17.75563
#
# number of rings (size 3 to 8) (size 9 to 14) (size 15 to 20)
#    0.000    2.000    2.500    1.875    0.000    2.750 
#    0.000    3.750    0.000    7.500    0.000    0.000 
#    0.000    0.000    0.000    0.000    0.000    0.000 
#
# Total GULP energy -178593.203126 kJ/mol
# GULP energy per Si atom -5581.037598 kJ/mol
# Density = 1.771522 g / cm^3
# Si number density = 17.755630 Si / 1000 Ang^3
#
#
#
# Elastic Constant Matrix: (Units=GPa)
#
#
# Indices 1 2 3 4 5 6 
#
# 1 95.0859 7.5935 62.6649 0.0000 -12.8860 0.0000
# 2 7.5935 9.2053 7.8629 0.0000 -1.7899 0.0000
# 3 62.6649 7.8629 144.8223 0.0000 -11.8244 0.0000
# 4 0.0000 0.0000 0.0000 23.4832 0.0000 4.2718
# 5 -12.8860 -1.7899 -11.8244 0.0000 27.5410 0.0000
# 6 0.0000 0.0000 0.0000 4.2718 0.0000 -7.9187
#
#
#
# Elastic Compliance Matrix: (Units=1/GPa)
#
#
# Indices 1 2 3 4 5 6 
#
# 1 0.015626 -0.006902 -0.006038 0.000000 0.004270 0.000000
# 2 -0.006902 0.117611 -0.003149 0.000000 0.003062 0.000000
# 3 -0.006038 -0.003149 0.009784 0.000000 0.001171 0.000000
# 4 0.000000 0.000000 0.000000 0.038778 0.000000 0.020919
# 5 0.004270 0.003062 0.001171 0.000000 0.039009 0.000000
# 6 0.000000 0.000000 0.000000 0.020919 0.000000 -0.114998
#
#
# Mechanical properties :
#
#
# Convention : Reuss Voigt Hill
#
# Bulk Modulus (GPa) = 9.02175 45.03960 27.03067
# Shear Modulus (GPa) = 28.58173 20.02057 24.30115
#
# Velocity S-wave (km/s) = 4.01649 3.36156 3.70353
# Velocity P-wave (km/s) = 5.15769 6.36304 5.79180
#
# Compressibility (1/GPa) = 0.11084330
#
# Stress axis : x y z
#
# Youngs Moduli (GPa) = 63.99603 8.50258 102.20513
#
# Poissons Ratio (x) = 0.05869 0.61711
# Poissons Ratio (y) = 0.44171 0.32184
# Poissons Ratio (z) = 0.38641 0.02677
#
# Static dielectric constant tensor:
#      x y z
#    x 1.573540 0.000000 -0.007940 
#    y 0.000000 1.600950 0.000000 
#    z -0.007940 0.000000 1.627720 
# 
# From -- ./inp_files/55195.got.cif
#   From: 2010.05.17/outbox.cif.g08.bks.cpg/sg10_28_cif.got.tgz:55195.got - 2010.06.03 11:33:40.
