data_PCOD9143855
_publ_section_title
;
Structure prediction by ZEFSAII (Michael W. Deem and Ramdas Pophale) SiO2 
 PCOD9143855
Probable space group: P 2/M
;
_chemical_formula_sum "Si O2"
_cell_formula_units_Z 32
_cell_length_a 21.057915
_cell_length_b 9.893259
_cell_length_c 13.380913
_cell_angle_alpha 90.000000
_cell_angle_beta 149.266505
_cell_angle_gamma 90.000000
_cell_volume 1424.623360
_symmetry_space_group_name_H-M "P 2/M"
_symmetry_group_IT_number 10
_symmetry_cell_setting 'monoclinic'
loop_
_space_group_symop_operation_xyz
x,y,z
-x,y,-z
-x,-y,-z
x,-y,z
loop_
_atom_site_type_symbol
_atom_site_label
_atom_site_fract_x
_atom_site_fract_y
_atom_site_fract_z
Si Si1 0.328400 0.847536 0.287131
Si Si2 0.747787 0.344470 0.982617
Si Si3 0.368958 0.841263 0.562883
Si Si4 0.989453 0.152777 0.321875
Si Si5 0.202938 0.651790 0.634675
Si Si6 0.162804 0.358139 0.344670
Si Si7 0.039914 0.816698 0.944677
Si Si8 0.567776 0.653397 0.930056
O O1 0.331997 0.728403 0.212060
O O2 0.402412 0.828262 0.490324
O O3 0.352097 0.000000 0.279481
O O4 0.183939 0.843604 0.125079
O O5 0.781841 0.500000 0.003921
O O6 0.664666 0.346825 0.969008
O O7 0.868561 0.249634 0.162785
O O8 0.238685 0.765232 0.402000
O O9 0.464566 0.761838 0.762450
O O10 0.360835 0.000000 0.574170
O O11 0.016639 0.137739 0.238863
O O12 0.102828 0.233404 0.526706
O O13 0.968916 0.000000 0.331689
O O14 0.174449 0.500000 0.637460
O O15 0.192857 0.640196 0.502193
O O16 0.343180 0.685062 0.856212
O O17 0.202986 0.500000 0.353190
O O18 0.015958 0.334671 0.132296
O O19 0.000000 0.866588 0.000000
O O20 0.516818 0.500000 0.872033
#
# Coordination Sequence:
#
# PCOD9143855 Si02
#       8
#     4   4   4   4   4   4   4   4
#     4  10  22  38  57  85 120 156 187 228 287 346
#     4  10  21  38  61  86 114 149 191 240 287 337
#     4  11  24  40  58  84 116 153 193 235 286 344
#     4  10  21  35  56  88 122 152 185 230 285 344
#     4   9  20  40  62  84 115 152 191 236 286 339
#     4  10  21  37  58  87 118 151 188 233 283 337
#     4  10  18  33  54  86 116 152 185 222 275 337
#     4  10  23  43  63  82 107 149 201 246 288 333
#
# _framework density 22.462077000000001
#
# number of rings (size 3 to 8) (size 9 to 14) (size 15 to 20)
#    0.000    2.000    1.250    2.250    0.000   10.750 
#    0.000    7.500    0.000    0.000    0.000    0.000 
#    0.000    0.000    0.000    0.000    0.000    0.000 
#
# Total GULP energy -178483.863323 kJ/mol
# GULP energy per Si atom -5577.620729 kJ/mol
# Density = 2.241095 g / cm^3
# Si number density = 22.462077 Si / 1000 Ang^3
#
#
#
# Elastic Constant Matrix: (Units=GPa)
#
#
# Indices 1 2 3 4 5 6 
#
# 1 45.9842 14.6423 -15.2270 0.0000 15.8401 0.0000
# 2 14.6423 188.4910 66.1750 0.0000 15.3314 0.0000
# 3 -15.2270 66.1750 94.5813 0.0000 -3.0039 0.0000
# 4 0.0000 0.0000 0.0000 -772.7671 0.0000 113.8493
# 5 15.8401 15.3314 -3.0039 0.0000 46.1306 0.0000
# 6 0.0000 0.0000 0.0000 113.8493 0.0000 -6.9604
#
#
#
# Elastic Compliance Matrix: (Units=1/GPa)
#
#
# Indices 1 2 3 4 5 6 
#
# 1 0.028081 -0.004035 0.007095 0.000000 -0.007839 0.000000
# 2 -0.004035 0.007955 -0.006268 0.000000 -0.001667 0.000000
# 3 0.007095 -0.006268 0.016123 0.000000 0.000697 0.000000
# 4 0.000000 0.000000 0.000000 0.000918 0.000000 0.015014
# 5 -0.007839 -0.001667 0.000697 0.000000 0.024969 0.000000
# 6 0.000000 0.000000 0.000000 0.015014 0.000000 0.101910
#
#
# Mechanical properties :
#
#
# Convention : Reuss Voigt Hill
#
# Bulk Modulus (GPa) = 21.86141 51.13747 36.49944
# Shear Modulus (GPa) = 24.79927 -129.15498 -52.17785
#
# Velocity S-wave (km/s) = 3.32633 -7.59104 -4.82491
# Velocity P-wave (km/s) = 4.95039 7.34958 3.84123
#
# Compressibility (1/GPa) = 0.04574271
#
# Stress axis : x y z
#
# Youngs Moduli (GPa) = 35.61124 125.70886 62.02366
#
# Poissons Ratio (x) = 0.50718 -0.44004
# Poissons Ratio (y) = 0.14368 0.38878
# Poissons Ratio (z) = -0.25265 0.78797
#
# Static dielectric constant tensor:
#      x y z
#    x 1.860760 0.000000 0.007290 
#    y 0.000000 1.873840 0.000000 
#    z 0.007290 0.000000 1.862900 
# 
# From -- ./inp_files/71638.got.cif
#   From: 2010.05.17/outbox.cif.g08.bks.cpg/sg10_36_cif.got.tgz:71638.got - 2010.06.03 11:33:40.
