data_PCOD9143318
_publ_section_title
;
Structure prediction by ZEFSAII (Michael W. Deem and Ramdas Pophale) SiO2 
 PCOD9143318
Probable space group: P 2/M
;
_chemical_formula_sum "Si O2"
_cell_formula_units_Z 32
_cell_length_a 27.007740
_cell_length_b 7.480578
_cell_length_c 21.802180
_cell_angle_alpha 90.000000
_cell_angle_beta 19.246309
_cell_angle_gamma 90.000000
_cell_volume 1451.943852
_symmetry_space_group_name_H-M "P 2/M"
_symmetry_group_IT_number 10
_symmetry_cell_setting 'monoclinic'
loop_
_space_group_symop_operation_xyz
x,y,z
-x,y,-z
-x,-y,-z
x,-y,z
loop_
_atom_site_type_symbol
_atom_site_label
_atom_site_fract_x
_atom_site_fract_y
_atom_site_fract_z
Si Si1 0.630692 0.281747 0.393764
Si Si2 0.236636 0.795683 0.085088
Si Si3 0.952940 0.298541 0.490872
Si Si4 0.092368 0.714507 0.134725
Si Si5 0.721451 0.281443 0.418152
Si Si6 0.575386 0.286178 0.716411
Si Si7 0.200986 0.718829 0.445377
Si Si8 0.064629 0.281721 0.028086
O O1 0.500000 0.221906 0.500000
O O2 0.625747 0.500000 0.398818
O O3 0.624725 0.226758 0.471982
O O4 0.795138 0.226920 0.177190
O O5 0.225137 0.765068 0.025540
O O6 0.104143 0.690091 0.273379
O O7 0.201136 0.000000 0.139239
O O8 0.400408 0.752206 0.917366
O O9 0.899507 0.500000 0.568641
O O10 0.832160 0.217846 0.584871
O O11 0.000000 0.211746 0.500000
O O12 0.088649 0.500000 0.136201
O O13 0.939586 0.772370 0.347276
O O14 0.096916 0.777768 0.059991
O O15 0.720630 0.500000 0.420186
O O16 0.656314 0.219897 0.559629
O O17 0.896105 0.227014 0.207190
O O18 0.595923 0.500000 0.691842
O O19 0.653592 0.221972 0.687320
O O20 0.199603 0.500000 0.443744
O O21 0.063480 0.500000 0.028241
#
# Coordination Sequence:
#
# PCOD9143318 Si02
#       8
#     4   4   4   4   4   4   4   4
#     4   9  17  24  33  61 103 136 164 204 260 318
#     4  11  23  35  49  75 110 141 169 206 256 303
#     4   9  18  36  62  86 106 133 169 206 245 296
#     4   9  16  30  52  75  96 129 175 218 258 304
#     4   9  16  26  42  66  96 133 169 208 261 311
#     4  10  18  31  52  75 101 135 174 216 257 298
#     4   8  14  28  51  79 103 124 164 212 248 289
#     4   9  15  25  43  66  96 130 165 211 265 315
#
# _framework density 22.03942
#
# number of rings (size 3 to 8) (size 9 to 14) (size 15 to 20)
#    0.000    2.750    1.250    2.250    1.750    1.750 
#    0.000    3.125    0.000    3.750    0.000    1.750 
#    0.000    2.000    0.000    0.000    0.000    0.000 
#
# Total GULP energy -178557.474742 kJ/mol
# GULP energy per Si atom -5579.921086 kJ/mol
# Density = 2.198926 g / cm^3
# Si number density = 22.039420 Si / 1000 Ang^3
#
#
#
# Elastic Constant Matrix: (Units=GPa)
#
#
# Indices 1 2 3 4 5 6 
#
# 1 204.1935 11.9854 31.8726 0.0000 -22.1586 0.0000
# 2 11.9854 57.4258 -3.7366 0.0000 0.8199 0.0000
# 3 31.8726 -3.7366 34.7676 0.0000 -21.2943 0.0000
# 4 0.0000 0.0000 0.0000 18.9708 0.0000 84.9570
# 5 -22.1586 0.8199 -21.2943 0.0000 37.2108 0.0000
# 6 0.0000 0.0000 0.0000 84.9570 0.0000 -97.1158
#
#
#
# Elastic Compliance Matrix: (Units=1/GPa)
#
#
# Indices 1 2 3 4 5 6 
#
# 1 0.005862 -0.001570 -0.005209 0.000000 0.000544 0.000000
# 2 -0.001570 0.017984 0.003937 0.000000 0.000922 0.000000
# 3 -0.005209 0.003937 0.049280 0.000000 0.025013 0.000000
# 4 0.000000 0.000000 0.000000 0.010719 0.000000 0.009377
# 5 0.000544 0.000922 0.025013 0.000000 0.041491 0.000000
# 6 0.000000 0.000000 0.000000 0.009377 0.000000 -0.002094
#
#
# Mechanical properties :
#
#
# Convention : Reuss Voigt Hill
#
# Bulk Modulus (GPa) = 14.82764 41.84775 28.33769
# Shear Modulus (GPa) = 33.02327 8.89752 20.96040
#
# Velocity S-wave (km/s) = 3.87508 2.01143 3.08724
# Velocity P-wave (km/s) = 5.17340 4.94200 5.05902
#
# Compressibility (1/GPa) = 0.06744164
#
# Stress axis : x y z
#
# Youngs Moduli (GPa) = 170.60198 55.60356 20.29208
#
# Poissons Ratio (x) = 0.08730 0.10570
# Poissons Ratio (y) = 0.26786 -0.07988
# Poissons Ratio (z) = 0.88865 -0.21889
#
# Static dielectric constant tensor:
#      x y z
#    x 1.844700 0.000000 -0.006960 
#    y 0.000000 1.854710 0.000000 
#    z -0.006960 0.000000 1.759800 
# 
# From -- ./inp_files/86803.got.cif
#   From: 2010.05.17/outbox.cif.g08.bks.cpg/sg10_44_cif.got.tgz:86803.got - 2010.06.03 11:33:40.
