data_PCOD9143865
_publ_section_title
;
Structure prediction by ZEFSAII (Michael W. Deem and Ramdas Pophale) SiO2 
 PCOD9143865
Probable space group: P 2/M
;
_chemical_formula_sum "Si O2"
_cell_formula_units_Z 28
_cell_length_a 19.706621
_cell_length_b 7.455974
_cell_length_c 15.911003
_cell_angle_alpha 90.000000
_cell_angle_beta 146.266947
_cell_angle_gamma 90.000000
_cell_volume 1298.257277
_symmetry_space_group_name_H-M "P 2/M"
_symmetry_group_IT_number 10
_symmetry_cell_setting 'monoclinic'
loop_
_space_group_symop_operation_xyz
x,y,z
-x,y,-z
-x,-y,-z
x,-y,z
loop_
_atom_site_type_symbol
_atom_site_label
_atom_site_fract_x
_atom_site_fract_y
_atom_site_fract_z
Si Si1 0.085178 0.281686 0.707313
Si Si2 0.820724 0.717314 0.376651
Si Si3 0.450906 0.205797 0.861650
Si Si4 0.500610 0.207451 0.272601
Si Si5 0.220798 0.282946 0.013672
Si Si6 0.386643 0.707804 0.437319
Si Si7 0.131404 0.719134 0.103436
O O1 0.084836 0.500000 0.707040
O O2 0.158060 0.228475 0.698477
O O3 0.944082 0.227465 0.551807
O O4 0.149968 0.219858 0.858154
O O5 0.813739 0.500000 0.372066
O O6 0.695270 0.790490 0.283030
O O7 0.487812 0.286513 0.809571
O O8 0.497308 0.000000 0.908606
O O9 0.500000 0.287292 0.000000
O O10 0.360076 0.220848 0.155048
O O11 0.579869 0.286268 0.430094
O O12 0.537686 0.000000 0.304730
O O13 0.223937 0.500000 0.015112
O O14 0.154915 0.229554 0.031304
O O15 0.500000 0.787195 0.500000
O O16 0.380010 0.500000 0.403300
O O17 0.252116 0.780942 0.278377
O O18 0.127942 0.500000 0.104184
O O19 0.000000 0.782327 0.000000
#
# Coordination Sequence:
#
# PCOD9143865 Si02
#       7
#     4   4   4   4   4   4   4
#     4   8  16  30  52  79 107 136 171 221 274 321
#     4   9  17  32  52  78 107 136 174 220 272 324
#     4  10  22  38  52  72 108 146 181 224 269 317
#     4  11  23  36  54  80 107 142 184 225 273 321
#     4  10  18  33  55  77 103 138 180 219 263 322
#     4  10  19  36  59  83 108 139 181 225 266 324
#     4   9  18  32  53  81 109 135 171 220 269 316
#
# _framework density 21.567374000000001
#
# number of rings (size 3 to 8) (size 9 to 14) (size 15 to 20)
#    0.000    2.429    1.429    2.143    0.000    2.857 
#    0.000    5.000    0.000    1.714    0.000    0.000 
#    0.000    0.000    0.000    0.000    0.000    0.000 
#
# Total GULP energy -156349.650135 kJ/mol
# GULP energy per Si atom -5583.916076 kJ/mol
# Density = 2.151829 g / cm^3
# Si number density = 21.567374 Si / 1000 Ang^3
#
#
#
# Elastic Constant Matrix: (Units=GPa)
#
#
# Indices 1 2 3 4 5 6 
#
# 1 133.9836 -2.7591 78.5162 0.0000 10.3159 0.0000
# 2 -2.7591 62.0434 -0.8553 0.0000 0.0387 0.0000
# 3 78.5162 -0.8553 155.7188 0.0000 -7.7171 0.0000
# 4 0.0000 0.0000 0.0000 8.0584 0.0000 5.0280
# 5 10.3159 0.0387 -7.7171 0.0000 36.3697 0.0000
# 6 0.0000 0.0000 0.0000 5.0280 0.0000 8.0243
#
#
#
# Elastic Compliance Matrix: (Units=1/GPa)
#
#
# Indices 1 2 3 4 5 6 
#
# 1 0.011274 0.000423 -0.005903 0.000000 -0.004451 0.000000
# 2 0.000423 0.016135 -0.000133 0.000000 -0.000165 0.000000
# 3 -0.005903 -0.000133 0.009581 0.000000 0.003707 0.000000
# 4 0.000000 0.000000 0.000000 0.203754 0.000000 -0.127671
# 5 -0.004451 -0.000165 0.003707 0.000000 0.029545 0.000000
# 6 0.000000 0.000000 0.000000 -0.127671 0.000000 0.204620
#
#
# Mechanical properties :
#
#
# Convention : Reuss Voigt Hill
#
# Bulk Modulus (GPa) = 38.81317 55.72772 47.27044
# Shear Modulus (GPa) = 10.10667 28.94672 19.52669
#
# Velocity S-wave (km/s) = 2.16709 3.66752 3.01222
# Velocity P-wave (km/s) = 4.92920 6.62036 5.83636
#
# Compressibility (1/GPa) = 0.02576445
#
# Stress axis : x y z
#
# Youngs Moduli (GPa) = 88.69834 61.97778 104.37123
#
# Poissons Ratio (x) = -0.02620 0.61609
# Poissons Ratio (y) = -0.03750 0.01385
# Poissons Ratio (z) = 0.52358 0.00823
#
# Static dielectric constant tensor:
#      x y z
#    x 1.748610 0.000000 -0.020070 
#    y 0.000000 1.813050 0.000000 
#    z -0.020070 0.000000 1.758000 
# 
# From -- ./inp_files/68665.got.cif
#   From: 2010.05.17/outbox.cif.g08.bks.cpg/sg10_35_cif.got.tgz:68665.got - 2010.06.03 11:33:40.
