data_PCOD9143235
_publ_section_title
;
Structure prediction by ZEFSAII (Michael W. Deem and Ramdas Pophale) SiO2 
 PCOD9143235
Probable space group: P 2/M
;
_chemical_formula_sum "Si O2"
_cell_formula_units_Z 28
_cell_length_a 22.170950
_cell_length_b 13.947636
_cell_length_c 27.776991
_cell_angle_alpha 90.000000
_cell_angle_beta 168.887659
_cell_angle_gamma 90.000000
_cell_volume 1655.491352
_symmetry_space_group_name_H-M "P 2/M"
_symmetry_group_IT_number 10
_symmetry_cell_setting 'monoclinic'
loop_
_space_group_symop_operation_xyz
x,y,z
-x,y,-z
-x,-y,-z
x,-y,z
loop_
_atom_site_type_symbol
_atom_site_label
_atom_site_fract_x
_atom_site_fract_y
_atom_site_fract_z
Si Si1 0.090849 0.109846 0.806579
Si Si2 0.628041 0.611392 0.928883
Si Si3 0.728073 0.703508 0.542756
Si Si4 0.721489 0.614240 0.888412
Si Si5 0.747283 0.793354 0.343883
Si Si6 0.142604 0.888968 0.732386
Si Si7 0.730614 0.391472 0.747546
O O1 0.089669 0.116204 0.747714
O O2 0.843270 0.187222 0.631784
O O3 0.031197 0.000000 0.773993
O O4 0.437213 0.142832 0.093715
O O5 0.556370 0.500000 0.880001
O O6 0.668047 0.629679 0.902894
O O7 0.369703 0.683994 0.746600
O O8 0.958579 0.639377 0.211681
O O9 0.514945 0.674064 0.330210
O O10 0.531444 0.677142 0.436357
O O11 0.676428 0.500000 0.843018
O O12 0.076555 0.635647 0.149058
O O13 0.000000 0.810644 0.500000
O O14 0.910002 0.822315 0.520976
O O15 0.099144 0.000000 0.682762
O O16 0.500000 0.862737 0.000000
O O17 0.604270 0.500000 0.643731
O O18 0.000000 0.394369 0.000000
#
# Coordination Sequence:
#
# PCOD9143235 Si02
#       7
#     4   4   4   4   4   4   4
#     4  10  21  34  50  74  99 126 160 201 246 288
#     4  10  21  33  48  72  99 132 166 194 235 289
#     4  10  18  31  50  71 100 130 158 196 242 288
#     4   9  17  31  51  74 101 128 159 202 240 277
#     4  11  21  34  52  72  98 128 160 202 246 288
#     4  10  19  32  53  75  93 116 154 205 250 286
#     4   8  14  26  48  75  98 124 159 198 238 278
#
# _framework density 16.913406999999999
#
# number of rings (size 3 to 8) (size 9 to 14) (size 15 to 20)
#    0.000    2.286    1.429    3.429    0.000    1.429 
#    0.000    2.143    0.000    4.286    0.000    4.000 
#    0.000    0.000    0.000    0.000    0.000    0.000 
#
# Total GULP energy -156217.122871 kJ/mol
# GULP energy per Si atom -5579.182960 kJ/mol
# Density = 1.687491 g / cm^3
# Si number density = 16.913407 Si / 1000 Ang^3
#
#
#
# Elastic Constant Matrix: (Units=GPa)
#
#
# Indices 1 2 3 4 5 6 
#
# 1 29.9071 20.8600 17.9267 0.0000 0.9099 0.0000
# 2 20.8600 105.7094 56.3393 0.0000 3.9133 0.0000
# 3 17.9267 56.3393 75.3682 0.0000 9.0133 0.0000
# 4 0.0000 0.0000 0.0000 17.9435 0.0000 4.3277
# 5 0.9099 3.9133 9.0133 0.0000 21.0323 0.0000
# 6 0.0000 0.0000 0.0000 4.3277 0.0000 21.8812
#
#
#
# Elastic Compliance Matrix: (Units=1/GPa)
#
#
# Indices 1 2 3 4 5 6 
#
# 1 0.040441 -0.004662 -0.006354 0.000000 0.001841 0.000000
# 2 -0.004662 0.016361 -0.011364 0.000000 0.002028 0.000000
# 3 -0.006354 -0.011364 0.024231 0.000000 -0.007995 0.000000
# 4 0.000000 0.000000 0.000000 0.058522 0.000000 -0.011574
# 5 0.001841 0.002028 -0.007995 0.000000 0.050515 0.000000
# 6 0.000000 0.000000 0.000000 -0.011574 0.000000 0.047990
#
#
# Mechanical properties :
#
#
# Convention : Reuss Voigt Hill
#
# Bulk Modulus (GPa) = 27.56912 44.58187 36.07550
# Shear Modulus (GPa) = 16.95414 19.89532 18.42473
#
# Velocity S-wave (km/s) = 3.16952 3.43345 3.30412
# Velocity P-wave (km/s) = 5.45252 6.49109 5.99434
#
# Compressibility (1/GPa) = 0.03627247
#
# Stress axis : x y z
#
# Youngs Moduli (GPa) = 24.72714 61.11915 41.26997
#
# Poissons Ratio (x) = 0.28493 0.26225
# Poissons Ratio (y) = 0.11527 0.46900
# Poissons Ratio (z) = 0.15713 0.69457
#
# Static dielectric constant tensor:
#      x y z
#    x 1.578330 0.000000 -0.005820 
#    y 0.000000 1.558950 0.000000 
#    z -0.005820 0.000000 1.572960 
# 
# From -- ./inp_files/79562.got.cif
#   From: 2010.05.17/outbox.cif.g08.bks.cpg/sg10_40_cif.got.tgz:79562.got - 2010.06.03 11:33:40.
