data_PCOD9143345
_publ_section_title
;
Structure prediction by ZEFSAII (Michael W. Deem and Ramdas Pophale) SiO2 
 PCOD9143345
Probable space group: P 2/M
;
_chemical_formula_sum "Si O2"
_cell_formula_units_Z 24
_cell_length_a 22.460440
_cell_length_b 12.352726
_cell_length_c 16.292783
_cell_angle_alpha 90.000000
_cell_angle_beta 15.556071
_cell_angle_gamma 90.000000
_cell_volume 1212.285190
_symmetry_space_group_name_H-M "P 2/M"
_symmetry_group_IT_number 10
_symmetry_cell_setting 'monoclinic'
loop_
_space_group_symop_operation_xyz
x,y,z
-x,y,-z
-x,-y,-z
x,-y,z
loop_
_atom_site_type_symbol
_atom_site_label
_atom_site_fract_x
_atom_site_fract_y
_atom_site_fract_z
Si Si1 0.730250 0.764396 0.696123
Si Si2 0.661311 0.379423 0.499774
Si Si3 0.410791 0.759456 0.703403
Si Si4 0.744997 0.667894 0.841885
Si Si5 0.827633 0.876728 0.837317
Si Si6 0.971389 0.630059 0.236654
O O1 0.684727 0.675242 0.827231
O O2 0.814508 0.700181 0.505081
O O3 0.924638 0.842883 0.466858
O O4 0.500000 0.826764 0.000000
O O5 0.698038 0.500000 0.418586
O O6 0.595239 0.302354 0.512753
O O7 0.870728 0.349758 0.279280
O O8 0.442848 0.382350 0.850417
O O9 0.500000 0.805160 0.500000
O O10 0.312225 0.848447 0.895571
O O11 0.216044 0.674569 0.935151
O O12 0.758517 0.789970 0.860401
O O13 0.000000 0.625559 0.500000
O O14 0.806126 0.000000 0.840477
O O15 0.960265 0.500000 0.265089
#
# Coordination Sequence:
#
# PCOD9143345 Si02
#       6
#     4   4   4   4   4   4
#     4  10  18  31  52  78 112 143 174 212 254 309
#     4  10  20  34  53  79 111 146 180 215 261 314
#     4  10  22  39  58  78 104 137 178 233 281 320
#     4   9  18  31  50  75 109 145 176 214 255 306
#     4   9  20  37  55  77 102 134 180 226 273 326
#     4  10  21  35  54  82 114 146 182 218 254 312
#
# _framework density 19.797322000000001
#
# number of rings (size 3 to 8) (size 9 to 14) (size 15 to 20)
#    0.000    2.333    1.667    1.500    0.000    7.000 
#    0.000    1.667    0.000    0.000    0.000    4.667 
#    0.000    0.000    0.000    0.000    0.000    0.000 
#
# Total GULP energy -133748.531719 kJ/mol
# GULP energy per Si atom -5572.855488 kJ/mol
# Density = 1.975226 g / cm^3
# Si number density = 19.797322 Si / 1000 Ang^3
#
#
#
# Elastic Constant Matrix: (Units=GPa)
#
#
# Indices 1 2 3 4 5 6 
#
# 1 78.8020 9.3596 10.6519 0.0000 1.0937 0.0000
# 2 9.3596 78.6430 4.8820 0.0000 -9.1008 0.0000
# 3 10.6519 4.8820 45.0235 0.0000 2.2616 0.0000
# 4 0.0000 0.0000 0.0000 -1.9747 0.0000 -3.1426
# 5 1.0937 -9.1008 2.2616 0.0000 39.8515 0.0000
# 6 0.0000 0.0000 0.0000 -3.1426 0.0000 9.5025
#
#
#
# Elastic Compliance Matrix: (Units=1/GPa)
#
#
# Indices 1 2 3 4 5 6 
#
# 1 0.013270 -0.001457 -0.002955 0.000000 -0.000529 0.000000
# 2 -0.001457 0.013333 -0.001259 0.000000 0.003156 0.000000
# 3 -0.002955 -0.001259 0.023123 0.000000 -0.001519 0.000000
# 4 0.000000 0.000000 0.000000 -0.331789 0.000000 -0.109726
# 5 -0.000529 0.003156 -0.001519 0.000000 0.025915 0.000000
# 6 0.000000 0.000000 0.000000 -0.109726 0.000000 0.068948
#
#
# Mechanical properties :
#
#
# Convention : Reuss Voigt Hill
#
# Bulk Modulus (GPa) = 26.05388 28.02840 27.04114
# Shear Modulus (GPa) = -30.66267 21.31420 -4.67423
#
# Velocity S-wave (km/s) = -3.93979 3.28475 -1.53824
# Velocity P-wave (km/s) = 2.73989 5.34551 3.24557
#
# Compressibility (1/GPa) = 0.03838199
#
# Stress axis : x y z
#
# Youngs Moduli (GPa) = 75.35871 75.00447 43.24782
#
# Poissons Ratio (x) = 0.10929 0.12779
# Poissons Ratio (y) = 0.10981 0.05447
# Poissons Ratio (z) = 0.22268 0.09447
#
# Static dielectric constant tensor:
#      x y z
#    x 1.731650 0.000000 -0.036940 
#    y 0.000000 1.648960 0.000000 
#    z -0.036940 0.000000 1.788820 
# 
# From -- ./inp_files/34491.got.cif
#   From: 2010.05.17/outbox.cif.g08.bks.cpg/sg10_18_cif.got.tgz:34491.got - 2010.06.03 11:33:40.
