data_PCOD9143465
_publ_section_title
;
Structure prediction by ZEFSAII (Michael W. Deem and Ramdas Pophale) SiO2 
 PCOD9143465
Probable space group: P 2/M
;
_chemical_formula_sum "Si O2"
_cell_formula_units_Z 32
_cell_length_a 14.028635
_cell_length_b 12.852550
_cell_length_c 14.274454
_cell_angle_alpha 90.000000
_cell_angle_beta 42.422591
_cell_angle_gamma 90.000000
_cell_volume 1736.226477
_symmetry_space_group_name_H-M "P 2/M"
_symmetry_group_IT_number 10
_symmetry_cell_setting 'monoclinic'
loop_
_space_group_symop_operation_xyz
x,y,z
-x,y,-z
-x,-y,-z
x,-y,z
loop_
_atom_site_type_symbol
_atom_site_label
_atom_site_fract_x
_atom_site_fract_y
_atom_site_fract_z
Si Si1 0.201331 0.877188 0.607999
Si Si2 0.218721 0.621574 0.061245
Si Si3 0.840183 0.123079 0.583516
Si Si4 0.305408 0.617194 0.688966
Si Si5 0.567609 0.277637 0.572413
Si Si6 0.345436 0.267013 0.146568
Si Si7 0.025532 0.265697 0.877948
Si Si8 0.457315 0.386948 0.229357
O O1 0.167996 0.856447 0.522375
O O2 0.358148 0.829272 0.509374
O O3 0.096851 0.814892 0.753174
O O4 0.194835 0.000000 0.629083
O O5 0.177606 0.500000 0.109115
O O6 0.247900 0.690248 0.133357
O O7 0.108389 0.680122 0.074092
O O8 0.373963 0.617339 0.902366
O O9 0.736372 0.187395 0.726678
O O10 0.000000 0.144385 0.500000
O O11 0.811137 0.000000 0.616708
O O12 0.334010 0.500000 0.700020
O O13 0.354306 0.634391 0.546346
O O14 0.403585 0.701589 0.670108
O O15 0.142865 0.645721 0.812547
O O16 0.590146 0.300166 0.664073
O O17 0.389990 0.365151 0.177999
O O18 0.500000 0.225533 0.000000
O O19 0.000000 0.218660 0.000000
O O20 0.415886 0.500000 0.294766
#
# Coordination Sequence:
#
# PCOD9143465 Si02
#       8
#     4   4   4   4   4   4   4   4
#     4  10  22  40  61  83 111 150 194 243 298 353
#     4  10  21  36  56  84 121 158 193 231 284 350
#     4  10  20  37  62  86 115 159 201 242 298 353
#     4  10  20  33  53  82 115 147 188 234 285 340
#     4  10  18  33  54  80 108 146 190 239 280 335
#     4  10  20  35  57  89 122 156 197 241 290 349
#     4  11  23  38  58  84 113 151 196 245 291 345
#     4  10  18  31  55  83 116 154 188 227 282 344
#
# _framework density 18.430776000000002
#
# number of rings (size 3 to 8) (size 9 to 14) (size 15 to 20)
#    0.000    1.875    1.250    3.750    0.000    4.000 
#    0.000    5.000    0.000    4.500    0.000    0.000 
#    0.000    0.000    0.000    0.000    0.000    0.000 
#
# Total GULP energy -178314.669591 kJ/mol
# GULP energy per Si atom -5572.333425 kJ/mol
# Density = 1.838883 g / cm^3
# Si number density = 18.430776 Si / 1000 Ang^3
#
#
#
# Elastic Constant Matrix: (Units=GPa)
#
#
# Indices 1 2 3 4 5 6 
#
# 1 129.8869 49.8690 48.0787 0.0000 0.2952 0.0000
# 2 49.8690 99.3106 51.9269 0.0000 -0.0295 0.0000
# 3 48.0787 51.9269 81.2291 0.0000 14.8786 0.0000
# 4 0.0000 0.0000 0.0000 22.6704 0.0000 3.6053
# 5 0.2952 -0.0295 14.8786 0.0000 29.6990 0.0000
# 6 0.0000 0.0000 0.0000 3.6053 0.0000 18.4903
#
#
#
# Elastic Compliance Matrix: (Units=1/GPa)
#
#
# Indices 1 2 3 4 5 6 
#
# 1 0.010571 -0.002717 -0.004955 0.000000 0.002375 0.000000
# 2 -0.002717 0.016637 -0.009948 0.000000 0.005027 0.000000
# 3 -0.004955 -0.009948 0.023778 0.000000 -0.011873 0.000000
# 4 0.000000 0.000000 0.000000 0.045522 0.000000 -0.008876
# 5 0.002375 0.005027 -0.011873 0.000000 0.039601 0.000000
# 6 0.000000 0.000000 0.000000 -0.008876 0.000000 0.055813
#
#
# Mechanical properties :
#
#
# Convention : Reuss Voigt Hill
#
# Bulk Modulus (GPa) = 63.50912 67.79732 65.65322
# Shear Modulus (GPa) = 21.51376 24.87540 23.19458
#
# Velocity S-wave (km/s) = 3.42024 3.67777 3.55134
# Velocity P-wave (km/s) = 7.08028 7.40941 7.24671
#
# Compressibility (1/GPa) = 0.01574577
#
# Stress axis : x y z
#
# Youngs Moduli (GPa) = 94.60046 60.10817 42.05567
#
# Poissons Ratio (x) = 0.16329 0.20839
# Poissons Ratio (y) = 0.25699 0.41838
# Poissons Ratio (z) = 0.46876 0.59797
#
# Static dielectric constant tensor:
#      x y z
#    x 1.675510 0.000000 0.021150 
#    y 0.000000 1.616960 0.000000 
#    z 0.021150 0.000000 1.650420 
# 
# From -- ./inp_files/67336.got.cif
#   From: 2010.05.17/outbox.cif.g08.bks.cpg/sg10_34_cif.got.tgz:67336.got - 2010.06.03 11:33:40.
