data_PCOD9143701
_publ_section_title
;
Structure prediction by ZEFSAII (Michael W. Deem and Ramdas Pophale) SiO2 
 PCOD9143701
Probable space group: P 2/M
;
_chemical_formula_sum "Si O2"
_cell_formula_units_Z 32
_cell_length_a 23.901340
_cell_length_b 7.863411
_cell_length_c 11.772875
_cell_angle_alpha 90.000000
_cell_angle_beta 136.491400
_cell_angle_gamma 90.000000
_cell_volume 1523.339293
_symmetry_space_group_name_H-M "P 2/M"
_symmetry_group_IT_number 10
_symmetry_cell_setting 'monoclinic'
loop_
_space_group_symop_operation_xyz
x,y,z
-x,y,-z
-x,-y,-z
x,-y,z
loop_
_atom_site_type_symbol
_atom_site_label
_atom_site_fract_x
_atom_site_fract_y
_atom_site_fract_z
Si Si1 0.929289 0.195736 0.741413
Si Si2 0.329140 0.198313 0.600105
Si Si3 0.379488 0.207345 0.252517
Si Si4 0.214813 0.693952 0.620930
Si Si5 0.550850 0.207889 0.405224
Si Si6 0.907027 0.801529 0.124600
Si Si7 0.218623 0.793530 0.886692
Si Si8 0.181648 0.697425 0.224674
O O1 0.855974 0.198169 0.542859
O O2 0.894747 0.286751 0.801901
O O3 0.946110 0.000000 0.799106
O O4 0.009262 0.272560 0.800698
O O5 0.295862 0.283258 0.665017
O O6 0.408106 0.266791 0.650896
O O7 0.256402 0.217658 0.400911
O O8 0.340890 0.000000 0.642816
O O9 0.458464 0.258131 0.295245
O O10 0.396456 0.261466 0.407029
O O11 0.378318 0.000000 0.252276
O O12 0.296369 0.265806 0.073643
O O13 0.188164 0.500000 0.570260
O O14 0.225758 0.739884 0.767425
O O15 0.552814 0.000000 0.406089
O O16 0.841907 0.785769 0.927146
O O17 0.924547 0.000000 0.172839
O O18 0.863504 0.731121 0.172415
O O19 0.217922 0.000000 0.889676
O O20 0.199808 0.500000 0.232287
#
# Coordination Sequence:
#
# PCOD9143701 Si02
#       8
#     4   4   4   4   4   4   4   4
#     4  10  20  36  56  76 101 133 172 215 257 303
#     4  10  18  32  55  78 102 135 176 215 253 300
#     4   8  14  27  50  81 112 133 156 202 257 302
#     4  11  23  38  53  71 100 136 175 217 260 305
#     4   8  14  26  50  84 111 130 159 204 255 301
#     4  10  21  35  54  79 103 132 171 213 257 307
#     4  10  20  36  56  76 101 135 174 213 255 303
#     4  11  21  32  50  78 111 140 168 206 255 308
#
# _framework density 21.006481999999998
#
# number of rings (size 3 to 8) (size 9 to 14) (size 15 to 20)
#    0.000    2.250    0.000    6.375    0.000    5.500 
#    0.000    3.125    0.000    5.250    0.000    5.250 
#    0.000    0.000    0.000    0.000    0.000    0.000 
#
# Total GULP energy -178671.058278 kJ/mol
# GULP energy per Si atom -5583.470571 kJ/mol
# Density = 2.095867 g / cm^3
# Si number density = 21.006482 Si / 1000 Ang^3
#
#
#
# Elastic Constant Matrix: (Units=GPa)
#
#
# Indices 1 2 3 4 5 6 
#
# 1 144.6167 -1.7678 29.9845 0.0000 -16.7829 0.0000
# 2 -1.7678 36.0234 -5.2013 0.0000 3.4768 0.0000
# 3 29.9845 -5.2013 30.0566 0.0000 -6.3489 0.0000
# 4 0.0000 0.0000 0.0000 29.0150 0.0000 -163.0342
# 5 -16.7829 3.4768 -6.3489 0.0000 16.8188 0.0000
# 6 0.0000 0.0000 0.0000 -163.0342 0.0000 316.1839
#
#
#
# Elastic Compliance Matrix: (Units=1/GPa)
#
#
# Indices 1 2 3 4 5 6 
#
# 1 0.009353 -0.001353 -0.008187 0.000000 0.006522 0.000000
# 2 -0.001353 0.028966 0.005229 0.000000 -0.005364 0.000000
# 3 -0.008187 0.005229 0.043888 0.000000 0.007317 0.000000
# 4 0.000000 0.000000 0.000000 -0.018165 0.000000 -0.009367
# 5 0.006522 -0.005364 0.007317 0.000000 0.069836 0.000000
# 6 0.000000 0.000000 0.000000 -0.009367 0.000000 -0.001667
#
#
# Mechanical properties :
#
#
# Convention : Reuss Voigt Hill
#
# Bulk Modulus (GPa) = 13.58950 28.52528 21.05739
# Shear Modulus (GPa) = 30.23713 84.91564 57.57639
#
# Velocity S-wave (km/s) = 3.79808 6.36485 5.24103
# Velocity P-wave (km/s) = 5.07121 8.22337 6.83158
#
# Compressibility (1/GPa) = 0.07358621
#
# Stress axis : x y z
#
# Youngs Moduli (GPa) = 106.92271 34.52323 22.78527
#
# Poissons Ratio (x) = 0.04669 0.18653
# Poissons Ratio (y) = 0.14462 -0.11914
# Poissons Ratio (z) = 0.87533 -0.18052
#
# Static dielectric constant tensor:
#      x y z
#    x 1.794810 0.000000 0.017770 
#    y 0.000000 1.744700 0.000000 
#    z 0.017770 0.000000 1.717020 
# 
# From -- ./inp_files/56469.got.cif
#   From: 2010.05.17/outbox.cif.g08.bks.cpg/sg10_29_cif.got.tgz:56469.got - 2010.06.03 11:33:40.
