data_PCOD9143679
_publ_section_title
;
Structure prediction by ZEFSAII (Michael W. Deem and Ramdas Pophale) SiO2 
 PCOD9143679
Probable space group: P 2/M
;
_chemical_formula_sum "Si O2"
_cell_formula_units_Z 30
_cell_length_a 13.363843
_cell_length_b 25.490007
_cell_length_c 15.514777
_cell_angle_alpha 90.000000
_cell_angle_beta 18.547706
_cell_angle_gamma 90.000000
_cell_volume 1681.134783
_symmetry_space_group_name_H-M "P 2/M"
_symmetry_group_IT_number 10
_symmetry_cell_setting 'monoclinic'
loop_
_space_group_symop_operation_xyz
x,y,z
-x,y,-z
-x,-y,-z
x,-y,z
loop_
_atom_site_type_symbol
_atom_site_label
_atom_site_fract_x
_atom_site_fract_y
_atom_site_fract_z
Si Si1 0.779577 0.059783 0.093971
Si Si2 0.672775 0.584877 0.942897
Si Si3 0.441146 0.707437 0.771521
Si Si4 0.376072 0.298406 0.189994
Si Si5 0.789818 0.242628 0.329832
Si Si6 0.720575 0.122361 0.405265
Si Si7 0.625939 0.500000 0.300135
Si Si8 0.423863 0.584676 0.327888
O O1 0.500809 0.100595 0.339006
O O2 0.673805 0.000000 0.167497
O O3 0.000000 0.059519 0.000000
O O4 0.000310 0.081721 0.839039
O O5 0.545219 0.644745 0.051875
O O6 0.576549 0.562829 0.114786
O O7 0.500000 0.561634 0.000000
O O8 0.046454 0.584905 0.625660
O O9 0.530150 0.726170 0.795330
O O10 0.686013 0.727254 0.500716
O O11 0.454896 0.644225 0.758818
O O12 0.096216 0.731106 0.037863
O O13 0.000000 0.305358 0.500000
O O14 0.500000 0.272676 0.000000
O O15 0.500000 0.245245 0.500000
O O16 0.839350 0.181742 0.313766
O O17 0.500000 0.121511 0.500000
O O18 0.500000 0.500000 0.500000
O O19 0.511462 0.549893 0.338384
O O20 0.000000 0.500000 0.000000
#
# Coordination Sequence:
#
# PCOD9143679 Si02
#       8
#     4   4   4   4   4   4   2   4
#     4   9  15  24  40  60  82 117 169 217 250 289
#     4  10  18  35  61  88 112 131 149 194 261 319
#     4  11  21  35  55  78 100 131 174 213 250 307
#     4  10  18  32  54  81 107 132 161 201 253 312
#     4  11  22  34  48  71 104 140 177 217 255 291
#     4   9  17  28  40  58  90 127 164 210 256 290
#     4  12  28  48  63  76 103 144 180 220 268 296
#     4  11  23  40  59  82 105 131 173 214 251 315
#
# _framework density 17.845089000000002
#
# number of rings (size 3 to 8) (size 9 to 14) (size 15 to 20)
#    0.000    1.733    0.000    8.400    0.000    5.333 
#    0.000    2.000    0.000    0.000    0.000    0.000 
#    0.000    0.000    0.000    0.000    0.000  168.000 
#
# Total GULP energy -167403.088528 kJ/mol
# GULP energy per Si atom -5580.102951 kJ/mol
# Density = 1.780447 g / cm^3
# Si number density = 17.845089 Si / 1000 Ang^3
#
#
#
# Elastic Constant Matrix: (Units=GPa)
#
#
# Indices 1 2 3 4 5 6 
#
# 1 67.5571 15.3127 -0.5824 0.0000 9.7962 0.0000
# 2 15.3127 86.6272 25.6172 0.0000 -1.4648 0.0000
# 3 -0.5824 25.6172 100.4961 0.0000 -0.9769 0.0000
# 4 0.0000 0.0000 0.0000 -13.4115 0.0000 25.9414
# 5 9.7962 -1.4648 -0.9769 0.0000 36.0468 0.0000
# 6 0.0000 0.0000 0.0000 25.9414 0.0000 -25.8502
#
#
#
# Elastic Compliance Matrix: (Units=1/GPa)
#
#
# Indices 1 2 3 4 5 6 
#
# 1 0.016187 -0.003193 0.000864 0.000000 -0.004505 0.000000
# 2 -0.003193 0.013121 -0.003350 0.000000 0.001310 0.000000
# 3 0.000864 -0.003350 0.010809 0.000000 -0.000078 0.000000
# 4 0.000000 0.000000 0.000000 0.079230 0.000000 0.079510
# 5 -0.004505 0.001310 -0.000078 0.000000 0.029017 0.000000
# 6 0.000000 0.000000 0.000000 0.079510 0.000000 0.041106
#
#
# Mechanical properties :
#
#
# Convention : Reuss Voigt Hill
#
# Bulk Modulus (GPa) = 34.77308 37.26394 36.01851
# Shear Modulus (GPa) = 23.76255 13.64586 18.70421
#
# Velocity S-wave (km/s) = 3.65307 2.76829 3.24102
# Velocity P-wave (km/s) = 6.10914 5.58079 5.85093
#
# Compressibility (1/GPa) = 0.02875788
#
# Stress axis : x y z
#
# Youngs Moduli (GPa) = 61.77888 76.21338 92.51608
#
# Poissons Ratio (x) = 0.24334 -0.07992
# Poissons Ratio (y) = 0.19725 0.30997
# Poissons Ratio (z) = -0.05337 0.25535
#
# Static dielectric constant tensor:
#      x y z
#    x 1.634250 0.000000 0.005710 
#    y 0.000000 1.617350 0.000000 
#    z 0.005710 0.000000 1.613250 
# 
# From -- ./inp_files/65540.got.cif
#   From: 2010.05.17/outbox.cif.g08.bks.cpg/sg10_33_cif.got.tgz:65540.got - 2010.06.03 11:33:40.
