data_PCOD9143912
_publ_section_title
;
Structure prediction by ZEFSAII (Michael W. Deem and Ramdas Pophale) SiO2 
 PCOD9143912
Probable space group: P 2/M
;
_chemical_formula_sum "Si O2"
_cell_formula_units_Z 32
_cell_length_a 28.489181
_cell_length_b 12.588854
_cell_length_c 8.001750
_cell_angle_alpha 90.000000
_cell_angle_beta 35.145279
_cell_angle_gamma 90.000000
_cell_volume 1652.003177
_symmetry_space_group_name_H-M "P 2/M"
_symmetry_group_IT_number 10
_symmetry_cell_setting 'monoclinic'
loop_
_space_group_symop_operation_xyz
x,y,z
-x,y,-z
-x,-y,-z
x,-y,z
loop_
_atom_site_type_symbol
_atom_site_label
_atom_site_fract_x
_atom_site_fract_y
_atom_site_fract_z
Si Si1 0.545989 0.618297 0.044243
Si Si2 0.980855 0.876350 0.860454
Si Si3 0.336409 0.120570 0.136173
Si Si4 0.290227 0.625400 0.629011
Si Si5 0.847424 0.118827 0.757551
Si Si6 0.675840 0.216175 0.175401
Si Si7 0.506087 0.165400 0.673820
Si Si8 0.183885 0.195172 0.794868
O O1 0.538802 0.500000 0.136084
O O2 0.639016 0.638523 0.716910
O O3 0.500000 0.620560 0.000000
O O4 0.506256 0.707951 0.273349
O O5 0.063121 0.833735 0.533815
O O6 0.966537 0.000000 0.849016
O O7 0.900535 0.808540 0.058211
O O8 0.000000 0.877275 0.000000
O O9 0.257836 0.148201 0.472555
O O10 0.328295 0.000000 0.091464
O O11 0.342641 0.208742 0.969461
O O12 0.421041 0.123411 0.995556
O O13 0.276811 0.500000 0.691171
O O14 0.318963 0.680813 0.719578
O O15 0.213513 0.691902 0.783105
O O16 0.852732 0.000000 0.673492
O O17 0.767093 0.170975 0.915959
O O18 0.830881 0.122038 0.001593
O O19 0.597934 0.147674 0.471236
O O20 0.500000 0.127205 0.500000
#
# Coordination Sequence:
#
# PCOD9143912 Si02
#       8
#     4   4   4   4   4   4   4   4
#     4  10  18  33  57  79 106 143 188 244 293 327
#     4  10  20  35  58  87 117 150 187 229 281 337
#     4  11  22  36  53  79 117 158 193 228 281 343
#     4  10  21  38  60  83 110 146 189 241 293 338
#     4  10  20  34  54  83 113 146 192 238 280 331
#     4  10  21  35  55  77 111 153 195 235 279 334
#     4  10  21  34  50  79 113 152 191 233 280 339
#     4  11  21  36  59  84 115 146 184 234 287 340
#
# _framework density 19.370422999999999
#
# number of rings (size 3 to 8) (size 9 to 14) (size 15 to 20)
#    0.000    1.750    2.500    2.625    0.000    5.000 
#    0.000    2.500    0.000    9.000    0.000    0.000 
#    0.000    0.000    0.000    0.000    0.000    0.000 
#
# Total GULP energy -178173.185433 kJ/mol
# GULP energy per Si atom -5567.912045 kJ/mol
# Density = 1.932633 g / cm^3
# Si number density = 19.370423 Si / 1000 Ang^3
#
#
#
# Elastic Constant Matrix: (Units=GPa)
#
#
# Indices 1 2 3 4 5 6 
#
# 1 65.4740 22.8207 37.9450 0.0000 -25.4680 0.0000
# 2 22.8207 85.4804 24.1228 0.0000 -12.5418 0.0000
# 3 37.9450 24.1228 135.7895 0.0000 -31.5530 0.0000
# 4 0.0000 0.0000 0.0000 19.7423 0.0000 0.3422
# 5 -25.4680 -12.5418 -31.5530 0.0000 42.8346 0.0000
# 6 0.0000 0.0000 0.0000 0.3422 0.0000 17.5071
#
#
#
# Elastic Compliance Matrix: (Units=1/GPa)
#
#
# Indices 1 2 3 4 5 6 
#
# 1 0.022222 -0.003570 -0.003316 0.000000 0.009725 0.000000
# 2 -0.003570 0.013099 -0.001124 0.000000 0.000885 0.000000
# 3 -0.003316 -0.001124 0.009599 0.000000 0.004770 0.000000
# 4 0.000000 0.000000 0.000000 0.050670 0.000000 -0.000990
# 5 0.009725 0.000885 0.004770 0.000000 0.032901 0.000000
# 6 0.000000 0.000000 0.000000 -0.000990 0.000000 0.057139
#
#
# Mechanical properties :
#
#
# Convention : Reuss Voigt Hill
#
# Bulk Modulus (GPa) = 34.60165 50.72454 42.66310
# Shear Modulus (GPa) = 23.66512 29.47384 26.56948
#
# Velocity S-wave (km/s) = 3.49909 3.90499 3.70760
# Velocity P-wave (km/s) = 5.85037 6.82461 6.35618
#
# Compressibility (1/GPa) = 0.02890035
#
# Stress axis : x y z
#
# Youngs Moduli (GPa) = 45.00072 76.34386 104.17747
#
# Poissons Ratio (x) = 0.27255 0.34543
# Poissons Ratio (y) = 0.16065 0.11707
# Poissons Ratio (z) = 0.14921 0.08579
#
# Static dielectric constant tensor:
#      x y z
#    x 1.737800 0.000000 -0.032340 
#    y 0.000000 1.691260 0.000000 
#    z -0.032340 0.000000 1.741970 
# 
# From -- ./inp_files/38201.got.cif
#   From: 2010.05.17/outbox.cif.g08.bks.cpg/sg10_20_cif.got.tgz:38201.got - 2010.06.03 11:33:40.
