data_PCOD9143628
_publ_section_title
;
Structure prediction by ZEFSAII (Michael W. Deem and Ramdas Pophale) SiO2 
 PCOD9143628
Probable space group: P 2/M
;
_chemical_formula_sum "Si O2"
_cell_formula_units_Z 32
_cell_length_a 16.206217
_cell_length_b 15.563981
_cell_length_c 9.578234
_cell_angle_alpha 90.000000
_cell_angle_beta 148.619514
_cell_angle_gamma 90.000000
_cell_volume 1258.030361
_symmetry_space_group_name_H-M "P 2/M"
_symmetry_group_IT_number 10
_symmetry_cell_setting 'monoclinic'
loop_
_space_group_symop_operation_xyz
x,y,z
-x,y,-z
-x,-y,-z
x,-y,z
loop_
_atom_site_type_symbol
_atom_site_label
_atom_site_fract_x
_atom_site_fract_y
_atom_site_fract_z
Si Si1 0.468614 0.601011 0.145243
Si Si2 0.674984 0.136777 0.702529
Si Si3 0.824358 0.631413 0.601291
Si Si4 0.304329 0.339772 0.297760
Si Si5 0.732612 0.235904 0.279018
Si Si6 0.074193 0.594128 0.745400
Si Si7 0.762022 0.095696 0.123410
Si Si8 0.392073 0.905746 0.687270
O O1 0.417829 0.500000 0.059167
O O2 0.638962 0.605932 0.310108
O O3 0.539482 0.618273 0.405439
O O4 0.364520 0.685875 0.944148
O O5 0.500000 0.107568 0.500000
O O6 0.668109 0.238726 0.668992
O O7 0.781896 0.111585 0.987718
O O8 0.710489 0.100250 0.601883
O O9 0.826357 0.636438 0.770613
O O10 0.846669 0.721857 0.557508
O O11 0.943944 0.582080 0.677221
O O12 0.224414 0.365412 0.037682
O O13 0.643142 0.170760 0.257352
O O14 0.821152 0.175608 0.297678
O O15 0.125982 0.500000 0.772361
O O16 0.000000 0.636652 0.500000
O O17 0.572858 0.100517 0.891101
O O18 0.815697 0.000000 0.237416
O O19 0.366902 0.000000 0.714522
#
# Coordination Sequence:
#
# PCOD9143628 Si02
#       8
#     4   4   4   4   4   4   4   4
#     4  10  21  35  58  86 121 163 205 243 292 361
#     4  10  19  35  56  85 127 163 196 243 301 373
#     4  10  22  37  62  86 116 162 206 248 304 357
#     4  10  22  40  61  87 116 162 207 249 304 360
#     4  12  21  36  56  92 130 161 203 249 299 360
#     4  11  25  44  64  89 115 147 207 272 311 350
#     4  10  20  31  53  83 120 165 201 237 298 364
#     4  10  18  32  53  84 126 165 201 245 294 355
#
# _framework density 25.436586999999999
#
# number of rings (size 3 to 8) (size 9 to 14) (size 15 to 20)
#    0.750    0.875    1.250    5.625    1.750    4.500 
#    0.000    0.000    0.000    1.500    0.000    5.250 
#    0.000    0.000    0.000    0.000    0.000    0.000 
#
# Total GULP energy -178335.525430 kJ/mol
# GULP energy per Si atom -5572.985170 kJ/mol
# Density = 2.537869 g / cm^3
# Si number density = 25.436587 Si / 1000 Ang^3
#
#
#
# Elastic Constant Matrix: (Units=GPa)
#
#
# Indices 1 2 3 4 5 6 
#
# 1 109.8641 21.9188 58.9593 0.0000 -7.3262 0.0000
# 2 21.9188 171.5435 52.5738 0.0000 -25.4288 0.0000
# 3 58.9593 52.5738 140.9133 0.0000 -56.0086 0.0000
# 4 0.0000 0.0000 0.0000 4.3045 0.0000 -33.7421
# 5 -7.3262 -25.4288 -56.0086 0.0000 44.1840 0.0000
# 6 0.0000 0.0000 0.0000 -33.7421 0.0000 9.2825
#
#
#
# Elastic Compliance Matrix: (Units=1/GPa)
#
#
# Indices 1 2 3 4 5 6 
#
# 1 0.013645 -0.000294 -0.009609 0.000000 -0.010087 0.000000
# 2 -0.000294 0.006629 -0.001720 0.000000 0.001586 0.000000
# 3 -0.009609 -0.001720 0.021630 0.000000 0.024835 0.000000
# 4 0.000000 0.000000 0.000000 -0.008450 0.000000 -0.030715
# 5 -0.010087 0.001586 0.024835 0.000000 0.053355 0.000000
# 6 0.000000 0.000000 0.000000 -0.030715 0.000000 -0.003918
#
#
# Mechanical properties :
#
#
# Convention : Reuss Voigt Hill
#
# Bulk Modulus (GPa) = 53.59256 76.58052 65.08654
# Shear Modulus (GPa) = 44.50185 30.81213 37.65699
#
# Velocity S-wave (km/s) = 4.18727 3.48419 3.85180
# Velocity P-wave (km/s) = 6.67026 6.80867 6.73982
#
# Compressibility (1/GPa) = 0.01865931
#
# Stress axis : x y z
#
# Youngs Moduli (GPa) = 73.28895 150.84737 46.23261
#
# Poissons Ratio (x) = 0.04433 0.44423
# Poissons Ratio (y) = 0.02154 0.07951
# Poissons Ratio (z) = 0.70420 0.25943
#
# Static dielectric constant tensor:
#      x y z
#    x 2.100070 0.000000 0.030680 
#    y 0.000000 2.054130 0.000000 
#    z 0.030680 0.000000 2.095560 
# 
# From -- ./inp_files/35148.got.cif
#   From: 2010.05.17/outbox.cif.g08.bks.cpg/sg10_18_cif.got.tgz:35148.got - 2010.06.03 11:33:40.
