data_PCOD9143144
_publ_section_title
;
Structure prediction by ZEFSAII (Michael W. Deem and Ramdas Pophale) SiO2 
 PCOD9143144
Probable space group: P 2/M
;
_chemical_formula_sum "Si O2"
_cell_formula_units_Z 20
_cell_length_a 10.216625
_cell_length_b 11.747700
_cell_length_c 7.392338
_cell_angle_alpha 90.000000
_cell_angle_beta 88.323402
_cell_angle_gamma 90.000000
_cell_volume 886.862215
_symmetry_space_group_name_H-M "P 2/M"
_symmetry_group_IT_number 10
_symmetry_cell_setting 'monoclinic'
loop_
_space_group_symop_operation_xyz
x,y,z
-x,y,-z
-x,-y,-z
x,-y,z
loop_
_atom_site_type_symbol
_atom_site_label
_atom_site_fract_x
_atom_site_fract_y
_atom_site_fract_z
Si Si1 0.846444 0.879615 0.840942
Si Si2 0.544304 0.626793 0.209190
Si Si3 0.456566 0.873969 0.213444
Si Si4 0.160657 0.620630 0.668032
Si Si5 0.000000 0.192234 0.500000
Si Si6 0.000000 0.687418 0.000000
O O1 0.700262 0.873214 0.773297
O O2 0.951646 0.875411 0.675311
O O3 0.856366 0.000000 0.941345
O O4 0.880269 0.771762 0.959812
O O5 0.498700 0.500000 0.279706
O O6 0.498968 0.750127 0.286548
O O7 0.700048 0.628542 0.238278
O O8 0.500000 0.627437 0.000000
O O9 0.501639 0.000000 0.282317
O O10 0.500000 0.873823 0.000000
O O11 0.158927 0.500000 0.567012
O O12 0.121861 0.726200 0.546125
O O13 0.046825 0.621023 0.823977
#
# Coordination Sequence:
#
# PCOD9143144 Si02
#       6
#     4   4   4   4   2   2
#     4  10  20  35  55  80 112 147 186 232 280 334
#     4   9  17  31  52  79 108 137 175 226 280 329
#     4   9  17  31  52  79 108 137 175 226 280 329
#     4  10  20  35  55  80 112 147 186 232 280 334
#     4  10  22  38  54  76 112 154 190 220 272 340
#     4  10  18  30  54  84 108 138 186 236 288 332
#
# _framework density 22.551417000000001
#
# number of rings (size 3 to 8) (size 9 to 14) (size 15 to 20)
#    0.000    2.400    0.000    3.600    0.000    0.000 
#    0.000   11.000    0.000    4.800    0.000    0.000 
#    0.000    0.000    0.000    0.000    0.000    0.000 
#
# Total GULP energy -111409.393069 kJ/mol
# GULP energy per Si atom -5570.469653 kJ/mol
# Density = 2.250009 g / cm^3
# Si number density = 22.551417 Si / 1000 Ang^3
#
#
#
# Elastic Constant Matrix: (Units=GPa)
#
#
# Indices 1 2 3 4 5 6 
#
# 1 76.6141 39.0864 -4.9453 0.0000 12.6819 0.0000
# 2 39.0864 221.3637 8.2009 0.0000 6.7266 0.0000
# 3 -4.9453 8.2009 46.6984 0.0000 5.4129 0.0000
# 4 0.0000 0.0000 0.0000 -79.4364 0.0000 85.4348
# 5 12.6819 6.7266 5.4129 0.0000 24.8389 0.0000
# 6 0.0000 0.0000 0.0000 85.4348 0.0000 -132.9091
#
#
#
# Elastic Compliance Matrix: (Units=1/GPa)
#
#
# Indices 1 2 3 4 5 6 
#
# 1 0.015964 -0.002688 0.003101 0.000000 -0.008099 0.000000
# 2 -0.002688 0.005028 -0.001199 0.000000 0.000272 0.000000
# 3 0.003101 -0.001199 0.022672 0.000000 -0.006199 0.000000
# 4 0.000000 0.000000 0.000000 -0.040786 0.000000 -0.026217
# 5 -0.008099 0.000272 -0.006199 0.000000 0.045672 0.000000
# 6 0.000000 0.000000 0.000000 -0.026217 0.000000 -0.024377
#
#
# Mechanical properties :
#
#
# Convention : Reuss Voigt Hill
#
# Bulk Modulus (GPa) = 23.75673 47.70667 35.73170
# Shear Modulus (GPa) = 125.70545 -17.34570 54.17987
#
# Velocity S-wave (km/s) = 7.47414 -2.77639 4.90685
# Velocity P-wave (km/s) = 9.22177 3.30496 6.92690
#
# Compressibility (1/GPa) = 0.04209333
#
# Stress axis : x y z
#
# Youngs Moduli (GPa) = 62.63941 198.87929 44.10803
#
# Poissons Ratio (x) = 0.53452 -0.13680
# Poissons Ratio (y) = 0.16835 0.05289
# Poissons Ratio (z) = -0.19427 0.23849
#
# Static dielectric constant tensor:
#      x y z
#    x 1.788200 0.000000 0.018940 
#    y 0.000000 1.906030 0.000000 
#    z 0.018940 0.000000 1.790750 
# 
# From -- ./inp_files/17792.got.cif
#   From: 2010.05.17/outbox.cif.g08.bks.cpg/sg10_9_cif.got.tgz:17792.got - 2010.06.03 11:33:40.
