data_PCOD9143574
_publ_section_title
;
Structure prediction by ZEFSAII (Michael W. Deem and Ramdas Pophale) SiO2 
 PCOD9143574
Probable space group: P 2/M
;
_chemical_formula_sum "Si O2"
_cell_formula_units_Z 28
_cell_length_a 13.938499
_cell_length_b 7.354412
_cell_length_c 15.213208
_cell_angle_alpha 90.000000
_cell_angle_beta 52.734867
_cell_angle_gamma 90.000000
_cell_volume 1241.114012
_symmetry_space_group_name_H-M "P 2/M"
_symmetry_group_IT_number 10
_symmetry_cell_setting 'monoclinic'
loop_
_space_group_symop_operation_xyz
x,y,z
-x,y,-z
-x,-y,-z
x,-y,z
loop_
_atom_site_type_symbol
_atom_site_label
_atom_site_fract_x
_atom_site_fract_y
_atom_site_fract_z
Si Si1 0.141327 0.719348 0.661637
Si Si2 0.015952 0.721915 0.091200
Si Si3 0.506768 0.278075 0.767596
Si Si4 0.718946 0.278097 0.997402
Si Si5 0.411790 0.722252 0.470397
Si Si6 0.321036 0.706952 0.173784
Si Si7 0.055181 0.211948 0.378801
O O1 0.145136 0.500000 0.661257
O O2 0.275135 0.782328 0.564371
O O3 0.089435 0.779981 0.784306
O O4 0.044573 0.770422 0.641260
O O5 0.015816 0.500000 0.090812
O O6 0.145138 0.779607 0.057864
O O7 0.000000 0.781180 0.000000
O O8 0.511081 0.500000 0.762683
O O9 0.374534 0.226584 0.874967
O O10 0.542230 0.217728 0.650660
O O11 0.600678 0.214862 0.790236
O O12 0.721155 0.500000 0.992541
O O13 0.674675 0.212808 0.926368
O O14 0.500000 0.778201 0.500000
O O15 0.411271 0.500000 0.470076
O O16 0.365679 0.500000 0.139464
O O17 0.181157 0.703406 0.279413
O O18 0.000000 0.286193 0.500000
O O19 0.082563 0.000000 0.378012
#
# Coordination Sequence:
#
# PCOD9143574 Si02
#       7
#     4   4   4   4   4   4   4
#     4  10  19  34  54  78 106 136 174 214 255 304
#     4   9  17  27  45  75 105 135 170 212 257 299
#     4   9  17  27  44  71 103 136 167 207 253 301
#     4   9  16  27  45  72 103 133 166 205 252 303
#     4   9  18  29  44  71 106 138 165 204 257 303
#     4  10  18  32  52  77 102 129 171 213 257 306
#     4  11  23  36  52  75 104 138 173 212 261 311
#
# _framework density 22.560376999999999
#
# number of rings (size 3 to 8) (size 9 to 14) (size 15 to 20)
#    0.000    2.429    1.429    1.714    2.000    4.000 
#    0.000    0.000    0.000    2.571    0.000    0.000 
#    0.000    0.000    0.000    0.000    0.000    0.000 
#
# Total GULP energy -156523.994092 kJ/mol
# GULP energy per Si atom -5590.142646 kJ/mol
# Density = 2.250903 g / cm^3
# Si number density = 22.560377 Si / 1000 Ang^3
#
#
#
# Elastic Constant Matrix: (Units=GPa)
#
#
# Indices 1 2 3 4 5 6 
#
# 1 81.1841 -1.6209 63.3708 0.0000 10.0368 0.0000
# 2 -1.6209 85.3156 3.5804 0.0000 1.6446 0.0000
# 3 63.3708 3.5804 214.5362 0.0000 12.2415 0.0000
# 4 0.0000 0.0000 0.0000 -20.9634 0.0000 13.5131
# 5 10.0368 1.6446 12.2415 0.0000 46.4626 0.0000
# 6 0.0000 0.0000 0.0000 13.5131 0.0000 -9.7340
#
#
#
# Elastic Compliance Matrix: (Units=1/GPa)
#
#
# Indices 1 2 3 4 5 6 
#
# 1 0.016269 0.000550 -0.004684 0.000000 -0.002300 0.000000
# 2 0.000550 0.011754 -0.000333 0.000000 -0.000447 0.000000
# 3 -0.004684 -0.000333 0.006083 0.000000 -0.000579 0.000000
# 4 0.000000 0.000000 0.000000 -0.453745 0.000000 -0.629908
# 5 -0.002300 -0.000447 -0.000579 0.000000 0.022188 0.000000
# 6 0.000000 0.000000 0.000000 -0.629908 0.000000 -0.977199
#
#
# Mechanical properties :
#
#
# Convention : Reuss Voigt Hill
#
# Bulk Modulus (GPa) = 39.72502 56.85518 48.29010
# Shear Modulus (GPa) = -3.68372 24.20006 10.25817
#
# Velocity S-wave (km/s) = -1.27921 3.27873 2.13468
# Velocity P-wave (km/s) = 3.93252 6.29202 5.24663
#
# Compressibility (1/GPa) = 0.02517305
#
# Stress axis : x y z
#
# Youngs Moduli (GPa) = 61.46703 85.07573 164.38509
#
# Poissons Ratio (x) = -0.04679 0.76990
# Poissons Ratio (y) = -0.03381 0.05476
# Poissons Ratio (z) = 0.28788 0.02834
#
# Static dielectric constant tensor:
#      x y z
#    x 1.767090 0.000000 0.005560 
#    y 0.000000 1.864150 0.000000 
#    z 0.005560 0.000000 1.796720 
# 
# From -- ./inp_files/49129.got.cif
#   From: 2010.05.17/outbox.cif.g08.bks.cpg/sg10_25_cif.got.tgz:49129.got - 2010.06.03 11:33:40.
