data_PCOD9143994
_publ_section_title
;
Structure prediction by ZEFSAII (Michael W. Deem and Ramdas Pophale) SiO2 
 PCOD9143994
Probable space group: P 2/M
;
_chemical_formula_sum "Si O2"
_cell_formula_units_Z 24
_cell_length_a 14.805472
_cell_length_b 16.180827
_cell_length_c 8.476082
_cell_angle_alpha 90.000000
_cell_angle_beta 36.860184
_cell_angle_gamma 90.000000
_cell_volume 1218.067017
_symmetry_space_group_name_H-M "P 2/M"
_symmetry_group_IT_number 10
_symmetry_cell_setting 'monoclinic'
loop_
_space_group_symop_operation_xyz
x,y,z
-x,y,-z
-x,-y,-z
x,-y,z
loop_
_atom_site_type_symbol
_atom_site_label
_atom_site_fract_x
_atom_site_fract_y
_atom_site_fract_z
Si Si1 0.876059 0.232681 0.430621
Si Si2 0.667893 0.199110 0.418343
Si Si3 0.089831 0.908273 0.042153
Si Si4 0.987000 0.410828 0.708241
Si Si5 0.652342 0.362821 0.223077
Si Si6 0.597820 0.749429 0.020322
O O1 0.780926 0.218506 0.404488
O O2 0.008510 0.165580 0.249486
O O3 0.935703 0.326425 0.343468
O O4 0.760208 0.220535 0.736541
O O5 0.667979 0.278717 0.304860
O O6 0.503409 0.191718 0.726800
O O7 0.740503 0.121037 0.230870
O O8 0.081658 0.000000 0.123339
O O9 0.000000 0.911742 0.000000
O O10 0.050691 0.500000 0.672450
O O11 0.000000 0.408533 0.500000
O O12 0.812036 0.406933 0.002655
O O13 0.500000 0.404267 0.500000
O O14 0.621988 0.333228 0.087074
O O15 0.500000 0.734210 0.000000
#
# Coordination Sequence:
#
# PCOD9143994 Si02
#       6
#     4   4   4   4   4   4
#     4  10  18  34  55  79 110 141 182 222 264 316
#     4   9  18  32  55  80 107 142 178 216 270 319
#     4   9  17  30  53  83 112 141 175 218 270 321
#     4  11  22  35  55  81 109 145 181 222 272 317
#     4  10  19  34  55  78 105 139 178 219 273 314
#     4   9  18  32  54  78 102 145 182 217 264 321
#
# _framework density 19.70335
#
# number of rings (size 3 to 8) (size 9 to 14) (size 15 to 20)
#    0.000    2.333    3.333    0.000    0.000    0.333 
#    0.000    2.500    0.000   25.000    0.000    0.000 
#    0.000    0.000    0.000    0.000    0.000    0.000 
#
# Total GULP energy -133761.616282 kJ/mol
# GULP energy per Si atom -5573.400678 kJ/mol
# Density = 1.965850 g / cm^3
# Si number density = 19.703350 Si / 1000 Ang^3
#
#
#
# Elastic Constant Matrix: (Units=GPa)
#
#
# Indices 1 2 3 4 5 6 
#
# 1 24.9971 11.3382 20.6322 0.0000 -2.8892 0.0000
# 2 11.3382 131.9905 57.2575 0.0000 -12.5097 0.0000
# 3 20.6322 57.2575 137.0579 0.0000 -16.9756 0.0000
# 4 0.0000 0.0000 0.0000 -2.2130 0.0000 -6.0087
# 5 -2.8892 -12.5097 -16.9756 0.0000 25.8495 0.0000
# 6 0.0000 0.0000 0.0000 -6.0087 0.0000 11.7921
#
#
#
# Elastic Compliance Matrix: (Units=1/GPa)
#
#
# Indices 1 2 3 4 5 6 
#
# 1 0.045827 -0.001134 -0.006377 0.000000 0.000385 0.000000
# 2 -0.001134 0.009388 -0.003488 0.000000 0.002126 0.000000
# 3 -0.006377 -0.003488 0.010250 0.000000 0.004330 0.000000
# 4 0.000000 0.000000 0.000000 -0.189579 0.000000 -0.096602
# 5 0.000385 0.002126 0.004330 0.000000 0.042601 0.000000
# 6 0.000000 0.000000 0.000000 -0.096602 0.000000 0.035579
#
#
# Mechanical properties :
#
#
# Convention : Reuss Voigt Hill
#
# Bulk Modulus (GPa) = 23.00590 52.50012 37.75301
# Shear Modulus (GPa) = -529.25003 20.74023 -254.25490
#
# Velocity S-wave (km/s) = -16.40708 3.24794 -11.37197
# Velocity P-wave (km/s) = 18.63388 6.38503 12.37847
#
# Compressibility (1/GPa) = 0.04346712
#
# Stress axis : x y z
#
# Youngs Moduli (GPa) = 21.82113 106.51531 97.56355
#
# Poissons Ratio (x) = 0.12075 0.62220
# Poissons Ratio (y) = 0.02474 0.34031
# Poissons Ratio (z) = 0.13916 0.37154
#
# Static dielectric constant tensor:
#      x y z
#    x 1.712240 0.000000 -0.006400 
#    y 0.000000 1.689070 0.000000 
#    z -0.006400 0.000000 1.743620 
# 
# From -- ./inp_files/32962.got.cif
#   From: 2010.05.17/outbox.cif.g08.bks.cpg/sg10_17_cif.got.tgz:32962.got - 2010.06.03 11:33:40.
