data_PCOD9143123
_publ_section_title
;
Structure prediction by ZEFSAII (Michael W. Deem and Ramdas Pophale) SiO2 
 PCOD9143123
Probable space group: P 2/M
;
_chemical_formula_sum "Si O2"
_cell_formula_units_Z 32
_cell_length_a 16.944661
_cell_length_b 9.278562
_cell_length_c 10.895974
_cell_angle_alpha 90.000000
_cell_angle_beta 86.835188
_cell_angle_gamma 90.000000
_cell_volume 1710.475078
_symmetry_space_group_name_H-M "P 2/M"
_symmetry_group_IT_number 10
_symmetry_cell_setting 'monoclinic'
loop_
_space_group_symop_operation_xyz
x,y,z
-x,y,-z
-x,-y,-z
x,-y,z
loop_
_atom_site_type_symbol
_atom_site_label
_atom_site_fract_x
_atom_site_fract_y
_atom_site_fract_z
Si Si1 0.370874 0.166753 0.078234
Si Si2 0.608025 0.329639 0.165473
Si Si3 0.909933 0.172043 0.363728
Si Si4 0.240825 0.329039 0.700248
Si Si5 0.090968 0.826828 0.346279
Si Si6 0.237829 0.666591 0.223848
Si Si7 0.477798 0.833552 0.315606
Si Si8 0.654156 0.333252 0.540156
O O1 0.289192 0.243372 0.122848
O O2 0.426180 0.170934 0.193831
O O3 0.359638 0.000000 0.045525
O O4 0.407637 0.252135 0.961522
O O5 0.592894 0.500000 0.160034
O O6 0.699749 0.306001 0.192359
O O7 0.554012 0.260492 0.275958
O O8 0.841978 0.248528 0.292818
O O9 0.898613 0.207169 0.509524
O O10 0.000156 0.209993 0.322703
O O11 0.902705 0.000000 0.353524
O O12 0.226879 0.500000 0.688938
O O13 0.291609 0.282529 0.576571
O O14 0.155190 0.741448 0.262873
O O15 0.101146 0.000000 0.332137
O O16 0.228772 0.500000 0.187238
O O17 0.290075 0.668240 0.344289
O O18 0.421476 0.763661 0.422871
O O19 0.496728 0.000000 0.339994
O O20 0.630468 0.500000 0.519149
#
# Coordination Sequence:
#
# PCOD9143123 Si02
#       8
#     4   4   4   4   4   4   4   4
#     4  10  21  37  56  77 103 133 171 221 266 305
#     4  11  23  37  54  75 102 138 176 215 261 310
#     4   9  18  31  50  76 108 143 174 207 250 304
#     4  10  21  36  52  74 107 142 175 212 254 307
#     4   9  17  30  49  78 111 139 170 209 255 302
#     4  10  18  30  53  81 106 136 173 212 257 308
#     4  10  21  36  55  78 102 130 170 220 265 306
#     4   9  18  33  51  74 105 138 170 207 256 308
#
# _framework density 18.708252000000002
#
# number of rings (size 3 to 8) (size 9 to 14) (size 15 to 20)
#    0.000    2.250    1.250    2.625    0.000    6.000 
#    0.000    3.750    0.000    0.750    0.000    5.250 
#    0.000    0.000    0.000    0.000    0.000    0.000 
#
# Total GULP energy -178686.585015 kJ/mol
# GULP energy per Si atom -5583.955782 kJ/mol
# Density = 1.866567 g / cm^3
# Si number density = 18.708252 Si / 1000 Ang^3
#
#
#
# Elastic Constant Matrix: (Units=GPa)
#
#
# Indices 1 2 3 4 5 6 
#
# 1 115.1960 58.2797 7.8576 0.0000 -9.7206 0.0000
# 2 58.2797 88.5017 15.7488 0.0000 -1.9825 0.0000
# 3 7.8576 15.7488 33.2030 0.0000 -3.9063 0.0000
# 4 0.0000 0.0000 0.0000 1.9114 0.0000 -1.4013
# 5 -9.7206 -1.9825 -3.9063 0.0000 18.1626 0.0000
# 6 0.0000 0.0000 0.0000 -1.4013 0.0000 35.2808
#
#
#
# Elastic Compliance Matrix: (Units=1/GPa)
#
#
# Indices 1 2 3 4 5 6 
#
# 1 0.013826 -0.009297 0.001938 0.000000 0.006802 0.000000
# 2 -0.009297 0.018593 -0.007146 0.000000 -0.004483 0.000000
# 3 0.001938 -0.007146 0.033938 0.000000 0.007556 0.000000
# 4 0.000000 0.000000 0.000000 0.538859 0.000000 0.021402
# 5 0.006802 -0.004483 0.007556 0.000000 0.059834 0.000000
# 6 0.000000 0.000000 0.000000 0.021402 0.000000 0.029194
#
#
# Mechanical properties :
#
#
# Convention : Reuss Voigt Hill
#
# Bulk Modulus (GPa) = 26.77664 44.51921 35.64792
# Shear Modulus (GPa) = 6.79622 21.40529 14.10075
#
# Velocity S-wave (km/s) = 1.90804 3.38622 2.74837
# Velocity P-wave (km/s) = 4.38155 6.25594 5.40069
#
# Compressibility (1/GPa) = 0.03734599
#
# Stress axis : x y z
#
# Youngs Moduli (GPa) = 72.32592 53.78411 29.46581
#
# Poissons Ratio (x) = 0.50005 -0.05711
# Poissons Ratio (y) = 0.67244 0.21057
# Poissons Ratio (z) = -0.14017 0.38435
#
# Static dielectric constant tensor:
#      x y z
#    x 1.642410 0.000000 0.020450 
#    y 0.000000 1.626590 0.000000 
#    z 0.020450 0.000000 1.652680 
# 
# From -- ./inp_files/49768.got.cif
#   From: 2010.05.17/outbox.cif.g08.bks.cpg/sg10_25_cif.got.tgz:49768.got - 2010.06.03 11:33:40.
