data_PCOD9143886
_publ_section_title
;
Structure prediction by ZEFSAII (Michael W. Deem and Ramdas Pophale) SiO2 
 PCOD9143886
Probable space group: P 2/M
;
_chemical_formula_sum "Si O2"
_cell_formula_units_Z 20
_cell_length_a 11.642358
_cell_length_b 7.700957
_cell_length_c 16.123224
_cell_angle_alpha 90.000000
_cell_angle_beta 134.556388
_cell_angle_gamma 90.000000
_cell_volume 1030.052019
_symmetry_space_group_name_H-M "P 2/M"
_symmetry_group_IT_number 10
_symmetry_cell_setting 'monoclinic'
loop_
_space_group_symop_operation_xyz
x,y,z
-x,y,-z
-x,-y,-z
x,-y,z
loop_
_atom_site_type_symbol
_atom_site_label
_atom_site_fract_x
_atom_site_fract_y
_atom_site_fract_z
Si Si1 0.503765 0.202266 0.768571
Si Si2 0.903303 0.303558 0.746003
Si Si3 0.264807 0.500000 0.672931
Si Si4 0.437203 0.803237 0.385438
Si Si5 0.928350 0.500000 0.596645
Si Si6 0.137189 0.708611 0.002115
O O1 0.375977 0.331465 0.744559
O O2 0.516143 0.268386 0.679503
O O3 0.454545 0.000000 0.746453
O O4 0.686750 0.214397 0.894095
O O5 0.869206 0.500000 0.761715
O O6 0.754016 0.193023 0.700461
O O7 0.909158 0.336171 0.650276
O O8 0.064838 0.248961 0.874742
O O9 0.107690 0.500000 0.651040
O O10 0.193455 0.500000 0.542301
O O11 0.500000 0.711137 0.500000
O O12 0.502495 0.000000 0.418249
O O13 0.156187 0.500000 0.018955
O O14 0.000000 0.761293 0.000000
#
# Coordination Sequence:
#
# PCOD9143886 Si02
#       6
#     4   4   2   4   2   4
#     4  11  23  36  58  90 118 153 193 233 290 348
#     4   9  19  34  55  81 109 142 193 228 278 343
#     4  11  22  42  63  80 116 152 198 247 284 337
#     4  10  20  32  49  82 120 147 179 233 292 347
#     4   9  22  40  61  86 104 156 202 235 296 337
#     4  10  18  33  55  84 117 153 183 225 284 347
#
# _framework density 19.416495000000001
#
# number of rings (size 3 to 8) (size 9 to 14) (size 15 to 20)
#    0.600    1.400    3.000    1.200    1.400    1.600 
#    0.000    5.000    0.000    1.200    0.000    0.000 
#    0.000    0.000    0.000    0.000    0.000    0.000 
#
# Total GULP energy -111410.856072 kJ/mol
# GULP energy per Si atom -5570.542804 kJ/mol
# Density = 1.937230 g / cm^3
# Si number density = 19.416495 Si / 1000 Ang^3
#
#
#
# Elastic Constant Matrix: (Units=GPa)
#
#
# Indices 1 2 3 4 5 6 
#
# 1 55.3965 17.7923 -5.3186 0.0000 18.3431 0.0000
# 2 17.7923 69.7309 10.4807 0.0000 16.4686 0.0000
# 3 -5.3186 10.4807 57.6573 0.0000 15.0585 0.0000
# 4 0.0000 0.0000 0.0000 25.4612 0.0000 5.6018
# 5 18.3431 16.4686 15.0585 0.0000 31.9804 0.0000
# 6 0.0000 0.0000 0.0000 5.6018 0.0000 9.2940
#
#
#
# Elastic Compliance Matrix: (Units=1/GPa)
#
#
# Indices 1 2 3 4 5 6 
#
# 1 0.025209 -0.003754 0.007160 0.000000 -0.015897 0.000000
# 2 -0.003754 0.016925 -0.001948 0.000000 -0.005645 0.000000
# 3 0.007160 -0.001948 0.021857 0.000000 -0.013395 0.000000
# 4 0.000000 0.000000 0.000000 0.045280 0.000000 -0.027292
# 5 -0.015897 -0.005645 -0.013395 0.000000 0.049601 0.000000
# 6 0.000000 0.000000 0.000000 -0.027292 0.000000 0.124046
#
#
# Mechanical properties :
#
#
# Convention : Reuss Voigt Hill
#
# Bulk Modulus (GPa) = 14.94659 25.41040 20.17849
# Shear Modulus (GPa) = 16.53962 24.00246 20.27104
#
# Velocity S-wave (km/s) = 2.92178 3.51976 3.23462
# Velocity P-wave (km/s) = 4.37001 5.44369 4.93613
#
# Compressibility (1/GPa) = 0.06690491
#
# Stress axis : x y z
#
# Youngs Moduli (GPa) = 39.66900 59.08527 45.75229
#
# Poissons Ratio (x) = 0.22179 -0.32757
# Poissons Ratio (y) = 0.14891 0.08915
# Poissons Ratio (z) = -0.28401 0.11512
#
# Static dielectric constant tensor:
#      x y z
#    x 1.654520 0.000000 -0.034450 
#    y 0.000000 1.737140 0.000000 
#    z -0.034450 0.000000 1.742540 
# 
# From -- ./inp_files/76079.got.cif
#   From: 2010.05.17/outbox.cif.g08.bks.cpg/sg10_39_cif.got.tgz:76079.got - 2010.06.03 11:33:40.
