data_PCOD9143226
_publ_section_title
;
Structure prediction by ZEFSAII (Michael W. Deem and Ramdas Pophale) SiO2 
 PCOD9143226
Probable space group: P 2/M
;
_chemical_formula_sum "Si O2"
_cell_formula_units_Z 24
_cell_length_a 22.136566
_cell_length_b 8.826496
_cell_length_c 12.402906
_cell_angle_alpha 90.000000
_cell_angle_beta 141.499687
_cell_angle_gamma 90.000000
_cell_volume 1508.601660
_symmetry_space_group_name_H-M "P 2/M"
_symmetry_group_IT_number 10
_symmetry_cell_setting 'monoclinic'
loop_
_space_group_symop_operation_xyz
x,y,z
-x,y,-z
-x,-y,-z
x,-y,z
loop_
_atom_site_type_symbol
_atom_site_label
_atom_site_fract_x
_atom_site_fract_y
_atom_site_fract_z
Si Si1 0.724650 0.818123 0.755193
Si Si2 0.660875 0.181771 0.908139
Si Si3 0.532630 0.678548 0.421260
Si Si4 0.148046 0.817410 0.706623
Si Si5 0.991634 0.318978 0.653435
Si Si6 0.947054 0.817713 0.038123
O O1 0.703986 0.772541 0.850859
O O2 0.639034 0.750436 0.562732
O O3 0.718028 0.000000 0.741437
O O4 0.833486 0.773769 0.876067
O O5 0.554364 0.251954 0.770116
O O6 0.651725 0.000000 0.893996
O O7 0.741586 0.222568 0.109097
O O8 0.500000 0.707764 0.500000
O O9 0.537868 0.500000 0.412139
O O10 0.079104 0.755294 0.706080
O O11 0.105352 0.744293 0.538922
O O12 0.139172 0.000000 0.690622
O O13 0.995958 0.500000 0.650142
O O14 0.003791 0.264827 0.792439
O O15 0.951108 0.000000 0.062158
O O16 0.000000 0.784592 0.000000
#
# Coordination Sequence:
#
# PCOD9143226 Si02
#       6
#     4   4   4   4   4   4
#     4   9  16  29  45  64  90 121 157 195 232 272
#     4   9  16  27  45  67  91 122 155 190 231 276
#     4   9  17  26  39  63  93 123 151 184 230 284
#     4  10  18  31  50  69  94 127 163 195 233 283
#     4  11  21  31  45  69  99 127 157 195 243 286
#     4  10  20  35  53  70  91 126 169 204 234 274
#
# _framework density 15.908771
#
# number of rings (size 3 to 8) (size 9 to 14) (size 15 to 20)
#    0.000    2.333    1.667    3.500    0.000    4.333 
#    0.000    0.000    0.000    0.000    0.000    1.167 
#    0.000    9.333    0.000    0.000    0.000    0.000 
#
# Total GULP energy -133779.512701 kJ/mol
# GULP energy per Si atom -5574.146363 kJ/mol
# Density = 1.587256 g / cm^3
# Si number density = 15.908771 Si / 1000 Ang^3
#
#
#
# Elastic Constant Matrix: (Units=GPa)
#
#
# Indices 1 2 3 4 5 6 
#
# 1 54.0191 24.7679 51.9331 0.0000 3.3755 0.0000
# 2 24.7679 37.8677 53.0468 0.0000 -0.5534 0.0000
# 3 51.9331 53.0468 173.8597 0.0000 17.4143 0.0000
# 4 0.0000 0.0000 0.0000 -4.4016 0.0000 -9.2611
# 5 3.3755 -0.5534 17.4143 0.0000 17.7171 0.0000
# 6 0.0000 0.0000 0.0000 -9.2611 0.0000 3.5376
#
#
#
# Elastic Compliance Matrix: (Units=1/GPa)
#
#
# Indices 1 2 3 4 5 6 
#
# 1 0.028727 -0.012139 -0.004760 0.000000 -0.001174 0.000000
# 2 -0.012139 0.056339 -0.015497 0.000000 0.019305 0.000000
# 3 -0.004760 -0.015497 0.013155 0.000000 -0.012507 0.000000
# 4 0.000000 0.000000 0.000000 -0.034909 0.000000 -0.091387
# 5 -0.001174 0.019305 -0.012507 0.000000 0.069563 0.000000
# 6 0.000000 0.000000 0.000000 -0.091387 0.000000 0.043434
#
#
# Mechanical properties :
#
#
# Convention : Reuss Voigt Hill
#
# Bulk Modulus (GPa) = 29.91448 58.36025 44.13736
# Shear Modulus (GPa) = 19.82217 12.43721 16.12969
#
# Velocity S-wave (km/s) = 3.53369 2.79907 3.18761
# Velocity P-wave (km/s) = 5.95767 6.87098 6.43056
#
# Compressibility (1/GPa) = 0.03342863
#
# Stress axis : x y z
#
# Youngs Moduli (GPa) = 34.81064 17.74976 76.01870
#
# Poissons Ratio (x) = 0.21546 0.36182
# Poissons Ratio (y) = 0.42256 1.17809
# Poissons Ratio (z) = 0.16568 0.27507
#
# Static dielectric constant tensor:
#      x y z
#    x 1.502400 0.000000 0.010970 
#    y 0.000000 1.527600 0.000000 
#    z 0.010970 0.000000 1.554580 
# 
# From -- ./inp_files/48648.got.cif
#   From: 2010.05.17/outbox.cif.g08.bks.cpg/sg10_25_cif.got.tgz:48648.got - 2010.06.03 11:33:40.
