data_PCOD9143675
_publ_section_title
;
Structure prediction by ZEFSAII (Michael W. Deem and Ramdas Pophale) SiO2 
 PCOD9143675
Probable space group: P 2/M
;
_chemical_formula_sum "Si O2"
_cell_formula_units_Z 26
_cell_length_a 20.261898
_cell_length_b 9.041865
_cell_length_c 14.356817
_cell_angle_alpha 90.000000
_cell_angle_beta 32.569681
_cell_angle_gamma 90.000000
_cell_volume 1415.926748
_symmetry_space_group_name_H-M "P 2/M"
_symmetry_group_IT_number 10
_symmetry_cell_setting 'monoclinic'
loop_
_space_group_symop_operation_xyz
x,y,z
-x,y,-z
-x,-y,-z
x,-y,z
loop_
_atom_site_type_symbol
_atom_site_label
_atom_site_fract_x
_atom_site_fract_y
_atom_site_fract_z
Si Si1 0.751434 0.333411 0.198489
Si Si2 0.172881 0.678859 0.249626
Si Si3 0.927912 0.820150 0.455747
Si Si4 0.607260 0.177045 0.526719
Si Si5 0.000000 0.251449 0.000000
Si Si6 0.164151 0.830423 0.633518
Si Si7 0.349391 0.324161 0.876270
O O1 0.703127 0.500000 0.266864
O O2 0.662979 0.226510 0.361534
O O3 0.744466 0.295027 0.097774
O O4 0.887369 0.329872 0.080607
O O5 0.162851 0.500000 0.270676
O O6 0.170051 0.759162 0.352747
O O7 0.054228 0.743819 0.337258
O O8 0.288116 0.715242 0.047237
O O9 0.892834 0.769592 0.393363
O O10 0.938743 0.000000 0.448058
O O11 0.708925 0.236069 0.479700
O O12 0.475007 0.242258 0.704537
O O13 0.603613 0.000000 0.534284
O O14 0.929850 0.171033 0.167967
O O15 0.192023 0.000000 0.577632
O O16 0.371734 0.500000 0.850889
#
# Coordination Sequence:
#
# PCOD9143675 Si02
#       7
#     4   4   4   4   2   4   4
#     4  10  20  34  52  76 107 138 169 209 256 305
#     4  10  20  35  54  78 106 134 169 213 257 304
#     4  10  19  34  55  79 105 134 168 208 259 309
#     4  10  21  36  53  75 103 137 176 213 252 302
#     4  10  18  32  54  80 105 136 173 206 249 306
#     4   9  19  34  52  76 107 137 167 211 260 302
#     4  10  21  36  53  74 103 138 173 212 256 301
#
# _framework density 18.362532000000002
#
# number of rings (size 3 to 8) (size 9 to 14) (size 15 to 20)
#    0.000    2.154    0.000    4.154    0.000    4.308 
#    0.000    9.231    0.000    4.615    0.000    0.000 
#    0.000    0.000    0.000    0.000    0.000    0.000 
#
# Total GULP energy -144863.218500 kJ/mol
# GULP energy per Si atom -5571.662250 kJ/mol
# Density = 1.832074 g / cm^3
# Si number density = 18.362532 Si / 1000 Ang^3
#
#
#
# Elastic Constant Matrix: (Units=GPa)
#
#
# Indices 1 2 3 4 5 6 
#
# 1 94.2293 12.3587 31.8104 0.0000 16.0742 0.0000
# 2 12.3587 35.3513 22.9305 0.0000 0.8732 0.0000
# 3 31.8104 22.9305 97.6203 0.0000 1.6372 0.0000
# 4 0.0000 0.0000 0.0000 18.3469 0.0000 -0.3690
# 5 16.0742 0.8732 1.6372 0.0000 24.0819 0.0000
# 6 0.0000 0.0000 0.0000 -0.3690 0.0000 12.8304
#
#
#
# Elastic Compliance Matrix: (Units=1/GPa)
#
#
# Indices 1 2 3 4 5 6 
#
# 1 0.013675 -0.002087 -0.003819 0.000000 -0.008793 0.000000
# 2 -0.002087 0.033702 -0.007247 0.000000 0.000664 0.000000
# 3 -0.003819 -0.007247 0.013158 0.000000 0.001917 0.000000
# 4 0.000000 0.000000 0.000000 0.054537 0.000000 0.001568
# 5 -0.008793 0.000664 0.001917 0.000000 0.047239 0.000000
# 6 0.000000 0.000000 0.000000 0.001568 0.000000 0.077985
#
#
# Mechanical properties :
#
#
# Convention : Reuss Voigt Hill
#
# Bulk Modulus (GPa) = 29.21448 40.15556 34.68502
# Shear Modulus (GPa) = 17.98487 21.72527 19.85507
#
# Velocity S-wave (km/s) = 3.13298 3.44340 3.29185
# Velocity P-wave (km/s) = 5.38812 6.14207 5.77741
#
# Compressibility (1/GPa) = 0.03422960
#
# Stress axis : x y z
#
# Youngs Moduli (GPa) = 73.12587 29.67217 75.99762
#
# Poissons Ratio (x) = 0.06192 0.29020
# Poissons Ratio (y) = 0.15259 0.55079
# Poissons Ratio (z) = 0.27923 0.21505
#
# Static dielectric constant tensor:
#      x y z
#    x 1.671900 0.000000 0.005800 
#    y 0.000000 1.633280 0.000000 
#    z 0.005800 0.000000 1.621300 
# 
# From -- ./inp_files/69885.got.cif
#   From: 2010.05.17/outbox.cif.g08.bks.cpg/sg10_35_cif.got.tgz:69885.got - 2010.06.03 11:33:40.
