data_PCOD9143523
_publ_section_title
;
Structure prediction by ZEFSAII (Michael W. Deem and Ramdas Pophale) SiO2 
 PCOD9143523
Probable space group: P 2/M
;
_chemical_formula_sum "Si O2"
_cell_formula_units_Z 32
_cell_length_a 20.364134
_cell_length_b 7.501471
_cell_length_c 14.796165
_cell_angle_alpha 90.000000
_cell_angle_beta 46.228076
_cell_angle_gamma 90.000000
_cell_volume 1632.144001
_symmetry_space_group_name_H-M "P 2/M"
_symmetry_group_IT_number 10
_symmetry_cell_setting 'monoclinic'
loop_
_space_group_symop_operation_xyz
x,y,z
-x,y,-z
-x,-y,-z
x,-y,z
loop_
_atom_site_type_symbol
_atom_site_label
_atom_site_fract_x
_atom_site_fract_y
_atom_site_fract_z
Si Si1 0.168077 0.785497 0.518332
Si Si2 0.020218 0.217846 0.377449
Si Si3 0.676171 0.296653 0.503820
Si Si4 0.534294 0.201549 0.787060
Si Si5 0.601911 0.786147 0.382897
Si Si6 0.314575 0.782111 0.228133
Si Si7 0.778331 0.782553 0.865915
Si Si8 0.644543 0.218731 0.142110
O O1 0.222401 0.731402 0.555897
O O2 0.232186 0.728685 0.373424
O O3 0.065421 0.723578 0.601194
O O4 0.166561 0.000000 0.517573
O O5 0.119159 0.277822 0.250846
O O6 0.000000 0.270265 0.500000
O O7 0.021780 0.000000 0.375317
O O8 0.650214 0.500000 0.543491
O O9 0.606783 0.192315 0.635217
O O10 0.662575 0.253951 0.412277
O O11 0.591670 0.281414 0.815457
O O12 0.443080 0.280664 0.832121
O O13 0.509717 0.000000 0.838720
O O14 0.500000 0.718910 0.500000
O O15 0.636632 0.720866 0.252966
O O16 0.595918 0.000000 0.381917
O O17 0.287867 0.727224 0.153205
O O18 0.317737 0.000000 0.226710
O O19 0.780002 0.000000 0.862329
O O20 0.734299 0.728436 0.002382
O O21 0.641179 0.000000 0.146609
#
# Coordination Sequence:
#
# PCOD9143523 Si02
#       8
#     4   4   4   4   4   4   4   4
#     4   9  16  28  47  71  98 128 155 184 233 289
#     4   9  14  23  43  72 103 128 151 188 238 280
#     4  11  21  31  47  72  95 118 156 206 242 272
#     4   9  16  29  45  66  96 132 161 183 228 284
#     4  10  18  32  51  68  92 126 158 192 239 291
#     4   8  13  21  38  64  97 127 151 182 219 268
#     4   9  15  23  38  70 104 125 153 195 233 270
#     4   9  17  27  42  65  96 128 157 192 234 278
#
# _framework density 19.606112
#
# number of rings (size 3 to 8) (size 9 to 14) (size 15 to 20)
#    0.000    2.750    2.500    1.875    0.000    0.750 
#    0.000    2.500    0.000    1.125    0.000   17.500 
#    0.000    0.000    0.000    0.000    0.000    0.000 
#
# Total GULP energy -178522.615438 kJ/mol
# GULP energy per Si atom -5578.831732 kJ/mol
# Density = 1.956149 g / cm^3
# Si number density = 19.606112 Si / 1000 Ang^3
#
#
#
# Elastic Constant Matrix: (Units=GPa)
#
#
# Indices 1 2 3 4 5 6 
#
# 1 140.3546 -4.3796 84.2626 0.0000 4.5322 0.0000
# 2 -4.3796 53.7537 4.5484 0.0000 1.0947 0.0000
# 3 84.2626 4.5484 121.9388 0.0000 5.9478 0.0000
# 4 0.0000 0.0000 0.0000 -18.3695 0.0000 -22.6779
# 5 4.5322 1.0947 5.9478 0.0000 24.5060 0.0000
# 6 0.0000 0.0000 0.0000 -22.6779 0.0000 -118.0435
#
#
#
# Elastic Compliance Matrix: (Units=1/GPa)
#
#
# Indices 1 2 3 4 5 6 
#
# 1 0.012337 0.001736 -0.008576 0.000000 -0.000278 0.000000
# 2 0.001736 0.018918 -0.001871 0.000000 -0.000712 0.000000
# 3 -0.008576 -0.001871 0.014285 0.000000 -0.001797 0.000000
# 4 0.000000 0.000000 0.000000 -0.071364 0.000000 0.013710
# 5 -0.000278 -0.000712 -0.001797 0.000000 0.041326 0.000000
# 6 0.000000 0.000000 0.000000 0.013710 0.000000 -0.011105
#
#
# Mechanical properties :
#
#
# Convention : Reuss Voigt Hill
#
# Bulk Modulus (GPa) = 35.56458 53.87889 44.72174
# Shear Modulus (GPa) = 160.31119 -6.94035 76.68542
#
# Velocity S-wave (km/s) = 9.05226 -1.88350 6.26082
# Velocity P-wave (km/s) = 11.28879 4.77600 8.66738
#
# Compressibility (1/GPa) = 0.02811786
#
# Stress axis : x y z
#
# Youngs Moduli (GPa) = 81.05876 52.86069 70.00525
#
# Poissons Ratio (x) = -0.09179 0.60038
# Poissons Ratio (y) = -0.14076 0.13097
# Poissons Ratio (z) = 0.69518 0.09889
#
# Static dielectric constant tensor:
#      x y z
#    x 1.688840 0.000000 -0.004380 
#    y 0.000000 1.741030 0.000000 
#    z -0.004380 0.000000 1.668230 
# 
# From -- ./inp_files/69963.got.cif
#   From: 2010.05.17/outbox.cif.g08.bks.cpg/sg10_35_cif.got.tgz:69963.got - 2010.06.03 11:33:40.
