data_PCOD9143262
_publ_section_title
;
Structure prediction by ZEFSAII (Michael W. Deem and Ramdas Pophale) SiO2 
 PCOD9143262
Probable space group: P 2/M
;
_chemical_formula_sum "Si O2"
_cell_formula_units_Z 24
_cell_length_a 21.072921
_cell_length_b 7.629052
_cell_length_c 10.056520
_cell_angle_alpha 90.000000
_cell_angle_beta 130.897624
_cell_angle_gamma 90.000000
_cell_volume 1222.070460
_symmetry_space_group_name_H-M "P 2/M"
_symmetry_group_IT_number 10
_symmetry_cell_setting 'monoclinic'
loop_
_space_group_symop_operation_xyz
x,y,z
-x,y,-z
-x,-y,-z
x,-y,z
loop_
_atom_site_type_symbol
_atom_site_label
_atom_site_fract_x
_atom_site_fract_y
_atom_site_fract_z
Si Si1 0.853867 0.205215 0.028700
Si Si2 0.735049 0.708410 0.631172
Si Si3 0.974272 0.710733 0.611528
Si Si4 0.596074 0.284570 0.646462
Si Si5 0.287211 0.702471 0.961165
Si Si6 0.214681 0.716064 0.588759
O O1 0.951153 0.243180 0.185699
O O2 0.798045 0.293805 0.067817
O O3 0.839081 0.000000 0.022580
O O4 0.816008 0.262299 0.835807
O O5 0.723530 0.500000 0.603305
O O6 0.655476 0.774617 0.606451
O O7 0.749011 0.776477 0.502263
O O8 0.970516 0.500000 0.598789
O O9 0.000000 0.776456 0.500000
O O10 0.882084 0.771661 0.526536
O O11 0.500000 0.231137 0.500000
O O12 0.598345 0.500000 0.650749
O O13 0.641101 0.222938 0.844028
O O14 0.310215 0.500000 0.970432
O O15 0.266541 0.777769 0.788647
O O16 0.214860 0.500000 0.590347
#
# Coordination Sequence:
#
# PCOD9143262 Si02
#       6
#     4   4   4   4   4   4
#     4  11  21  32  47  70  99 129 165 199 240 283
#     4   9  18  33  51  69  96 128 162 198 238 286
#     4  10  18  31  51  70  93 125 168 205 233 275
#     4   8  14  26  48  75  99 124 154 192 237 285
#     4   9  16  31  52  71  95 127 164 198 236 285
#     4   9  17  30  50  73  92 124 167 203 235 277
#
# _framework density 19.638804
#
# number of rings (size 3 to 8) (size 9 to 14) (size 15 to 20)
#    0.000    2.667    1.667    2.500    0.000    1.000 
#    0.000    5.833    0.000   13.000    0.000    0.000 
#    0.000   10.667    0.000    0.000    0.000    0.000 
#
# Total GULP energy -133874.173984 kJ/mol
# GULP energy per Si atom -5578.090583 kJ/mol
# Density = 1.959411 g / cm^3
# Si number density = 19.638804 Si / 1000 Ang^3
#
#
#
# Elastic Constant Matrix: (Units=GPa)
#
#
# Indices 1 2 3 4 5 6 
#
# 1 127.7225 6.7218 126.6876 0.0000 -3.0952 0.0000
# 2 6.7218 33.7918 -4.7770 0.0000 -4.0692 0.0000
# 3 126.6876 -4.7770 193.9001 0.0000 -9.2857 0.0000
# 4 0.0000 0.0000 0.0000 -36.0958 0.0000 5.7448
# 5 -3.0952 -4.0692 -9.2857 0.0000 39.6058 0.0000
# 6 0.0000 0.0000 0.0000 5.7448 0.0000 -15.0154
#
#
#
# Elastic Compliance Matrix: (Units=1/GPa)
#
#
# Indices 1 2 3 4 5 6 
#
# 1 0.024033 -0.007361 -0.016010 0.000000 -0.002632 0.000000
# 2 -0.007361 0.032373 0.005804 0.000000 0.004112 0.000000
# 3 -0.016010 0.005804 0.015908 0.000000 0.003075 0.000000
# 4 0.000000 0.000000 0.000000 -0.029500 0.000000 -0.011287
# 5 -0.002632 0.004112 0.003075 0.000000 0.026186 0.000000
# 6 0.000000 0.000000 0.000000 -0.011287 0.000000 -0.070917
#
#
# Mechanical properties :
#
#
# Convention : Reuss Voigt Hill
#
# Bulk Modulus (GPa) = 26.89620 68.07547 47.48584
# Shear Modulus (GPa) = 109.62485 12.81772 61.22129
#
# Velocity S-wave (km/s) = 7.47942 2.55752 5.58939
# Velocity P-wave (km/s) = 9.39756 6.59244 8.11709
#
# Compressibility (1/GPa) = 0.03717997
#
# Stress axis : x y z
#
# Youngs Moduli (GPa) = 41.60919 30.89018 62.86236
#
# Poissons Ratio (x) = 0.22737 1.00641
# Poissons Ratio (y) = 0.30627 -0.36483
# Poissons Ratio (z) = 0.66615 -0.17928
#
# Static dielectric constant tensor:
#      x y z
#    x 1.661640 0.000000 -0.012730 
#    y 0.000000 1.703460 0.000000 
#    z -0.012730 0.000000 1.689310 
# 
# From -- ./inp_files/33768.got.cif
#   From: 2010.05.17/outbox.cif.g08.bks.cpg/sg10_17_cif.got.tgz:33768.got - 2010.06.03 11:33:40.
