data_PCOD9143132
_publ_section_title
;
Structure prediction by ZEFSAII (Michael W. Deem and Ramdas Pophale) SiO2 
 PCOD9143132
Probable space group: P 2/M
;
_chemical_formula_sum "Si O2"
_cell_formula_units_Z 32
_cell_length_a 14.713692
_cell_length_b 7.514256
_cell_length_c 14.698544
_cell_angle_alpha 90.000000
_cell_angle_beta 119.910039
_cell_angle_gamma 90.000000
_cell_volume 1408.658024
_symmetry_space_group_name_H-M "P 2/M"
_symmetry_group_IT_number 10
_symmetry_cell_setting 'monoclinic'
loop_
_space_group_symop_operation_xyz
x,y,z
-x,y,-z
-x,-y,-z
x,-y,z
loop_
_atom_site_type_symbol
_atom_site_label
_atom_site_fract_x
_atom_site_fract_y
_atom_site_fract_z
Si Si1 0.117125 0.285509 0.084624
Si Si2 0.178073 0.718011 0.824620
Si Si3 0.043539 0.716067 0.235554
Si Si4 0.789913 0.713951 0.543763
Si Si5 0.392491 0.788202 0.402852
Si Si6 0.116966 0.717358 0.590115
Si Si7 0.349309 0.794241 0.176740
Si Si8 0.598973 0.291811 0.995089
O O1 0.118474 0.500000 0.074679
O O2 0.118508 0.231188 0.190942
O O3 0.224512 0.221050 0.095512
O O4 0.000000 0.227176 0.000000
O O5 0.178892 0.500000 0.828622
O O6 0.151634 0.771401 0.708059
O O7 0.289226 0.783469 0.916130
O O8 0.076086 0.775152 0.831408
O O9 0.040866 0.500000 0.232148
O O10 0.100470 0.771035 0.355537
O O11 0.789288 0.500000 0.541652
O O12 0.697616 0.763705 0.566364
O O13 0.798304 0.773842 0.443891
O O14 0.500000 0.716690 0.500000
O O15 0.369520 0.717892 0.288735
O O16 0.404053 0.000000 0.397467
O O17 0.113968 0.500000 0.590605
O O18 0.000000 0.772449 0.500000
O O19 0.378190 0.000000 0.193319
O O20 0.407235 0.717454 0.117428
O O21 0.603315 0.500000 0.021816
O O22 0.500000 0.214994 0.000000
#
# Coordination Sequence:
#
# PCOD9143132 Si02
#       8
#     4   4   4   4   4   4   4   4
#     4  10  19  32  54  83 115 151 186 224 277 339
#     4   9  16  29  50  79 114 148 181 220 274 334
#     4   9  15  25  46  77 111 141 173 217 270 325
#     4  10  18  30  53  84 111 139 180 231 277 318
#     4  10  23  42  59  77 108 152 191 224 277 342
#     4   9  15  25  46  79 114 142 173 220 274 326
#     4  11  23  39  60  83 109 145 189 237 283 331
#     4  10  22  39  59  82 111 148 189 232 278 333
#
# _framework density 22.716657999999999
#
# number of rings (size 3 to 8) (size 9 to 14) (size 15 to 20)
#    0.000    2.250    2.500    1.125    0.000    4.250 
#    0.000    1.250    0.000    1.125    0.000    0.000 
#    0.000    0.000    0.000    0.000    0.000    0.000 
#
# Total GULP energy -178546.358297 kJ/mol
# GULP energy per Si atom -5579.573697 kJ/mol
# Density = 2.266495 g / cm^3
# Si number density = 22.716658 Si / 1000 Ang^3
#
#
#
# Elastic Constant Matrix: (Units=GPa)
#
#
# Indices 1 2 3 4 5 6 
#
# 1 176.1602 -3.1700 63.4893 0.0000 -9.2253 0.0000
# 2 -3.1700 52.0569 -3.3915 0.0000 4.3376 0.0000
# 3 63.4893 -3.3915 94.2047 0.0000 -4.5892 0.0000
# 4 0.0000 0.0000 0.0000 4.2112 0.0000 -3.4514
# 5 -9.2253 4.3376 -4.5892 0.0000 35.5339 0.0000
# 6 0.0000 0.0000 0.0000 -3.4514 0.0000 22.1978
#
#
#
# Elastic Compliance Matrix: (Units=1/GPa)
#
#
# Indices 1 2 3 4 5 6 
#
# 1 0.007558 0.000023 -0.005029 0.000000 0.001310 0.000000
# 2 0.000023 0.019440 0.000572 0.000000 -0.002293 0.000000
# 3 -0.005029 0.000572 0.014047 0.000000 0.000439 0.000000
# 4 0.000000 0.000000 0.000000 0.272138 0.000000 0.042313
# 5 0.001310 -0.002293 0.000439 0.000000 0.028819 0.000000
# 6 0.000000 0.000000 0.000000 0.042313 0.000000 0.051629
#
#
# Mechanical properties :
#
#
# Convention : Reuss Voigt Hill
#
# Bulk Modulus (GPa) = 31.07763 48.47529 39.77646
# Shear Modulus (GPa) = 12.10002 30.08818 21.09410
#
# Velocity S-wave (km/s) = 2.31042 3.64331 3.05056
# Velocity P-wave (km/s) = 4.56373 6.25170 5.47318
#
# Compressibility (1/GPa) = 0.03217749
#
# Stress axis : x y z
#
# Youngs Moduli (GPa) = 132.30604 51.44160 71.19162
#
# Poissons Ratio (x) = -0.00121 0.35804
# Poissons Ratio (y) = -0.00310 -0.04074
# Poissons Ratio (z) = 0.66540 -0.02944
#
# Static dielectric constant tensor:
#      x y z
#    x 1.835950 0.000000 -0.016340 
#    y 0.000000 1.877080 0.000000 
#    z -0.016340 0.000000 1.876200 
# 
# From -- ./inp_files/66594.got.cif
#   From: 2010.05.17/outbox.cif.g08.bks.cpg/sg10_34_cif.got.tgz:66594.got - 2010.06.03 11:33:40.
