data_PCOD9143833
_publ_section_title
;
Structure prediction by ZEFSAII (Michael W. Deem and Ramdas Pophale) SiO2 
 PCOD9143833
Probable space group: P 2/M
;
_chemical_formula_sum "Si O2"
_cell_formula_units_Z 32
_cell_length_a 5.566406
_cell_length_b 18.717204
_cell_length_c 19.677991
_cell_angle_alpha 90.000000
_cell_angle_beta 53.843874
_cell_angle_gamma 90.000000
_cell_volume 1655.358213
_symmetry_space_group_name_H-M "P 2/M"
_symmetry_group_IT_number 10
_symmetry_cell_setting 'monoclinic'
loop_
_space_group_symop_operation_xyz
x,y,z
-x,y,-z
-x,-y,-z
x,-y,z
loop_
_atom_site_type_symbol
_atom_site_label
_atom_site_fract_x
_atom_site_fract_y
_atom_site_fract_z
Si Si1 0.165896 0.757474 0.580963
Si Si2 0.641691 0.720787 0.173644
Si Si3 0.873031 0.084875 0.213060
Si Si4 0.145803 0.386569 0.411676
Si Si5 0.855613 0.819959 0.950990
Si Si6 0.285121 0.581366 0.230583
Si Si7 0.751282 0.670957 0.300974
Si Si8 0.753060 0.150774 0.726221
O O1 0.500000 0.772936 0.500000
O O2 0.165104 0.728098 0.657654
O O3 0.026626 0.689084 0.566345
O O4 0.937623 0.822091 0.629159
O O5 0.532397 0.641430 0.173296
O O6 0.651301 0.714628 0.253075
O O7 0.401832 0.784194 0.203763
O O8 0.958500 0.747092 0.094535
O O9 0.529535 0.106956 0.255726
O O10 0.048316 0.123680 0.122492
O O11 0.023366 0.111638 0.258641
O O12 0.902361 0.000000 0.204591
O O13 0.184431 0.415175 0.327856
O O14 0.481987 0.372779 0.377203
O O15 0.000000 0.425206 0.500000
O O16 0.500000 0.809936 0.000000
O O17 0.000000 0.842876 0.000000
O O18 0.358633 0.500000 0.202183
O O19 0.000144 0.613858 0.240171
#
# Coordination Sequence:
#
# PCOD9143833 Si02
#       8
#     4   4   4   4   4   4   4   4
#     4  11  19  29  54  87 115 150 212 270 309 343
#     4  10  21  37  63  83 121 155 204 257 295 362
#     4  11  25  43  66  94 131 167 194 234 299 380
#     4  10  19  31  51  77 118 157 199 265 324 368
#     4  11  24  39  66 102 126 154 195 243 307 366
#     4  10  22  35  54  82 115 164 212 255 307 366
#     4  10  18  33  53  78 114 155 204 258 305 361
#     4  11  21  38  65  92 122 166 217 251 295 351
#
# _framework density 19.331164999999999
#
# number of rings (size 3 to 8) (size 9 to 14) (size 15 to 20)
#    0.000    1.500    5.000    3.375    1.750    2.750 
#    0.000    0.625    0.000    3.000    0.000    0.000 
#    0.000    0.000    0.000    0.000    0.000    0.000 
#
# Total GULP energy -178138.883538 kJ/mol
# GULP energy per Si atom -5566.840111 kJ/mol
# Density = 1.928717 g / cm^3
# Si number density = 19.331165 Si / 1000 Ang^3
#
#
#
# Elastic Constant Matrix: (Units=GPa)
#
#
# Indices 1 2 3 4 5 6 
#
# 1 103.1519 48.8531 34.1996 0.0000 -27.1138 0.0000
# 2 48.8531 129.3517 49.3088 0.0000 -18.4722 0.0000
# 3 34.1996 49.3088 60.6709 0.0000 -30.5765 0.0000
# 4 0.0000 0.0000 0.0000 3.3774 0.0000 -2.9986
# 5 -27.1138 -18.4722 -30.5765 0.0000 34.5209 0.0000
# 6 0.0000 0.0000 0.0000 -2.9986 0.0000 35.1592
#
#
#
# Elastic Compliance Matrix: (Units=1/GPa)
#
#
# Indices 1 2 3 4 5 6 
#
# 1 0.013896 -0.003884 -0.000404 0.000000 0.008479 0.000000
# 2 -0.003884 0.012560 -0.011143 0.000000 -0.006199 0.000000
# 3 -0.000404 -0.011143 0.040825 0.000000 0.029881 0.000000
# 4 0.000000 0.000000 0.000000 0.320338 0.000000 0.027321
# 5 0.008479 -0.006199 0.029881 0.000000 0.058777 0.000000
# 6 0.000000 0.000000 0.000000 0.027321 0.000000 0.030772
#
#
# Mechanical properties :
#
#
# Convention : Reuss Voigt Hill
#
# Bulk Modulus (GPa) = 27.45684 61.98861 44.72272
# Shear Modulus (GPa) = 9.61227 25.33239 17.47233
#
# Velocity S-wave (km/s) = 2.23231 3.62393 3.00966
# Velocity P-wave (km/s) = 4.56930 7.04605 5.93824
#
# Compressibility (1/GPa) = 0.03642080
#
# Stress axis : x y z
#
# Youngs Moduli (GPa) = 71.96183 79.61814 24.49474
#
# Poissons Ratio (x) = 0.30920 0.00989
# Poissons Ratio (y) = 0.27946 0.27294
# Poissons Ratio (z) = 0.02907 0.88717
#
# Static dielectric constant tensor:
#      x y z
#    x 1.865820 0.000000 0.017020 
#    y 0.000000 1.702950 0.000000 
#    z 0.017020 0.000000 1.737430 
# 
# From -- ./inp_files/81472.got.cif
#   From: 2010.05.17/outbox.cif.g08.bks.cpg/sg10_41_cif.got.tgz:81472.got - 2010.06.03 11:33:40.
