data_PCOD9143065
_publ_section_title
;
Structure prediction by ZEFSAII (Michael W. Deem and Ramdas Pophale) SiO2 
 PCOD9143065
Probable space group: P 2/M
;
_chemical_formula_sum "Si O2"
_cell_formula_units_Z 32
_cell_length_a 17.744296
_cell_length_b 12.496527
_cell_length_c 18.468869
_cell_angle_alpha 90.000000
_cell_angle_beta 156.031041
_cell_angle_gamma 90.000000
_cell_volume 1663.691731
_symmetry_space_group_name_H-M "P 2/M"
_symmetry_group_IT_number 10
_symmetry_cell_setting 'monoclinic'
loop_
_space_group_symop_operation_xyz
x,y,z
-x,y,-z
-x,-y,-z
x,-y,z
loop_
_atom_site_type_symbol
_atom_site_label
_atom_site_fract_x
_atom_site_fract_y
_atom_site_fract_z
Si Si1 0.980394 0.704395 0.905947
Si Si2 0.915594 0.119515 0.530155
Si Si3 0.440351 0.125004 0.864276
Si Si4 0.073695 0.378576 0.298553
Si Si5 0.244812 0.874669 0.065099
Si Si6 0.203255 0.776484 0.879283
Si Si7 0.324521 0.175095 0.543476
Si Si8 0.705100 0.886060 0.647978
O O1 0.956693 0.632485 0.814422
O O2 0.803207 0.780285 0.760630
O O3 0.135732 0.793199 0.021195
O O4 0.000000 0.647460 0.000000
O O5 0.773583 0.151614 0.341813
O O6 0.783329 0.120865 0.485111
O O7 0.087895 0.189820 0.707071
O O8 0.984657 0.000000 0.576365
O O9 0.467567 0.000000 0.863609
O O10 0.500000 0.127718 0.000000
O O11 0.581073 0.205543 0.947855
O O12 0.114165 0.500000 0.354172
O O13 0.236977 0.294587 0.462022
O O14 0.885833 0.334150 0.171620
O O15 0.457563 0.836463 0.251561
O O16 0.234980 0.000000 0.075626
O O17 0.164022 0.855653 0.913176
O O18 0.291919 0.122860 0.436426
O O19 0.500000 0.887052 0.500000
O O20 0.794289 0.000000 0.746954
#
# Coordination Sequence:
#
# PCOD9143065 Si02
#       8
#     4   4   4   4   4   4   4   4
#     4  10  21  33  49  75 106 139 180 225 280 339
#     4  10  18  30  51  78 114 152 184 218 261 321
#     4  10  20  33  52  84 125 159 184 213 260 332
#     4   9  21  40  58  75 100 137 188 247 287 319
#     4  11  19  30  52  80 114 145 177 220 270 337
#     4  10  20  34  55  80 111 145 190 228 274 324
#     4  10  19  31  51  75 100 138 184 229 276 324
#     4  10  19  30  45  70 107 146 179 216 269 334
#
# _framework density 19.234331999999998
#
# number of rings (size 3 to 8) (size 9 to 14) (size 15 to 20)
#    0.000    2.000    1.250    4.125    0.000    2.750 
#    0.000    4.375    0.000   13.125    0.000    3.500 
#    0.000    0.000    0.000    0.000    0.000    0.000 
#
# Total GULP energy -178460.726368 kJ/mol
# GULP energy per Si atom -5576.897699 kJ/mol
# Density = 1.919055 g / cm^3
# Si number density = 19.234332 Si / 1000 Ang^3
#
#
#
# Elastic Constant Matrix: (Units=GPa)
#
#
# Indices 1 2 3 4 5 6 
#
# 1 49.9160 7.0169 -2.8443 0.0000 -16.0074 0.0000
# 2 7.0169 94.8277 13.3213 0.0000 5.0610 0.0000
# 3 -2.8443 13.3213 65.4425 0.0000 -11.4941 0.0000
# 4 0.0000 0.0000 0.0000 -12.0879 0.0000 -5.7861
# 5 -16.0074 5.0610 -11.4941 0.0000 38.0272 0.0000
# 6 0.0000 0.0000 0.0000 -5.7861 0.0000 21.7795
#
#
#
# Elastic Compliance Matrix: (Units=1/GPa)
#
#
# Indices 1 2 3 4 5 6 
#
# 1 0.024454 -0.002966 0.003743 0.000000 0.011820 0.000000
# 2 -0.002966 0.011398 -0.003099 0.000000 -0.003702 0.000000
# 3 0.003743 -0.003099 0.017344 0.000000 0.007230 0.000000
# 4 0.000000 0.000000 0.000000 -0.073394 0.000000 -0.019498
# 5 0.011820 -0.003702 0.007230 0.000000 0.033951 0.000000
# 6 0.000000 0.000000 0.000000 -0.019498 0.000000 0.040735
#
#
# Mechanical properties :
#
#
# Convention : Reuss Voigt Hill
#
# Bulk Modulus (GPa) = 20.59697 27.24156 23.91927
# Shear Modulus (GPa) = 66.38647 22.38992 44.38819
#
# Velocity S-wave (km/s) = 5.88128 3.41553 4.80913
# Velocity P-wave (km/s) = 7.53996 5.45419 6.58024
#
# Compressibility (1/GPa) = 0.04855083
#
# Stress axis : x y z
#
# Youngs Moduli (GPa) = 40.89242 87.73539 57.65661
#
# Poissons Ratio (x) = 0.26024 -0.21579
# Poissons Ratio (y) = 0.12129 0.17870
# Poissons Ratio (z) = -0.15305 0.27192
#
# Static dielectric constant tensor:
#      x y z
#    x 1.719860 0.000000 -0.019590 
#    y 0.000000 1.615950 0.000000 
#    z -0.019590 0.000000 1.737230 
# 
# From -- ./inp_files/86291.got.cif
#   From: 2010.05.17/outbox.cif.g08.bks.cpg/sg10_44_cif.got.tgz:86291.got - 2010.06.03 11:33:40.
