data_PCOD9143982
_publ_section_title
;
Structure prediction by ZEFSAII (Michael W. Deem and Ramdas Pophale) SiO2 
 PCOD9143982
Probable space group: P 2/M
;
_chemical_formula_sum "Si O2"
_cell_formula_units_Z 30
_cell_length_a 17.863248
_cell_length_b 10.212556
_cell_length_c 12.331372
_cell_angle_alpha 90.000000
_cell_angle_beta 49.353204
_cell_angle_gamma 90.000000
_cell_volume 1706.864295
_symmetry_space_group_name_H-M "P 2/M"
_symmetry_group_IT_number 10
_symmetry_cell_setting 'monoclinic'
loop_
_space_group_symop_operation_xyz
x,y,z
-x,y,-z
-x,-y,-z
x,-y,z
loop_
_atom_site_type_symbol
_atom_site_label
_atom_site_fract_x
_atom_site_fract_y
_atom_site_fract_z
Si Si1 0.723230 0.850734 0.480675
Si Si2 0.500000 0.249308 0.000000
Si Si3 0.075964 0.657442 0.082400
Si Si4 0.410321 0.643162 0.868307
Si Si5 0.504379 0.849865 0.371009
Si Si6 0.805931 0.650839 0.826084
Si Si7 0.281890 0.150690 0.259035
Si Si8 0.147098 0.342326 0.782800
O O1 0.606553 0.846646 0.569095
O O2 0.736335 0.827196 0.596354
O O3 0.776403 0.743704 0.356492
O O4 0.756898 0.000000 0.423972
O O5 0.526654 0.331828 0.081891
O O6 0.398863 0.171584 0.122046
O O7 0.086173 0.500000 0.076418
O O8 0.114144 0.703108 0.163022
O O9 0.961813 0.683435 0.164180
O O10 0.139388 0.697655 0.916984
O O11 0.435047 0.500000 0.800238
O O12 0.431490 0.755454 0.762865
O O13 0.296788 0.645038 0.010877
O O14 0.500000 0.808984 0.500000
O O15 0.540483 0.000000 0.332362
O O16 0.828816 0.500000 0.770884
O O17 0.782123 0.747176 0.749874
O O18 0.257822 0.000000 0.255537
O O19 0.165084 0.500000 0.759778
#
# Coordination Sequence:
#
# PCOD9143982 Si02
#       8
#     4   2   4   4   4   4   4   4
#     4  10  21  37  52  75 109 139 171 219 264 301
#     4  10  18  34  54  72 102 142 180 216 256 302
#     4   8  16  35  58  81 107 132 168 215 262 314
#     4  10  20  32  51  79 106 134 172 217 262 302
#     4  10  22  38  52  70 104 147 181 209 253 308
#     4   9  19  34  53  77 108 135 165 217 269 306
#     4  10  20  34  53  75 101 139 183 217 253 305
#     4   9  18  34  60  83 100 135 177 211 256 317
#
# _framework density 17.576089
#
# number of rings (size 3 to 8) (size 9 to 14) (size 15 to 20)
#    0.000    2.533    1.333    1.200    1.867    4.000 
#    0.000    3.333    0.000    4.000    0.000    0.000 
#    0.000    0.000    0.000    0.000    0.000    0.000 
#
# Total GULP energy -167196.717172 kJ/mol
# GULP energy per Si atom -5573.223906 kJ/mol
# Density = 1.753609 g / cm^3
# Si number density = 17.576089 Si / 1000 Ang^3
#
#
#
# Elastic Constant Matrix: (Units=GPa)
#
#
# Indices 1 2 3 4 5 6 
#
# 1 56.4074 -1.4447 -25.4349 0.0000 16.3569 0.0000
# 2 -1.4447 47.9357 13.4209 0.0000 10.0956 0.0000
# 3 -25.4349 13.4209 17.6358 0.0000 9.3075 0.0000
# 4 0.0000 0.0000 0.0000 8.8110 0.0000 -24.1131
# 5 16.3569 10.0956 9.3075 0.0000 17.4416 0.0000
# 6 0.0000 0.0000 0.0000 -24.1131 0.0000 -15.8771
#
#
#
# Elastic Compliance Matrix: (Units=1/GPa)
#
#
# Indices 1 2 3 4 5 6 
#
# 1 -0.018456 0.005363 -0.053170 0.000000 0.042578 0.000000
# 2 0.005363 0.025470 -0.001689 0.000000 -0.018871 0.000000
# 3 -0.053170 -0.001689 -0.063376 0.000000 0.084660 0.000000
# 4 0.000000 0.000000 0.000000 0.022011 0.000000 -0.033428
# 5 0.042578 -0.018871 0.084660 0.000000 -0.016851 0.000000
# 6 0.000000 0.000000 0.000000 -0.033428 0.000000 -0.012215
#
#
# Mechanical properties :
#
#
# Convention : Reuss Voigt Hill
#
# Bulk Modulus (GPa) = -6.43695 10.56240 2.06272
# Shear Modulus (GPa) = -308.46630 11.10427 -148.68101
#
# Velocity S-wave (km/s) = -13.26214 2.51626 -9.20741
# Velocity P-wave (km/s) = 15.43317 3.80324 10.57635
#
# Compressibility (1/GPa) = -0.15535311
#
# Stress axis : x y z
#
# Youngs Moduli (GPa) = -54.18267 39.26172 -15.77893
#
# Poissons Ratio (x) = -0.21056 -0.83896
# Poissons Ratio (y) = 0.29058 -0.02665
# Poissons Ratio (z) = -2.88089 0.06631
#
# Static dielectric constant tensor:
#      x y z
#    x 1.623820 0.000000 0.001880 
#    y 0.000000 1.592850 0.000000 
#    z 0.001880 0.000000 1.574010 
# 
# From -- ./inp_files/53643.got.cif
#   From: 2010.05.17/outbox.cif.g08.bks.cpg/sg10_27_cif.got.tgz:53643.got - 2010.06.03 11:33:40.
