data_PCOD9143699
_publ_section_title
;
Structure prediction by ZEFSAII (Michael W. Deem and Ramdas Pophale) SiO2 
 PCOD9143699
Probable space group: P 2/M
;
_chemical_formula_sum "Si O2"
_cell_formula_units_Z 28
_cell_length_a 33.173192
_cell_length_b 7.448693
_cell_length_c 9.967318
_cell_angle_alpha 90.000000
_cell_angle_beta 147.229599
_cell_angle_gamma 90.000000
_cell_volume 1333.100032
_symmetry_space_group_name_H-M "P 2/M"
_symmetry_group_IT_number 10
_symmetry_cell_setting 'monoclinic'
loop_
_space_group_symop_operation_xyz
x,y,z
-x,y,-z
-x,-y,-z
x,-y,z
loop_
_atom_site_type_symbol
_atom_site_label
_atom_site_fract_x
_atom_site_fract_y
_atom_site_fract_z
Si Si1 0.037487 0.283315 0.462505
Si Si2 0.638311 0.281489 0.543409
Si Si3 0.943256 0.799109 0.943815
Si Si4 0.205016 0.288790 0.332182
Si Si5 0.628982 0.719075 0.208597
Si Si6 0.504420 0.719651 0.357661
Si Si7 0.806973 0.280873 0.004185
O O1 0.034701 0.500000 0.437252
O O2 0.000000 0.243687 0.500000
O O3 0.988604 0.201874 0.208887
O O4 0.123365 0.223907 0.711226
O O5 0.638034 0.500000 0.542108
O O6 0.617566 0.227753 0.332588
O O7 0.578831 0.223175 0.487063
O O8 0.723525 0.226069 0.809750
O O9 0.930783 0.000000 0.857505
O O10 0.861085 0.730768 0.747390
O O11 0.000000 0.705495 0.000000
O O12 0.215249 0.500000 0.340947
O O13 0.287505 0.220721 0.597341
O O14 0.181957 0.220753 0.119659
O O15 0.626455 0.500000 0.199997
O O16 0.565804 0.778279 0.928895
O O17 0.500000 0.777280 0.500000
O O18 0.504456 0.500000 0.358845
O O19 0.809133 0.500000 0.011811
#
# Coordination Sequence:
#
# PCOD9143699 Si02
#       7
#     4   4   4   4   4   4   4
#     4  10  18  32  55  77  98 125 163 206 251 295
#     4   8  13  22  37  55  84 123 156 182 221 280
#     4  11  24  38  49  68 101 135 167 201 244 297
#     4   9  16  31  52  71  94 123 163 207 243 285
#     4   8  14  24  41  61  82 118 159 190 228 283
#     4   9  15  22  32  54  92 126 150 183 230 279
#     4   8  14  26  45  70  94 119 156 203 243 281
#
# _framework density 21.003675999999999
#
# number of rings (size 3 to 8) (size 9 to 14) (size 15 to 20)
#    0.000    3.000    1.429    2.571    0.000    3.143 
#    2.571    0.000    0.000    0.000    0.000    0.000 
#    0.000   10.857    0.000    0.000    0.000    0.571 
#
# Total GULP energy -156135.100853 kJ/mol
# GULP energy per Si atom -5576.253602 kJ/mol
# Density = 2.095587 g / cm^3
# Si number density = 21.003676 Si / 1000 Ang^3
#
#
#
# Elastic Constant Matrix: (Units=GPa)
#
#
# Indices 1 2 3 4 5 6 
#
# 1 167.5679 3.5153 73.4428 0.0000 24.7034 0.0000
# 2 3.5153 53.8562 1.9090 0.0000 0.8547 0.0000
# 3 73.4428 1.9090 105.5845 0.0000 25.5181 0.0000
# 4 0.0000 0.0000 0.0000 -127.6658 0.0000 -205.6920
# 5 24.7034 0.8547 25.5181 0.0000 27.5619 0.0000
# 6 0.0000 0.0000 0.0000 -205.6920 0.0000 -344.4777
#
#
#
# Elastic Compliance Matrix: (Units=1/GPa)
#
#
# Indices 1 2 3 4 5 6 
#
# 1 0.008761 -0.000335 -0.005401 0.000000 -0.002841 0.000000
# 2 -0.000335 0.018595 -0.000047 0.000000 -0.000233 0.000000
# 3 -0.005401 -0.000047 0.015535 0.000000 -0.009540 0.000000
# 4 0.000000 0.000000 0.000000 -0.206421 0.000000 0.123256
# 5 -0.002841 -0.000233 -0.009540 0.000000 0.047669 0.000000
# 6 0.000000 0.000000 0.000000 0.123256 0.000000 -0.076501
#
#
# Mechanical properties :
#
#
# Convention : Reuss Voigt Hill
#
# Bulk Modulus (GPa) = 31.92402 53.86028 42.89215
# Shear Modulus (GPa) = -29.35057 -72.37356 -50.86206
#
# Velocity S-wave (km/s) = -3.74224 -5.87643 -4.92629
# Velocity P-wave (km/s) = 1.85478 4.51046 3.44851
#
# Compressibility (1/GPa) = 0.03132438
#
# Stress axis : x y z
#
# Youngs Moduli (GPa) = 114.14358 53.77729 64.37227
#
# Poissons Ratio (x) = 0.01803 0.34769
# Poissons Ratio (y) = 0.03827 0.00301
# Poissons Ratio (z) = 0.61651 0.00251
#
# Static dielectric constant tensor:
#      x y z
#    x 1.760280 0.000000 0.027750 
#    y 0.000000 1.810030 0.000000 
#    z 0.027750 0.000000 1.727010 
# 
# From -- ./inp_files/38020.got.cif
#   From: 2010.05.17/outbox.cif.g08.bks.cpg/sg10_20_cif.got.tgz:38020.got - 2010.06.03 11:33:40.
