data_PCOD9143495
_publ_section_title
;
Structure prediction by ZEFSAII (Michael W. Deem and Ramdas Pophale) SiO2 
 PCOD9143495
Probable space group: P 2/M
;
_chemical_formula_sum "Si O2"
_cell_formula_units_Z 26
_cell_length_a 10.527106
_cell_length_b 12.391555
_cell_length_c 10.739125
_cell_angle_alpha 90.000000
_cell_angle_beta 105.914193
_cell_angle_gamma 90.000000
_cell_volume 1347.197640
_symmetry_space_group_name_H-M "P 2/M"
_symmetry_group_IT_number 10
_symmetry_cell_setting 'monoclinic'
loop_
_space_group_symop_operation_xyz
x,y,z
-x,y,-z
-x,-y,-z
x,-y,z
loop_
_atom_site_type_symbol
_atom_site_label
_atom_site_fract_x
_atom_site_fract_y
_atom_site_fract_z
Si Si1 0.872056 0.873896 0.250922
Si Si2 0.851200 0.167935 0.965471
Si Si3 0.408602 0.276276 0.376029
Si Si4 0.500000 0.246164 0.000000
Si Si5 0.398569 0.870502 0.727518
Si Si6 0.288764 0.374766 0.097917
Si Si7 0.178863 0.876260 0.317915
O O1 0.756079 0.833416 0.310435
O O2 0.025767 0.836983 0.293016
O O3 0.884675 0.000000 0.280542
O O4 0.812446 0.862035 0.094878
O O5 0.837150 0.296283 0.945111
O O6 0.787844 0.121755 0.822716
O O7 0.000000 0.129034 0.000000
O O8 0.500000 0.336670 0.500000
O O9 0.508957 0.186241 0.348308
O O10 0.356967 0.350112 0.249379
O O11 0.282621 0.210710 0.395352
O O12 0.459191 0.171123 0.874191
O O13 0.614597 0.324554 0.980209
O O14 0.402994 0.000000 0.719193
O O15 0.263473 0.500000 0.074186
O O16 0.192347 0.000000 0.367816
#
# Coordination Sequence:
#
# PCOD9143495 Si02
#       7
#     4   4   4   2   4   4   4
#     4   9  16  28  47  73 104 135 163 189 230 295
#     4   9  16  28  46  71 104 131 155 189 242 298
#     4  10  22  37  50  68  96 133 173 214 252 284
#     4  10  18  32  48  74 106 130 152 194 250 304
#     4  10  19  30  50  76 104 134 164 195 235 292
#     4  10  20  33  51  73  95 124 165 210 253 295
#     4   9  17  29  47  71 100 134 165 194 236 292
#
# _framework density 19.299322
#
# number of rings (size 3 to 8) (size 9 to 14) (size 15 to 20)
#    0.000    2.462    1.538    1.385    0.000    3.692 
#    0.000    0.769    0.000    2.769    0.000    0.000 
#    0.000    7.077    0.000    0.000    0.000    0.000 
#
# Total GULP energy -144747.636895 kJ/mol
# GULP energy per Si atom -5567.216804 kJ/mol
# Density = 1.925540 g / cm^3
# Si number density = 19.299322 Si / 1000 Ang^3
#
#
#
# Elastic Constant Matrix: (Units=GPa)
#
#
# Indices 1 2 3 4 5 6 
#
# 1 82.4083 15.6119 5.8874 0.0000 0.3003 0.0000
# 2 15.6119 55.5275 -11.6801 0.0000 -4.9609 0.0000
# 3 5.8874 -11.6801 34.5653 0.0000 6.9480 0.0000
# 4 0.0000 0.0000 0.0000 0.3146 0.0000 0.8613
# 5 0.3003 -4.9609 6.9480 0.0000 21.4876 0.0000
# 6 0.0000 0.0000 0.0000 0.8613 0.0000 17.2837
#
#
#
# Elastic Compliance Matrix: (Units=1/GPa)
#
#
# Indices 1 2 3 4 5 6 
#
# 1 0.013263 -0.004526 -0.003787 0.000000 -0.000006 0.000000
# 2 -0.004526 0.021060 0.007377 0.000000 0.002540 0.000000
# 3 -0.003787 0.007377 0.033920 0.000000 -0.009212 0.000000
# 4 0.000000 0.000000 0.000000 3.680326 0.000000 -0.183398
# 5 -0.000006 0.002540 -0.009212 0.000000 0.050104 0.000000
# 6 0.000000 0.000000 0.000000 -0.183398 0.000000 0.066997
#
#
# Mechanical properties :
#
#
# Convention : Reuss Voigt Hill
#
# Bulk Modulus (GPa) = 15.06696 21.34883 18.20790
# Shear Modulus (GPa) = 1.28546 18.66264 9.97405
#
# Velocity S-wave (km/s) = 0.81701 3.11305 2.27581
# Velocity P-wave (km/s) = 2.95194 4.89974 4.04484
#
# Compressibility (1/GPa) = 0.06637038
#
# Stress axis : x y z
#
# Youngs Moduli (GPa) = 75.39923 47.48273 29.48087
#
# Poissons Ratio (x) = 0.21491 0.11165
# Poissons Ratio (y) = 0.34126 -0.21748
# Poissons Ratio (z) = 0.28556 -0.35027
#
# Static dielectric constant tensor:
#      x y z
#    x 1.735300 0.000000 -0.006210 
#    y 0.000000 1.616490 0.000000 
#    z -0.006210 0.000000 1.760130 
# 
# From -- ./inp_files/46200.got.cif
#   From: 2010.05.17/outbox.cif.g08.bks.cpg/sg10_24_cif.got.tgz:46200.got - 2010.06.03 11:33:40.
