data_PCOD9143437
_publ_section_title
;
Structure prediction by ZEFSAII (Michael W. Deem and Ramdas Pophale) SiO2 
 PCOD9143437
Probable space group: P 2/M
;
_chemical_formula_sum "Si O2"
_cell_formula_units_Z 25
_cell_length_a 10.519830
_cell_length_b 7.408942
_cell_length_c 24.730541
_cell_angle_alpha 90.000000
_cell_angle_beta 36.905827
_cell_angle_gamma 90.000000
_cell_volume 1157.477791
_symmetry_space_group_name_H-M "P 2/M"
_symmetry_group_IT_number 10
_symmetry_cell_setting 'monoclinic'
loop_
_space_group_symop_operation_xyz
x,y,z
-x,y,-z
-x,-y,-z
x,-y,z
loop_
_atom_site_type_symbol
_atom_site_label
_atom_site_fract_x
_atom_site_fract_y
_atom_site_fract_z
Si Si1 0.083615 0.291516 0.915602
Si Si2 0.937893 0.299809 0.851268
Si Si3 0.387783 0.220414 0.414784
Si Si4 0.500000 0.500000 0.000000
Si Si5 0.445110 0.781034 0.271275
Si Si6 0.995712 0.220534 0.381971
Si Si7 0.792919 0.793413 0.340724
O O1 0.006076 0.500000 0.941293
O O2 0.000482 0.212712 0.887177
O O3 0.336388 0.285607 0.828035
O O4 0.000000 0.210935 0.000000
O O5 0.044078 0.500000 0.814653
O O6 0.035543 0.206972 0.765802
O O7 0.689812 0.344900 0.932916
O O8 0.426579 0.276651 0.340111
O O9 0.576356 0.283452 0.389936
O O10 0.162007 0.272312 0.516033
O O11 0.394204 0.000000 0.411922
O O12 0.235104 0.721472 0.311325
O O13 0.452740 0.000000 0.267950
O O14 0.895841 0.285607 0.359617
O O15 0.001688 0.000000 0.378910
O O16 0.740085 0.000000 0.373099
#
# Coordination Sequence:
#
# PCOD9143437 Si02
#       7
#     4   4   4   1   4   4   4
#     4  10  21  37  56  77 100 134 178 218 262 320
#     4   9  19  37  56  74 101 136 173 213 261 319
#     4   9  16  29  52  77 108 145 176 208 255 314
#     4   8  20  36  56  72  94 138 176 206 258 326
#     4  10  19  33  54  80 108 139 176 217 261 303
#     4   9  18  30  48  81 115 141 172 213 257 307
#     4  10  18  31  54  81 108 137 175 216 259 304
#
# _framework density 21.598683999999999
#
# number of rings (size 3 to 8) (size 9 to 14) (size 15 to 20)
#    0.480    2.080    1.600    0.960    0.000    5.440 
#    0.000    0.400    0.000    5.760    0.000    0.000 
#    0.000    0.000    0.000    0.000    0.000    0.000 
#
# Total GULP energy -139209.206094 kJ/mol
# GULP energy per Si atom -5568.368244 kJ/mol
# Density = 2.154952 g / cm^3
# Si number density = 21.598684 Si / 1000 Ang^3
#
#
#
# Elastic Constant Matrix: (Units=GPa)
#
#
# Indices 1 2 3 4 5 6 
#
# 1 80.2873 -3.4701 41.5391 0.0000 -0.3096 0.0000
# 2 -3.4701 66.7417 -10.2648 0.0000 4.2834 0.0000
# 3 41.5391 -10.2648 132.1545 0.0000 -2.4503 0.0000
# 4 0.0000 0.0000 0.0000 19.3697 0.0000 -6.8926
# 5 -0.3096 4.2834 -2.4503 0.0000 46.2311 0.0000
# 6 0.0000 0.0000 0.0000 -6.8926 0.0000 -1.1624
#
#
#
# Elastic Compliance Matrix: (Units=1/GPa)
#
#
# Indices 1 2 3 4 5 6 
#
# 1 0.014875 0.000065 -0.004674 0.000000 -0.000154 0.000000
# 2 0.000065 0.015248 0.001139 0.000000 -0.001352 0.000000
# 3 -0.004674 0.001139 0.009131 0.000000 0.000347 0.000000
# 4 0.000000 0.000000 0.000000 0.016600 0.000000 -0.098433
# 5 -0.000154 -0.001352 0.000347 0.000000 0.021773 0.000000
# 6 0.000000 0.000000 0.000000 -0.098433 0.000000 -0.276616
#
#
# Mechanical properties :
#
#
# Convention : Reuss Voigt Hill
#
# Bulk Modulus (GPa) = 30.94560 37.19911 34.07235
# Shear Modulus (GPa) = -27.58224 29.64628 1.03202
#
# Velocity S-wave (km/s) = -3.57744 3.70888 0.69199
# Velocity P-wave (km/s) = 1.64482 5.96668 4.05560
#
# Compressibility (1/GPa) = 0.03231477
#
# Stress axis : x y z
#
# Youngs Moduli (GPa) = 67.22476 65.58043 109.51937
#
# Poissons Ratio (x) = -0.00423 0.51184
# Poissons Ratio (y) = -0.00434 -0.12475
# Poissons Ratio (z) = 0.31418 -0.07470
#
# Static dielectric constant tensor:
#      x y z
#    x 1.791120 0.000000 0.031130 
#    y 0.000000 1.845820 0.000000 
#    z 0.031130 0.000000 1.739420 
# 
# From -- ./inp_files/82429.got.cif
#   From: 2010.05.17/outbox.cif.g08.bks.cpg/sg10_42_cif.got.tgz:82429.got - 2010.06.03 11:33:40.
