data_PCOD9143793
_publ_section_title
;
Structure prediction by ZEFSAII (Michael W. Deem and Ramdas Pophale) SiO2 
 PCOD9143793
Probable space group: P 2/M
;
_chemical_formula_sum "Si O2"
_cell_formula_units_Z 30
_cell_length_a 26.590148
_cell_length_b 8.047033
_cell_length_c 11.381293
_cell_angle_alpha 90.000000
_cell_angle_beta 29.857369
_cell_angle_gamma 90.000000
_cell_volume 1212.383968
_symmetry_space_group_name_H-M "P 2/M"
_symmetry_group_IT_number 10
_symmetry_cell_setting 'monoclinic'
loop_
_space_group_symop_operation_xyz
x,y,z
-x,y,-z
-x,-y,-z
x,-y,z
loop_
_atom_site_type_symbol
_atom_site_label
_atom_site_fract_x
_atom_site_fract_y
_atom_site_fract_z
Si Si1 0.062796 0.304556 0.073679
Si Si2 0.136757 0.805320 0.430775
Si Si3 0.417866 0.690153 0.075406
Si Si4 0.246662 0.822726 0.566361
Si Si5 0.859917 0.693759 0.833854
Si Si6 0.632738 0.000000 0.471878
Si Si7 0.615676 0.687944 0.344185
Si Si8 0.635700 0.191692 0.057351
O O1 0.084524 0.500000 0.027254
O O2 0.099228 0.234754 0.126688
O O3 0.943078 0.277103 0.319805
O O4 0.133999 0.224590 0.831761
O O5 0.106665 0.776582 0.355145
O O6 0.251546 0.740906 0.201022
O O7 0.136928 0.000000 0.454940
O O8 0.443379 0.500000 0.995986
O O9 0.310130 0.699539 0.357962
O O10 0.419108 0.795444 0.955494
O O11 0.500000 0.758561 0.000000
O O12 0.311824 0.858258 0.552753
O O13 0.245578 0.000000 0.503237
O O14 0.889134 0.500000 0.767963
O O15 0.739033 0.701883 0.086643
O O16 0.591000 0.851241 0.469231
O O17 0.594404 0.500000 0.430755
O O18 0.588865 0.707284 0.259741
O O19 0.647066 0.000000 0.071857
#
# Coordination Sequence:
#
# PCOD9143793 Si02
#       8
#     4   4   4   4   4   2   4   4
#     4  11  20  32  51  80 122 169 211 256 307 370
#     4  10  21  31  49  80 121 164 211 258 306 364
#     4  11  25  46  72  98 121 153 207 272 330 387
#     4  10  22  38  62  90 126 161 211 258 316 374
#     4   9  17  28  44  74 116 165 214 255 298 356
#     4  10  20  36  59  96 132 172 213 253 321 395
#     4  10  18  32  58  91 132 174 211 261 314 379
#     4  10  21  39  64  93 127 168 218 269 319 374
#
# _framework density 24.744636
#
# number of rings (size 3 to 8) (size 9 to 14) (size 15 to 20)
#    0.400    1.467    2.000    2.400    0.933    5.867 
#    0.000    0.667    0.000    5.600    0.000    2.800 
#    0.000    0.000    0.000    0.000    0.000    0.000 
#
# Total GULP energy -167329.002215 kJ/mol
# GULP energy per Si atom -5577.633407 kJ/mol
# Density = 2.468832 g / cm^3
# Si number density = 24.744636 Si / 1000 Ang^3
#
#
#
# Elastic Constant Matrix: (Units=GPa)
#
#
# Indices 1 2 3 4 5 6 
#
# 1 62.8123 17.7702 26.0855 0.0000 14.1730 0.0000
# 2 17.7702 92.6819 23.9721 0.0000 9.1086 0.0000
# 3 26.0855 23.9721 147.6431 0.0000 2.1979 0.0000
# 4 0.0000 0.0000 0.0000 12.7901 0.0000 -7.6194
# 5 14.1730 9.1086 2.1979 0.0000 18.5615 0.0000
# 6 0.0000 0.0000 0.0000 -7.6194 0.0000 16.0276
#
#
#
# Elastic Compliance Matrix: (Units=1/GPa)
#
#
# Indices 1 2 3 4 5 6 
#
# 1 0.021112 -0.001752 -0.003224 0.000000 -0.014879 0.000000
# 2 -0.001752 0.011958 -0.001567 0.000000 -0.004345 0.000000
# 3 -0.003224 -0.001567 0.007562 0.000000 0.002336 0.000000
# 4 0.000000 0.000000 0.000000 0.109076 0.000000 0.051854
# 5 -0.014879 -0.004345 0.002336 0.000000 0.067092 0.000000
# 6 0.000000 0.000000 0.000000 0.051854 0.000000 0.087044
#
#
# Mechanical properties :
#
#
# Convention : Reuss Voigt Hill
#
# Bulk Modulus (GPa) = 36.30266 48.75476 42.52871
# Shear Modulus (GPa) = 15.33210 25.16314 20.24762
#
# Velocity S-wave (km/s) = 2.49190 3.19237 2.86363
# Velocity P-wave (km/s) = 4.79398 5.77358 5.30643
#
# Compressibility (1/GPa) = 0.02754619
#
# Stress axis : x y z
#
# Youngs Moduli (GPa) = 47.36559 83.62697 132.23214
#
# Poissons Ratio (x) = 0.14649 0.42634
# Poissons Ratio (y) = 0.08297 0.20726
# Poissons Ratio (z) = 0.15272 0.13107
#
# Static dielectric constant tensor:
#      x y z
#    x 2.027190 0.000000 -0.085180 
#    y 0.000000 1.840770 0.000000 
#    z -0.085180 0.000000 1.989390 
# 
# From -- ./inp_files/57983.got.cif
#   From: 2010.05.17/outbox.cif.g08.bks.cpg/sg10_29_cif.got.tgz:57983.got - 2010.06.03 11:33:40.
