data_PCOD9143969
_publ_section_title
;
Structure prediction by ZEFSAII (Michael W. Deem and Ramdas Pophale) SiO2 
 PCOD9143969
Probable space group: P 2/M
;
_chemical_formula_sum "Si O2"
_cell_formula_units_Z 24
_cell_length_a 8.853602
_cell_length_b 13.740662
_cell_length_c 12.949185
_cell_angle_alpha 90.000000
_cell_angle_beta 46.266899
_cell_angle_gamma 90.000000
_cell_volume 1138.279054
_symmetry_space_group_name_H-M "P 2/M"
_symmetry_group_IT_number 10
_symmetry_cell_setting 'monoclinic'
loop_
_space_group_symop_operation_xyz
x,y,z
-x,y,-z
-x,-y,-z
x,-y,z
loop_
_atom_site_type_symbol
_atom_site_label
_atom_site_fract_x
_atom_site_fract_y
_atom_site_fract_z
Si Si1 0.931172 0.114375 0.706317
Si Si2 0.939619 0.780332 0.913544
Si Si3 0.146789 0.612490 0.690934
Si Si4 0.640080 0.211741 0.525247
Si Si5 0.167206 0.607136 0.343167
Si Si6 0.469218 0.228892 0.194527
O O1 0.973826 0.143467 0.805400
O O2 0.716541 0.164272 0.768199
O O3 0.140421 0.158341 0.556445
O O4 0.917011 0.000000 0.697913
O O5 0.069664 0.682282 0.820917
O O6 0.689101 0.770511 0.034621
O O7 0.000000 0.811297 0.000000
O O8 0.214454 0.500000 0.681150
O O9 0.299886 0.679993 0.547664
O O10 0.943161 0.604198 0.714604
O O11 0.500000 0.166854 0.500000
O O12 0.513934 0.207443 0.691302
O O13 0.204998 0.500000 0.367766
O O14 0.378381 0.663326 0.235441
O O15 0.000000 0.655075 0.500000
#
# Coordination Sequence:
#
# PCOD9143969 Si02
#       6
#     4   4   4   4   4   4
#     4  11  25  45  67  92 120 157 209 261 312 375
#     4  11  25  43  62  90 129 167 203 253 315 371
#     4  10  21  39  61  90 130 170 210 251 297 358
#     4  11  23  41  65  95 130 164 201 252 313 368
#     4  10  18  33  60  94 124 158 207 258 303 352
#     4  12  21  39  67  93 122 162 210 259 304 361
#
# _framework density 21.08446
#
# number of rings (size 3 to 8) (size 9 to 14) (size 15 to 20)
#    0.000    1.167    5.000    3.000    0.000    4.667 
#    0.000    5.000    0.000    0.000    0.000    0.000 
#    0.000    0.000    0.000    0.000    0.000    0.000 
#
# Total GULP energy -133879.307757 kJ/mol
# GULP energy per Si atom -5578.304490 kJ/mol
# Density = 2.103647 g / cm^3
# Si number density = 21.084460 Si / 1000 Ang^3
#
#
#
# Elastic Constant Matrix: (Units=GPa)
#
#
# Indices 1 2 3 4 5 6 
#
# 1 76.6942 7.7975 -10.1086 0.0000 9.8034 0.0000
# 2 7.7975 104.2092 20.5684 0.0000 -6.0333 0.0000
# 3 -10.1086 20.5684 59.0668 0.0000 9.0979 0.0000
# 4 0.0000 0.0000 0.0000 3.4597 0.0000 3.8487
# 5 9.8034 -6.0333 9.0979 0.0000 35.1686 0.0000
# 6 0.0000 0.0000 0.0000 3.8487 0.0000 -1.8739
#
#
#
# Elastic Compliance Matrix: (Units=1/GPa)
#
#
# Indices 1 2 3 4 5 6 
#
# 1 0.014504 -0.002211 0.004097 0.000000 -0.005482 0.000000
# 2 -0.002211 0.010915 -0.004752 0.000000 0.003718 0.000000
# 3 0.004097 -0.004752 0.020400 0.000000 -0.007235 0.000000
# 4 0.000000 0.000000 0.000000 0.087995 0.000000 0.180728
# 5 -0.005482 0.003718 -0.007235 0.000000 0.032472 0.000000
# 6 0.000000 0.000000 0.000000 0.180728 0.000000 -0.162462
#
#
# Mechanical properties :
#
#
# Convention : Reuss Voigt Hill
#
# Bulk Modulus (GPa) = 24.94622 30.72053 27.83337
# Shear Modulus (GPa) = 218.16232 22.13174 120.14703
#
# Velocity S-wave (km/s) = 10.18309 3.24338 7.55694
# Velocity P-wave (km/s) = 12.25225 5.35050 9.45372
#
# Compressibility (1/GPa) = 0.04008624
#
# Stress axis : x y z
#
# Youngs Moduli (GPa) = 68.94487 91.61938 49.01929
#
# Poissons Ratio (x) = 0.20260 -0.20082
# Poissons Ratio (y) = 0.15246 0.23293
# Poissons Ratio (z) = -0.28245 0.43537
#
# Static dielectric constant tensor:
#      x y z
#    x 1.803960 0.000000 0.038590 
#    y 0.000000 1.789580 0.000000 
#    z 0.038590 0.000000 2.100970 
# 
# From -- ./inp_files/61685.got.cif
#   From: 2010.05.17/outbox.cif.g08.bks.cpg/sg10_31_cif.got.tgz:61685.got - 2010.06.03 11:33:40.
