data_PCOD9143796
_publ_section_title
;
Structure prediction by ZEFSAII (Michael W. Deem and Ramdas Pophale) SiO2 
 PCOD9143796
Probable space group: P 2/M
;
_chemical_formula_sum "Si O2"
_cell_formula_units_Z 28
_cell_length_a 20.540490
_cell_length_b 15.591881
_cell_length_c 8.706109
_cell_angle_alpha 90.000000
_cell_angle_beta 26.299502
_cell_angle_gamma 90.000000
_cell_volume 1235.376359
_symmetry_space_group_name_H-M "P 2/M"
_symmetry_group_IT_number 10
_symmetry_cell_setting 'monoclinic'
loop_
_space_group_symop_operation_xyz
x,y,z
-x,y,-z
-x,-y,-z
x,-y,z
loop_
_atom_site_type_symbol
_atom_site_label
_atom_site_fract_x
_atom_site_fract_y
_atom_site_fract_z
Si Si1 0.666394 0.591714 0.217730
Si Si2 0.644012 0.345530 0.780238
Si Si3 0.001735 0.773897 0.679914
Si Si4 0.107895 0.407488 0.544227
Si Si5 0.143751 0.904749 0.584353
Si Si6 0.462464 0.753858 0.407750
Si Si7 0.287481 0.173330 0.546751
O O1 0.500000 0.590372 0.500000
O O2 0.681720 0.500000 0.270292
O O3 0.668331 0.682182 0.300020
O O4 0.787526 0.592387 0.828422
O O5 0.781927 0.400395 0.543452
O O6 0.693790 0.266885 0.569882
O O7 0.500000 0.385220 0.000000
O O8 0.586056 0.300378 0.058793
O O9 0.013638 0.678509 0.726443
O O10 0.132253 0.830847 0.480520
O O11 0.000000 0.769856 0.500000
O O12 0.858370 0.823288 0.042611
O O13 0.030571 0.500000 0.711360
O O14 0.271931 0.889683 0.437247
O O15 0.146730 0.000000 0.511595
O O16 0.000000 0.897374 0.000000
O O17 0.500000 0.780085 0.500000
O O18 0.418594 0.831118 0.390256
#
# Coordination Sequence:
#
# PCOD9143796 Si02
#       7
#     4   4   4   4   4   4   4
#     4   9  16  28  49  77 107 145 196 245 282 317
#     4  10  20  34  55  82 114 154 200 244 289 337
#     4  11  23  38  61  85 119 154 198 244 288 346
#     4  11  21  35  55  82 120 160 199 239 289 342
#     4   9  19  38  64  88 114 149 187 234 298 359
#     4  10  18  32  59  85 108 150 202 245 281 335
#     4  10  21  37  58  85 120 152 188 235 304 355
#
# _framework density 22.665157000000001
#
# number of rings (size 3 to 8) (size 9 to 14) (size 15 to 20)
#    0.000    2.000    4.286    0.857    0.000    0.857 
#    0.000    4.286    0.000    4.286    0.000    0.000 
#    0.000    0.571    0.000    0.000    0.000    0.000 
#
# Total GULP energy -156167.182217 kJ/mol
# GULP energy per Si atom -5577.399365 kJ/mol
# Density = 2.261357 g / cm^3
# Si number density = 22.665157 Si / 1000 Ang^3
#
#
#
# Elastic Constant Matrix: (Units=GPa)
#
#
# Indices 1 2 3 4 5 6 
#
# 1 136.6856 45.8364 3.9262 0.0000 10.9552 0.0000
# 2 45.8364 83.4617 -13.5592 0.0000 -2.6139 0.0000
# 3 3.9262 -13.5592 32.2201 0.0000 6.2213 0.0000
# 4 0.0000 0.0000 0.0000 13.4520 0.0000 2.2935
# 5 10.9552 -2.6139 6.2213 0.0000 21.8569 0.0000
# 6 0.0000 0.0000 0.0000 2.2935 0.0000 6.7930
#
#
#
# Elastic Compliance Matrix: (Units=1/GPa)
#
#
# Indices 1 2 3 4 5 6 
#
# 1 0.009787 -0.005977 -0.002775 0.000000 -0.004831 0.000000
# 2 -0.005977 0.016511 0.007108 0.000000 0.002947 0.000000
# 3 -0.002775 0.007108 0.035907 0.000000 -0.007979 0.000000
# 4 0.000000 0.000000 0.000000 0.078879 0.000000 -0.026632
# 5 -0.004831 0.002947 -0.007979 0.000000 0.050797 0.000000
# 6 0.000000 0.000000 0.000000 -0.026632 0.000000 0.156203
#
#
# Mechanical properties :
#
#
# Convention : Reuss Voigt Hill
#
# Bulk Modulus (GPa) = 16.97356 36.08602 26.52979
# Shear Modulus (GPa) = 13.47665 22.83131 18.15398
#
# Velocity S-wave (km/s) = 2.44108 3.17729 2.83320
# Velocity P-wave (km/s) = 3.93068 5.42367 4.73637
#
# Compressibility (1/GPa) = 0.05891516
#
# Stress axis : x y z
#
# Youngs Moduli (GPa) = 102.17236 60.56477 27.85009
#
# Poissons Ratio (x) = 0.36201 0.07729
# Poissons Ratio (y) = 0.61072 -0.19795
# Poissons Ratio (z) = 0.28357 -0.43048
#
# Static dielectric constant tensor:
#      x y z
#    x 1.911220 0.000000 -0.051180 
#    y 0.000000 1.858740 0.000000 
#    z -0.051180 0.000000 1.901430 
# 
# From -- ./inp_files/35234.got.cif
#   From: 2010.05.17/outbox.cif.g08.bks.cpg/sg10_18_cif.got.tgz:35234.got - 2010.06.03 11:33:40.
