data_PCOD9143589
_publ_section_title
;
Structure prediction by ZEFSAII (Michael W. Deem and Ramdas Pophale) SiO2 
 PCOD9143589
Probable space group: P 2/M
;
_chemical_formula_sum "Si O2"
_cell_formula_units_Z 28
_cell_length_a 21.786334
_cell_length_b 7.553083
_cell_length_c 17.729603
_cell_angle_alpha 90.000000
_cell_angle_beta 152.049384
_cell_angle_gamma 90.000000
_cell_volume 1367.451659
_symmetry_space_group_name_H-M "P 2/M"
_symmetry_group_IT_number 10
_symmetry_cell_setting 'monoclinic'
loop_
_space_group_symop_operation_xyz
x,y,z
-x,y,-z
-x,-y,-z
x,-y,z
loop_
_atom_site_type_symbol
_atom_site_label
_atom_site_fract_x
_atom_site_fract_y
_atom_site_fract_z
Si Si1 0.362809 0.717123 0.316261
Si Si2 0.828975 0.204392 0.208394
Si Si3 0.767867 0.297530 0.973566
Si Si4 0.881866 0.216111 0.509613
Si Si5 0.863577 0.712904 0.818116
Si Si6 0.350984 0.783301 0.852630
Si Si7 0.943535 0.208798 0.743251
O O1 0.500000 0.770885 0.500000
O O2 0.359980 0.500000 0.310091
O O3 0.328784 0.777719 0.194695
O O4 0.252092 0.776464 0.254398
O O5 0.718953 0.276431 0.145418
O O6 0.977476 0.279148 0.370844
O O7 0.845020 0.000000 0.248644
O O8 0.782602 0.210339 0.071229
O O9 0.730847 0.500000 0.948505
O O10 0.912984 0.294600 0.093993
O O11 0.753721 0.270792 0.325016
O O12 0.881354 0.269249 0.596856
O O13 0.884334 0.000000 0.509906
O O14 0.864388 0.500000 0.823424
O O15 0.858357 0.759095 0.724588
O O16 0.000000 0.779847 0.000000
O O17 0.357076 0.000000 0.859595
O O18 0.500000 0.722850 0.000000
O O19 0.968265 0.000000 0.763098
#
# Coordination Sequence:
#
# PCOD9143589 Si02
#       7
#     4   4   4   4   4   4   4
#     4   9  18  33  51  70  95 131 172 205 236 289
#     4   9  17  30  50  75  97 124 161 202 246 288
#     4  10  18  32  53  74  98 129 168 205 244 291
#     4   8  15  28  46  68  96 127 160 195 234 288
#     4  10  18  32  53  75  97 128 170 207 240 286
#     4   9  16  28  48  72  97 128 163 197 237 290
#     4  10  19  31  50  77 104 128 160 205 255 289
#
# _framework density 20.476043000000001
#
# number of rings (size 3 to 8) (size 9 to 14) (size 15 to 20)
#    0.000    2.714    1.429    2.143    0.000    2.000 
#    2.571    0.000    0.000   11.143    0.000    0.000 
#    0.000    0.000    0.000    0.000    0.000    0.000 
#
# Total GULP energy -156172.704249 kJ/mol
# GULP energy per Si atom -5577.596580 kJ/mol
# Density = 2.042944 g / cm^3
# Si number density = 20.476043 Si / 1000 Ang^3
#
#
#
# Elastic Constant Matrix: (Units=GPa)
#
#
# Indices 1 2 3 4 5 6 
#
# 1 129.4333 -2.2304 91.7702 0.0000 5.3444 0.0000
# 2 -2.2304 48.4718 1.8785 0.0000 3.9866 0.0000
# 3 91.7702 1.8785 180.9750 0.0000 3.2512 0.0000
# 4 0.0000 0.0000 0.0000 4.3190 0.0000 -7.7030
# 5 5.3444 3.9866 3.2512 0.0000 26.4770 0.0000
# 6 0.0000 0.0000 0.0000 -7.7030 0.0000 13.7676
#
#
#
# Elastic Compliance Matrix: (Units=1/GPa)
#
#
# Indices 1 2 3 4 5 6 
#
# 1 0.012182 0.000951 -0.006154 0.000000 -0.001846 0.000000
# 2 0.000951 0.020968 -0.000641 0.000000 -0.003270 0.000000
# 3 -0.006154 -0.000641 0.008648 0.000000 0.000277 0.000000
# 4 0.000000 0.000000 0.000000109.160230 0.000000 61.075474
# 5 -0.001846 -0.003270 0.000277 0.000000 0.038600 0.000000
# 6 0.000000 0.000000 0.000000 61.075474 0.000000 34.244545
#
#
# Mechanical properties :
#
#
# Convention : Reuss Voigt Hill
#
# Bulk Modulus (GPa) = 33.21205 60.19074 46.70140
# Shear Modulus (GPa) = 0.03484 26.74350 13.38917
#
# Velocity S-wave (km/s) = 0.13059 3.61790 2.55991
# Velocity P-wave (km/s) = 4.03459 6.84922 5.62093
#
# Compressibility (1/GPa) = 0.03010956
#
# Stress axis : x y z
#
# Youngs Moduli (GPa) = 82.08919 47.69147 115.63484
#
# Poissons Ratio (x) = -0.04535 0.71161
# Poissons Ratio (y) = -0.07806 0.07413
# Poissons Ratio (z) = 0.50517 0.03057
#
# Static dielectric constant tensor:
#      x y z
#    x 1.721580 0.000000 -0.012610 
#    y 0.000000 1.784730 0.000000 
#    z -0.012610 0.000000 1.706870 
# 
# From -- ./inp_files/79289.got.cif
#   From: 2010.05.17/outbox.cif.g08.bks.cpg/sg10_40_cif.got.tgz:79289.got - 2010.06.03 11:33:40.
