data_PCOD9143231
_publ_section_title
;
Structure prediction by ZEFSAII (Michael W. Deem and Ramdas Pophale) SiO2 
 PCOD9143231
Probable space group: P 2/M
;
_chemical_formula_sum "Si O2"
_cell_formula_units_Z 32
_cell_length_a 12.572300
_cell_length_b 7.671003
_cell_length_c 21.038563
_cell_angle_alpha 90.000000
_cell_angle_beta 52.520164
_cell_angle_gamma 90.000000
_cell_volume 1610.151910
_symmetry_space_group_name_H-M "P 2/M"
_symmetry_group_IT_number 10
_symmetry_cell_setting 'monoclinic'
loop_
_space_group_symop_operation_xyz
x,y,z
-x,y,-z
-x,-y,-z
x,-y,z
loop_
_atom_site_type_symbol
_atom_site_label
_atom_site_fract_x
_atom_site_fract_y
_atom_site_fract_z
Si Si1 0.787502 0.711831 0.346230
Si Si2 0.835925 0.289880 0.693020
Si Si3 0.909265 0.287830 0.803164
Si Si4 0.193785 0.712313 0.885851
Si Si5 0.330258 0.801841 0.364460
Si Si6 0.106225 0.712203 0.051182
Si Si7 0.381534 0.701479 0.707446
Si Si8 0.132712 0.711074 0.546295
O O1 0.781418 0.500000 0.352708
O O2 0.674575 0.775589 0.338517
O O3 0.787681 0.770756 0.419357
O O4 0.933806 0.755728 0.264391
O O5 0.839928 0.500000 0.692734
O O6 0.832738 0.229173 0.767346
O O7 0.717558 0.238433 0.689252
O O8 0.978973 0.231563 0.611627
O O9 0.903449 0.500000 0.805919
O O10 0.861880 0.225765 0.889373
O O11 0.200567 0.500000 0.886648
O O12 0.307676 0.776862 0.796499
O O13 0.048414 0.755001 0.909088
O O14 0.193051 0.773133 0.959315
O O15 0.460163 0.701427 0.341401
O O16 0.205389 0.770464 0.456505
O O17 0.371946 0.000000 0.353214
O O18 0.113016 0.500000 0.049833
O O19 0.336731 0.500000 0.722000
O O20 0.131420 0.500000 0.545292
#
# Coordination Sequence:
#
# PCOD9143231 Si02
#       8
#     4   4   4   4   4   4   4   4
#     4   8  14  26  47  74  98 122 151 186 232 281
#     4   9  18  33  54  75  92 117 156 200 239 278
#     4   8  12  22  44  74 103 122 144 187 238 281
#     4   8  13  20  38  71 107 132 146 175 227 283
#     4  12  25  36  46  64  92 128 165 200 240 279
#     4   8  11  18  37  73 111 127 139 177 236 283
#     4  10  18  31  50  70  98 132 163 188 219 277
#     4   9  18  34  55  75  93 114 150 200 244 284
#
# _framework density 19.873902999999999
#
# number of rings (size 3 to 8) (size 9 to 14) (size 15 to 20)
#    0.000    3.000    1.250    3.750    0.000    2.500 
#    0.000    3.125    0.000    1.500    0.000    7.875 
#    0.000    0.000    0.000    0.000    0.000    0.000 
#
# Total GULP energy -178330.511195 kJ/mol
# GULP energy per Si atom -5572.828475 kJ/mol
# Density = 1.982867 g / cm^3
# Si number density = 19.873903 Si / 1000 Ang^3
#
#
#
# Elastic Constant Matrix: (Units=GPa)
#
#
# Indices 1 2 3 4 5 6 
#
# 1 104.2602 0.0122 20.7748 0.0000 31.3700 0.0000
# 2 0.0122 30.9837 3.3459 0.0000 3.4576 0.0000
# 3 20.7748 3.3459 39.3076 0.0000 29.1930 0.0000
# 4 0.0000 0.0000 0.0000 -36.3251 0.0000 2.0120
# 5 31.3700 3.4576 29.1930 0.0000 31.6778 0.0000
# 6 0.0000 0.0000 0.0000 2.0120 0.0000 -64.4764
#
#
#
# Elastic Compliance Matrix: (Units=1/GPa)
#
#
# Indices 1 2 3 4 5 6 
#
# 1 0.014814 0.001601 0.009694 0.000000 -0.023779 0.000000
# 2 0.001601 0.032848 0.000627 0.000000 -0.005749 0.000000
# 3 0.009694 0.000627 0.086965 0.000000 -0.089812 0.000000
# 4 0.000000 0.000000 0.000000 -0.027577 0.000000 -0.000861
# 5 -0.023779 -0.005749 -0.089812 0.000000 0.138510 0.000000
# 6 0.000000 0.000000 0.000000 -0.000861 0.000000 -0.015536
#
#
# Mechanical properties :
#
#
# Convention : Reuss Voigt Hill
#
# Bulk Modulus (GPa) = 6.31026 24.75746 15.53386
# Shear Modulus (GPa) = 19.30480 -3.79682 7.75399
#
# Velocity S-wave (km/s) = 3.12005 -1.38369 1.97739
# Velocity P-wave (km/s) = 4.02016 3.15143 3.61201
#
# Compressibility (1/GPa) = 0.15847202
#
# Stress axis : x y z
#
# Youngs Moduli (GPa) = 67.50313 30.44308 11.49889
#
# Poissons Ratio (x) = -0.04874 -0.11147
# Poissons Ratio (y) = -0.10806 -0.00721
# Poissons Ratio (z) = -0.65439 -0.01910
#
# Static dielectric constant tensor:
#      x y z
#    x 1.706040 0.000000 0.040740 
#    y 0.000000 1.758280 0.000000 
#    z 0.040740 0.000000 1.706600 
# 
# From -- ./inp_files/83527.got.cif
#   From: 2010.05.17/outbox.cif.g08.bks.cpg/sg10_42_cif.got.tgz:83527.got - 2010.06.03 11:33:40.
