data_PCOD9143644
_publ_section_title
;
Structure prediction by ZEFSAII (Michael W. Deem and Ramdas Pophale) SiO2 
 PCOD9143644
Probable space group: P 2/M
;
_chemical_formula_sum "Si O2"
_cell_formula_units_Z 28
_cell_length_a 15.087084
_cell_length_b 7.871865
_cell_length_c 16.164597
_cell_angle_alpha 90.000000
_cell_angle_beta 46.624352
_cell_angle_gamma 90.000000
_cell_volume 1395.412344
_symmetry_space_group_name_H-M "P 2/M"
_symmetry_group_IT_number 10
_symmetry_cell_setting 'monoclinic'
loop_
_space_group_symop_operation_xyz
x,y,z
-x,y,-z
-x,-y,-z
x,-y,z
loop_
_atom_site_type_symbol
_atom_site_label
_atom_site_fract_x
_atom_site_fract_y
_atom_site_fract_z
Si Si1 0.188152 0.792298 0.767061
Si Si2 0.548789 0.307203 0.713524
Si Si3 0.980705 0.207814 0.645603
Si Si4 0.069125 0.792461 0.136486
Si Si5 0.720596 0.801218 0.114590
Si Si6 0.806716 0.204273 0.608461
Si Si7 0.385838 0.201912 0.511462
O O1 0.245022 0.729953 0.816828
O O2 0.268305 0.736225 0.637172
O O3 0.047789 0.746817 0.844185
O O4 0.196426 0.000000 0.760914
O O5 0.518315 0.500000 0.750415
O O6 0.422991 0.209774 0.808785
O O7 0.667522 0.256869 0.689167
O O8 0.586757 0.285396 0.593382
O O9 0.953621 0.267275 0.755351
O O10 0.876717 0.259603 0.646609
O O11 0.109901 0.261476 0.522842
O O12 0.982518 0.000000 0.645967
O O13 0.071590 0.000000 0.139619
O O14 0.192414 0.731863 0.013257
O O15 0.752111 0.000000 0.099936
O O16 0.809952 0.000000 0.605715
O O17 0.500000 0.221784 0.500000
O O18 0.371534 0.000000 0.503667
#
# Coordination Sequence:
#
# PCOD9143644 Si02
#       7
#     4   4   4   4   4   4   4
#     4   9  16  28  50  80 106 130 165 210 258 306
#     4  12  24  35  49  73 107 142 176 212 255 303
#     4   8  15  30  55  86 107 125 162 218 270 306
#     4   9  16  27  50  81 106 127 166 221 263 299
#     4  10  19  33  51  73 103 140 177 211 251 303
#     4   9  17  33  58  81 105 133 165 209 265 320
#     4  10  18  32  54  77 103 133 168 208 254 308
#
# _framework density 20.065753999999998
#
# number of rings (size 3 to 8) (size 9 to 14) (size 15 to 20)
#    0.000    2.429    1.429    3.429    0.000    4.286 
#    0.000    2.143    0.000   10.286    0.000    0.000 
#    0.000    0.000    0.000    0.000    0.000    0.000 
#
# Total GULP energy -156258.745519 kJ/mol
# GULP energy per Si atom -5580.669483 kJ/mol
# Density = 2.002008 g / cm^3
# Si number density = 20.065754 Si / 1000 Ang^3
#
#
#
# Elastic Constant Matrix: (Units=GPa)
#
#
# Indices 1 2 3 4 5 6 
#
# 1 61.0163 -1.4289 46.3658 0.0000 -6.4354 0.0000
# 2 -1.4289 13.1720 -4.6649 0.0000 4.3620 0.0000
# 3 46.3658 -4.6649 123.4200 0.0000 -13.9288 0.0000
# 4 0.0000 0.0000 0.0000 -15.0634 0.0000 5.1441
# 5 -6.4354 4.3620 -13.9288 0.0000 17.9575 0.0000
# 6 0.0000 0.0000 0.0000 5.1441 0.0000 -19.1360
#
#
#
# Elastic Compliance Matrix: (Units=1/GPa)
#
#
# Indices 1 2 3 4 5 6 
#
# 1 0.022999 -0.001150 -0.008463 0.000000 0.001957 0.000000
# 2 -0.001150 0.082717 0.001364 0.000000 -0.019447 0.000000
# 3 -0.008463 0.001364 0.012004 0.000000 0.005947 0.000000
# 4 0.000000 0.000000 0.000000 -0.073096 0.000000 -0.019650
# 5 0.001957 -0.019447 0.005947 0.000000 0.065725 0.000000
# 6 0.000000 0.000000 0.000000 -0.019650 0.000000 -0.057540
#
#
# Mechanical properties :
#
#
# Convention : Reuss Voigt Hill
#
# Bulk Modulus (GPa) = 9.87930 30.90583 20.39256
# Shear Modulus (GPa) = 48.52066 7.24070 27.88068
#
# Velocity S-wave (km/s) = 4.92274 1.90166 3.73160
# Velocity P-wave (km/s) = 6.10289 4.50083 5.36203
#
# Compressibility (1/GPa) = 0.10122172
#
# Stress axis : x y z
#
# Youngs Moduli (GPa) = 43.47925 12.08948 83.30247
#
# Poissons Ratio (x) = 0.01391 0.70498
# Poissons Ratio (y) = 0.05002 -0.11362
# Poissons Ratio (z) = 0.36796 -0.01649
#
# Static dielectric constant tensor:
#      x y z
#    x 1.703500 0.000000 -0.007580 
#    y 0.000000 1.740400 0.000000 
#    z -0.007580 0.000000 1.706520 
# 
# From -- ./inp_files/49193.got.cif
#   From: 2010.05.17/outbox.cif.g08.bks.cpg/sg10_25_cif.got.tgz:49193.got - 2010.06.03 11:33:40.
