data_PCOD9143448
_publ_section_title
;
Structure prediction by ZEFSAII (Michael W. Deem and Ramdas Pophale) SiO2 
 PCOD9143448
Probable space group: P 2/M
;
_chemical_formula_sum "Si O2"
_cell_formula_units_Z 30
_cell_length_a 16.231625
_cell_length_b 7.370862
_cell_length_c 10.354952
_cell_angle_alpha 90.000000
_cell_angle_beta 92.304851
_cell_angle_gamma 90.000000
_cell_volume 1237.875256
_symmetry_space_group_name_H-M "P 2/M"
_symmetry_group_IT_number 10
_symmetry_cell_setting 'monoclinic'
loop_
_space_group_symop_operation_xyz
x,y,z
-x,y,-z
-x,-y,-z
x,-y,z
loop_
_atom_site_type_symbol
_atom_site_label
_atom_site_fract_x
_atom_site_fract_y
_atom_site_fract_z
Si Si1 0.929128 0.278561 0.891879
Si Si2 0.383338 0.500000 0.309828
Si Si3 0.465166 0.218500 0.685163
Si Si4 0.018522 0.720412 0.644264
Si Si5 0.764581 0.288587 0.012761
Si Si6 0.208318 0.280799 0.699281
Si Si7 0.409671 0.783842 0.956468
Si Si8 0.672367 0.795062 0.527828
O O1 0.929019 0.500000 0.888992
O O2 0.957452 0.216770 0.752675
O O3 0.838586 0.215144 0.930897
O O4 0.000000 0.227858 0.000000
O O5 0.454460 0.340040 0.293908
O O6 0.317760 0.657125 0.355907
O O7 0.406567 0.258991 0.804228
O O8 0.411884 0.261182 0.554503
O O9 0.481179 0.000000 0.687428
O O10 0.013509 0.500000 0.642302
O O11 0.112322 0.764898 0.683431
O O12 0.000000 0.785696 0.500000
O O13 0.784744 0.500000 0.028126
O O14 0.765391 0.210996 0.157799
O O15 0.668480 0.282931 0.967378
O O16 0.217490 0.500000 0.696651
O O17 0.258751 0.212548 0.579336
O O18 0.410058 0.000000 0.972311
O O19 0.500000 0.715218 0.000000
O O20 0.663545 0.000000 0.571646
#
# Coordination Sequence:
#
# PCOD9143448 Si02
#       8
#     4   2   4   4   4   4   4   4
#     4   9  15  28  51  85 117 152 197 248 304 364
#     4  12  23  36  57  82 116 153 198 261 305 361
#     4  10  21  36  56  82 112 153 200 250 313 371
#     4   9  17  30  52  83 123 161 198 247 309 378
#     4  10  19  31  57  87 115 150 204 261 303 365
#     4  10  18  31  54  83 115 159 201 250 313 367
#     4  10  22  40  59  80 114 158 200 252 322 379
#     4  11  21  34  55  85 116 151 199 251 308 366
#
# _framework density 24.235073
#
# number of rings (size 3 to 8) (size 9 to 14) (size 15 to 20)
#    0.000    2.000    3.333    1.600    0.933    1.333 
#    0.000    1.333    2.933    1.600    0.000    0.000 
#    0.000    0.000    0.000    0.000    0.000    0.000 
#
# Total GULP energy -167234.197094 kJ/mol
# GULP energy per Si atom -5574.473236 kJ/mol
# Density = 2.417991 g / cm^3
# Si number density = 24.235073 Si / 1000 Ang^3
#
#
#
# Elastic Constant Matrix: (Units=GPa)
#
#
# Indices 1 2 3 4 5 6 
#
# 1 156.6341 4.3433 58.3377 0.0000 -48.8514 0.0000
# 2 4.3433 98.9362 4.3710 0.0000 -8.2146 0.0000
# 3 58.3377 4.3710 95.7343 0.0000 -32.5245 0.0000
# 4 0.0000 0.0000 0.0000 0.0540 0.0000 -24.9274
# 5 -48.8514 -8.2146 -32.5245 0.0000 47.8666 0.0000
# 6 0.0000 0.0000 0.0000 -24.9274 0.0000 65.9860
#
#
#
# Elastic Compliance Matrix: (Units=1/GPa)
#
#
# Indices 1 2 3 4 5 6 
#
# 1 0.010198 0.000379 -0.003476 0.000000 0.008111 0.000000
# 2 0.000379 0.010270 0.000039 0.000000 0.002176 0.000000
# 3 -0.003476 0.000039 0.014768 0.000000 0.006494 0.000000
# 4 0.000000 0.000000 0.000000 -0.106807 0.000000 -0.040348
# 5 0.008111 0.002176 0.006494 0.000000 0.033955 0.000000
# 6 0.000000 0.000000 0.000000 -0.040348 0.000000 -0.000087
#
#
# Mechanical properties :
#
#
# Convention : Reuss Voigt Hill
#
# Bulk Modulus (GPa) = 34.33913 53.93426 44.13670
# Shear Modulus (GPa) = -228.51562 41.73150 -93.39206
#
# Velocity S-wave (km/s) = -9.72090 4.15414 -6.21446
# Velocity P-wave (km/s) = 10.57330 6.73142 5.76553
#
# Compressibility (1/GPa) = 0.02912129
#
# Stress axis : x y z
#
# Youngs Moduli (GPa) = 98.05669 97.37255 67.71290
#
# Poissons Ratio (x) = -0.03694 0.23538
# Poissons Ratio (y) = -0.03720 -0.00266
# Poissons Ratio (z) = 0.34086 -0.00383
#
# Static dielectric constant tensor:
#      x y z
#    x 1.944660 0.000000 0.023960 
#    y 0.000000 1.898730 0.000000 
#    z 0.023960 0.000000 2.013230 
# 
# From -- ./inp_files/49292.got.cif
#   From: 2010.05.17/outbox.cif.g08.bks.cpg/sg10_25_cif.got.tgz:49292.got - 2010.06.03 11:33:40.
