data_PCOD9143197
_publ_section_title
;
Structure prediction by ZEFSAII (Michael W. Deem and Ramdas Pophale) SiO2 
 PCOD9143197
Probable space group: P 2/M
;
_chemical_formula_sum "Si O2"
_cell_formula_units_Z 32
_cell_length_a 21.153864
_cell_length_b 9.559061
_cell_length_c 20.810403
_cell_angle_alpha 90.000000
_cell_angle_beta 26.260509
_cell_angle_gamma 90.000000
_cell_volume 1861.884585
_symmetry_space_group_name_H-M "P 2/M"
_symmetry_group_IT_number 10
_symmetry_cell_setting 'monoclinic'
loop_
_space_group_symop_operation_xyz
x,y,z
-x,y,-z
-x,-y,-z
x,-y,z
loop_
_atom_site_type_symbol
_atom_site_label
_atom_site_fract_x
_atom_site_fract_y
_atom_site_fract_z
Si Si1 0.098302 0.162226 0.586078
Si Si2 0.754462 0.835507 0.913142
Si Si3 0.870172 0.339815 0.319986
Si Si4 0.840398 0.159870 0.616844
Si Si5 0.661230 0.659634 0.877497
Si Si6 0.810579 0.837832 0.109007
Si Si7 0.156468 0.161522 0.777136
Si Si8 0.216926 0.661471 0.987579
O O1 0.157393 0.259790 0.588387
O O2 0.152351 0.193943 0.465266
O O3 0.925408 0.174000 0.743832
O O4 0.130992 0.000000 0.570811
O O5 0.678217 0.754908 0.924934
O O6 0.727035 0.755855 0.004975
O O7 0.718226 0.000000 0.949128
O O8 0.823742 0.500000 0.364650
O O9 0.807859 0.259101 0.315263
O O10 0.043420 0.338513 0.153142
O O11 0.752581 0.269323 0.738083
O O12 0.000000 0.159270 0.500000
O O13 0.784949 0.000000 0.674863
O O14 0.708445 0.500000 0.847951
O O15 0.500000 0.656722 0.000000
O O16 0.782198 0.798103 0.208948
O O17 0.767407 0.000000 0.138403
O O18 0.749885 0.735198 0.110472
O O19 0.983467 0.835356 0.942844
O O20 0.194791 0.000000 0.729297
O O21 0.263494 0.500000 0.948362
#
# Coordination Sequence:
#
# PCOD9143197 Si02
#       8
#     4   4   4   4   4   4   4   4
#     4   9  17  29  46  66  89 114 147 194 236 275
#     4  10  18  31  49  66  87 118 155 195 235 279
#     4   9  16  23  33  53  80 109 144 182 225 277
#     4  10  19  35  55  76  96 120 160 202 240 284
#     4  11  24  38  51  72 101 129 157 193 242 295
#     4   8  13  21  32  47  68 102 146 185 221 268
#     4   8  13  21  32  45  68 104 145 184 223 266
#     4   9  16  24  35  55  81 108 142 186 232 276
#
# _framework density 17.186886000000001
#
# number of rings (size 3 to 8) (size 9 to 14) (size 15 to 20)
#    0.000    2.750    1.250    2.250    0.000    5.750 
#    0.000    2.500    0.000    0.000    0.000    0.000 
#    0.000    0.000    0.000    1.125    0.000   21.500 
#
# Total GULP energy -178311.779962 kJ/mol
# GULP energy per Si atom -5572.243124 kJ/mol
# Density = 1.714777 g / cm^3
# Si number density = 17.186886 Si / 1000 Ang^3
#
#
#
# Elastic Constant Matrix: (Units=GPa)
#
#
# Indices 1 2 3 4 5 6 
#
# 1 136.0186 109.0593 27.7472 0.0000 45.5110 0.0000
# 2 109.0593 152.0532 29.8711 0.0000 31.2509 0.0000
# 3 27.7472 29.8711 12.2730 0.0000 8.6893 0.0000
# 4 0.0000 0.0000 0.0000 10.7629 0.0000 8.9260
# 5 45.5110 31.2509 8.6893 0.0000 19.0571 0.0000
# 6 0.0000 0.0000 0.0000 8.9260 0.0000 43.7085
#
#
#
# Elastic Compliance Matrix: (Units=1/GPa)
#
#
# Indices 1 2 3 4 5 6 
#
# 1 0.066200 -0.019716 -0.018665 0.000000 -0.117252 0.000000
# 2 -0.019716 0.019869 -0.020751 0.000000 0.023964 0.000000
# 3 -0.018665 -0.020751 0.175039 0.000000 -0.001207 0.000000
# 4 0.000000 0.000000 0.000000 0.111856 0.000000 -0.022843
# 5 -0.117252 0.023964 -0.001207 0.000000 0.293741 0.000000
# 6 0.000000 0.000000 0.000000 -0.022843 0.000000 0.027544
#
#
# Mechanical properties :
#
#
# Convention : Reuss Voigt Hill
#
# Bulk Modulus (GPa) = 7.00070 70.41111 38.70591
# Shear Modulus (GPa) = 5.81308 23.61683 14.71496
#
# Velocity S-wave (km/s) = 1.84109 3.71093 2.92922
# Velocity P-wave (km/s) = 2.93285 7.70832 5.83180
#
# Compressibility (1/GPa) = 0.14284286
#
# Stress axis : x y z
#
# Youngs Moduli (GPa) = 15.10575 50.32858 5.71301
#
# Poissons Ratio (x) = 0.99230 0.10664
# Poissons Ratio (y) = 0.29783 0.11855
# Poissons Ratio (z) = 0.28195 1.04437
#
# Static dielectric constant tensor:
#      x y z
#    x 1.579470 0.000000 0.009160 
#    y 0.000000 1.580870 0.000000 
#    z 0.009160 0.000000 1.557350 
# 
# From -- ./inp_files/86120.got.cif
#   From: 2010.05.17/outbox.cif.g08.bks.cpg/sg10_44_cif.got.tgz:86120.got - 2010.06.03 11:33:40.
