data_PCOD9143735
_publ_section_title
;
Structure prediction by ZEFSAII (Michael W. Deem and Ramdas Pophale) SiO2 
 PCOD9143735
Probable space group: P 2/M
;
_chemical_formula_sum "Si O2"
_cell_formula_units_Z 32
_cell_length_a 27.041710
_cell_length_b 7.555745
_cell_length_c 20.989811
_cell_angle_alpha 90.000000
_cell_angle_beta 20.487603
_cell_angle_gamma 90.000000
_cell_volume 1501.045497
_symmetry_space_group_name_H-M "P 2/M"
_symmetry_group_IT_number 10
_symmetry_cell_setting 'monoclinic'
loop_
_space_group_symop_operation_xyz
x,y,z
-x,y,-z
-x,-y,-z
x,-y,z
loop_
_atom_site_type_symbol
_atom_site_label
_atom_site_fract_x
_atom_site_fract_y
_atom_site_fract_z
Si Si1 0.838752 0.716538 0.690624
Si Si2 0.367989 0.716264 0.947165
Si Si3 0.082013 0.799820 0.771168
Si Si4 0.678050 0.713847 0.620044
Si Si5 0.657435 0.716089 0.789339
Si Si6 0.716412 0.714215 0.356099
Si Si7 0.769857 0.299014 0.150271
Si Si8 0.603913 0.283684 0.227985
O O1 0.837612 0.500000 0.692377
O O2 0.765462 0.772784 0.713427
O O3 0.000000 0.774192 0.500000
O O4 0.744646 0.773895 0.864283
O O5 0.367729 0.500000 0.948303
O O6 0.525852 0.771860 0.776882
O O7 0.339450 0.773353 0.909301
O O8 0.195411 0.767380 0.578797
O O9 0.163749 0.769743 0.738811
O O10 0.033018 0.000000 0.827550
O O11 0.937959 0.692866 0.938303
O O12 0.675633 0.500000 0.623118
O O13 0.692577 0.774292 0.675451
O O14 0.657549 0.500000 0.788420
O O15 0.500000 0.769977 0.000000
O O16 0.720992 0.500000 0.350357
O O17 0.740966 0.780675 0.254710
O O18 0.560417 0.767035 0.567396
O O19 0.713261 0.500000 0.223002
O O20 0.692138 0.220421 0.182556
O O21 0.608609 0.500000 0.221946
#
# Coordination Sequence:
#
# PCOD9143735 Si02
#       8
#     4   4   4   4   4   4   4   4
#     4   9  16  24  37  69 112 140 163 206 265 320
#     4   9  15  26  48  76 108 140 169 214 268 318
#     4  12  25  38  53  77 111 148 186 225 270 322
#     4  10  18  32  56  79 103 138 183 229 270 315
#     4   9  15  25  45  74 103 133 170 213 265 318
#     4  10  19  36  61  85 107 137 179 227 273 324
#     4  10  21  36  57  84 112 140 176 223 276 327
#     4   9  17  31  55  85 112 138 176 222 271 324
#
# _framework density 21.318474999999999
#
# number of rings (size 3 to 8) (size 9 to 14) (size 15 to 20)
#    0.000    2.250    2.500    1.875    0.000    4.500 
#    0.000    4.375    0.000    1.875    0.000    0.000 
#    0.000    2.000    0.000    0.000    0.000    0.000 
#
# Total GULP energy -178760.482141 kJ/mol
# GULP energy per Si atom -5586.265067 kJ/mol
# Density = 2.126995 g / cm^3
# Si number density = 21.318475 Si / 1000 Ang^3
#
#
#
# Elastic Constant Matrix: (Units=GPa)
#
#
# Indices 1 2 3 4 5 6 
#
# 1 132.3979 1.1982 43.7991 0.0000 11.9589 0.0000
# 2 1.1982 54.4717 -5.0805 0.0000 2.5331 0.0000
# 3 43.7991 -5.0805 78.2387 0.0000 6.8807 0.0000
# 4 0.0000 0.0000 0.0000 -17.0402 0.0000 -26.6982
# 5 11.9589 2.5331 6.8807 0.0000 42.3420 0.0000
# 6 0.0000 0.0000 0.0000 -26.6982 0.0000 42.0691
#
#
#
# Elastic Compliance Matrix: (Units=1/GPa)
#
#
# Indices 1 2 3 4 5 6 
#
# 1 0.009427 -0.000605 -0.005159 0.000000 -0.001788 0.000000
# 2 -0.000605 0.018582 0.001652 0.000000 -0.001209 0.000000
# 3 -0.005159 0.001652 0.015884 0.000000 -0.001223 0.000000
# 4 0.000000 0.000000 0.000000 -0.029426 0.000000 -0.018674
# 5 -0.001788 -0.001209 -0.001223 0.000000 0.024393 0.000000
# 6 0.000000 0.000000 0.000000 -0.018674 0.000000 0.011919
#
#
# Mechanical properties :
#
#
# Convention : Reuss Voigt Hill
#
# Bulk Modulus (GPa) = 28.03688 38.32687 33.18187
# Shear Modulus (GPa) = 70.52775 28.48694 49.50735
#
# Velocity S-wave (km/s) = 5.75802 3.65945 4.82423
# Velocity P-wave (km/s) = 7.57538 5.98938 6.82858
#
# Compressibility (1/GPa) = 0.03566731
#
# Stress axis : x y z
#
# Youngs Moduli (GPa) = 106.08137 53.81616 62.95459
#
# Poissons Ratio (x) = 0.03258 0.32480
# Poissons Ratio (y) = 0.06422 -0.10399
# Poissons Ratio (z) = 0.54730 -0.08890
#
# Static dielectric constant tensor:
#      x y z
#    x 1.749710 0.000000 0.013840 
#    y 0.000000 1.792990 0.000000 
#    z 0.013840 0.000000 1.716770 
# 
# From -- ./inp_files/86875.got.cif
#   From: 2010.05.17/outbox.cif.g08.bks.cpg/sg10_44_cif.got.tgz:86875.got - 2010.06.03 11:33:40.
