data_PCOD9143880
_publ_section_title
;
Structure prediction by ZEFSAII (Michael W. Deem and Ramdas Pophale) SiO2 
 PCOD9143880
Probable space group: P 2/M
;
_chemical_formula_sum "Si O2"
_cell_formula_units_Z 32
_cell_length_a 18.920358
_cell_length_b 7.611506
_cell_length_c 22.405771
_cell_angle_alpha 90.000000
_cell_angle_beta 152.224865
_cell_angle_gamma 90.000000
_cell_volume 1503.655262
_symmetry_space_group_name_H-M "P 2/M"
_symmetry_group_IT_number 10
_symmetry_cell_setting 'monoclinic'
loop_
_space_group_symop_operation_xyz
x,y,z
-x,y,-z
-x,-y,-z
x,-y,z
loop_
_atom_site_type_symbol
_atom_site_label
_atom_site_fract_x
_atom_site_fract_y
_atom_site_fract_z
Si Si1 0.902452 0.709924 0.212750
Si Si2 0.033651 0.794526 0.090941
Si Si3 0.526571 0.295861 0.282620
Si Si4 0.327559 0.287652 0.377839
Si Si5 0.758342 0.715240 0.553269
Si Si6 0.778503 0.213416 0.377293
Si Si7 0.216940 0.705991 0.001284
Si Si8 0.887528 0.210270 0.332498
O O1 0.911882 0.500000 0.212429
O O2 0.820147 0.780242 0.092031
O O3 0.833207 0.743340 0.225938
O O4 0.075968 0.776529 0.343306
O O5 0.208754 0.772861 0.239553
O O6 0.928823 0.716091 0.064752
O O7 0.995390 0.000000 0.061332
O O8 0.000000 0.720773 0.000000
O O9 0.500270 0.500000 0.279134
O O10 0.624661 0.219791 0.410380
O O11 0.637466 0.285417 0.308525
O O12 0.364340 0.216665 0.144230
O O13 0.500000 0.226980 0.500000
O O14 0.328137 0.500000 0.376338
O O15 0.267688 0.233555 0.398017
O O16 0.757834 0.500000 0.550361
O O17 0.789657 0.268799 0.316369
O O18 0.938569 0.271134 0.526560
O O19 0.771573 0.000000 0.374833
O O20 0.251930 0.500000 0.018085
O O21 0.893202 0.000000 0.340627
#
# Coordination Sequence:
#
# PCOD9143880 Si02
#       8
#     4   4   4   4   4   4   4   4
#     4  10  18  33  55  80 108 138 177 230 274 316
#     4  11  25  42  58  81 117 155 190 229 276 333
#     4  10  20  34  55  82 110 140 178 227 278 326
#     4  10  21  38  63  90 114 145 187 234 282 332
#     4   9  17  32  53  82 111 133 176 232 270 317
#     4   9  18  33  51  76 111 142 178 226 269 321
#     4  10  22  39  59  81 110 146 184 227 277 330
#     4   9  18  32  52  78 107 143 182 221 269 325
#
# _framework density 21.281472999999998
#
# number of rings (size 3 to 8) (size 9 to 14) (size 15 to 20)
#    0.000    2.250    2.500    1.125    1.750    2.750 
#    0.000    2.500    0.000    3.750    0.000    0.000 
#    0.000    0.000    0.000    0.000    0.000    0.000 
#
# Total GULP energy -178642.079458 kJ/mol
# GULP energy per Si atom -5582.564983 kJ/mol
# Density = 2.123304 g / cm^3
# Si number density = 21.281473 Si / 1000 Ang^3
#
#
#
# Elastic Constant Matrix: (Units=GPa)
#
#
# Indices 1 2 3 4 5 6 
#
# 1 70.3073 -13.0589 35.2175 0.0000 -30.5077 0.0000
# 2 -13.0589 40.7636 1.1222 0.0000 -4.5183 0.0000
# 3 35.2175 1.1222 139.8384 0.0000 -27.3542 0.0000
# 4 0.0000 0.0000 0.0000 4.4670 0.0000 -0.6303
# 5 -30.5077 -4.5183 -27.3542 0.0000 38.6427 0.0000
# 6 0.0000 0.0000 0.0000 -0.6303 0.0000 -7.8919
#
#
#
# Elastic Compliance Matrix: (Units=1/GPa)
#
#
# Indices 1 2 3 4 5 6 
#
# 1 0.026317 0.010731 -0.002791 0.000000 0.020056 0.000000
# 2 0.010731 0.029251 -0.000709 0.000000 0.011390 0.000000
# 3 -0.002791 -0.000709 0.008604 0.000000 0.003804 0.000000
# 4 0.000000 0.000000 0.000000 0.221370 0.000000 -0.017679
# 5 0.020056 0.011390 0.003804 0.000000 0.045736 0.000000
# 6 0.000000 0.000000 0.000000 -0.017679 0.000000 -0.125300
#
#
# Mechanical properties :
#
#
# Convention : Reuss Voigt Hill
#
# Bulk Modulus (GPa) = 12.71724 33.05233 22.88479
# Shear Modulus (GPa) = 22.96439 22.21879 22.59159
#
# Velocity S-wave (km/s) = 3.28850 3.23467 3.26170
# Velocity P-wave (km/s) = 4.51748 5.43282 4.99616
#
# Compressibility (1/GPa) = 0.07863340
#
# Stress axis : x y z
#
# Youngs Moduli (GPa) = 37.99847 34.18654 116.22792
#
# Poissons Ratio (x) = -0.36684 0.32435
# Poissons Ratio (y) = -0.40775 0.08243
# Poissons Ratio (z) = 0.10604 0.02424
#
# Static dielectric constant tensor:
#      x y z
#    x 1.753570 0.000000 -0.024420 
#    y 0.000000 1.794530 0.000000 
#    z -0.024420 0.000000 1.775650 
# 
# From -- ./inp_files/85753.got.cif
#   From: 2010.05.17/outbox.cif.g08.bks.cpg/sg10_43_cif.got.tgz:85753.got - 2010.06.03 11:33:40.
