data_PCOD9143911
_publ_section_title
;
Structure prediction by ZEFSAII (Michael W. Deem and Ramdas Pophale) SiO2 
 PCOD9143911
Probable space group: P 2/M
;
_chemical_formula_sum "Si O2"
_cell_formula_units_Z 32
_cell_length_a 20.348204
_cell_length_b 7.455402
_cell_length_c 25.941743
_cell_angle_alpha 90.000000
_cell_angle_beta 21.333839
_cell_angle_gamma 90.000000
_cell_volume 1431.728592
_symmetry_space_group_name_H-M "P 2/M"
_symmetry_group_IT_number 10
_symmetry_cell_setting 'monoclinic'
loop_
_space_group_symop_operation_xyz
x,y,z
-x,y,-z
-x,-y,-z
x,-y,z
loop_
_atom_site_type_symbol
_atom_site_label
_atom_site_fract_x
_atom_site_fract_y
_atom_site_fract_z
Si Si1 0.799417 0.209894 0.636370
Si Si2 0.506890 0.717152 0.935747
Si Si3 0.260505 0.716776 0.519683
Si Si4 0.125556 0.719625 0.168661
Si Si5 0.901537 0.719367 0.123107
Si Si6 0.546511 0.209554 0.728886
Si Si7 0.501149 0.718299 0.558718
Si Si8 0.134717 0.707213 0.046988
O O1 0.675393 0.223966 0.777860
O O2 0.682442 0.284177 0.673578
O O3 0.000000 0.286118 0.500000
O O4 0.826498 0.000000 0.604089
O O5 0.511814 0.500000 0.931718
O O6 0.500000 0.775589 0.000000
O O7 0.319013 0.777571 0.047905
O O8 0.264742 0.500000 0.517321
O O9 0.369460 0.771850 0.389289
O O10 0.349346 0.777237 0.509004
O O11 0.051517 0.773932 0.670485
O O12 0.129645 0.500000 0.165846
O O13 0.107213 0.784230 0.123562
O O14 0.907018 0.500000 0.119191
O O15 0.693272 0.768890 0.276755
O O16 0.000000 0.780627 0.000000
O O17 0.011093 0.785028 0.092622
O O18 0.346212 0.290022 0.878396
O O19 0.520466 0.000000 0.759338
O O20 0.500000 0.778888 0.500000
O O21 0.514336 0.500000 0.547115
O O22 0.077203 0.500000 0.093425
#
# Coordination Sequence:
#
# PCOD9143911 Si02
#       8
#     4   4   4   4   4   4   4   4
#     4  10  23  42  60  80 109 146 186 225 268 321
#     4  10  21  37  58  86 116 142 173 218 270 327
#     4  10  20  34  56  83 112 147 183 225 277 327
#     4   9  18  33  53  81 110 137 176 220 265 320
#     4   9  16  25  43  74 105 132 170 217 261 311
#     4  11  23  38  55  79 111 144 184 230 270 320
#     4   9  16  28  48  78 110 138 176 225 272 318
#     4  10  18  33  57  79 105 143 180 221 274 325
#
# _framework density 22.350604000000001
#
# number of rings (size 3 to 8) (size 9 to 14) (size 15 to 20)
#    0.000    2.250    1.250    1.875    1.750    6.000 
#    0.000    1.250    0.000    3.750    0.000    0.000 
#    0.000    0.000    0.000    0.000    0.000    0.000 
#
# Total GULP energy -178782.865142 kJ/mol
# GULP energy per Si atom -5586.964536 kJ/mol
# Density = 2.229973 g / cm^3
# Si number density = 22.350604 Si / 1000 Ang^3
#
#
#
# Elastic Constant Matrix: (Units=GPa)
#
#
# Indices 1 2 3 4 5 6 
#
# 1 94.4888 -5.9327 14.0629 0.0000 -4.7265 0.0000
# 2 -5.9327 65.2529 -17.5232 0.0000 -6.3090 0.0000
# 3 14.0629 -17.5232 100.7334 0.0000 -3.3115 0.0000
# 4 0.0000 0.0000 0.0000 12.1288 0.0000 10.5663
# 5 -4.7265 -6.3090 -3.3115 0.0000 44.4845 0.0000
# 6 0.0000 0.0000 0.0000 10.5663 0.0000 -0.5407
#
#
#
# Elastic Compliance Matrix: (Units=1/GPa)
#
#
# Indices 1 2 3 4 5 6 
#
# 1 0.010889 0.000739 -0.001354 0.000000 0.001161 0.000000
# 2 0.000739 0.016407 0.002837 0.000000 0.002617 0.000000
# 3 -0.001354 0.002837 0.010644 0.000000 0.001051 0.000000
# 4 0.000000 0.000000 0.000000 0.004574 0.000000 0.089390
# 5 0.001161 0.002617 0.001051 0.000000 0.023052 0.000000
# 6 0.000000 0.000000 0.000000 0.089390 0.000000 -0.102608
#
#
# Mechanical properties :
#
#
# Convention : Reuss Voigt Hill
#
# Bulk Modulus (GPa) = 23.59327 26.85434 25.22381
# Shear Modulus (GPa) = -182.76660 29.20571 -76.78044
#
# Velocity S-wave (km/s) = -9.05263 3.61876 -5.86748
# Velocity P-wave (km/s) = 9.93418 5.43155 5.88159
#
# Compressibility (1/GPa) = 0.04238497
#
# Stress axis : x y z
#
# Youngs Moduli (GPa) = 91.83431 60.94957 93.94778
#
# Poissons Ratio (x) = -0.04503 0.12716
# Poissons Ratio (y) = -0.06785 -0.26653
# Poissons Ratio (z) = 0.12430 -0.17291
#
# Static dielectric constant tensor:
#      x y z
#    x 1.827090 0.000000 -0.014170 
#    y 0.000000 1.902590 0.000000 
#    z -0.014170 0.000000 1.765180 
# 
# From -- ./inp_files/93685.got.cif
#   From: 2010.05.17/outbox.cif.g08.bks.cpg/sg10_47_cif.got.tgz:93685.got - 2010.06.03 11:33:40.
