data_PCOD9143405
_publ_section_title
;
Structure prediction by ZEFSAII (Michael W. Deem and Ramdas Pophale) SiO2 
 PCOD9143405
Probable space group: P 2/M
;
_chemical_formula_sum "Si O2"
_cell_formula_units_Z 24
_cell_length_a 16.515759
_cell_length_b 13.107216
_cell_length_c 7.520304
_cell_angle_alpha 90.000000
_cell_angle_beta 35.690766
_cell_angle_gamma 90.000000
_cell_volume 949.770118
_symmetry_space_group_name_H-M "P 2/M"
_symmetry_group_IT_number 10
_symmetry_cell_setting 'monoclinic'
loop_
_space_group_symop_operation_xyz
x,y,z
-x,y,-z
-x,-y,-z
x,-y,z
loop_
_atom_site_type_symbol
_atom_site_label
_atom_site_fract_x
_atom_site_fract_y
_atom_site_fract_z
Si Si1 0.306320 0.817992 0.353391
Si Si2 0.020412 0.825109 0.759997
Si Si3 0.616036 0.611423 0.638032
Si Si4 0.276506 0.887534 0.800591
Si Si5 0.390561 0.724255 0.867286
Si Si6 0.896927 0.386816 0.518076
O O1 0.179488 0.858435 0.455270
O O2 0.284128 0.702696 0.476699
O O3 0.311369 0.880803 0.526663
O O4 0.415197 0.795023 0.001634
O O5 0.029579 0.703267 0.722254
O O6 0.000000 0.853471 0.000000
O O7 0.889837 0.867481 0.887017
O O8 0.677892 0.500000 0.494484
O O9 0.500000 0.601301 0.000000
O O10 0.524256 0.650775 0.637341
O O11 0.311480 0.000000 0.802625
O O12 0.353126 0.801209 0.776633
O O13 0.253303 0.655456 0.149434
O O14 0.880027 0.500000 0.468407
O O15 0.000000 0.396015 0.500000
#
# Coordination Sequence:
#
# PCOD9143405 Si02
#       6
#     4   4   4   4   4   4
#     4   9  21  37  58  86 117 147 191 241 282 340
#     4   9  19  36  55  81 116 148 189 241 284 343
#     4   9  18  37  64  89 119 158 191 228 284 349
#     4  11  23  40  60  83 114 152 198 248 297 339
#     4  10  20  38  61  86 118 151 193 240 285 346
#     4  10  18  31  53  81 116 148 178 226 287 346
#
# _framework density 25.269272000000001
#
# number of rings (size 3 to 8) (size 9 to 14) (size 15 to 20)
#    0.000    2.333    1.667    0.500    0.000    8.667 
#    0.000   12.500    0.000    3.000    0.000    0.000 
#    0.000    0.000    0.000    0.000    0.000    0.000 
#
# Total GULP energy -133827.931986 kJ/mol
# GULP energy per Si atom -5576.163833 kJ/mol
# Density = 2.521176 g / cm^3
# Si number density = 25.269272 Si / 1000 Ang^3
#
#
#
# Elastic Constant Matrix: (Units=GPa)
#
#
# Indices 1 2 3 4 5 6 
#
# 1 159.3886 26.3211 5.0319 0.0000 -1.2553 0.0000
# 2 26.3211 128.3189 9.6322 0.0000 -4.7450 0.0000
# 3 5.0319 9.6322 33.1078 0.0000 -12.0533 0.0000
# 4 0.0000 0.0000 0.0000 26.2050 0.0000 -1.5158
# 5 -1.2553 -4.7450 -12.0533 0.0000 42.7875 0.0000
# 6 0.0000 0.0000 0.0000 -1.5158 0.0000 13.5134
#
#
#
# Elastic Compliance Matrix: (Units=1/GPa)
#
#
# Indices 1 2 3 4 5 6 
#
# 1 0.006507 -0.001290 -0.000664 0.000000 -0.000139 0.000000
# 2 -0.001290 0.008225 -0.002093 0.000000 0.000285 0.000000
# 3 -0.000664 -0.002093 0.034345 0.000000 0.009423 0.000000
# 4 0.000000 0.000000 0.000000 0.038410 0.000000 0.004308
# 5 -0.000139 0.000285 0.009423 0.000000 0.026053 0.000000
# 6 0.000000 0.000000 0.000000 0.004308 0.000000 0.074484
#
#
# Mechanical properties :
#
#
# Convention : Reuss Voigt Hill
#
# Bulk Modulus (GPa) = 24.40106 44.75398 34.57752
# Shear Modulus (GPa) = 23.83446 35.15652 29.49549
#
# Velocity S-wave (km/s) = 3.07452 3.73403 3.42021
# Velocity P-wave (km/s) = 4.72027 6.02826 5.41391
#
# Compressibility (1/GPa) = 0.04098182
#
# Stress axis : x y z
#
# Youngs Moduli (GPa) = 153.68356 121.57534 29.11629
#
# Poissons Ratio (x) = 0.15683 0.01934
# Poissons Ratio (y) = 0.19825 0.06095
# Poissons Ratio (z) = 0.10210 0.25450
#
# Static dielectric constant tensor:
#      x y z
#    x 2.095750 0.000000 -0.004660 
#    y 0.000000 1.994880 0.000000 
#    z -0.004660 0.000000 2.202870 
# 
# From -- ./inp_files/28014.got.cif
#   From: 2010.05.17/outbox.cif.g08.bks.cpg/sg10_15_cif.got.tgz:28014.got - 2010.06.03 11:33:40.
