data_PCOD9143440
_publ_section_title
;
Structure prediction by ZEFSAII (Michael W. Deem and Ramdas Pophale) SiO2 
 PCOD9143440
Probable space group: P 2/M
;
_chemical_formula_sum "Si O2"
_cell_formula_units_Z 32
_cell_length_a 12.982418
_cell_length_b 15.037606
_cell_length_c 20.067756
_cell_angle_alpha 90.000000
_cell_angle_beta 158.079287
_cell_angle_gamma 90.000000
_cell_volume 1462.574707
_symmetry_space_group_name_H-M "P 2/M"
_symmetry_group_IT_number 10
_symmetry_cell_setting 'monoclinic'
loop_
_space_group_symop_operation_xyz
x,y,z
-x,y,-z
-x,-y,-z
x,-y,z
loop_
_atom_site_type_symbol
_atom_site_label
_atom_site_fract_x
_atom_site_fract_y
_atom_site_fract_z
Si Si1 0.387965 0.898107 0.779985
Si Si2 0.208034 0.203217 0.793397
Si Si3 0.725031 0.401736 0.380192
Si Si4 0.928388 0.402319 0.281877
Si Si5 0.817999 0.403718 0.712212
Si Si6 0.577431 0.777193 0.785006
Si Si7 0.011947 0.103152 0.218244
Si Si8 0.182619 0.777610 0.208280
O O1 0.196385 0.843227 0.715274
O O2 0.400516 0.851286 0.716179
O O3 0.305598 0.000000 0.727316
O O4 0.701704 0.895140 0.999191
O O5 0.996034 0.164714 0.720574
O O6 0.217177 0.309415 0.790187
O O7 0.500000 0.176381 0.000000
O O8 0.610718 0.500000 0.295570
O O9 0.819509 0.402162 0.514271
O O10 0.525071 0.319007 0.251610
O O11 0.000000 0.390707 0.500000
O O12 0.792861 0.500000 0.211329
O O13 0.015022 0.396301 0.256773
O O14 0.500000 0.405762 0.500000
O O15 0.886691 0.500000 0.784591
O O16 0.845553 0.318937 0.775165
O O17 0.587658 0.780055 0.711255
O O18 0.888087 0.792100 0.996415
O O19 0.206857 0.148804 0.280264
O O20 0.074879 0.000000 0.270237
#
# Coordination Sequence:
#
# PCOD9143440 Si02
#       8
#     4   4   4   4   4   4   4   4
#     4   9  18  32  52  79 108 142 185 228 273 327
#     4  10  18  31  54  81 112 141 179 229 280 324
#     4  10  21  38  57  79 109 150 195 228 267 330
#     4  10  20  34  53  79 108 142 183 221 270 330
#     4  10  20  35  55  79 108 143 182 222 271 333
#     4  10  21  35  56  81 113 147 187 229 279 328
#     4   9  17  31  52  79 110 143 179 224 278 331
#     4  10  20  35  54  85 114 145 182 230 282 331
#
# _framework density 21.879225000000002
#
# number of rings (size 3 to 8) (size 9 to 14) (size 15 to 20)
#    0.000    2.250    1.250    1.875    0.000    4.250 
#    0.000    3.750    0.000    4.500    0.000    0.000 
#    0.000    0.000    0.000    0.000    0.000    0.000 
#
# Total GULP energy -178606.795936 kJ/mol
# GULP energy per Si atom -5581.462373 kJ/mol
# Density = 2.182943 g / cm^3
# Si number density = 21.879225 Si / 1000 Ang^3
#
#
#
# Elastic Constant Matrix: (Units=GPa)
#
#
# Indices 1 2 3 4 5 6 
#
# 1 143.6333 93.8847 1.3286 0.0000 -12.7564 0.0000
# 2 93.8847 165.2238 3.5969 0.0000 -7.9202 0.0000
# 3 1.3286 3.5969 32.7695 0.0000 -4.9712 0.0000
# 4 0.0000 0.0000 0.0000 44.3456 0.0000 -8.3139
# 5 -12.7564 -7.9202 -4.9712 0.0000 13.1802 0.0000
# 6 0.0000 0.0000 0.0000 -8.3139 0.0000 11.7492
#
#
#
# Elastic Compliance Matrix: (Units=1/GPa)
#
#
# Indices 1 2 3 4 5 6 
#
# 1 0.011836 -0.006365 0.001460 0.000000 0.008181 0.000000
# 2 -0.006365 0.009655 -0.000908 0.000000 -0.000701 0.000000
# 3 0.001460 -0.000908 0.032551 0.000000 0.013144 0.000000
# 4 0.000000 0.000000 0.000000 0.025999 0.000000 0.018398
# 5 0.008181 -0.000701 0.013144 0.000000 0.088326 0.000000
# 6 0.000000 0.000000 0.000000 0.018398 0.000000 0.098131
#
#
# Mechanical properties :
#
#
# Convention : Reuss Voigt Hill
#
# Bulk Modulus (GPa) = 23.57638 59.91634 41.74636
# Shear Modulus (GPa) = 17.10791 30.04275 23.57533
#
# Velocity S-wave (km/s) = 2.79933 3.70958 3.28612
# Velocity P-wave (km/s) = 4.60949 6.76701 5.78964
#
# Compressibility (1/GPa) = 0.04241534
#
# Stress axis : x y z
#
# Youngs Moduli (GPa) = 84.49055 103.56987 30.72127
#
# Poissons Ratio (x) = 0.65922 -0.04485
# Poissons Ratio (y) = 0.53778 0.02790
# Poissons Ratio (z) = -0.12334 0.09405
#
# Static dielectric constant tensor:
#      x y z
#    x 1.811520 0.000000 0.011000 
#    y 0.000000 1.778630 0.000000 
#    z 0.011000 0.000000 1.805300 
# 
# From -- ./inp_files/77039.got.cif
#   From: 2010.05.17/outbox.cif.g08.bks.cpg/sg10_39_cif.got.tgz:77039.got - 2010.06.03 11:33:40.
