data_PCOD9143316
_publ_section_title
;
Structure prediction by ZEFSAII (Michael W. Deem and Ramdas Pophale) SiO2 
 PCOD9143316
Probable space group: P 2/M
;
_chemical_formula_sum "Si O2"
_cell_formula_units_Z 28
_cell_length_a 22.785947
_cell_length_b 7.998205
_cell_length_c 13.019065
_cell_angle_alpha 90.000000
_cell_angle_beta 138.582598
_cell_angle_gamma 90.000000
_cell_volume 1569.622788
_symmetry_space_group_name_H-M "P 2/M"
_symmetry_group_IT_number 10
_symmetry_cell_setting 'monoclinic'
loop_
_space_group_symop_operation_xyz
x,y,z
-x,y,-z
-x,-y,-z
x,-y,z
loop_
_atom_site_type_symbol
_atom_site_label
_atom_site_fract_x
_atom_site_fract_y
_atom_site_fract_z
Si Si1 0.904594 0.295648 0.421183
Si Si2 0.406472 0.703884 0.252990
Si Si3 0.911698 0.700982 0.663933
Si Si4 0.208242 0.196283 0.307869
Si Si5 0.776239 0.704838 0.073260
Si Si6 0.395951 0.298256 0.477420
Si Si7 0.891785 0.700114 0.029425
O O1 0.903965 0.500000 0.420715
O O2 0.895786 0.238377 0.526951
O O3 0.826850 0.241116 0.242262
O O4 0.000000 0.246145 0.500000
O O5 0.407115 0.500000 0.252893
O O6 0.506445 0.758324 0.358142
O O7 0.387274 0.752936 0.346167
O O8 0.325213 0.759458 0.075637
O O9 0.917708 0.500000 0.666165
O O10 0.835552 0.741335 0.644836
O O11 0.007500 0.764016 0.829808
O O12 0.311437 0.239913 0.429599
O O13 0.198036 0.000000 0.291077
O O14 0.154961 0.266232 0.139805
O O15 0.776336 0.500000 0.073089
O O16 0.832703 0.760320 0.047764
O O17 0.395348 0.500000 0.477315
O O18 0.895866 0.500000 0.045827
#
# Coordination Sequence:
#
# PCOD9143316 Si02
#       7
#     4   4   4   4   4   4   4
#     4   9  15  26  47  78 105 123 154 203 246 281
#     4   8  14  25  48  78 101 123 153 198 251 294
#     4  10  20  33  51  74  99 132 169 200 237 289
#     4  12  24  34  46  68 101 137 168 203 244 286
#     4   9  14  24  48  79 106 124 149 196 249 292
#     4   9  16  30  51  73  97 126 162 199 244 299
#     4  10  18  31  52  74  99 131 163 196 240 294
#
# _framework density 17.838681000000001
#
# number of rings (size 3 to 8) (size 9 to 14) (size 15 to 20)
#    0.000    2.429    2.857    2.571    0.000    2.286 
#    0.000    1.429    0.000    2.143    0.000    6.000 
#    0.000    0.000    0.000    0.000    0.000    0.000 
#
# Total GULP energy -156159.669850 kJ/mol
# GULP energy per Si atom -5577.131066 kJ/mol
# Density = 1.779808 g / cm^3
# Si number density = 17.838681 Si / 1000 Ang^3
#
#
#
# Elastic Constant Matrix: (Units=GPa)
#
#
# Indices 1 2 3 4 5 6 
#
# 1 149.2090 3.9996 101.3668 0.0000 3.8134 0.0000
# 2 3.9996 15.6193 14.3588 0.0000 -4.4783 0.0000
# 3 101.3668 14.3588 165.0173 0.0000 11.2509 0.0000
# 4 0.0000 0.0000 0.0000 -17.0102 0.0000 3.0348
# 5 3.8134 -4.4783 11.2509 0.0000 32.6440 0.0000
# 6 0.0000 0.0000 0.0000 3.0348 0.0000 -33.0340
#
#
#
# Elastic Compliance Matrix: (Units=1/GPa)
#
#
# Indices 1 2 3 4 5 6 
#
# 1 0.011833 0.004713 -0.007812 0.000000 0.001957 0.000000
# 2 0.004713 0.076306 -0.010457 0.000000 0.013522 0.000000
# 3 -0.007812 -0.010457 0.012088 0.000000 -0.004688 0.000000
# 4 0.000000 0.000000 0.000000 -0.059768 0.000000 -0.005491
# 5 0.001957 0.013522 -0.004688 0.000000 0.033876 0.000000
# 6 0.000000 0.000000 0.000000 -0.005491 0.000000 -0.030776
#
#
# Mechanical properties :
#
#
# Convention : Reuss Voigt Hill
#
# Bulk Modulus (GPa) = 13.67696 63.25511 38.46603
# Shear Modulus (GPa) = 52.60748 10.52799 31.56774
#
# Velocity S-wave (km/s) = 5.43642 2.43199 4.21125
# Velocity P-wave (km/s) = 6.86221 6.58958 6.72728
#
# Compressibility (1/GPa) = 0.07311567
#
# Stress axis : x y z
#
# Youngs Moduli (GPa) = 84.50915 13.10506 82.72381
#
# Poissons Ratio (x) = -0.06176 0.64626
# Poissons Ratio (y) = -0.39828 0.86501
# Poissons Ratio (z) = 0.66021 0.13703
#
# Static dielectric constant tensor:
#      x y z
#    x 1.613040 0.000000 0.008970 
#    y 0.000000 1.626310 0.000000 
#    z 0.008970 0.000000 1.626130 
# 
# From -- ./inp_files/55012.got.cif
#   From: 2010.05.17/outbox.cif.g08.bks.cpg/sg10_28_cif.got.tgz:55012.got - 2010.06.03 11:33:40.
