data_PCOD9143747
_publ_section_title
;
Structure prediction by ZEFSAII (Michael W. Deem and Ramdas Pophale) SiO2 
 PCOD9143747
Probable space group: P 2/M
;
_chemical_formula_sum "Si O2"
_cell_formula_units_Z 28
_cell_length_a 14.836892
_cell_length_b 8.065608
_cell_length_c 12.322497
_cell_angle_alpha 90.000000
_cell_angle_beta 69.205702
_cell_angle_gamma 90.000000
_cell_volume 1378.560452
_symmetry_space_group_name_H-M "P 2/M"
_symmetry_group_IT_number 10
_symmetry_cell_setting 'monoclinic'
loop_
_space_group_symop_operation_xyz
x,y,z
-x,y,-z
-x,-y,-z
x,-y,z
loop_
_atom_site_type_symbol
_atom_site_label
_atom_site_fract_x
_atom_site_fract_y
_atom_site_fract_z
Si Si1 0.177569 0.203171 0.119739
Si Si2 0.362558 0.190981 0.633998
Si Si3 0.283103 0.194142 0.286735
Si Si4 0.438435 0.686956 0.380836
Si Si5 0.957338 0.200353 0.238362
Si Si6 0.896327 0.696712 0.496269
Si Si7 0.803647 0.797713 0.133618
O O1 0.249679 0.258156 0.183425
O O2 0.068179 0.255983 0.193333
O O3 0.177626 0.000000 0.121315
O O4 0.202596 0.258447 0.987590
O O5 0.467892 0.199600 0.644327
O O6 0.372932 0.284558 0.515712
O O7 0.283315 0.256459 0.751355
O O8 0.338650 0.000000 0.618572
O O9 0.373486 0.280210 0.304443
O O10 0.190616 0.216013 0.404519
O O11 0.305639 0.000000 0.268426
O O12 0.474766 0.500000 0.366397
O O13 0.900398 0.265548 0.367037
O O14 0.902637 0.248720 0.151623
O O15 0.956945 0.000000 0.243809
O O16 0.886421 0.500000 0.518182
O O17 0.000000 0.750966 0.500000
O O18 0.800769 0.000000 0.131531
#
# Coordination Sequence:
#
# PCOD9143747 Si02
#       7
#     4   4   4   4   4   4   4
#     4   9  18  32  52  80 111 143 180 224 269 317
#     4  10  19  35  59  86 112 139 179 227 271 323
#     4  11  21  35  56  81 109 143 185 225 267 321
#     4  11  22  37  58  82 111 143 176 222 280 331
#     4  10  18  32  56  82 108 143 184 225 267 320
#     4  11  22  34  50  75 112 147 178 220 269 320
#     4   9  18  32  54  83 110 137 177 228 276 316
#
# _framework density 20.311043000000002
#
# number of rings (size 3 to 8) (size 9 to 14) (size 15 to 20)
#    0.000    1.857    1.429    4.714    0.000    3.429 
#    0.000    1.429    0.000   12.857    0.000    0.000 
#    0.000    0.000    0.000    0.000    0.000    0.000 
#
# Total GULP energy -156447.533630 kJ/mol
# GULP energy per Si atom -5587.411915 kJ/mol
# Density = 2.026481 g / cm^3
# Si number density = 20.311043 Si / 1000 Ang^3
#
#
#
# Elastic Constant Matrix: (Units=GPa)
#
#
# Indices 1 2 3 4 5 6 
#
# 1 79.5269 -2.0023 31.8667 0.0000 32.0258 0.0000
# 2 -2.0023 25.9437 -4.1086 0.0000 2.3942 0.0000
# 3 31.8667 -4.1086 83.8360 0.0000 30.2707 0.0000
# 4 0.0000 0.0000 0.0000 -30.8637 0.0000 15.9699
# 5 32.0258 2.3942 30.2707 0.0000 34.4290 0.0000
# 6 0.0000 0.0000 0.0000 15.9699 0.0000 -3.1457
#
#
#
# Elastic Compliance Matrix: (Units=1/GPa)
#
#
# Indices 1 2 3 4 5 6 
#
# 1 0.020445 0.003117 -0.000987 0.000000 -0.018367 0.000000
# 2 0.003117 0.040312 0.004175 0.000000 -0.009373 0.000000
# 3 -0.000987 0.004175 0.017993 0.000000 -0.015193 0.000000
# 4 0.000000 0.000000 0.000000 0.019916 0.000000 0.101108
# 5 -0.018367 -0.009373 -0.015193 0.000000 0.060140 0.000000
# 6 0.000000 0.000000 0.000000 0.101108 0.000000 0.195403
#
#
# Mechanical properties :
#
#
# Convention : Reuss Voigt Hill
#
# Bulk Modulus (GPa) = 10.94566 26.75757 18.85161
# Shear Modulus (GPa) = 13.43902 10.98730 12.21316
#
# Velocity S-wave (km/s) = 2.57507 2.32836 2.45482
# Velocity P-wave (km/s) = 3.77386 4.52005 4.16370
#
# Compressibility (1/GPa) = 0.09136043
#
# Stress axis : x y z
#
# Youngs Moduli (GPa) = 48.91269 24.80659 55.57604
#
# Poissons Ratio (x) = -0.07731 0.05484
# Poissons Ratio (y) = -0.15244 -0.23205
# Poissons Ratio (z) = 0.04826 -0.10358
#
# Static dielectric constant tensor:
#      x y z
#    x 1.719300 0.000000 0.015430 
#    y 0.000000 1.712850 0.000000 
#    z 0.015430 0.000000 1.701070 
# 
# From -- ./inp_files/49104.got.cif
#   From: 2010.05.17/outbox.cif.g08.bks.cpg/sg10_25_cif.got.tgz:49104.got - 2010.06.03 11:33:40.
