data_PCOD9143947
_publ_section_title
;
Structure prediction by ZEFSAII (Michael W. Deem and Ramdas Pophale) SiO2 
 PCOD9143947
Probable space group: P 2/M
;
_chemical_formula_sum "Si O2"
_cell_formula_units_Z 24
_cell_length_a 12.204226
_cell_length_b 7.632405
_cell_length_c 11.986636
_cell_angle_alpha 90.000000
_cell_angle_beta 110.015851
_cell_angle_gamma 90.000000
_cell_volume 1049.085859
_symmetry_space_group_name_H-M "P 2/M"
_symmetry_group_IT_number 10
_symmetry_cell_setting 'monoclinic'
loop_
_space_group_symop_operation_xyz
x,y,z
-x,y,-z
-x,-y,-z
x,-y,z
loop_
_atom_site_type_symbol
_atom_site_label
_atom_site_fract_x
_atom_site_fract_y
_atom_site_fract_z
Si Si1 0.731968 0.287993 0.389638
Si Si2 0.618474 0.288168 0.978019
Si Si3 0.463704 0.286692 0.292030
Si Si4 0.845453 0.803504 0.196661
Si Si5 0.252492 0.285273 0.358190
Si Si6 0.052943 0.697704 0.130496
O O1 0.730395 0.500000 0.387025
O O2 0.597215 0.227257 0.334065
O O3 0.805801 0.231669 0.308910
O O4 0.776720 0.230352 0.526498
O O5 0.625723 0.500000 0.985351
O O6 0.602740 0.235792 0.844446
O O7 0.500000 0.236344 0.000000
O O8 0.731416 0.218642 0.079869
O O9 0.468815 0.500000 0.295206
O O10 0.383168 0.234710 0.367601
O O11 0.948767 0.688370 0.183363
O O12 0.889616 0.000000 0.202892
O O13 0.247970 0.500000 0.356146
O O14 0.162167 0.222420 0.233267
O O15 0.090615 0.500000 0.109794
O O16 0.000000 0.781155 0.000000
#
# Coordination Sequence:
#
# PCOD9143947 Si02
#       6
#     4   4   4   4   4   4
#     4  10  19  35  58  85 116 148 189 235 284 341
#     4  10  18  33  58  86 113 145 186 232 285 335
#     4   9  16  30  56  89 118 142 178 235 294 341
#     4  12  25  38  55  82 119 156 192 233 282 340
#     4   9  18  32  57  89 113 143 189 241 288 333
#     4  10  21  40  64  86 112 146 190 242 289 338
#
# _framework density 22.877061000000001
#
# number of rings (size 3 to 8) (size 9 to 14) (size 15 to 20)
#    0.000    2.000    1.667    3.000    0.000    6.000 
#    0.000    4.167    0.000    4.000    0.000    0.000 
#    0.000    0.000    0.000    0.000    0.000    0.000 
#
# Total GULP energy -134138.006950 kJ/mol
# GULP energy per Si atom -5589.083623 kJ/mol
# Density = 2.282499 g / cm^3
# Si number density = 22.877061 Si / 1000 Ang^3
#
#
#
# Elastic Constant Matrix: (Units=GPa)
#
#
# Indices 1 2 3 4 5 6 
#
# 1 94.4971 -4.0289 28.4426 0.0000 -9.7702 0.0000
# 2 -4.0289 55.6170 5.2923 0.0000 0.2547 0.0000
# 3 28.4426 5.2923 130.2398 0.0000 -11.9253 0.0000
# 4 0.0000 0.0000 0.0000 3.0102 0.0000 25.4052
# 5 -9.7702 0.2547 -11.9253 0.0000 30.6214 0.0000
# 6 0.0000 0.0000 0.0000 25.4052 0.0000 -53.4624
#
#
#
# Elastic Compliance Matrix: (Units=1/GPa)
#
#
# Indices 1 2 3 4 5 6 
#
# 1 0.011615 0.001050 -0.002324 0.000000 0.002792 0.000000
# 2 0.001050 0.018151 -0.000985 0.000000 -0.000200 0.000000
# 3 -0.002324 -0.000985 0.008460 0.000000 0.002562 0.000000
# 4 0.000000 0.000000 0.000000 0.066301 0.000000 0.031506
# 5 0.002792 -0.000200 0.002562 0.000000 0.034547 0.000000
# 6 0.000000 0.000000 0.000000 0.031506 0.000000 -0.003733
#
#
# Mechanical properties :
#
#
# Convention : Reuss Voigt Hill
#
# Bulk Modulus (GPa) = 29.66633 37.75177 33.70905
# Shear Modulus (GPa) = 33.09170 12.74370 22.91770
#
# Velocity S-wave (km/s) = 3.80742 2.36275 3.16852
# Velocity P-wave (km/s) = 5.68546 4.89707 5.30593
#
# Compressibility (1/GPa) = 0.03370824
#
# Stress axis : x y z
#
# Youngs Moduli (GPa) = 86.09435 55.09397 118.20112
#
# Poissons Ratio (x) = -0.05783 0.27465
# Poissons Ratio (y) = -0.09037 0.11644
# Poissons Ratio (z) = 0.20005 0.05427
#
# Static dielectric constant tensor:
#      x y z
#    x 1.808100 0.000000 0.001810 
#    y 0.000000 1.891140 0.000000 
#    z 0.001810 0.000000 1.841900 
# 
# From -- ./inp_files/45267.got.cif
#   From: 2010.05.17/outbox.cif.g08.bks.cpg/sg10_23_cif.got.tgz:45267.got - 2010.06.03 11:33:40.
