data_PCOD9143148
_publ_section_title
;
Structure prediction by ZEFSAII (Michael W. Deem and Ramdas Pophale) SiO2 
 PCOD9143148
Probable space group: P 2/M
;
_chemical_formula_sum "Si O2"
_cell_formula_units_Z 32
_cell_length_a 14.148251
_cell_length_b 8.417063
_cell_length_c 13.371508
_cell_angle_alpha 90.000000
_cell_angle_beta 86.442372
_cell_angle_gamma 90.000000
_cell_volume 1589.300361
_symmetry_space_group_name_H-M "P 2/M"
_symmetry_group_IT_number 10
_symmetry_cell_setting 'monoclinic'
loop_
_space_group_symop_operation_xyz
x,y,z
-x,y,-z
-x,-y,-z
x,-y,z
loop_
_atom_site_type_symbol
_atom_site_label
_atom_site_fract_x
_atom_site_fract_y
_atom_site_fract_z
Si Si1 0.646490 0.820573 0.499454
Si Si2 0.924052 0.179390 0.618805
Si Si3 0.790818 0.194410 0.225160
Si Si4 0.811375 0.689801 0.808410
Si Si5 0.380471 0.687096 0.280433
Si Si6 0.580986 0.810378 0.293069
Si Si7 0.141195 0.758147 0.575654
Si Si8 0.109604 0.808846 0.991000
O O1 0.640537 0.725591 0.602070
O O2 0.590262 0.751505 0.407812
O O3 0.755270 0.829496 0.455297
O O4 0.613509 0.000000 0.523105
O O5 0.887177 0.231421 0.728469
O O6 0.884591 0.299322 0.535847
O O7 0.037307 0.170237 0.605031
O O8 0.888344 0.000000 0.598023
O O9 0.678682 0.229076 0.230718
O O10 0.834436 0.297507 0.313353
O O11 0.842186 0.227906 0.118111
O O12 0.802613 0.000000 0.245232
O O13 0.815639 0.500000 0.795464
O O14 0.707823 0.747773 0.778970
O O15 0.835256 0.734618 0.919669
O O16 0.385113 0.500000 0.266378
O O17 0.483829 0.755689 0.251009
O O18 0.579557 0.000000 0.301378
O O19 0.111279 0.000000 0.002768
O O20 0.000000 0.757408 0.000000
#
# Coordination Sequence:
#
# PCOD9143148 Si02
#       8
#     4   4   4   4   4   4   4   4
#     4  10  18  32  54  82 114 148 184 226 278 338
#     4  11  19  31  56  86 114 149 189 226 275 337
#     4   9  17  33  56  86 118 140 175 234 289 335
#     4  11  25  41  55  78 116 157 193 233 282 332
#     4  11  23  37  52  75 110 151 193 235 276 325
#     4   9  19  34  56  82 110 145 183 228 285 338
#     4  10  18  30  54  88 119 145 178 227 284 342
#     4  10  21  39  66  93 113 142 187 235 280 332
#
# _framework density 20.134646
#
# number of rings (size 3 to 8) (size 9 to 14) (size 15 to 20)
#    0.000    1.875    1.250    5.250    0.000    4.750 
#    0.000    3.125    0.000    7.500    0.000    0.000 
#    0.000    0.000    0.000    0.000    0.000    0.000 
#
# Total GULP energy -178169.539192 kJ/mol
# GULP energy per Si atom -5567.798100 kJ/mol
# Density = 2.008882 g / cm^3
# Si number density = 20.134646 Si / 1000 Ang^3
#
#
#
# Elastic Constant Matrix: (Units=GPa)
#
#
# Indices 1 2 3 4 5 6 
#
# 1 128.2090 17.1303 52.6328 0.0000 1.9258 0.0000
# 2 17.1303 16.4919 14.3111 0.0000 -0.0260 0.0000
# 3 52.6328 14.3111 114.3347 0.0000 -8.6225 0.0000
# 4 0.0000 0.0000 0.0000 39.1261 0.0000 24.2497
# 5 1.9258 -0.0260 -8.6225 0.0000 28.7046 0.0000
# 6 0.0000 0.0000 0.0000 24.2497 0.0000 -6.6350
#
#
#
# Elastic Compliance Matrix: (Units=1/GPa)
#
#
# Indices 1 2 3 4 5 6 
#
# 1 0.010474 -0.007373 -0.004044 0.000000 -0.001924 0.000000
# 2 -0.007373 0.073399 -0.005884 0.000000 -0.001206 0.000000
# 3 -0.004044 -0.005884 0.011628 0.000000 0.003759 0.000000
# 4 0.000000 0.000000 0.000000 0.007828 0.000000 0.028608
# 5 -0.001924 -0.001206 0.003759 0.000000 0.036095 0.000000
# 6 0.000000 0.000000 0.000000 0.028608 0.000000 -0.046158
#
#
# Mechanical properties :
#
#
# Convention : Reuss Voigt Hill
#
# Bulk Modulus (GPa) = 16.42087 47.46489 31.94288
# Shear Modulus (GPa) = 33.74606 23.90322 28.82464
#
# Velocity S-wave (km/s) = 4.09836 3.44927 3.78775
# Velocity P-wave (km/s) = 5.52889 6.28396 5.91848
#
# Compressibility (1/GPa) = 0.06089813
#
# Stress axis : x y z
#
# Youngs Moduli (GPa) = 95.47541 13.62425 86.00154
#
# Poissons Ratio (x) = 0.10046 0.34777
# Poissons Ratio (y) = 0.70398 0.50602
# Poissons Ratio (z) = 0.38608 0.08016
#
# Static dielectric constant tensor:
#      x y z
#    x 1.726320 0.000000 0.014370 
#    y 0.000000 1.727280 0.000000 
#    z 0.014370 0.000000 1.701390 
# 
# From -- ./inp_files/49791.got.cif
#   From: 2010.05.17/outbox.cif.g08.bks.cpg/sg10_25_cif.got.tgz:49791.got - 2010.06.03 11:33:40.
