data_PCOD9143473
_publ_section_title
;
Structure prediction by ZEFSAII (Michael W. Deem and Ramdas Pophale) SiO2 
 PCOD9143473
Probable space group: P 2/M
;
_chemical_formula_sum "Si O2"
_cell_formula_units_Z 32
_cell_length_a 10.510097
_cell_length_b 15.358921
_cell_length_c 14.410124
_cell_angle_alpha 90.000000
_cell_angle_beta 135.420538
_cell_angle_gamma 90.000000
_cell_volume 1632.709863
_symmetry_space_group_name_H-M "P 2/M"
_symmetry_group_IT_number 10
_symmetry_cell_setting 'monoclinic'
loop_
_space_group_symop_operation_xyz
x,y,z
-x,y,-z
-x,-y,-z
x,-y,z
loop_
_atom_site_type_symbol
_atom_site_label
_atom_site_fract_x
_atom_site_fract_y
_atom_site_fract_z
Si Si1 0.337491 0.726675 0.483839
Si Si2 0.952505 0.095053 0.759583
Si Si3 0.807315 0.277965 0.950097
Si Si4 0.666873 0.904644 0.452602
Si Si5 0.150528 0.599857 0.657151
Si Si6 0.498707 0.400155 0.710037
Si Si7 0.738249 0.902896 0.831826
Si Si8 0.936928 0.722555 0.219285
O O1 0.500000 0.756502 0.500000
O O2 0.293023 0.800656 0.539857
O O3 0.407414 0.641568 0.571931
O O4 0.155374 0.709047 0.331512
O O5 0.763731 0.091229 0.603438
O O6 0.892378 0.112075 0.833903
O O7 0.071988 0.172223 0.780411
O O8 0.037127 0.000000 0.796044
O O9 0.664972 0.340581 0.826847
O O10 0.740041 0.178257 0.901583
O O11 0.838611 0.301812 0.073311
O O12 0.000000 0.285217 0.000000
O O13 0.453312 0.905426 0.322042
O O14 0.728746 0.000000 0.442226
O O15 0.118097 0.500000 0.672951
O O16 0.345273 0.603061 0.709746
O O17 0.134088 0.668661 0.730923
O O18 0.000000 0.618024 0.500000
O O19 0.551521 0.500000 0.722594
O O20 0.764361 0.000000 0.885518
#
# Coordination Sequence:
#
# PCOD9143473 Si02
#       8
#     4   4   4   4   4   4   4   4
#     4  11  20  35  61  91 124 160 200 249 313 379
#     4   9  17  30  53  90 129 166 208 250 299 358
#     4  12  24  40  58  94 139 167 199 243 308 381
#     4   9  16  27  50  86 123 160 203 249 289 345
#     4  10  22  45  72  93 109 144 218 282 312 357
#     4  11  25  44  65  87 118 159 206 263 314 367
#     4  10  18  31  55  87 129 174 207 240 293 365
#     4  11  22  36  64  92 123 167 205 257 309 356
#
# _framework density 19.599318
#
# number of rings (size 3 to 8) (size 9 to 14) (size 15 to 20)
#    0.000    1.625    3.750    2.625    0.000    5.000 
#    0.000    2.500    0.000    1.875    0.000    1.750 
#    0.000    0.000    0.000    0.000    0.000    0.000 
#
# Total GULP energy -178240.187605 kJ/mol
# GULP energy per Si atom -5570.005863 kJ/mol
# Density = 1.955471 g / cm^3
# Si number density = 19.599318 Si / 1000 Ang^3
#
#
#
# Elastic Constant Matrix: (Units=GPa)
#
#
# Indices 1 2 3 4 5 6 
#
# 1 22.1649 22.7110 -0.1833 0.0000 -6.7730 0.0000
# 2 22.7110 141.0407 43.8388 0.0000 -15.4663 0.0000
# 3 -0.1833 43.8388 68.9788 0.0000 -3.6605 0.0000
# 4 0.0000 0.0000 0.0000 -26.0004 0.0000 -61.2788
# 5 -6.7730 -15.4663 -3.6605 0.0000 24.5685 0.0000
# 6 0.0000 0.0000 0.0000 -61.2788 0.0000 -57.8687
#
#
#
# Elastic Compliance Matrix: (Units=1/GPa)
#
#
# Indices 1 2 3 4 5 6 
#
# 1 0.059478 -0.010747 0.007559 0.000000 0.010758 0.000000
# 2 -0.010747 0.011367 -0.007087 0.000000 0.003137 0.000000
# 3 0.007559 -0.007087 0.019045 0.000000 0.000460 0.000000
# 4 0.000000 0.000000 0.000000 0.025714 0.000000 -0.027229
# 5 0.010758 0.003137 0.000460 0.000000 0.045712 0.000000
# 6 0.000000 0.000000 0.000000 -0.027229 0.000000 0.011553
#
#
# Mechanical properties :
#
#
# Convention : Reuss Voigt Hill
#
# Bulk Modulus (GPa) = 14.42128 40.54638 27.48383
# Shear Modulus (GPa) = 23.09113 -0.80557 11.14278
#
# Velocity S-wave (km/s) = 3.43616 -0.64180 2.38697
# Velocity P-wave (km/s) = 4.80801 4.49259 4.65297
#
# Compressibility (1/GPa) = 0.06934199
#
# Stress axis : x y z
#
# Youngs Moduli (GPa) = 16.81287 87.97056 52.50584
#
# Poissons Ratio (x) = 0.94546 -0.39691
# Poissons Ratio (y) = 0.18069 0.37208
# Poissons Ratio (z) = -0.12709 0.62341
#
# Static dielectric constant tensor:
#      x y z
#    x 1.658050 0.000000 0.000620 
#    y 0.000000 1.762160 0.000000 
#    z 0.000620 0.000000 1.697510 
# 
# From -- ./inp_files/65141.got.cif
#   From: 2010.05.17/outbox.cif.g08.bks.cpg/sg10_33_cif.got.tgz:65141.got - 2010.06.03 11:33:40.
