data_PCOD9143371
_publ_section_title
;
Structure prediction by ZEFSAII (Michael W. Deem and Ramdas Pophale) SiO2 
 PCOD9143371
Probable space group: P 2/M
;
_chemical_formula_sum "Si O2"
_cell_formula_units_Z 32
_cell_length_a 22.618709
_cell_length_b 7.624406
_cell_length_c 15.812012
_cell_angle_alpha 90.000000
_cell_angle_beta 33.726861
_cell_angle_gamma 90.000000
_cell_volume 1514.039920
_symmetry_space_group_name_H-M "P 2/M"
_symmetry_group_IT_number 10
_symmetry_cell_setting 'monoclinic'
loop_
_space_group_symop_operation_xyz
x,y,z
-x,y,-z
-x,-y,-z
x,-y,z
loop_
_atom_site_type_symbol
_atom_site_label
_atom_site_fract_x
_atom_site_fract_y
_atom_site_fract_z
Si Si1 0.276836 0.203962 0.536392
Si Si2 0.880208 0.288520 0.123592
Si Si3 0.494261 0.705147 0.227232
Si Si4 0.395634 0.301021 0.179446
Si Si5 0.193548 0.714333 0.318372
Si Si6 0.737775 0.285023 0.947717
Si Si7 0.119377 0.714829 0.065500
Si Si8 0.893971 0.709967 0.403976
O O1 0.199964 0.241279 0.706654
O O2 0.394066 0.288270 0.409754
O O3 0.209642 0.253281 0.531167
O O4 0.296083 0.000000 0.509485
O O5 0.884515 0.500000 0.117168
O O6 0.849943 0.228892 0.065328
O O7 0.000000 0.225578 0.000000
O O8 0.512418 0.500000 0.184764
O O9 0.437048 0.790002 0.214080
O O10 0.613511 0.772499 0.100151
O O11 0.357897 0.500000 0.245717
O O12 0.304012 0.226838 0.230218
O O13 0.500000 0.316581 0.000000
O O14 0.187909 0.500000 0.320984
O O15 0.112770 0.769391 0.489550
O O16 0.202317 0.770891 0.210363
O O17 0.738517 0.500000 0.946330
O O18 0.801345 0.228528 0.954960
O O19 0.118612 0.500000 0.066405
O O20 0.999858 0.774225 0.231190
O O21 0.902169 0.500000 0.397829
#
# Coordination Sequence:
#
# PCOD9143371 Si02
#       8
#     4   4   4   4   4   4   4   4
#     4  12  24  35  52  82 112 133 173 233 276 311
#     4  10  19  36  61  82 105 137 171 214 273 330
#     4  10  18  31  53  76 107 145 180 214 261 316
#     4   9  13  20  40  71 101 133 174 213 248 298
#     4   9  15  23  44  78 113 141 172 212 258 309
#     4   9  17  29  49  82 114 142 177 220 258 302
#     4   9  18  32  52  80 111 137 172 218 265 320
#     4  10  18  32  54  80 112 146 174 210 266 324
#
# _framework density 21.135507
#
# number of rings (size 3 to 8) (size 9 to 14) (size 15 to 20)
#    0.000    2.250    3.750    1.125    0.000    0.750 
#    0.000    3.125    0.000    8.625    0.000    0.875 
#    0.000    0.000    0.000    0.000    0.000    0.000 
#
# Total GULP energy -178291.219809 kJ/mol
# GULP energy per Si atom -5571.600619 kJ/mol
# Density = 2.108740 g / cm^3
# Si number density = 21.135507 Si / 1000 Ang^3
#
#
#
# Elastic Constant Matrix: (Units=GPa)
#
#
# Indices 1 2 3 4 5 6 
#
# 1 122.9186 9.3907 53.0401 0.0000 23.9568 0.0000
# 2 9.3907 44.6402 -0.0325 0.0000 3.1358 0.0000
# 3 53.0401 -0.0325 124.6964 0.0000 22.8343 0.0000
# 4 0.0000 0.0000 0.0000 -7.3174 0.0000 -14.2222
# 5 23.9568 3.1358 22.8343 0.0000 30.3643 0.0000
# 6 0.0000 0.0000 0.0000 -14.2222 0.0000 2.6016
#
#
#
# Elastic Compliance Matrix: (Units=1/GPa)
#
#
# Indices 1 2 3 4 5 6 
#
# 1 0.010956 -0.001905 -0.003611 0.000000 -0.005732 0.000000
# 2 -0.001905 0.022923 0.001130 0.000000 -0.001714 0.000000
# 3 -0.003611 0.001130 0.010502 0.000000 -0.005165 0.000000
# 4 0.000000 0.000000 0.000000 -0.011756 0.000000 -0.064264
# 5 -0.005732 -0.001714 -0.005165 0.000000 0.041517 0.000000
# 6 0.000000 0.000000 0.000000 -0.064264 0.000000 0.033064
#
#
# Mechanical properties :
#
#
# Convention : Reuss Voigt Hill
#
# Bulk Modulus (GPa) = 28.08237 46.33908 37.21073
# Shear Modulus (GPa) = 39.10880 20.45351 29.78115
#
# Velocity S-wave (km/s) = 4.30628 3.11421 3.75781
# Velocity P-wave (km/s) = 6.16774 5.90791 6.03922
#
# Compressibility (1/GPa) = 0.03560953
#
# Stress axis : x y z
#
# Youngs Moduli (GPa) = 91.27074 43.62376 95.22354
#
# Poissons Ratio (x) = 0.08309 0.34387
# Poissons Ratio (y) = 0.17385 -0.10762
# Poissons Ratio (z) = 0.32960 -0.04930
#
# Static dielectric constant tensor:
#      x y z
#    x 1.759000 0.000000 0.005600 
#    y 0.000000 1.805540 0.000000 
#    z 0.005600 0.000000 1.837870 
# 
# From -- ./inp_files/70003.got.cif
#   From: 2010.05.17/outbox.cif.g08.bks.cpg/sg10_36_cif.got.tgz:70003.got - 2010.06.03 11:33:40.
