data_PCOD9143115
_publ_section_title
;
Structure prediction by ZEFSAII (Michael W. Deem and Ramdas Pophale) SiO2 
 PCOD9143115
Probable space group: P 2/M
;
_chemical_formula_sum "Si O2"
_cell_formula_units_Z 18
_cell_length_a 15.344062
_cell_length_b 8.470934
_cell_length_c 19.702796
_cell_angle_alpha 90.000000
_cell_angle_beta 18.572832
_cell_angle_gamma 90.000000
_cell_volume 815.684852
_symmetry_space_group_name_H-M "P 2/M"
_symmetry_group_IT_number 10
_symmetry_cell_setting 'monoclinic'
loop_
_space_group_symop_operation_xyz
x,y,z
-x,y,-z
-x,-y,-z
x,-y,z
loop_
_atom_site_type_symbol
_atom_site_label
_atom_site_fract_x
_atom_site_fract_y
_atom_site_fract_z
Si Si1 0.198066 0.000000 0.608111
Si Si2 0.368407 0.332274 0.523196
Si Si3 0.655764 0.328869 0.165913
Si Si4 0.217152 0.000000 0.900459
Si Si5 0.938439 0.326039 0.465189
Si Si6 0.819387 0.000000 0.770932
O O1 0.220873 0.165620 0.628240
O O2 0.918035 0.000000 0.774858
O O3 0.465276 0.000000 0.360170
O O4 0.500000 0.337904 0.500000
O O5 0.216397 0.500000 0.624521
O O6 0.575559 0.327886 0.305578
O O7 0.789352 0.500000 0.054745
O O8 0.378091 0.322183 0.325995
O O9 0.814142 0.166087 0.038284
O O10 0.000000 0.000000 0.000000
O O11 0.041111 0.500000 0.364242
O O12 0.065863 0.163927 0.343857
O O13 0.000000 0.325248 0.500000
O O14 0.500000 0.000000 0.000000
#
# Coordination Sequence:
#
# PCOD9143115 Si02
#       6
#     2   4   4   2   4   2
#     4  10  19  35  52  77 110 148 185 231 288 350
#     4   9  16  28  53  78 100 139 184 226 278 338
#     4   9  17  32  54  79 107 141 184 237 290 344
#     4  10  18  30  53  78 102 140 183 227 285 338
#     4  10  20  38  66  89 115 159 204 249 303 358
#     4  12  23  37  62  91 123 161 198 246 306 364
#
# _framework density 22.067347000000002
#
# number of rings (size 3 to 8) (size 9 to 14) (size 15 to 20)
#    0.000    2.222    4.444    0.667    0.000    0.889 
#    0.000    0.000   19.556    0.000    0.000    0.000 
#    0.000    0.000    0.000    0.000    0.000    0.000 
#
# Total GULP energy -100307.250747 kJ/mol
# GULP energy per Si atom -5572.625042 kJ/mol
# Density = 2.201712 g / cm^3
# Si number density = 22.067347 Si / 1000 Ang^3
#
#
#
# Elastic Constant Matrix: (Units=GPa)
#
#
# Indices 1 2 3 4 5 6 
#
# 1 74.8744 26.6311 -8.3213 0.0000 -8.2101 0.0000
# 2 26.6311 325.1817 20.5898 0.0000 -13.6670 0.0000
# 3 -8.3213 20.5898 29.4729 0.0000 4.3199 0.0000
# 4 0.0000 0.0000 0.0000 4.8153 0.0000 -38.1899
# 5 -8.2101 -13.6670 4.3199 0.0000 35.0816 0.0000
# 6 0.0000 0.0000 0.0000 -38.1899 0.0000 55.1590
#
#
#
# Elastic Compliance Matrix: (Units=1/GPa)
#
#
# Indices 1 2 3 4 5 6 
#
# 1 0.014638 -0.001405 0.004779 0.000000 0.002290 0.000000
# 2 -0.001405 0.003438 -0.003001 0.000000 0.001380 0.000000
# 3 0.004779 -0.003001 0.038070 0.000000 -0.004739 0.000000
# 4 0.000000 0.000000 0.000000 -0.046241 0.000000 -0.032015
# 5 0.002290 0.001380 -0.004739 0.000000 0.030162 0.000000
# 6 0.000000 0.000000 0.000000 -0.032015 0.000000 -0.004037
#
#
# Mechanical properties :
#
#
# Convention : Reuss Voigt Hill
#
# Bulk Modulus (GPa) = 17.57748 56.36979 36.97363
# Shear Modulus (GPa) = 92.16856 45.05316 68.61086
#
# Velocity S-wave (km/s) = 6.46975 4.52333 5.58203
# Velocity P-wave (km/s) = 7.98704 7.27190 7.63785
#
# Compressibility (1/GPa) = 0.05689098
#
# Stress axis : x y z
#
# Youngs Moduli (GPa) = 68.31697 290.84133 26.26758
#
# Poissons Ratio (x) = 0.40866 -0.12553
# Poissons Ratio (y) = 0.09599 0.07883
# Poissons Ratio (z) = -0.32647 0.87282
#
# Static dielectric constant tensor:
#      x y z
#    x 1.817180 0.000000 0.013330 
#    y 0.000000 1.936390 0.000000 
#    z 0.013330 0.000000 1.795920 
# 
# From -- ./inp_files/21768.got.cif
#   From: 2010.05.17/outbox.cif.g08.bks.cpg/sg10_11_cif.got.tgz:21768.got - 2010.06.03 11:33:40.
