data_PCOD9143683
_publ_section_title
;
Structure prediction by ZEFSAII (Michael W. Deem and Ramdas Pophale) SiO2 
 PCOD9143683
Probable space group: P 2/M
;
_chemical_formula_sum "Si O2"
_cell_formula_units_Z 28
_cell_length_a 19.195740
_cell_length_b 14.486233
_cell_length_c 10.077978
_cell_angle_alpha 90.000000
_cell_angle_beta 37.357040
_cell_angle_gamma 90.000000
_cell_volume 1700.454456
_symmetry_space_group_name_H-M "P 2/M"
_symmetry_group_IT_number 10
_symmetry_cell_setting 'monoclinic'
loop_
_space_group_symop_operation_xyz
x,y,z
-x,y,-z
-x,-y,-z
x,-y,z
loop_
_atom_site_type_symbol
_atom_site_label
_atom_site_fract_x
_atom_site_fract_y
_atom_site_fract_z
Si Si1 0.458850 0.896304 0.213053
Si Si2 0.041286 0.105593 0.783213
Si Si3 0.056672 0.605381 0.271122
Si Si4 0.900257 0.394224 0.251971
Si Si5 0.392844 0.108116 0.756925
Si Si6 0.757678 0.772643 0.422972
Si Si7 0.827193 0.214789 0.009258
O O1 0.561497 0.884253 0.162297
O O2 0.366455 0.816477 0.373522
O O3 0.409287 0.000000 0.316045
O O4 0.500000 0.895160 0.000000
O O5 0.156493 0.165162 0.618098
O O6 0.060235 0.000000 0.713102
O O7 0.000000 0.103790 0.000000
O O8 0.944296 0.154635 0.841102
O O9 0.103960 0.500000 0.197092
O O10 0.000000 0.621486 0.500000
O O11 0.957946 0.608557 0.308449
O O12 0.143972 0.686162 0.098330
O O13 0.877443 0.500000 0.248170
O O14 0.788218 0.331618 0.416008
O O15 0.000000 0.357827 0.000000
O O16 0.500000 0.136574 0.500000
O O17 0.277692 0.164493 0.904648
O O18 0.370386 0.000000 0.761001
O O19 0.789923 0.777433 0.219140
#
# Coordination Sequence:
#
# PCOD9143683 Si02
#       7
#     4   4   4   4   4   4   4
#     4  10  22  38  55  77 107 145 188 228 267 318
#     4   9  17  27  45  79 111 135 165 216 274 316
#     4  10  21  36  54  80 114 145 175 218 276 335
#     4  10  18  32  54  82 110 137 179 223 265 327
#     4  10  20  35  55  78 104 144 190 226 263 314
#     4  11  18  31  55  81 105 140 182 228 267 315
#     4  11  19  32  55  80 108 139 182 226 266 321
#
# _framework density 16.466186
#
# number of rings (size 3 to 8) (size 9 to 14) (size 15 to 20)
#    0.000    1.857    4.286    1.286    0.000    2.286 
#    0.000    0.000    0.000    2.571    0.000    0.000 
#    0.000    0.000    0.000    0.000    0.000    0.000 
#
# Total GULP energy -156091.201009 kJ/mol
# GULP energy per Si atom -5574.685750 kJ/mol
# Density = 1.642871 g / cm^3
# Si number density = 16.466186 Si / 1000 Ang^3
#
#
#
# Elastic Constant Matrix: (Units=GPa)
#
#
# Indices 1 2 3 4 5 6 
#
# 1 99.2501 49.3328 37.4397 0.0000 -3.0334 0.0000
# 2 49.3328 121.5838 43.6411 0.0000 -17.5984 0.0000
# 3 37.4397 43.6411 46.0766 0.0000 3.2392 0.0000
# 4 0.0000 0.0000 0.0000 23.7473 0.0000 -6.7283
# 5 -3.0334 -17.5984 3.2392 0.0000 29.1882 0.0000
# 6 0.0000 0.0000 0.0000 -6.7283 0.0000 21.0242
#
#
#
# Elastic Compliance Matrix: (Units=1/GPa)
#
#
# Indices 1 2 3 4 5 6 
#
# 1 0.015095 -0.002265 -0.010214 0.000000 0.001337 0.000000
# 2 -0.002265 0.015607 -0.013693 0.000000 0.010694 0.000000
# 3 -0.010214 -0.013693 0.043970 0.000000 -0.014197 0.000000
# 4 0.000000 0.000000 0.000000 0.046309 0.000000 0.014820
# 5 0.001337 0.010694 -0.014197 0.000000 0.042423 0.000000
# 6 0.000000 0.000000 0.000000 0.014820 0.000000 0.052307
#
#
# Mechanical properties :
#
#
# Convention : Reuss Voigt Hill
#
# Bulk Modulus (GPa) = 44.78872 58.63753 51.71312
# Shear Modulus (GPa) = 18.14898 23.89175 21.02036
#
# Velocity S-wave (km/s) = 3.32354 3.81328 3.57680
# Velocity P-wave (km/s) = 6.47976 7.42134 6.96648
#
# Compressibility (1/GPa) = 0.02232705
#
# Stress axis : x y z
#
# Youngs Moduli (GPa) = 66.24514 64.07520 22.74288
#
# Poissons Ratio (x) = 0.14514 0.23230
# Poissons Ratio (y) = 0.15006 0.31142
# Poissons Ratio (z) = 0.67665 0.87737
#
# Static dielectric constant tensor:
#      x y z
#    x 1.549820 0.000000 0.020330 
#    y 0.000000 1.579070 0.000000 
#    z 0.020330 0.000000 1.557210 
# 
# From -- ./inp_files/25050.got.cif
#   From: 2010.05.17/outbox.cif.g08.bks.cpg/sg10_13_cif.got.tgz:25050.got - 2010.06.03 11:33:40.
