data_PCOD9143743
_publ_section_title
;
Structure prediction by ZEFSAII (Michael W. Deem and Ramdas Pophale) SiO2 
 PCOD9143743
Probable space group: P 2/M
;
_chemical_formula_sum "Si O2"
_cell_formula_units_Z 32
_cell_length_a 20.477482
_cell_length_b 7.637664
_cell_length_c 26.399737
_cell_angle_alpha 90.000000
_cell_angle_beta 21.347397
_cell_angle_gamma 90.000000
_cell_volume 1503.017833
_symmetry_space_group_name_H-M "P 2/M"
_symmetry_group_IT_number 10
_symmetry_cell_setting 'monoclinic'
loop_
_space_group_symop_operation_xyz
x,y,z
-x,y,-z
-x,-y,-z
x,-y,z
loop_
_atom_site_type_symbol
_atom_site_label
_atom_site_fract_x
_atom_site_fract_y
_atom_site_fract_z
Si Si1 0.457534 0.211553 0.355765
Si Si2 0.130426 0.214681 0.664240
Si Si3 0.612487 0.797883 0.812784
Si Si4 0.314284 0.293817 0.351751
Si Si5 0.233813 0.203846 0.121271
Si Si6 0.292385 0.786316 0.653476
Si Si7 0.187734 0.785731 0.840727
Si Si8 0.081083 0.701402 0.337848
O O1 0.284892 0.269886 0.513172
O O2 0.434087 0.267756 0.314878
O O3 0.640174 0.270439 0.250826
O O4 0.457493 0.000000 0.356770
O O5 0.185921 0.269544 0.680458
O O6 0.935793 0.277236 0.786965
O O7 0.129192 0.000000 0.664053
O O8 0.610095 0.788334 0.753978
O O9 0.789872 0.709891 0.707045
O O10 0.626914 0.000000 0.818539
O O11 0.428886 0.719997 0.968189
O O12 0.296498 0.500000 0.354161
O O13 0.114990 0.222725 0.508704
O O14 0.181125 0.213016 0.218122
O O15 0.247522 0.000000 0.096407
O O16 0.500000 0.732145 0.500000
O O17 0.211737 0.729954 0.765264
O O18 0.292127 0.000000 0.653382
O O19 0.188875 0.000000 0.840051
O O20 0.000000 0.728583 0.000000
O O21 0.053611 0.500000 0.342768
#
# Coordination Sequence:
#
# PCOD9143743 Si02
#       8
#     4   4   4   4   4   4   4   4
#     4  10  18  32  56  81 108 146 186 229 283 333
#     4   9  16  28  50  77 108 143 180 225 273 327
#     4  11  24  39  58  85 115 146 184 233 287 338
#     4  11  24  40  58  82 112 149 191 233 279 335
#     4  10  21  37  57  84 114 146 186 232 282 334
#     4   9  14  23  41  68 102 138 173 210 263 321
#     4   9  17  27  44  77 114 142 176 227 280 329
#     4  11  23  39  60  84 111 148 190 230 279 337
#
# _framework density 21.290499000000001
#
# number of rings (size 3 to 8) (size 9 to 14) (size 15 to 20)
#    0.000    2.000    2.500    1.875    0.000    6.500 
#    0.000    3.750    0.000    0.375    0.000    2.625 
#    0.000    0.000    0.000    0.000    0.000    0.000 
#
# Total GULP energy -178810.877686 kJ/mol
# GULP energy per Si atom -5587.839928 kJ/mol
# Density = 2.124204 g / cm^3
# Si number density = 21.290499 Si / 1000 Ang^3
#
#
#
# Elastic Constant Matrix: (Units=GPa)
#
#
# Indices 1 2 3 4 5 6 
#
# 1 108.6765 -7.5385 2.2139 0.0000 3.6799 0.0000
# 2 -7.5385 42.6903 6.0983 0.0000 -4.5157 0.0000
# 3 2.2139 6.0983 61.9978 0.0000 12.9842 0.0000
# 4 0.0000 0.0000 0.0000 -0.7834 0.0000 1.3062
# 5 3.6799 -4.5157 12.9842 0.0000 32.3724 0.0000
# 6 0.0000 0.0000 0.0000 1.3062 0.0000 -5.8536
#
#
#
# Elastic Compliance Matrix: (Units=1/GPa)
#
#
# Indices 1 2 3 4 5 6 
#
# 1 0.009345 0.001626 -0.000348 0.000000 -0.000696 0.000000
# 2 0.001626 0.024698 -0.003461 0.000000 0.004648 0.000000
# 3 -0.000348 -0.003461 0.018095 0.000000 -0.007701 0.000000
# 4 0.000000 0.000000 0.000000 -2.032937 0.000000 -0.453644
# 5 -0.000696 0.004648 -0.007701 0.000000 0.034707 0.000000
# 6 0.000000 0.000000 0.000000 -0.453644 0.000000 -0.272063
#
#
# Mechanical properties :
#
#
# Convention : Reuss Voigt Hill
#
# Bulk Modulus (GPa) = 20.93234 23.87912 22.40573
# Shear Modulus (GPa) = -2.27493 19.31981 8.52244
#
# Velocity S-wave (km/s) = -1.03481 3.01564 2.00290
# Velocity P-wave (km/s) = 2.90264 4.83380 3.98691
#
# Compressibility (1/GPa) = 0.04777298
#
# Stress axis : x y z
#
# Youngs Moduli (GPa) = 107.00814 40.48946 55.26304
#
# Poissons Ratio (x) = -0.06585 0.01923
# Poissons Ratio (y) = -0.17403 0.19126
# Poissons Ratio (z) = 0.03723 0.14013
#
# Static dielectric constant tensor:
#      x y z
#    x 1.723490 0.000000 -0.009800 
#    y 0.000000 1.803640 0.000000 
#    z -0.009800 0.000000 1.749940 
# 
# From -- ./inp_files/93576.got.cif
#   From: 2010.05.17/outbox.cif.g08.bks.cpg/sg10_47_cif.got.tgz:93576.got - 2010.06.03 11:33:40.
