data_PCOD9143621
_publ_section_title
;
Structure prediction by ZEFSAII (Michael W. Deem and Ramdas Pophale) SiO2 
 PCOD9143621
Probable space group: P 2/M
;
_chemical_formula_sum "Si O2"
_cell_formula_units_Z 32
_cell_length_a 15.034690
_cell_length_b 7.797121
_cell_length_c 13.206974
_cell_angle_alpha 90.000000
_cell_angle_beta 100.452163
_cell_angle_gamma 90.000000
_cell_volume 1522.527846
_symmetry_space_group_name_H-M "P 2/M"
_symmetry_group_IT_number 10
_symmetry_cell_setting 'monoclinic'
loop_
_space_group_symop_operation_xyz
x,y,z
-x,y,-z
-x,-y,-z
x,-y,z
loop_
_atom_site_type_symbol
_atom_site_label
_atom_site_fract_x
_atom_site_fract_y
_atom_site_fract_z
Si Si1 0.599837 0.290773 0.044324
Si Si2 0.937115 0.299331 0.193214
Si Si3 0.408048 0.792360 0.534550
Si Si4 0.786140 0.701624 0.008048
Si Si5 0.671121 0.700094 0.278559
Si Si6 0.135304 0.194947 0.611338
Si Si7 0.790720 0.210145 0.581340
Si Si8 0.136353 0.197790 0.189507
O O1 0.594814 0.500000 0.037021
O O2 0.629740 0.246527 0.164003
O O3 0.500000 0.225065 0.000000
O O4 0.683723 0.230404 0.992749
O O5 0.947893 0.500000 0.171483
O O6 0.919662 0.281309 0.309484
O O7 0.028728 0.209524 0.178307
O O8 0.852488 0.229705 0.109913
O O9 0.500000 0.735158 0.500000
O O10 0.400162 0.723707 0.646511
O O11 0.313463 0.740688 0.461638
O O12 0.408558 0.000000 0.537605
O O13 0.778507 0.500000 0.029581
O O14 0.829977 0.720629 0.907390
O O15 0.698259 0.500000 0.276522
O O16 0.760758 0.801433 0.328363
O O17 0.145890 0.268069 0.499736
O O18 0.102092 0.000000 0.597134
O O19 0.823050 0.270638 0.697548
O O20 0.794813 0.000000 0.579942
O O21 0.835578 0.000000 0.810137
#
# Coordination Sequence:
#
# PCOD9143621 Si02
#       8
#     4   4   4   4   4   4   4   4
#     4   9  18  34  56  81 110 147 184 221 278 341
#     4  11  22  38  59  84 112 146 187 233 283 332
#     4   9  18  34  56  79 106 147 189 226 277 338
#     4  10  21  39  58  79 112 150 185 229 283 332
#     4  10  18  32  53  80 110 142 181 230 278 323
#     4  10  19  35  60  83 107 145 186 225 275 336
#     4   8  18  36  54  77 112 148 181 226 284 333
#     4  11  23  38  56  81 113 150 189 231 278 334
#
# _framework density 21.017678
#
# number of rings (size 3 to 8) (size 9 to 14) (size 15 to 20)
#    0.000    2.250    1.250    2.625    0.000    4.250 
#    0.000    8.750    0.000    2.625    0.000    0.000 
#    0.000    0.000    0.000    0.000    0.000    0.000 
#
# Total GULP energy -178621.982679 kJ/mol
# GULP energy per Si atom -5581.936959 kJ/mol
# Density = 2.096984 g / cm^3
# Si number density = 21.017678 Si / 1000 Ang^3
#
#
#
# Elastic Constant Matrix: (Units=GPa)
#
#
# Indices 1 2 3 4 5 6 
#
# 1 110.4700 -3.3373 52.9612 0.0000 -18.8799 0.0000
# 2 -3.3373 26.1748 0.7941 0.0000 4.6079 0.0000
# 3 52.9612 0.7941 104.1301 0.0000 -14.0003 0.0000
# 4 0.0000 0.0000 0.0000 21.4751 0.0000 -4.9243
# 5 -18.8799 4.6079 -14.0003 0.0000 32.1711 0.0000
# 6 0.0000 0.0000 0.0000 -4.9243 0.0000 19.6560
#
#
#
# Elastic Compliance Matrix: (Units=1/GPa)
#
#
# Indices 1 2 3 4 5 6 
#
# 1 0.012686 0.000953 -0.005817 0.000000 0.004777 0.000000
# 2 0.000953 0.039388 -0.001560 0.000000 -0.005761 0.000000
# 3 -0.005817 -0.001560 0.012900 0.000000 0.002423 0.000000
# 4 0.000000 0.000000 0.000000 0.049404 0.000000 0.012377
# 5 0.004777 -0.005761 0.002423 0.000000 0.035767 0.000000
# 6 0.000000 0.000000 0.000000 0.012377 0.000000 0.053976
#
#
# Mechanical properties :
#
#
# Convention : Reuss Voigt Hill
#
# Bulk Modulus (GPa) = 19.18428 37.95677 28.57052
# Shear Modulus (GPa) = 21.33620 27.35089 24.34355
#
# Velocity S-wave (km/s) = 3.18961 3.61131 3.40699
# Velocity P-wave (km/s) = 4.76574 5.95713 5.39443
#
# Compressibility (1/GPa) = 0.05212601
#
# Stress axis : x y z
#
# Youngs Moduli (GPa) = 78.82466 25.38861 77.52046
#
# Poissons Ratio (x) = -0.02420 0.45097
# Poissons Ratio (y) = -0.07513 0.12091
# Poissons Ratio (z) = 0.45855 0.03960
#
# Static dielectric constant tensor:
#      x y z
#    x 1.742070 0.000000 0.004140 
#    y 0.000000 1.762820 0.000000 
#    z 0.004140 0.000000 1.743390 
# 
# From -- ./inp_files/49858.got.cif
#   From: 2010.05.17/outbox.cif.g08.bks.cpg/sg10_25_cif.got.tgz:49858.got - 2010.06.03 11:33:40.
