data_PCOD9143638
_publ_section_title
;
Structure prediction by ZEFSAII (Michael W. Deem and Ramdas Pophale) SiO2 
 PCOD9143638
Probable space group: P 2/M
;
_chemical_formula_sum "Si O2"
_cell_formula_units_Z 32
_cell_length_a 21.925641
_cell_length_b 7.536863
_cell_length_c 15.289450
_cell_angle_alpha 90.000000
_cell_angle_beta 36.313020
_cell_angle_gamma 90.000000
_cell_volume 1496.237295
_symmetry_space_group_name_H-M "P 2/M"
_symmetry_group_IT_number 10
_symmetry_cell_setting 'monoclinic'
loop_
_space_group_symop_operation_xyz
x,y,z
-x,y,-z
-x,-y,-z
x,-y,z
loop_
_atom_site_type_symbol
_atom_site_label
_atom_site_fract_x
_atom_site_fract_y
_atom_site_fract_z
Si Si1 0.689381 0.207652 0.884381
Si Si2 0.310437 0.781851 0.312053
Si Si3 0.501784 0.216927 0.780849
Si Si4 0.027127 0.784000 0.065134
Si Si5 0.110714 0.698595 0.249371
Si Si6 0.086267 0.209252 0.628995
Si Si7 0.456516 0.783310 0.642534
Si Si8 0.222491 0.214395 0.942342
O O1 0.673022 0.280650 0.806347
O O2 0.808703 0.220283 0.775294
O O3 0.665433 0.000000 0.906568
O O4 0.606761 0.277088 0.050607
O O5 0.402976 0.728587 0.268790
O O6 0.197973 0.720856 0.473976
O O7 0.309543 0.000000 0.311918
O O8 0.510892 0.273943 0.669533
O O9 0.500775 0.000000 0.780144
O O10 0.959154 0.720063 0.226446
O O11 0.018474 0.000000 0.074152
O O12 0.144360 0.742514 0.954975
O O13 0.000000 0.719781 0.000000
O O14 0.092067 0.500000 0.300360
O O15 0.000050 0.772713 0.347363
O O16 0.175920 0.705964 0.084094
O O17 0.099122 0.000000 0.627808
O O18 0.500000 0.720452 0.500000
O O19 0.337673 0.731874 0.789918
O O20 0.460160 0.000000 0.636486
O O21 0.220675 0.000000 0.957804
#
# Coordination Sequence:
#
# PCOD9143638 Si02
#       8
#     4   4   4   4   4   4   4   4
#     4  10  18  32  54  76 100 132 169 207 254 302
#     4   9  18  30  49  76 101 131 169 209 249 302
#     4   9  16  28  48  76 107 133 164 206 248 297
#     4   8  14  24  43  69  95 127 164 201 244 292
#     4  11  21  33  52  74  97 130 173 214 253 299
#     4   9  18  33  50  72 104 133 166 210 257 301
#     4   9  16  25  43  76 109 133 158 199 253 298
#     4   9  16  30  49  71 101 135 167 204 252 299
#
# _framework density 21.386980999999999
#
# number of rings (size 3 to 8) (size 9 to 14) (size 15 to 20)
#    0.000    2.750    1.250    2.250    0.000    3.000 
#    0.000    8.125    0.000    8.625    0.000    0.000 
#    0.000    0.000    0.000    0.000    0.000    0.000 
#
# Total GULP energy -178505.213892 kJ/mol
# GULP energy per Si atom -5578.287934 kJ/mol
# Density = 2.133830 g / cm^3
# Si number density = 21.386981 Si / 1000 Ang^3
#
#
#
# Elastic Constant Matrix: (Units=GPa)
#
#
# Indices 1 2 3 4 5 6 
#
# 1 180.2336 0.5075 63.6714 0.0000 11.9471 0.0000
# 2 0.5075 44.1795 6.1100 0.0000 2.4236 0.0000
# 3 63.6714 6.1100 76.8255 0.0000 3.4220 0.0000
# 4 0.0000 0.0000 0.0000 73.6043 0.0000 59.0494
# 5 11.9471 2.4236 3.4220 0.0000 29.8544 0.0000
# 6 0.0000 0.0000 0.0000 59.0494 0.0000 10.4034
#
#
#
# Elastic Compliance Matrix: (Units=1/GPa)
#
#
# Indices 1 2 3 4 5 6 
#
# 1 0.008062 0.000966 -0.006645 0.000000 -0.002543 0.000000
# 2 0.000966 0.023084 -0.002549 0.000000 -0.001968 0.000000
# 3 -0.006645 -0.002549 0.018694 0.000000 0.000723 0.000000
# 4 0.000000 0.000000 0.000000 -0.003823 0.000000 0.021701
# 5 -0.002543 -0.001968 0.000723 0.000000 0.034590 0.000000
# 6 0.000000 0.000000 0.000000 0.021701 0.000000 -0.027050
#
#
# Mechanical properties :
#
#
# Convention : Reuss Voigt Hill
#
# Bulk Modulus (GPa) = 29.95395 49.09071 39.52233
# Shear Modulus (GPa) = 61.62080 38.16907 49.89494
#
# Velocity S-wave (km/s) = 5.37353 4.22914 4.83531
# Velocity P-wave (km/s) = 7.24816 6.84477 7.04935
#
# Compressibility (1/GPa) = 0.03338458
#
# Stress axis : x y z
#
# Youngs Moduli (GPa) = 124.04424 43.31950 53.49267
#
# Poissons Ratio (x) = -0.04184 0.35545
# Poissons Ratio (y) = -0.11981 0.13634
# Poissons Ratio (z) = 0.82426 0.11041
#
# Static dielectric constant tensor:
#      x y z
#    x 1.762390 0.000000 0.001540 
#    y 0.000000 1.812070 0.000000 
#    z 0.001540 0.000000 1.753900 
# 
# From -- ./inp_files/69978.got.cif
#   From: 2010.05.17/outbox.cif.g08.bks.cpg/sg10_35_cif.got.tgz:69978.got - 2010.06.03 11:33:40.
