data_PCOD9143170
_publ_section_title
;
Structure prediction by ZEFSAII (Michael W. Deem and Ramdas Pophale) SiO2 
 PCOD9143170
Probable space group: P 2/M
;
_chemical_formula_sum "Si O2"
_cell_formula_units_Z 28
_cell_length_a 21.034200
_cell_length_b 13.284492
_cell_length_c 19.430268
_cell_angle_alpha 90.000000
_cell_angle_beta 20.210493
_cell_angle_gamma 90.000000
_cell_volume 1875.686121
_symmetry_space_group_name_H-M "P 2/M"
_symmetry_group_IT_number 10
_symmetry_cell_setting 'monoclinic'
loop_
_space_group_symop_operation_xyz
x,y,z
-x,y,-z
-x,-y,-z
x,-y,z
loop_
_atom_site_type_symbol
_atom_site_label
_atom_site_fract_x
_atom_site_fract_y
_atom_site_fract_z
Si Si1 0.022079 0.884419 0.366009
Si Si2 0.742331 0.378616 0.063610
Si Si3 0.830004 0.611192 0.619729
Si Si4 0.013399 0.621854 0.908476
Si Si5 0.683654 0.378299 0.508371
Si Si6 0.957298 0.695746 0.345184
Si Si7 0.291857 0.176162 0.210616
O O1 0.190574 0.840505 0.240588
O O2 0.983747 0.810617 0.341695
O O3 0.843276 0.876834 0.597295
O O4 0.056920 0.000000 0.313039
O O5 0.749122 0.500000 0.055811
O O6 0.529316 0.349324 0.278693
O O7 0.849765 0.345020 0.023522
O O8 0.859537 0.341195 0.879548
O O9 0.743237 0.500000 0.708438
O O10 0.910572 0.635264 0.462389
O O11 0.709951 0.706316 0.765263
O O12 0.000000 0.610672 0.500000
O O13 0.002044 0.500000 0.923195
O O14 0.203783 0.644900 0.675747
O O15 0.000000 0.659929 0.000000
O O16 0.696426 0.500000 0.505825
O O17 0.791731 0.325025 0.460476
O O18 0.500000 0.138555 0.000000
#
# Coordination Sequence:
#
# PCOD9143170 Si02
#       7
#     4   4   4   4   4   4   4
#     4  10  21  36  49  65  84 108 145 191 238 283
#     4   9  17  28  44  65  92 125 151 177 215 258
#     4  10  18  31  47  65  91 120 150 188 225 262
#     4   8  14  25  41  63  93 126 157 182 202 236
#     4   9  17  28  43  66  93 122 154 178 211 262
#     4  10  18  32  46  61  86 119 149 188 224 270
#     4  10  19  34  51  68  87 110 141 184 236 284
#
# _framework density 14.927871
#
# number of rings (size 3 to 8) (size 9 to 14) (size 15 to 20)
#    0.000    2.571    2.857    3.000    0.000    4.286 
#    0.000    2.857    0.000    0.000    0.000    0.000 
#    0.000    9.143    0.000   10.286    0.000    1.143 
#
# Total GULP energy -155935.527849 kJ/mol
# GULP energy per Si atom -5569.125995 kJ/mol
# Density = 1.489389 g / cm^3
# Si number density = 14.927871 Si / 1000 Ang^3
#
#
#
# Elastic Constant Matrix: (Units=GPa)
#
#
# Indices 1 2 3 4 5 6 
#
# 1 85.7255 25.9573 65.5395 0.0000 3.9997 0.0000
# 2 25.9573 65.7952 19.5965 0.0000 0.2978 0.0000
# 3 65.5395 19.5965 104.9832 0.0000 -20.7308 0.0000
# 4 0.0000 0.0000 0.0000 3.2989 0.0000 12.8121
# 5 3.9997 0.2978 -20.7308 0.0000 21.0165 0.0000
# 6 0.0000 0.0000 0.0000 12.8121 0.0000 173.7928
#
#
#
# Elastic Compliance Matrix: (Units=1/GPa)
#
#
# Indices 1 2 3 4 5 6 
#
# 1 0.037941 -0.005930 -0.029791 0.000000 -0.036523 0.000000
# 2 -0.005930 0.017291 0.000806 0.000000 0.001679 0.000000
# 3 -0.029791 0.000806 0.036127 0.000000 0.041294 0.000000
# 4 0.000000 0.000000 0.000000 0.424741 0.000000 -0.031312
# 5 -0.036523 0.001679 0.041294 0.000000 0.095242 0.000000
# 6 0.000000 0.000000 0.000000 -0.031312 0.000000 0.008062
#
#
# Mechanical properties :
#
#
# Convention : Reuss Voigt Hill
#
# Bulk Modulus (GPa) = 46.45003 53.18784 49.81894
# Shear Modulus (GPa) = 7.17968 49.31567 28.24767
#
# Velocity S-wave (km/s) = 2.19545 5.75393 4.35475
# Velocity P-wave (km/s) = 6.13274 8.93593 7.66360
#
# Compressibility (1/GPa) = 0.02152851
#
# Stress axis : x y z
#
# Youngs Moduli (GPa) = 26.35687 57.83522 27.67993
#
# Poissons Ratio (x) = 0.34296 0.82461
# Poissons Ratio (y) = 0.15630 -0.02231
# Poissons Ratio (z) = 0.78520 -0.04661
#
# Static dielectric constant tensor:
#      x y z
#    x 1.491770 0.000000 -0.002800 
#    y 0.000000 1.502620 0.000000 
#    z -0.002800 0.000000 1.491830 
# 
# From -- ./inp_files/79650.got.cif
#   From: 2010.05.17/outbox.cif.g08.bks.cpg/sg10_40_cif.got.tgz:79650.got - 2010.06.03 11:33:40.
