data_PCOD9143993
_publ_section_title
;
Structure prediction by ZEFSAII (Michael W. Deem and Ramdas Pophale) SiO2 
 PCOD9143993
Probable space group: P 2/M
;
_chemical_formula_sum "Si O2"
_cell_formula_units_Z 32
_cell_length_a 16.347003
_cell_length_b 7.399017
_cell_length_c 25.244281
_cell_angle_alpha 90.000000
_cell_angle_beta 27.632266
_cell_angle_gamma 90.000000
_cell_volume 1416.123922
_symmetry_space_group_name_H-M "P 2/M"
_symmetry_group_IT_number 10
_symmetry_cell_setting 'monoclinic'
loop_
_space_group_symop_operation_xyz
x,y,z
-x,y,-z
-x,-y,-z
x,-y,z
loop_
_atom_site_type_symbol
_atom_site_label
_atom_site_fract_x
_atom_site_fract_y
_atom_site_fract_z
Si Si1 0.887257 0.279670 0.513687
Si Si2 0.182205 0.717959 0.868557
Si Si3 0.493161 0.721378 0.766541
Si Si4 0.677930 0.705983 0.424461
Si Si5 0.051290 0.278603 0.642351
Si Si6 0.087264 0.790979 0.808478
Si Si7 0.695329 0.279252 0.905982
Si Si8 0.697878 0.292876 0.022932
O O1 0.895589 0.500000 0.508477
O O2 0.686810 0.224593 0.639074
O O3 0.940145 0.222913 0.423984
O O4 0.000000 0.220492 0.500000
O O5 0.178624 0.500000 0.871462
O O6 0.346642 0.779258 0.808777
O O7 0.197487 0.773606 0.798886
O O8 0.000000 0.781726 0.000000
O O9 0.489311 0.500000 0.769896
O O10 0.433029 0.786284 0.858869
O O11 0.500000 0.788234 0.500000
O O12 0.628392 0.500000 0.467639
O O13 0.783923 0.780955 0.414738
O O14 0.820109 0.703929 0.295235
O O15 0.055973 0.500000 0.641106
O O16 0.864867 0.221327 0.774929
O O17 0.896424 0.708994 0.931087
O O18 0.062237 0.000000 0.810151
O O19 0.701653 0.500000 0.901116
O O20 0.712176 0.214247 0.956529
O O21 0.500000 0.226188 0.000000
O O22 0.640409 0.500000 0.048294
#
# Coordination Sequence:
#
# PCOD9143993 Si02
#       8
#     4   4   4   4   4   4   4   4
#     4   9  18  29  44  74 116 147 170 219 285 333
#     4  10  19  34  55  78 106 144 187 226 267 325
#     4   9  18  30  49  74 104 145 185 222 267 327
#     4  10  21  37  59  81 105 147 193 231 270 323
#     4   9  17  30  47  75 110 142 180 221 267 327
#     4  12  24  36  53  79 115 147 178 226 288 338
#     4   9  17  27  48  78 106 137 177 230 280 323
#     4  10  18  34  55  78 109 144 187 226 271 330
#
# _framework density 22.596893000000001
#
# number of rings (size 3 to 8) (size 9 to 14) (size 15 to 20)
#    0.000    2.250    2.500    1.125    3.500    0.500 
#    0.000    0.000    0.000    0.375    0.000    0.000 
#    0.000    2.500    0.000    0.000    0.000    0.000 
#
# Total GULP energy -178720.982358 kJ/mol
# GULP energy per Si atom -5585.030699 kJ/mol
# Density = 2.254546 g / cm^3
# Si number density = 22.596893 Si / 1000 Ang^3
#
#
#
# Elastic Constant Matrix: (Units=GPa)
#
#
# Indices 1 2 3 4 5 6 
#
# 1 208.8841 3.9155 116.2433 0.0000 8.2741 0.0000
# 2 3.9155 80.4996 -2.6078 0.0000 -1.1901 0.0000
# 3 116.2433 -2.6078 136.2025 0.0000 4.2236 0.0000
# 4 0.0000 0.0000 0.0000 -17.3823 0.0000 -13.9777
# 5 8.2741 -1.1901 4.2236 0.0000 44.5915 0.0000
# 6 0.0000 0.0000 0.0000 -13.9777 0.0000 -29.5064
#
#
#
# Elastic Compliance Matrix: (Units=1/GPa)
#
#
# Indices 1 2 3 4 5 6 
#
# 1 0.009200 -0.000716 -0.007835 0.000000 -0.000984 0.000000
# 2 -0.000716 0.012490 0.000838 0.000000 0.000387 0.000000
# 3 -0.007835 0.000838 0.014040 0.000000 0.000146 0.000000
# 4 0.000000 0.000000 0.000000 -0.092929 0.000000 0.044022
# 5 -0.000984 0.000387 0.000146 0.000000 0.022605 0.000000
# 6 0.000000 0.000000 0.000000 0.044022 0.000000 -0.054745
#
#
# Mechanical properties :
#
#
# Convention : Reuss Voigt Hill
#
# Bulk Modulus (GPa) = 49.24908 73.40980 61.32944
# Shear Modulus (GPa) = -74.46460 20.07625 -27.19418
#
# Velocity S-wave (km/s) = -5.74674 2.98392 -3.47284
# Velocity P-wave (km/s) = 4.71078 6.66550 3.33448
#
# Compressibility (1/GPa) = 0.02030495
#
# Stress axis : x y z
#
# Youngs Moduli (GPa) = 108.69790 80.06339 71.22384
#
# Poissons Ratio (x) = 0.05731 0.55803
# Poissons Ratio (y) = 0.07781 -0.05969
# Poissons Ratio (z) = 0.85163 -0.06710
#
# Static dielectric constant tensor:
#      x y z
#    x 1.852350 0.000000 -0.022090 
#    y 0.000000 1.855840 0.000000 
#    z -0.022090 0.000000 1.786420 
# 
# From -- ./inp_files/89484.got.cif
#   From: 2010.05.17/outbox.cif.g08.bks.cpg/sg10_45_cif.got.tgz:89484.got - 2010.06.03 11:33:40.
