data_PCOD9143055
_publ_section_title
;
Structure prediction by ZEFSAII (Michael W. Deem and Ramdas Pophale) SiO2 
 PCOD9143055
Probable space group: P 2/M
;
_chemical_formula_sum "Si O2"
_cell_formula_units_Z 28
_cell_length_a 26.385922
_cell_length_b 7.515951
_cell_length_c 8.233777
_cell_angle_alpha 90.000000
_cell_angle_beta 40.412913
_cell_angle_gamma 90.000000
_cell_volume 1058.584798
_symmetry_space_group_name_H-M "P 2/M"
_symmetry_group_IT_number 10
_symmetry_cell_setting 'monoclinic'
loop_
_space_group_symop_operation_xyz
x,y,z
-x,y,-z
-x,-y,-z
x,-y,z
loop_
_atom_site_type_symbol
_atom_site_label
_atom_site_fract_x
_atom_site_fract_y
_atom_site_fract_z
Si Si1 0.618244 0.783407 0.275323
Si Si2 0.188727 0.796720 0.486972
Si Si3 0.947840 0.287505 0.964385
Si Si4 0.761120 0.211204 0.112154
Si Si5 0.912538 0.701577 0.573262
Si Si6 0.474389 0.783690 0.823934
Si Si7 0.328177 0.781135 0.353815
O O1 0.706083 0.725041 0.097993
O O2 0.561662 0.728493 0.562938
O O3 0.576135 0.732191 0.212377
O O4 0.617964 0.000000 0.270424
O O5 0.140133 0.706454 0.462725
O O6 0.272662 0.729042 0.338334
O O7 0.198105 0.000000 0.408501
O O8 0.134505 0.793988 0.781831
O O9 0.936210 0.500000 0.972703
O O10 0.004159 0.215858 0.683351
O O11 0.000000 0.261826 0.000000
O O12 0.718356 0.283246 0.375581
O O13 0.752277 0.000000 0.141292
O O14 0.852180 0.240645 0.858560
O O15 0.930570 0.500000 0.566356
O O16 0.478444 0.000000 0.825483
O O17 0.417953 0.726023 0.108080
O O18 0.328256 0.000000 0.355800
#
# Coordination Sequence:
#
# PCOD9143055 Si02
#       7
#     4   4   4   4   4   4   4
#     4   8  14  24  43  69  95 125 159 195 236 281
#     4  10  18  30  51  76  98 123 157 197 241 285
#     4   8  16  31  49  70  95 121 155 199 241 283
#     4  10  19  31  47  70  99 130 163 197 236 281
#     4  10  20  34  51  71  95 125 161 200 241 285
#     4   8  13  24  41  66  99 127 154 193 239 282
#     4   9  18  29  43  69 104 132 156 193 238 285
#
# _framework density 26.450410000000002
#
# number of rings (size 3 to 8) (size 9 to 14) (size 15 to 20)
#    0.000    3.000    0.000    3.429    0.000    6.000 
#    0.000    5.000    0.000    4.286    0.000   11.000 
#    0.000    0.000    0.000    0.000    0.000    0.000 
#
# Total GULP energy -156405.989969 kJ/mol
# GULP energy per Si atom -5585.928213 kJ/mol
# Density = 2.639021 g / cm^3
# Si number density = 26.450410 Si / 1000 Ang^3
#
#
#
# Elastic Constant Matrix: (Units=GPa)
#
#
# Indices 1 2 3 4 5 6 
#
# 1 76.8934 2.8426 27.8017 0.0000 -16.3571 0.0000
# 2 2.8426 50.8333 -3.8573 0.0000 -2.1484 0.0000
# 3 27.8017 -3.8573 201.0449 0.0000 -14.4800 0.0000
# 4 0.0000 0.0000 0.0000 41.9311 0.0000 10.6242
# 5 -16.3571 -2.1484 -14.4800 0.0000 52.7722 0.0000
# 6 0.0000 0.0000 0.0000 10.6242 0.0000 20.2209
#
#
#
# Elastic Compliance Matrix: (Units=1/GPa)
#
#
# Indices 1 2 3 4 5 6 
#
# 1 0.014509 -0.000774 -0.001734 0.000000 0.003990 0.000000
# 2 -0.000774 0.019786 0.000538 0.000000 0.000713 0.000000
# 3 -0.001734 0.000538 0.005292 0.000000 0.000936 0.000000
# 4 0.000000 0.000000 0.000000 0.027511 0.000000 -0.014454
# 5 0.003990 0.000713 0.000936 0.000000 0.020472 0.000000
# 6 0.000000 0.000000 0.000000 -0.014454 0.000000 0.057048
#
#
# Mechanical properties :
#
#
# Convention : Reuss Voigt Hill
#
# Bulk Modulus (GPa) = 28.05284 42.48282 35.26783
# Shear Modulus (GPa) = 31.16408 43.11715 37.14061
#
# Velocity S-wave (km/s) = 3.43623 4.04185 3.75128
# Velocity P-wave (km/s) = 5.13541 6.15453 5.66792
#
# Compressibility (1/GPa) = 0.03564701
#
# Stress axis : x y z
#
# Youngs Moduli (GPa) = 68.92125 50.53973 188.98031
#
# Poissons Ratio (x) = 0.03913 0.32768
# Poissons Ratio (y) = 0.05337 -0.10168
# Poissons Ratio (z) = 0.11950 -0.02719
#
# Static dielectric constant tensor:
#      x y z
#    x 2.089080 0.000000 0.061820 
#    y 0.000000 2.007980 0.000000 
#    z 0.061820 0.000000 2.143640 
# 
# From -- ./inp_files/37911.got.cif
#   From: 2010.05.17/outbox.cif.g08.bks.cpg/sg10_19_cif.got.tgz:37911.got - 2010.06.03 11:33:40.
