data_PCOD9143801
_publ_section_title
;
Structure prediction by ZEFSAII (Michael W. Deem and Ramdas Pophale) SiO2 
 PCOD9143801
Probable space group: P 2/M
;
_chemical_formula_sum "Si O2"
_cell_formula_units_Z 30
_cell_length_a 11.107164
_cell_length_b 7.332194
_cell_length_c 27.751282
_cell_angle_alpha 90.000000
_cell_angle_beta 35.084649
_cell_angle_gamma 90.000000
_cell_volume 1299.051549
_symmetry_space_group_name_H-M "P 2/M"
_symmetry_group_IT_number 10
_symmetry_cell_setting 'monoclinic'
loop_
_space_group_symop_operation_xyz
x,y,z
-x,y,-z
-x,-y,-z
x,-y,z
loop_
_atom_site_type_symbol
_atom_site_label
_atom_site_fract_x
_atom_site_fract_y
_atom_site_fract_z
Si Si1 0.623197 0.721023 0.141108
Si Si2 0.415089 0.707438 0.666487
Si Si3 0.295236 0.000000 0.119874
Si Si4 0.872189 0.722601 0.153121
Si Si5 0.157510 0.291620 0.314574
Si Si6 0.664378 0.279926 0.015483
Si Si7 0.871523 0.279943 0.493597
Si Si8 0.067835 0.199788 0.708269
O O1 0.620984 0.500000 0.143053
O O2 0.782973 0.778805 0.130288
O O3 0.679121 0.765061 0.067937
O O4 0.388249 0.788573 0.230100
O O5 0.462531 0.500000 0.666412
O O6 0.285219 0.788084 0.753772
O O7 0.636134 0.789723 0.578534
O O8 0.257017 0.705976 0.673452
O O9 0.476202 0.159659 0.058014
O O10 0.117358 0.156153 0.193492
O O11 0.875067 0.500000 0.153138
O O12 0.113551 0.776579 0.080386
O O13 0.198624 0.500000 0.316426
O O14 0.008111 0.209659 0.404173
O O15 0.035402 0.290883 0.304136
O O16 0.634620 0.500000 0.020260
O O17 0.853008 0.500000 0.492251
O O18 0.000000 0.247774 0.500000
O O19 0.144837 0.000000 0.666567
#
# Coordination Sequence:
#
# PCOD9143801 Si02
#       8
#     4   4   2   4   4   4   4   4
#     4   9  15  28  54  84 117 152 190 240 293 355
#     4  10  20  37  59  82 117 154 194 245 295 355
#     4  10  22  40  60  85 120 156 200 260 297 347
#     4   9  18  32  54  85 116 154 195 239 300 361
#     4  10  18  32  60  88 113 152 195 237 296 354
#     4  10  19  35  60  89 121 155 197 246 302 363
#     4   9  18  33  58  95 125 145 185 241 293 357
#     4  10  22  39  56  76 111 150 194 250 291 345
#
# _framework density 23.093769999999999
#
# number of rings (size 3 to 8) (size 9 to 14) (size 15 to 20)
#    0.400    2.000    1.333    1.600    0.000    5.867 
#    1.200    6.000    0.000    5.600    0.000    0.000 
#    0.000    0.000    0.000    0.000    0.000    0.000 
#
# Total GULP energy -167026.592299 kJ/mol
# GULP energy per Si atom -5567.553077 kJ/mol
# Density = 2.304121 g / cm^3
# Si number density = 23.093770 Si / 1000 Ang^3
#
#
#
# Elastic Constant Matrix: (Units=GPa)
#
#
# Indices 1 2 3 4 5 6 
#
# 1 41.0428 -13.8589 41.5767 0.0000 -5.6140 0.0000
# 2 -13.8589 92.9741 10.3411 0.0000 -1.7483 0.0000
# 3 41.5767 10.3411 175.8950 0.0000 -9.4161 0.0000
# 4 0.0000 0.0000 0.0000 -4.3147 0.0000 -2.2694
# 5 -5.6140 -1.7483 -9.4161 0.0000 31.2074 0.0000
# 6 0.0000 0.0000 0.0000 -2.2694 0.0000 -47.2463
#
#
#
# Elastic Compliance Matrix: (Units=1/GPa)
#
#
# Indices 1 2 3 4 5 6 
#
# 1 0.035822 0.006377 -0.008617 0.000000 0.004201 0.000000
# 2 0.006377 0.011967 -0.002148 0.000000 0.001169 0.000000
# 3 -0.008617 -0.002148 0.007886 0.000000 0.000709 0.000000
# 4 0.000000 0.000000 0.000000 -0.237772 0.000000 0.011421
# 5 0.004201 0.001169 0.000709 0.000000 0.033079 0.000000
# 6 0.000000 0.000000 0.000000 0.011421 0.000000 -0.021714
#
#
# Mechanical properties :
#
#
# Convention : Reuss Voigt Hill
#
# Bulk Modulus (GPa) = 21.32250 42.89219 32.10734
# Shear Modulus (GPa) = -34.17139 14.05281 -10.05929
#
# Velocity S-wave (km/s) = -3.85083 2.46948 -2.08933
# Velocity P-wave (km/s) = 3.24328 5.17151 2.84830
#
# Compressibility (1/GPa) = 0.04689882
#
# Stress axis : x y z
#
# Youngs Moduli (GPa) = 27.91552 83.56157 126.80070
#
# Poissons Ratio (x) = -0.53289 1.09270
# Poissons Ratio (y) = -0.17802 0.27241
# Poissons Ratio (z) = 0.24056 0.17952
#
# Static dielectric constant tensor:
#      x y z
#    x 1.842380 0.000000 0.033560 
#    y 0.000000 1.908110 0.000000 
#    z 0.033560 0.000000 1.859430 
# 
# From -- ./inp_files/94836.got.cif
#   From: 2010.05.17/outbox.cif.g08.bks.cpg/sg10_48_cif.got.tgz:94836.got - 2010.06.03 11:33:40.
