data_PCOD9143002
_publ_section_title
;
Structure prediction by ZEFSAII (Michael W. Deem and Ramdas Pophale) SiO2 
 PCOD9143002
Probable space group: P 2/M
;
_chemical_formula_sum "Si O2"
_cell_formula_units_Z 32
_cell_length_a 19.646047
_cell_length_b 7.801209
_cell_length_c 26.765496
_cell_angle_alpha 90.000000
_cell_angle_beta 21.445115
_cell_angle_gamma 90.000000
_cell_volume 1499.789136
_symmetry_space_group_name_H-M "P 2/M"
_symmetry_group_IT_number 10
_symmetry_cell_setting 'monoclinic'
loop_
_space_group_symop_operation_xyz
x,y,z
-x,y,-z
-x,-y,-z
x,-y,z
loop_
_atom_site_type_symbol
_atom_site_label
_atom_site_fract_x
_atom_site_fract_y
_atom_site_fract_z
Si Si1 0.358540 0.707526 0.308132
Si Si2 0.303361 0.199074 0.458896
Si Si3 0.092417 0.202414 0.282579
Si Si4 0.783717 0.303898 0.697592
Si Si5 0.004516 0.300634 0.916918
Si Si6 0.386611 0.801268 0.006901
Si Si7 0.705909 0.200182 0.202407
Si Si8 0.228585 0.707096 0.014791
O O1 0.340583 0.500000 0.324515
O O2 0.321806 0.790003 0.386323
O O3 0.229945 0.766023 0.349460
O O4 0.571726 0.744726 0.147190
O O5 0.496805 0.272351 0.347638
O O6 0.099760 0.277179 0.607670
O O7 0.296406 0.000000 0.479342
O O8 0.102299 0.221718 0.335410
O O9 0.278936 0.269312 0.128631
O O10 0.093920 0.000000 0.270563
O O11 0.844844 0.500000 0.652545
O O12 0.569659 0.295793 0.863404
O O13 0.050716 0.500000 0.879714
O O14 0.931594 0.233825 0.913671
O O15 0.177552 0.213961 0.826238
O O16 0.831047 0.287120 0.074136
O O17 0.240222 0.788853 0.061298
O O18 0.443480 0.000000 0.975830
O O19 0.693710 0.000000 0.196650
O O20 0.216756 0.500000 0.027851
#
# Coordination Sequence:
#
# PCOD9143002 Si02
#       8
#     4   4   4   4   4   4   4   4
#     4   9  18  33  50  72 102 132 165 202 249 303
#     4  10  21  35  51  71 103 139 169 205 246 297
#     4  10  22  38  52  72 100 134 173 209 251 298
#     4  10  21  36  54  77 102 128 164 213 259 298
#     4  10  18  30  50  75 104 135 163 199 250 299
#     4  10  20  34  55  77  99 129 168 213 255 297
#     4  10  19  30  47  75 105 133 167 205 242 292
#     4   9  18  32  51  76 105 132 163 207 254 299
#
# _framework density 21.336333
#
# number of rings (size 3 to 8) (size 9 to 14) (size 15 to 20)
#    0.000    2.250    1.250    3.375    0.000    7.500 
#    0.000    2.500    0.000    0.750    0.000    5.250 
#    0.000    0.000    0.000    0.000    0.000    0.000 
#
# Total GULP energy -178608.427055 kJ/mol
# GULP energy per Si atom -5581.513345 kJ/mol
# Density = 2.128777 g / cm^3
# Si number density = 21.336333 Si / 1000 Ang^3
#
#
#
# Elastic Constant Matrix: (Units=GPa)
#
#
# Indices 1 2 3 4 5 6 
#
# 1 86.5506 -6.2233 13.5090 0.0000 -24.2257 0.0000
# 2 -6.2233 27.8187 0.3768 0.0000 3.8093 0.0000
# 3 13.5090 0.3768 69.6621 0.0000 -23.9730 0.0000
# 4 0.0000 0.0000 0.0000 264.1076 0.0000 22.5418
# 5 -24.2257 3.8093 -23.9730 0.0000 34.3518 0.0000
# 6 0.0000 0.0000 0.0000 22.5418 0.0000 27.8385
#
#
#
# Elastic Compliance Matrix: (Units=1/GPa)
#
#
# Indices 1 2 3 4 5 6 
#
# 1 0.014527 0.001783 0.000830 0.000000 0.010626 0.000000
# 2 0.001783 0.036954 -0.002004 0.000000 -0.004239 0.000000
# 3 0.000830 -0.002004 0.019060 0.000000 0.014109 0.000000
# 4 0.000000 0.000000 0.000000 0.004067 0.000000 -0.003294
# 5 0.010626 -0.004239 0.014109 0.000000 0.046921 0.000000
# 6 0.000000 0.000000 0.000000 -0.003294 0.000000 0.038588
#
#
# Mechanical properties :
#
#
# Convention : Reuss Voigt Hill
#
# Bulk Modulus (GPa) = 13.93551 22.15070 18.04310
# Shear Modulus (GPa) = 27.34945 77.01753 52.18349
#
# Velocity S-wave (km/s) = 3.58414 6.01459 4.95082
# Velocity P-wave (km/s) = 4.86556 7.65754 6.41528
#
# Compressibility (1/GPa) = 0.07175915
#
# Stress axis : x y z
#
# Youngs Moduli (GPa) = 68.83777 27.06090 52.46497
#
# Poissons Ratio (x) = -0.04826 -0.04355
# Poissons Ratio (y) = -0.12277 0.10516
# Poissons Ratio (z) = -0.05714 0.05424
#
# Static dielectric constant tensor:
#      x y z
#    x 1.787140 0.000000 -0.030370 
#    y 0.000000 1.753830 0.000000 
#    z -0.030370 0.000000 1.820260 
# 
# From -- ./inp_files/95642.got.cif
#   From: 2010.05.17/outbox.cif.g08.bks.cpg/sg10_48_cif.got.tgz:95642.got - 2010.06.03 11:33:40.
