data_PCOD9143186
_publ_section_title
;
Structure prediction by ZEFSAII (Michael W. Deem and Ramdas Pophale) SiO2 
 PCOD9143186
Probable space group: P 2/M
;
_chemical_formula_sum "Si O2"
_cell_formula_units_Z 32
_cell_length_a 15.128799
_cell_length_b 9.024633
_cell_length_c 21.204882
_cell_angle_alpha 90.000000
_cell_angle_beta 137.914427
_cell_angle_gamma 90.000000
_cell_volume 1940.439274
_symmetry_space_group_name_H-M "P 2/M"
_symmetry_group_IT_number 10
_symmetry_cell_setting 'monoclinic'
loop_
_space_group_symop_operation_xyz
x,y,z
-x,y,-z
-x,-y,-z
x,-y,z
loop_
_atom_site_type_symbol
_atom_site_label
_atom_site_fract_x
_atom_site_fract_y
_atom_site_fract_z
Si Si1 0.123133 0.679230 0.518905
Si Si2 0.296597 0.672628 0.814655
Si Si3 0.022537 0.831781 0.820033
Si Si4 0.981699 0.328922 0.672539
Si Si5 0.376990 0.677165 0.115836
Si Si6 0.636303 0.177106 0.282447
Si Si7 0.072288 0.321915 0.974670
Si Si8 0.660465 0.170524 0.034869
O O1 0.138798 0.500000 0.530035
O O2 0.087687 0.722132 0.428512
O O3 0.254213 0.758339 0.612588
O O4 0.000000 0.715452 0.500000
O O5 0.337079 0.500000 0.831554
O O6 0.323737 0.759756 0.765064
O O7 0.359675 0.753944 0.908164
O O8 0.138661 0.674025 0.741807
O O9 0.008184 0.743327 0.877434
O O10 0.180371 0.831912 0.890150
O O11 0.958011 0.760917 0.723857
O O12 0.979207 0.000000 0.805330
O O13 0.945407 0.500000 0.664151
O O14 0.391888 0.500000 0.126144
O O15 0.490282 0.757122 0.215699
O O16 0.228001 0.716622 0.057458
O O17 0.391024 0.734166 0.051133
O O18 0.635074 0.000000 0.281951
O O19 0.064788 0.500000 0.967139
O O20 0.000000 0.272210 0.000000
O O21 0.614429 0.000000 0.007531
#
# Coordination Sequence:
#
# PCOD9143186 Si02
#       8
#     4   4   4   4   4   4   4   4
#     4  10  19  35  53  71  94 129 176 220 256 294
#     4  10  18  31  48  67  91 128 173 210 247 291
#     4   9  17  28  46  74 106 133 159 195 243 298
#     4   9  17  30  50  70  95 130 169 213 251 286
#     4  10  20  35  52  70  96 131 164 198 243 298
#     4  12  24  34  46  68  98 131 168 212 254 292
#     4   9  18  34  57  82 104 127 160 200 242 295
#     4   9  17  30  46  68  97 127 162 205 246 287
#
# _framework density 16.491111
#
# number of rings (size 3 to 8) (size 9 to 14) (size 15 to 20)
#    0.000    2.250    1.250    2.625    0.000    5.500 
#    0.000    2.500    0.000    0.000    0.000    0.875 
#    0.000    7.000    0.000    0.000    0.000    0.000 
#
# Total GULP energy -178582.950723 kJ/mol
# GULP energy per Si atom -5580.717210 kJ/mol
# Density = 1.645358 g / cm^3
# Si number density = 16.491111 Si / 1000 Ang^3
#
#
#
# Elastic Constant Matrix: (Units=GPa)
#
#
# Indices 1 2 3 4 5 6 
#
# 1 85.1598 35.9720 49.9463 0.0000 -18.2523 0.0000
# 2 35.9720 81.9337 61.0906 0.0000 -7.9199 0.0000
# 3 49.9463 61.0906 136.0139 0.0000 -17.1069 0.0000
# 4 0.0000 0.0000 0.0000 8.9254 0.0000 4.7158
# 5 -18.2523 -7.9199 -17.1069 0.0000 19.0212 0.0000
# 6 0.0000 0.0000 0.0000 4.7158 0.0000 11.7442
#
#
#
# Elastic Compliance Matrix: (Units=1/GPa)
#
#
# Indices 1 2 3 4 5 6 
#
# 1 0.018167 -0.004458 -0.003056 0.000000 0.012829 0.000000
# 2 -0.004458 0.019445 -0.007460 0.000000 -0.002891 0.000000
# 3 -0.003056 -0.007460 0.012477 0.000000 0.005183 0.000000
# 4 0.000000 0.000000 0.000000 0.142211 0.000000 -0.057104
# 5 0.012829 -0.002891 0.005183 0.000000 0.068341 0.000000
# 6 0.000000 0.000000 0.000000 -0.057104 0.000000 0.108079
#
#
# Mechanical properties :
#
#
# Convention : Reuss Voigt Hill
#
# Bulk Modulus (GPa) = 49.64778 66.34727 57.99752
# Shear Modulus (GPa) = 12.33405 18.34472 15.33939
#
# Velocity S-wave (km/s) = 2.73778 3.33889 3.05316
# Velocity P-wave (km/s) = 6.33759 7.42857 6.90466
#
# Compressibility (1/GPa) = 0.02014189
#
# Stress axis : x y z
#
# Youngs Moduli (GPa) = 55.04394 51.42629 80.14760
#
# Poissons Ratio (x) = 0.22925 0.24490
# Poissons Ratio (y) = 0.24538 0.59794
# Poissons Ratio (z) = 0.16819 0.38366
#
# Static dielectric constant tensor:
#      x y z
#    x 1.553190 0.000000 0.017060 
#    y 0.000000 1.552760 0.000000 
#    z 0.017060 0.000000 1.561830 
# 
# From -- ./inp_files/70020.got.cif
#   From: 2010.05.17/outbox.cif.g08.bks.cpg/sg10_36_cif.got.tgz:70020.got - 2010.06.03 11:33:40.
