data_PCOD9143832
_publ_section_title
;
Structure prediction by ZEFSAII (Michael W. Deem and Ramdas Pophale) SiO2 
 PCOD9143832
Probable space group: P 2/M
;
_chemical_formula_sum "Si O2"
_cell_formula_units_Z 26
_cell_length_a 5.404993
_cell_length_b 21.028495
_cell_length_c 12.990768
_cell_angle_alpha 90.000000
_cell_angle_beta 56.380031
_cell_angle_gamma 90.000000
_cell_volume 1229.536678
_symmetry_space_group_name_H-M "P 2/M"
_symmetry_group_IT_number 10
_symmetry_cell_setting 'monoclinic'
loop_
_space_group_symop_operation_xyz
x,y,z
-x,y,-z
-x,-y,-z
x,-y,z
loop_
_atom_site_type_symbol
_atom_site_label
_atom_site_fract_x
_atom_site_fract_y
_atom_site_fract_z
Si Si1 0.968259 0.358890 0.385773
Si Si2 0.947911 0.500000 0.387194
Si Si3 0.354130 0.634594 0.847596
Si Si4 0.500000 0.280269 0.000000
Si Si5 0.209299 0.852014 0.849564
Si Si6 0.293516 0.072609 0.149328
Si Si7 0.547768 0.500000 0.112243
Si Si8 0.908980 0.732382 0.236402
O O1 0.819319 0.428462 0.395790
O O2 0.302352 0.362499 0.264875
O O3 0.000000 0.354027 0.500000
O O4 0.853580 0.292310 0.364030
O O5 0.238296 0.500000 0.247459
O O6 0.000000 0.500000 0.500000
O O7 0.337550 0.676520 0.953690
O O8 0.287887 0.562613 0.887909
O O9 0.160867 0.666161 0.804578
O O10 0.243748 0.246052 0.125299
O O11 0.505831 0.887661 0.817550
O O12 0.282778 0.786935 0.772719
O O13 0.009886 0.894808 0.818866
O O14 0.000000 0.839476 0.000000
O O15 0.244966 0.000000 0.195052
O O16 0.500000 0.070074 0.000000
O O17 0.500000 0.500000 0.000000
#
# Coordination Sequence:
#
# PCOD9143832 Si02
#       8
#     4   2   4   2   4   4   2   4
#     4   9  20  37  57  76 105 140 186 249 296 347
#     4   8  16  35  56  74  99 146 191 237 307 361
#     4  10  20  34  53  74 106 140 184 229 286 351
#     4  10  20  35  48  68 109 142 182 222 278 334
#     4  10  20  31  52  78 115 156 193 230 281 345
#     4   9  18  32  51  78 113 155 196 233 271 328
#     4  10  18  33  53  78 107 144 185 246 300 350
#     4  11  23  33  53  79 106 149 189 231 283 353
#
# _framework density 21.146174999999999
#
# number of rings (size 3 to 8) (size 9 to 14) (size 15 to 20)
#    0.000    2.308    0.769    1.846    7.538    3.077 
#    0.000    2.308    0.000    5.538    0.000    0.000 
#    0.000    3.692    0.000    0.000    0.000    0.000 
#
# Total GULP energy -144972.352409 kJ/mol
# GULP energy per Si atom -5575.859708 kJ/mol
# Density = 2.109805 g / cm^3
# Si number density = 21.146175 Si / 1000 Ang^3
#
#
#
# Elastic Constant Matrix: (Units=GPa)
#
#
# Indices 1 2 3 4 5 6 
#
# 1 84.9016 47.2266 21.0075 0.0000 7.8855 0.0000
# 2 47.2266 140.8416 36.1525 0.0000 28.4544 0.0000
# 3 21.0075 36.1525 66.2337 0.0000 4.6529 0.0000
# 4 0.0000 0.0000 0.0000 479.4747 0.0000 -418.6685
# 5 7.8855 28.4544 4.6529 0.0000 30.2304 0.0000
# 6 0.0000 0.0000 0.0000 -418.6685 0.0000 428.3948
#
#
#
# Elastic Compliance Matrix: (Units=1/GPa)
#
#
# Indices 1 2 3 4 5 6 
#
# 1 0.014789 -0.004528 -0.002272 0.000000 0.000754 0.000000
# 2 -0.004528 0.011523 -0.004220 0.000000 -0.009016 0.000000
# 3 -0.002272 -0.004220 0.017996 0.000000 0.001795 0.000000
# 4 0.000000 0.000000 0.000000 0.014222 0.000000 0.013899
# 5 0.000754 -0.009016 0.001795 0.000000 0.041092 0.000000
# 6 0.000000 0.000000 0.000000 0.013899 0.000000 0.015918
#
#
# Mechanical properties :
#
#
# Convention : Reuss Voigt Hill
#
# Bulk Modulus (GPa) = 44.90816 55.63889 50.27353
# Shear Modulus (GPa) = 34.48153 200.12600 117.30377
#
# Velocity S-wave (km/s) = 4.04248 9.73883 7.45609
# Velocity P-wave (km/s) = 6.56293 12.36238 9.89698
#
# Compressibility (1/GPa) = 0.02226767
#
# Stress axis : x y z
#
# Youngs Moduli (GPa) = 67.61627 86.78082 55.56753
#
# Poissons Ratio (x) = 0.39297 0.12625
# Poissons Ratio (y) = 0.30618 0.23451
# Poissons Ratio (z) = 0.15363 0.36623
#
# Static dielectric constant tensor:
#      x y z
#    x 1.822440 0.000000 0.038340 
#    y 0.000000 1.834440 0.000000 
#    z 0.038340 0.000000 1.693960 
# 
# From -- ./inp_files/39701.got.cif
#   From: 2010.05.17/outbox.cif.g08.bks.cpg/sg10_20_cif.got.tgz:39701.got - 2010.06.03 11:33:40.
