data_PCOD9143525
_publ_section_title
;
Structure prediction by ZEFSAII (Michael W. Deem and Ramdas Pophale) SiO2 
 PCOD9143525
Probable space group: P 2/M
;
_chemical_formula_sum "Si O2"
_cell_formula_units_Z 32
_cell_length_a 12.089457
_cell_length_b 13.815094
_cell_length_c 9.557292
_cell_angle_alpha 90.000000
_cell_angle_beta 128.928327
_cell_angle_gamma 90.000000
_cell_volume 1241.759409
_symmetry_space_group_name_H-M "P 2/M"
_symmetry_group_IT_number 10
_symmetry_cell_setting 'monoclinic'
loop_
_space_group_symop_operation_xyz
x,y,z
-x,y,-z
-x,-y,-z
x,-y,z
loop_
_atom_site_type_symbol
_atom_site_label
_atom_site_fract_x
_atom_site_fract_y
_atom_site_fract_z
Si Si1 0.462114 0.606799 0.763439
Si Si2 0.012324 0.675950 0.349255
Si Si3 0.740162 0.607139 0.651216
Si Si4 0.270417 0.181411 0.313300
Si Si5 0.520075 0.108609 0.316488
Si Si6 0.295028 0.685675 0.878346
Si Si7 0.699978 0.895395 0.094830
Si Si8 0.013111 0.891407 0.256276
O O1 0.524312 0.500000 0.831558
O O2 0.398534 0.612239 0.559086
O O3 0.339440 0.620828 0.782282
O O4 0.581772 0.680321 0.908292
O O5 0.852846 0.659807 0.168681
O O6 0.000000 0.646036 0.500000
O O7 0.127049 0.620411 0.349187
O O8 0.040478 0.792182 0.364608
O O9 0.744094 0.500000 0.719799
O O10 0.745279 0.706378 0.741581
O O11 0.383500 0.130655 0.304350
O O12 0.352211 0.176299 0.529938
O O13 0.119892 0.128499 0.212105
O O14 0.447217 0.108819 0.107143
O O15 0.572133 0.000000 0.384728
O O16 0.286281 0.795246 0.813494
O O17 0.709792 0.000000 0.175240
O O18 0.841034 0.892071 0.106105
O O19 0.047221 0.000000 0.339031
#
# Coordination Sequence:
#
# PCOD9143525 Si02
#       8
#     4   4   4   4   4   4   4   4
#     4  10  20  33  51  72  94 129 170 210 250 288
#     4  10  19  32  49  73 101 133 169 203 247 292
#     4  10  21  35  52  74 101 131 167 211 251 295
#     4  10  19  33  53  76 101 128 165 207 254 297
#     4  10  19  33  55  78 101 130 165 205 246 297
#     4  10  18  32  51  70 101 129 164 210 242 289
#     4   9  19  33  50  73 101 134 165 198 242 293
#     4   9  18  32  50  73 103 133 164 204 244 293
#
# _framework density 25.769888000000002
#
# number of rings (size 3 to 8) (size 9 to 14) (size 15 to 20)
#    0.000    2.250    1.250    3.000    0.000    2.000 
#    0.000    4.375    0.000    1.500    0.000    7.875 
#    0.000    0.000    0.000    0.000    0.000    0.000 
#
# Total GULP energy -178797.103154 kJ/mol
# GULP energy per Si atom -5587.409474 kJ/mol
# Density = 2.571123 g / cm^3
# Si number density = 25.769888 Si / 1000 Ang^3
#
#
#
# Elastic Constant Matrix: (Units=GPa)
#
#
# Indices 1 2 3 4 5 6 
#
# 1 100.8725 2.7076 29.9055 0.0000 14.7647 0.0000
# 2 2.7076 151.9991 3.5235 0.0000 9.2421 0.0000
# 3 29.9055 3.5235 78.6984 0.0000 27.5683 0.0000
# 4 0.0000 0.0000 0.0000 138.1314 0.0000 132.9091
# 5 14.7647 9.2421 27.5683 0.0000 31.7401 0.0000
# 6 0.0000 0.0000 0.0000 132.9091 0.0000 136.6601
#
#
#
# Elastic Compliance Matrix: (Units=1/GPa)
#
#
# Indices 1 2 3 4 5 6 
#
# 1 0.011277 0.000014 -0.003517 0.000000 -0.002195 0.000000
# 2 0.000014 0.006714 0.000548 0.000000 -0.002438 0.000000
# 3 -0.003517 0.000548 0.019406 0.000000 -0.015379 0.000000
# 4 0.000000 0.000000 0.000000 0.112735 0.000000 -0.109641
# 5 -0.002195 -0.002438 -0.015379 0.000000 0.046594 0.000000
# 6 0.000000 0.000000 0.000000 -0.109641 0.000000 0.113949
#
#
# Mechanical properties :
#
#
# Convention : Reuss Voigt Hill
#
# Bulk Modulus (GPa) = 31.75874 44.87147 38.31510
# Shear Modulus (GPa) = 15.28675 81.00189 48.14432
#
# Velocity S-wave (km/s) = 2.43822 5.61258 4.32700
# Velocity P-wave (km/s) = 4.50303 7.71048 6.31382
#
# Compressibility (1/GPa) = 0.03148740
#
# Stress axis : x y z
#
# Youngs Moduli (GPa) = 88.67523 148.93712 51.53070
#
# Poissons Ratio (x) = -0.00210 0.18123
# Poissons Ratio (y) = -0.00125 -0.02823
# Poissons Ratio (z) = 0.31187 -0.08160
#
# Static dielectric constant tensor:
#      x y z
#    x 2.066890 0.000000 -0.046240 
#    y 0.000000 1.980730 0.000000 
#    z -0.046240 0.000000 2.055170 
# 
# From -- ./inp_files/67310.got.cif
#   From: 2010.05.17/outbox.cif.g08.bks.cpg/sg10_34_cif.got.tgz:67310.got - 2010.06.03 11:33:40.
