data_PCOD9143157
_publ_section_title
;
Structure prediction by ZEFSAII (Michael W. Deem and Ramdas Pophale) SiO2 
 PCOD9143157
Probable space group: P 2/M
;
_chemical_formula_sum "Si O2"
_cell_formula_units_Z 24
_cell_length_a 12.954350
_cell_length_b 15.441512
_cell_length_c 9.389190
_cell_angle_alpha 90.000000
_cell_angle_beta 143.933071
_cell_angle_gamma 90.000000
_cell_volume 1105.731451
_symmetry_space_group_name_H-M "P 2/M"
_symmetry_group_IT_number 10
_symmetry_cell_setting 'monoclinic'
loop_
_space_group_symop_operation_xyz
x,y,z
-x,y,-z
-x,-y,-z
x,-y,z
loop_
_atom_site_type_symbol
_atom_site_label
_atom_site_fract_x
_atom_site_fract_y
_atom_site_fract_z
Si Si1 0.561631 0.306906 0.728995
Si Si2 0.184920 0.676469 0.621524
Si Si3 0.060983 0.096213 0.732522
Si Si4 0.449707 0.500000 0.276728
Si Si5 0.973930 0.729768 0.139493
Si Si6 0.600129 0.829866 0.988293
Si Si7 0.793918 0.500000 0.235041
O O1 0.500000 0.292554 0.500000
O O2 0.496229 0.401970 0.704667
O O3 0.776198 0.300924 0.961771
O O4 0.500116 0.229798 0.762750
O O5 0.295200 0.757238 0.801816
O O6 0.274214 0.587536 0.769153
O O7 0.000000 0.683490 0.500000
O O8 0.120316 0.675538 0.387276
O O9 0.000802 0.173668 0.767188
O O10 0.269349 0.109477 0.951947
O O11 0.000000 0.106504 0.500000
O O12 0.011803 0.000000 0.725203
O O13 0.500000 0.500000 0.500000
O O14 0.255117 0.500000 0.986654
O O15 0.000000 0.726520 0.000000
O O16 0.500000 0.880049 0.000000
O O17 0.000000 0.500000 0.500000
#
# Coordination Sequence:
#
# PCOD9143157 Si02
#       7
#     4   4   4   2   4   4   2
#     4  10  21  36  54  81 114 155 191 235 291 338
#     4  11  18  38  57  84 110 155 204 237 289 334
#     4  10  20  39  64  88 113 144 186 239 294 354
#     4  10  18  34  54  79 118 157 198 245 296 341
#     4  11  22  37  60  84 117 149 191 241 288 351
#     4  11  21  35  60  83 116 149 192 236 284 345
#     4  10  18  30  60  81 113 156 205 254 283 335
#
# _framework density 21.705089000000001
#
# number of rings (size 3 to 8) (size 9 to 14) (size 15 to 20)
#    0.000    1.500    6.667    1.000    2.333    0.667 
#    0.000    3.333    0.000    8.000    0.000    0.000 
#    0.000    0.000    0.000    0.000    0.000    0.000 
#
# Total GULP energy -133786.821500 kJ/mol
# GULP energy per Si atom -5574.450896 kJ/mol
# Density = 2.165569 g / cm^3
# Si number density = 21.705089 Si / 1000 Ang^3
#
#
#
# Elastic Constant Matrix: (Units=GPa)
#
#
# Indices 1 2 3 4 5 6 
#
# 1 66.1211 2.1187 11.2048 0.0000 -17.2351 0.0000
# 2 2.1187 94.2189 16.3127 0.0000 -7.0753 0.0000
# 3 11.2048 16.3127 141.9474 0.0000 -29.4124 0.0000
# 4 0.0000 0.0000 0.0000 17.0978 0.0000 -9.7725
# 5 -17.2351 -7.0753 -29.4124 0.0000 34.1951 0.0000
# 6 0.0000 0.0000 0.0000 -9.7725 0.0000 0.9992
#
#
#
# Elastic Compliance Matrix: (Units=1/GPa)
#
#
# Indices 1 2 3 4 5 6 
#
# 1 0.017450 0.000215 0.000523 0.000000 0.009289 0.000000
# 2 0.000215 0.010889 -0.000948 0.000000 0.001546 0.000000
# 3 0.000523 -0.000948 0.008672 0.000000 0.007526 0.000000
# 4 0.000000 0.000000 0.000000 -0.012743 0.000000 -0.124623
# 5 0.009289 0.001546 0.007526 0.000000 0.040719 0.000000
# 6 0.000000 0.000000 0.000000 -0.124623 0.000000 -0.218039
#
#
# Mechanical properties :
#
#
# Convention : Reuss Voigt Hill
#
# Bulk Modulus (GPa) = 27.33043 40.17330 33.75186
# Shear Modulus (GPa) = -35.60380 28.63517 -3.48431
#
# Velocity S-wave (km/s) = -4.05451 3.63614 -1.26838
# Velocity P-wave (km/s) = 3.04954 6.01478 3.66591
#
# Compressibility (1/GPa) = 0.03658925
#
# Stress axis : x y z
#
# Youngs Moduli (GPa) = 57.30796 91.83600 115.31273
#
# Poissons Ratio (x) = -0.01971 -0.06027
# Poissons Ratio (y) = -0.01230 0.10932
# Poissons Ratio (z) = -0.02995 0.08706
#
# Static dielectric constant tensor:
#      x y z
#    x 1.883420 0.000000 0.074050 
#    y 0.000000 1.816340 0.000000 
#    z 0.074050 0.000000 1.855220 
# 
# From -- ./inp_files/25656.got.cif
#   From: 2010.05.17/outbox.cif.g08.bks.cpg/sg10_13_cif.got.tgz:25656.got - 2010.06.03 11:33:40.
