data_PCOD9143572
_publ_section_title
;
Structure prediction by ZEFSAII (Michael W. Deem and Ramdas Pophale) SiO2 
 PCOD9143572
Probable space group: P 2/M
;
_chemical_formula_sum "Si O2"
_cell_formula_units_Z 32
_cell_length_a 25.501589
_cell_length_b 8.320690
_cell_length_c 10.807718
_cell_angle_alpha 90.000000
_cell_angle_beta 143.100388
_cell_angle_gamma 90.000000
_cell_volume 1376.930388
_symmetry_space_group_name_H-M "P 2/M"
_symmetry_group_IT_number 10
_symmetry_cell_setting 'monoclinic'
loop_
_space_group_symop_operation_xyz
x,y,z
-x,y,-z
-x,-y,-z
x,-y,z
loop_
_atom_site_type_symbol
_atom_site_label
_atom_site_fract_x
_atom_site_fract_y
_atom_site_fract_z
Si Si1 0.947793 0.190491 0.712622
Si Si2 0.116605 0.682906 0.671443
Si Si3 0.873277 0.306573 0.026568
Si Si4 0.411423 0.192043 0.762833
Si Si5 0.322895 0.691350 0.371700
Si Si6 0.773645 0.182132 0.494462
Si Si7 0.409618 0.689196 0.277275
Si Si8 0.722894 0.173034 0.114086
O O1 0.921319 0.224058 0.518697
O O2 0.870852 0.256300 0.658338
O O3 0.045619 0.256760 0.905400
O O4 0.948905 0.000000 0.733919
O O5 0.085242 0.500000 0.604378
O O6 0.106672 0.745565 0.792779
O O7 0.219309 0.689619 0.837739
O O8 0.868567 0.500000 0.023872
O O9 0.777713 0.250454 0.800049
O O10 0.400399 0.227394 0.596671
O O11 0.314681 0.261077 0.618477
O O12 0.407955 0.000000 0.779634
O O13 0.500000 0.250164 0.000000
O O14 0.326311 0.500000 0.402674
O O15 0.343289 0.713063 0.265773
O O16 0.783037 0.000000 0.564336
O O17 0.745069 0.166015 0.298020
O O18 0.500000 0.748022 0.500000
O O19 0.417019 0.500000 0.262643
O O20 0.376379 0.786128 0.097649
O O21 0.746192 0.000000 0.101872
#
# Coordination Sequence:
#
# PCOD9143572 Si02
#       8
#     4   4   4   4   4   4   4   4
#     4  10  20  33  53  82 115 150 191 239 282 333
#     4  10  18  32  52  76 114 158 191 224 276 337
#     4  10  20  35  54  77 113 155 189 230 285 341
#     4  10  22  41  65  86 108 145 192 237 287 346
#     4  10  22  41  59  83 118 150 188 239 286 335
#     4   8  18  37  55  79 116 147 181 236 289 330
#     4  10  21  37  56  80 115 154 187 225 283 350
#     4  10  19  32  54  82 114 148 185 234 282 332
#
# _framework density 23.240100999999999
#
# number of rings (size 3 to 8) (size 9 to 14) (size 15 to 20)
#    0.000    2.250    1.250    2.250    1.750    4.000 
#    0.000    4.375    0.000    3.750    0.000    0.000 
#    0.000    0.000    0.000    0.000    0.000    0.000 
#
# Total GULP energy -178314.388728 kJ/mol
# GULP energy per Si atom -5572.324648 kJ/mol
# Density = 2.318721 g / cm^3
# Si number density = 23.240101 Si / 1000 Ang^3
#
#
#
# Elastic Constant Matrix: (Units=GPa)
#
#
# Indices 1 2 3 4 5 6 
#
# 1 39.7406 6.7941 20.5443 0.0000 13.7058 0.0000
# 2 6.7941 18.9949 4.5223 0.0000 2.8551 0.0000
# 3 20.5443 4.5223 105.6816 0.0000 10.3804 0.0000
# 4 0.0000 0.0000 0.0000 19.1482 0.0000 6.3303
# 5 13.7058 2.8551 10.3804 0.0000 31.3374 0.0000
# 6 0.0000 0.0000 0.0000 6.3303 0.0000 10.5081
#
#
#
# Elastic Compliance Matrix: (Units=1/GPa)
#
#
# Indices 1 2 3 4 5 6 
#
# 1 0.033439 -0.008958 -0.004921 0.000000 -0.012179 0.000000
# 2 -0.008958 0.056135 -0.000561 0.000000 -0.001011 0.000000
# 3 -0.004921 -0.000561 0.010571 0.000000 -0.001298 0.000000
# 4 0.000000 0.000000 0.000000 0.065212 0.000000 -0.039285
# 5 -0.012179 -0.001011 -0.001298 0.000000 0.037759 0.000000
# 6 0.000000 0.000000 0.000000 -0.039285 0.000000 0.118831
#
#
# Mechanical properties :
#
#
# Convention : Reuss Voigt Hill
#
# Bulk Modulus (GPa) = 14.03240 25.34873 19.69057
# Shear Modulus (GPa) = 13.34822 21.03584 17.19203
#
# Velocity S-wave (km/s) = 2.39918 3.01184 2.72280
# Velocity P-wave (km/s) = 3.70485 4.79853 4.28671
#
# Compressibility (1/GPa) = 0.07126364
#
# Stress axis : x y z
#
# Youngs Moduli (GPa) = 29.90540 17.81407 94.60278
#
# Poissons Ratio (x) = 0.15958 0.46553
# Poissons Ratio (y) = 0.26790 0.05311
# Poissons Ratio (z) = 0.14716 0.01000
#
# Static dielectric constant tensor:
#      x y z
#    x 1.966910 0.000000 0.044080 
#    y 0.000000 1.836610 0.000000 
#    z 0.044080 0.000000 1.934080 
# 
# From -- ./inp_files/58352.got.cif
#   From: 2010.05.17/outbox.cif.g08.bks.cpg/sg10_30_cif.got.tgz:58352.got - 2010.06.03 11:33:40.
