data_PCOD9143771
_publ_section_title
;
Structure prediction by ZEFSAII (Michael W. Deem and Ramdas Pophale) SiO2 
 PCOD9143771
Probable space group: P 2/M
;
_chemical_formula_sum "Si O2"
_cell_formula_units_Z 24
_cell_length_a 9.930386
_cell_length_b 18.841384
_cell_length_c 9.252352
_cell_angle_alpha 90.000000
_cell_angle_beta 45.683904
_cell_angle_gamma 90.000000
_cell_volume 1238.621437
_symmetry_space_group_name_H-M "P 2/M"
_symmetry_group_IT_number 10
_symmetry_cell_setting 'monoclinic'
loop_
_space_group_symop_operation_xyz
x,y,z
-x,y,-z
-x,-y,-z
x,-y,z
loop_
_atom_site_type_symbol
_atom_site_label
_atom_site_fract_x
_atom_site_fract_y
_atom_site_fract_z
Si Si1 0.655301 0.194653 0.164335
Si Si2 0.163171 0.649742 0.999056
Si Si3 0.057178 0.081182 0.128637
Si Si4 0.896718 0.329579 0.433711
Si Si5 0.749221 0.815142 0.433425
Si Si6 0.465165 0.416566 0.195291
O O1 0.430142 0.187916 0.326182
O O2 0.692103 0.183698 0.307828
O O3 0.745013 0.271112 0.059546
O O4 0.763911 0.133061 0.998400
O O5 0.050560 0.627766 0.227196
O O6 0.347223 0.600608 0.852679
O O7 0.000000 0.647479 0.000000
O O8 0.889531 0.118757 0.343063
O O9 0.090535 0.000000 0.145627
O O10 0.000000 0.080860 0.000000
O O11 0.850487 0.259756 0.377742
O O12 0.709234 0.372489 0.610796
O O13 0.000000 0.305657 0.500000
O O14 0.424125 0.500000 0.229850
O O15 0.500000 0.396370 0.000000
#
# Coordination Sequence:
#
# PCOD9143771 Si02
#       6
#     4   4   4   4   4   4
#     4  10  18  32  57  84 117 156 193 245 300 349
#     4  12  22  39  66  91 123 159 204 253 305 358
#     4   9  17  30  49  82 121 155 194 242 298 357
#     4  12  23  38  65  93 114 158 208 248 299 369
#     4  10  19  32  55  86 116 152 198 247 295 348
#     4  11  26  45  63  90 126 160 199 253 310 368
#
# _framework density 19.376380999999999
#
# number of rings (size 3 to 8) (size 9 to 14) (size 15 to 20)
#    0.000    1.333    6.667    0.500    0.000    2.667 
#    0.000    4.167    0.000    0.500    0.000    1.167 
#    0.000    0.000    0.000    0.000    0.000    0.000 
#
# Total GULP energy -133819.724135 kJ/mol
# GULP energy per Si atom -5575.821839 kJ/mol
# Density = 1.933228 g / cm^3
# Si number density = 19.376381 Si / 1000 Ang^3
#
#
#
# Elastic Constant Matrix: (Units=GPa)
#
#
# Indices 1 2 3 4 5 6 
#
# 1 37.6330 7.8778 19.1471 0.0000 -21.8894 0.0000
# 2 7.8778 72.2891 18.5755 0.0000 -6.7682 0.0000
# 3 19.1471 18.5755 92.9630 0.0000 -25.7654 0.0000
# 4 0.0000 0.0000 0.0000 28.2767 0.0000 -0.8943
# 5 -21.8894 -6.7682 -25.7654 0.0000 25.0480 0.0000
# 6 0.0000 0.0000 0.0000 -0.8943 0.0000 39.9420
#
#
#
# Elastic Compliance Matrix: (Units=1/GPa)
#
#
# Indices 1 2 3 4 5 6 
#
# 1 0.054831 -0.002045 0.003137 0.000000 0.050591 0.000000
# 2 -0.002045 0.014690 -0.002671 0.000000 -0.000565 0.000000
# 3 0.003137 -0.002671 0.015672 0.000000 0.018141 0.000000
# 4 0.000000 0.000000 0.000000 0.035390 0.000000 0.000792
# 5 0.050591 -0.000565 0.018141 0.000000 0.102643 0.000000
# 6 0.000000 0.000000 0.000000 0.000792 0.000000 0.025054
#
#
# Mechanical properties :
#
#
# Convention : Reuss Voigt Hill
#
# Bulk Modulus (GPa) = 12.18974 32.67622 22.43298
# Shear Modulus (GPa) = 17.93519 29.13897 23.53708
#
# Velocity S-wave (km/s) = 3.04570 3.88214 3.48908
# Velocity P-wave (km/s) = 4.32124 6.08237 5.27581
#
# Compressibility (1/GPa) = 0.08203621
#
# Stress axis : x y z
#
# Youngs Moduli (GPa) = 18.23792 68.07569 63.80630
#
# Poissons Ratio (x) = 0.13919 -0.20016
# Poissons Ratio (y) = 0.03729 0.17040
# Poissons Ratio (z) = -0.05721 0.18180
#
# Static dielectric constant tensor:
#      x y z
#    x 1.756580 0.000000 0.004800 
#    y 0.000000 1.647210 0.000000 
#    z 0.004800 0.000000 1.720860 
# 
# From -- ./inp_files/20135.got.cif
#   From: 2010.05.17/outbox.cif.g08.bks.cpg/sg10_11_cif.got.tgz:20135.got - 2010.06.03 11:33:40.
