data_PCOD9143086
_publ_section_title
;
Structure prediction by ZEFSAII (Michael W. Deem and Ramdas Pophale) SiO2 
 PCOD9143086
Probable space group: P 2/M
;
_chemical_formula_sum "Si O2"
_cell_formula_units_Z 26
_cell_length_a 15.241958
_cell_length_b 10.352928
_cell_length_c 10.384650
_cell_angle_alpha 90.000000
_cell_angle_beta 125.473641
_cell_angle_gamma 90.000000
_cell_volume 1334.517571
_symmetry_space_group_name_H-M "P 2/M"
_symmetry_group_IT_number 10
_symmetry_cell_setting 'monoclinic'
loop_
_space_group_symop_operation_xyz
x,y,z
-x,y,-z
-x,-y,-z
x,-y,z
loop_
_atom_site_type_symbol
_atom_site_label
_atom_site_fract_x
_atom_site_fract_y
_atom_site_fract_z
Si Si1 0.549828 0.849345 0.401104
Si Si2 0.769713 0.153864 0.720618
Si Si3 0.972095 0.150954 0.744385
Si Si4 0.554177 0.649285 0.185903
Si Si5 0.000000 0.710266 0.500000
Si Si6 0.236181 0.357252 0.782952
Si Si7 0.775791 0.151610 0.005268
O O1 0.500000 0.825966 0.500000
O O2 0.677248 0.832384 0.536383
O O3 0.517502 0.751425 0.261379
O O4 0.527367 0.000000 0.349015
O O5 0.881818 0.207979 0.762051
O O6 0.784085 0.000000 0.755714
O O7 0.733307 0.199441 0.830918
O O8 0.969706 0.208708 0.600384
O O9 0.094041 0.160638 0.898024
O O10 0.947296 0.000000 0.711116
O O11 0.533817 0.500000 0.206636
O O12 0.681807 0.663740 0.264852
O O13 0.500000 0.670493 0.000000
O O14 0.111521 0.641997 0.633801
O O15 0.262425 0.500000 0.859136
O O16 0.253028 0.244772 0.901759
O O17 0.748722 0.000000 0.007021
#
# Coordination Sequence:
#
# PCOD9143086 Si02
#       7
#     4   4   4   4   2   4   4
#     4  10  22  38  58  86 115 144 182 232 286 333
#     4   9  17  31  51  75 110 144 174 219 274 327
#     4   9  16  27  47  77 108 138 177 219 262 320
#     4  10  23  42  61  82 111 150 193 233 273 328
#     4  10  18  30  52  76 105 142 175 218 277 332
#     4  10  21  36  54  78 109 142 180 225 276 324
#     4   9  18  31  52  80 106 140 180 220 267 326
#
# _framework density 19.482697000000002
#
# number of rings (size 3 to 8) (size 9 to 14) (size 15 to 20)
#    0.000    2.462    0.000    1.846    2.154    3.692 
#    0.000    0.769    0.000    8.308    0.000    0.000 
#    0.000    0.000    0.000    0.000    0.000    0.000 
#
# Total GULP energy -144927.457392 kJ/mol
# GULP energy per Si atom -5574.132977 kJ/mol
# Density = 1.943835 g / cm^3
# Si number density = 19.482697 Si / 1000 Ang^3
#
#
#
# Elastic Constant Matrix: (Units=GPa)
#
#
# Indices 1 2 3 4 5 6 
#
# 1 75.4058 43.2072 18.0737 0.0000 -9.2733 0.0000
# 2 43.2072 98.5884 59.0875 0.0000 -25.3876 0.0000
# 3 18.0737 59.0875 89.4399 0.0000 -22.7598 0.0000
# 4 0.0000 0.0000 0.0000 5.5548 0.0000 5.7302
# 5 -9.2733 -25.3876 -22.7598 0.0000 25.7931 0.0000
# 6 0.0000 0.0000 0.0000 5.7302 0.0000 10.8695
#
#
#
# Elastic Compliance Matrix: (Units=1/GPa)
#
#
# Indices 1 2 3 4 5 6 
#
# 1 0.018081 -0.009625 0.002512 0.000000 -0.000756 0.000000
# 2 -0.009625 0.023575 -0.011097 0.000000 0.009952 0.000000
# 3 0.002512 -0.011097 0.019930 0.000000 0.007567 0.000000
# 4 0.000000 0.000000 0.000000 0.394651 0.000000 -0.208055
# 5 -0.000756 0.009952 0.007567 0.000000 0.054970 0.000000
# 6 0.000000 0.000000 0.000000 -0.208055 0.000000 0.201685
#
#
# Mechanical properties :
#
#
# Convention : Reuss Voigt Hill
#
# Bulk Modulus (GPa) = 39.73468 56.01898 47.87683
# Shear Modulus (GPa) = 6.59892 17.98119 12.29006
#
# Velocity S-wave (km/s) = 1.84239 3.04127 2.51434
# Velocity P-wave (km/s) = 4.99650 6.41468 5.74948
#
# Compressibility (1/GPa) = 0.02516693
#
# Stress axis : x y z
#
# Youngs Moduli (GPa) = 55.30566 42.41816 50.17648
#
# Poissons Ratio (x) = 0.40826 -0.12606
# Poissons Ratio (y) = 0.53229 0.55681
# Poissons Ratio (z) = -0.13894 0.47072
#
# Static dielectric constant tensor:
#      x y z
#    x 1.721580 0.000000 0.041210 
#    y 0.000000 1.654800 0.000000 
#    z 0.041210 0.000000 1.706470 
# 
# From -- ./inp_files/28401.got.cif
#   From: 2010.05.17/outbox.cif.g08.bks.cpg/sg10_15_cif.got.tgz:28401.got - 2010.06.03 11:33:40.
