data_PCOD9143014
_publ_section_title
;
Structure prediction by ZEFSAII (Michael W. Deem and Ramdas Pophale) SiO2 
 PCOD9143014
Probable space group: P 2/M
;
_chemical_formula_sum "Si O2"
_cell_formula_units_Z 24
_cell_length_a 18.744399
_cell_length_b 7.641307
_cell_length_c 12.046190
_cell_angle_alpha 90.000000
_cell_angle_beta 51.171871
_cell_angle_gamma 90.000000
_cell_volume 1344.135947
_symmetry_space_group_name_H-M "P 2/M"
_symmetry_group_IT_number 10
_symmetry_cell_setting 'monoclinic'
loop_
_space_group_symop_operation_xyz
x,y,z
-x,y,-z
-x,-y,-z
x,-y,z
loop_
_atom_site_type_symbol
_atom_site_label
_atom_site_fract_x
_atom_site_fract_y
_atom_site_fract_z
Si Si1 0.210821 0.796949 0.529844
Si Si2 0.894268 0.286417 0.591473
Si Si3 0.606525 0.786420 0.765390
Si Si4 0.100938 0.500000 0.038777
Si Si5 0.783111 0.301091 0.911043
Si Si6 0.886428 0.500000 0.237818
Si Si7 0.595883 0.794886 0.028581
O O1 0.151314 0.784350 0.475202
O O2 0.311625 0.730639 0.394474
O O3 0.164005 0.669675 0.663817
O O4 0.214923 0.000000 0.561535
O O5 0.891445 0.500000 0.589880
O O6 0.000000 0.236580 0.500000
O O7 0.838510 0.223049 0.753953
O O8 0.503299 0.727067 0.836765
O O9 0.612021 0.000000 0.757428
O O10 0.620387 0.729075 0.880356
O O11 0.151001 0.333564 0.048200
O O12 0.113868 0.500000 0.895030
O O13 0.993193 0.500000 0.171042
O O14 0.760958 0.500000 0.897954
O O15 0.683072 0.222194 0.022805
O O16 0.580245 0.000000 0.027511
#
# Coordination Sequence:
#
# PCOD9143014 Si02
#       7
#     4   4   4   2   4   2   4
#     4  11  21  34  56  85 113 142 182 225 271 334
#     4  10  18  30  50  77 113 146 172 214 279 339
#     4   8  16  29  47  76 114 147 176 212 259 327
#     4   9  22  41  60  73 102 143 191 234 274 320
#     4   9  18  31  50  77 105 138 174 226 266 323
#     4  11  22  43  62  75 102 153 185 234 288 306
#     4   9  15  29  50  74 111 149 175 210 265 323
#
# _framework density 17.855338
#
# number of rings (size 3 to 8) (size 9 to 14) (size 15 to 20)
#    0.500    2.000    2.500    2.000    0.000    0.333 
#    1.500    5.833    0.000    2.000    0.000    3.500 
#    0.000    0.000    0.000    0.000    0.000    0.000 
#
# Total GULP energy -133618.447692 kJ/mol
# GULP energy per Si atom -5567.435321 kJ/mol
# Density = 1.781470 g / cm^3
# Si number density = 17.855338 Si / 1000 Ang^3
#
#
#
# Elastic Constant Matrix: (Units=GPa)
#
#
# Indices 1 2 3 4 5 6 
#
# 1 67.5033 15.6160 52.4614 0.0000 -25.6266 0.0000
# 2 15.6160 52.5808 33.8463 0.0000 -5.1095 0.0000
# 3 52.4614 33.8463 119.0416 0.0000 -26.5969 0.0000
# 4 0.0000 0.0000 0.0000 12.4788 0.0000 -8.0107
# 5 -25.6266 -5.1095 -26.5969 0.0000 32.2709 0.0000
# 6 0.0000 0.0000 0.0000 -8.0107 0.0000 14.0017
#
#
#
# Elastic Compliance Matrix: (Units=1/GPa)
#
#
# Indices 1 2 3 4 5 6 
#
# 1 0.027066 -0.001264 -0.008349 0.000000 0.014413 0.000000
# 2 -0.001264 0.023462 -0.006751 0.000000 -0.002853 0.000000
# 3 -0.008349 -0.006751 0.015051 0.000000 0.004706 0.000000
# 4 0.000000 0.000000 0.000000 0.126651 0.000000 0.072460
# 5 0.014413 -0.002853 0.004706 0.000000 0.045860 0.000000
# 6 0.000000 0.000000 0.000000 0.072460 0.000000 0.112876
#
#
# Mechanical properties :
#
#
# Convention : Reuss Voigt Hill
#
# Bulk Modulus (GPa) = 30.43992 49.21923 39.82957
# Shear Modulus (GPa) = 12.66968 20.89710 16.78339
#
# Velocity S-wave (km/s) = 2.66667 3.42476 3.06921
# Velocity P-wave (km/s) = 5.15428 6.57754 5.90892
#
# Compressibility (1/GPa) = 0.03285160
#
# Stress axis : x y z
#
# Youngs Moduli (GPa) = 36.94630 42.62149 66.44276
#
# Poissons Ratio (x) = 0.05387 0.55470
# Poissons Ratio (y) = 0.04670 0.44858
# Poissons Ratio (z) = 0.30845 0.28775
#
# Static dielectric constant tensor:
#      x y z
#    x 1.621860 0.000000 -0.043630 
#    y 0.000000 1.656020 0.000000 
#    z -0.043630 0.000000 1.617580 
# 
# From -- ./inp_files/54606.got.cif
#   From: 2010.05.17/outbox.cif.g08.bks.cpg/sg10_28_cif.got.tgz:54606.got - 2010.06.03 11:33:40.
