data_PCOD9143294
_publ_section_title
;
Structure prediction by ZEFSAII (Michael W. Deem and Ramdas Pophale) SiO2 
 PCOD9143294
Probable space group: P 2/M
;
_chemical_formula_sum "Si O2"
_cell_formula_units_Z 32
_cell_length_a 23.340718
_cell_length_b 12.151714
_cell_length_c 12.207437
_cell_angle_alpha 90.000000
_cell_angle_beta 30.246192
_cell_angle_gamma 90.000000
_cell_volume 1744.064228
_symmetry_space_group_name_H-M "P 2/M"
_symmetry_group_IT_number 10
_symmetry_cell_setting 'monoclinic'
loop_
_space_group_symop_operation_xyz
x,y,z
-x,y,-z
-x,-y,-z
x,-y,z
loop_
_atom_site_type_symbol
_atom_site_label
_atom_site_fract_x
_atom_site_fract_y
_atom_site_fract_z
Si Si1 0.253914 0.627203 0.742536
Si Si2 0.327146 0.631657 0.873060
Si Si3 0.122188 0.215257 0.805608
Si Si4 0.490405 0.282196 0.282508
Si Si5 0.866019 0.621914 0.414255
Si Si6 0.387995 0.327046 0.136810
Si Si7 0.638299 0.874840 0.653870
Si Si8 0.111795 0.633617 0.379515
O O1 0.218409 0.500000 0.787687
O O2 0.283516 0.647365 0.821116
O O3 0.162223 0.712540 0.844884
O O4 0.374363 0.646566 0.480833
O O5 0.353098 0.500000 0.842460
O O6 0.438474 0.700836 0.723942
O O7 0.223330 0.661628 0.125695
O O8 0.108300 0.304342 0.731448
O O9 0.230858 0.140194 0.599258
O O10 0.000000 0.156755 0.000000
O O11 0.441712 0.167815 0.313946
O O12 0.581333 0.318569 0.040730
O O13 0.915884 0.500000 0.321407
O O14 0.729409 0.615107 0.646516
O O15 0.895638 0.673142 0.483237
O O16 0.378354 0.210109 0.217614
O O17 0.500000 0.381427 0.000000
O O18 0.614098 0.000000 0.722695
O O19 0.112367 0.500000 0.385935
O O20 0.000000 0.668309 0.500000
#
# Coordination Sequence:
#
# PCOD9143294 Si02
#       8
#     4   4   4   4   4   4   4   4
#     4  10  21  33  48  74 111 152 183 207 241 294
#     4  10  19  32  51  74 106 149 185 209 241 295
#     4  10  22  36  52  76 104 135 177 215 261 309
#     4  10  18  31  51  76 104 130 171 217 257 303
#     4  10  19  31  47  71 108 142 172 211 250 294
#     4   9  18  30  48  74 102 131 164 208 254 309
#     4   9  20  38  57  78 101 126 166 220 275 327
#     4   9  18  30  46  70  99 139 186 218 243 282
#
# _framework density 18.347947999999999
#
# number of rings (size 3 to 8) (size 9 to 14) (size 15 to 20)
#    0.000    2.375    1.250    1.875    1.750    5.250 
#    0.000    1.875    0.000    6.000    0.000    0.000 
#    0.000    9.500    0.000    0.000    0.000    0.000 
#
# Total GULP energy -178246.478704 kJ/mol
# GULP energy per Si atom -5570.202460 kJ/mol
# Density = 1.830619 g / cm^3
# Si number density = 18.347948 Si / 1000 Ang^3
#
#
#
# Elastic Constant Matrix: (Units=GPa)
#
#
# Indices 1 2 3 4 5 6 
#
# 1 110.7152 22.8601 25.6148 0.0000 -0.5098 0.0000
# 2 22.8601 56.7165 0.0393 0.0000 8.3655 0.0000
# 3 25.6148 0.0393 49.0660 0.0000 -12.4592 0.0000
# 4 0.0000 0.0000 0.0000 -0.3509 0.0000 -2.2548
# 5 -0.5098 8.3655 -12.4592 0.0000 34.4373 0.0000
# 6 0.0000 0.0000 0.0000 -2.2548 0.0000 11.7835
#
#
#
# Elastic Compliance Matrix: (Units=1/GPa)
#
#
# Indices 1 2 3 4 5 6 
#
# 1 0.011374 -0.004434 -0.006187 0.000000 -0.000993 0.000000
# 2 -0.004434 0.020086 0.001148 0.000000 -0.004529 0.000000
# 3 -0.006187 0.001148 0.025894 0.000000 0.008998 0.000000
# 4 0.000000 0.000000 0.000000 -1.278148 0.000000 -0.244573
# 5 -0.000993 -0.004529 0.008998 0.000000 0.033379 0.000000
# 6 0.000000 0.000000 0.000000 -0.244573 0.000000 0.038066
#
#
# Mechanical properties :
#
#
# Convention : Reuss Voigt Hill
#
# Bulk Modulus (GPa) = 26.03439 34.83624 30.43531
# Shear Modulus (GPa) = -4.47387 20.37286 7.94950
#
# Velocity S-wave (km/s) = -1.56322 3.33582 2.08376
# Velocity P-wave (km/s) = 3.31087 5.81933 4.73426
#
# Compressibility (1/GPa) = 0.03841073
#
# Stress axis : x y z
#
# Youngs Moduli (GPa) = 87.91668 49.78611 38.61862
#
# Poissons Ratio (x) = 0.22074 0.23892
# Poissons Ratio (y) = 0.38981 -0.04435
# Poissons Ratio (z) = 0.54390 -0.05718
#
# Static dielectric constant tensor:
#      x y z
#    x 1.675460 0.000000 0.005130 
#    y 0.000000 1.598010 0.000000 
#    z 0.005130 0.000000 1.676770 
# 
# From -- ./inp_files/56929.got.cif
#   From: 2010.05.17/outbox.cif.g08.bks.cpg/sg10_29_cif.got.tgz:56929.got - 2010.06.03 11:33:40.
