data_PCOD9143455
_publ_section_title
;
Structure prediction by ZEFSAII (Michael W. Deem and Ramdas Pophale) SiO2 
 PCOD9143455
Probable space group: P 2/M
;
_chemical_formula_sum "Si O2"
_cell_formula_units_Z 20
_cell_length_a 11.646023
_cell_length_b 7.632979
_cell_length_c 16.929668
_cell_angle_alpha 90.000000
_cell_angle_beta 42.476829
_cell_angle_gamma 90.000000
_cell_volume 1016.276190
_symmetry_space_group_name_H-M "P 2/M"
_symmetry_group_IT_number 10
_symmetry_cell_setting 'monoclinic'
loop_
_space_group_symop_operation_xyz
x,y,z
-x,y,-z
-x,-y,-z
x,-y,z
loop_
_atom_site_type_symbol
_atom_site_label
_atom_site_fract_x
_atom_site_fract_y
_atom_site_fract_z
Si Si1 0.454046 0.298296 0.776155
Si Si2 0.385173 0.701225 0.986381
Si Si3 0.427102 0.000000 0.666942
Si Si4 0.898387 0.799708 0.766713
Si Si5 0.823545 0.786690 0.630559
Si Si6 0.228966 0.000000 0.603221
O O1 0.397090 0.500000 0.796021
O O2 0.404423 0.225534 0.888610
O O3 0.659018 0.290349 0.672879
O O4 0.394564 0.169849 0.737340
O O5 0.442258 0.500000 0.948542
O O6 0.500000 0.775974 0.000000
O O7 0.191753 0.705830 0.115327
O O8 0.314438 0.000000 0.645429
O O9 0.623664 0.000000 0.536804
O O10 0.834316 0.727533 0.716006
O O11 0.100994 0.833338 0.660893
O O12 0.833840 0.000000 0.805958
O O13 0.000000 0.740702 0.500000
O O14 0.810478 0.000000 0.636401
#
# Coordination Sequence:
#
# PCOD9143455 Si02
#       6
#     4   4   2   4   4   2
#     4  11  23  36  58  92 118 155 202 233 296 361
#     4  10  20  35  53  83 126 160 188 233 290 355
#     4  11  22  44  67  78 122 156 192 265 292 333
#     4   9  19  33  56  85 113 144 203 235 282 359
#     4  10  18  31  54  85 122 152 185 241 300 353
#     4   9  22  42  63  88 104 158 208 237 304 357
#
# _framework density 19.679690000000001
#
# number of rings (size 3 to 8) (size 9 to 14) (size 15 to 20)
#    0.600    1.400    3.000    1.200    1.400    0.800 
#    0.000    8.000    0.000    2.400    0.000    0.000 
#    0.000    0.000    0.000    0.000    0.000    0.000 
#
# Total GULP energy -111477.553980 kJ/mol
# GULP energy per Si atom -5573.877699 kJ/mol
# Density = 1.963490 g / cm^3
# Si number density = 19.679690 Si / 1000 Ang^3
#
#
#
# Elastic Constant Matrix: (Units=GPa)
#
#
# Indices 1 2 3 4 5 6 
#
# 1 47.4686 15.9138 -2.9581 0.0000 17.6279 0.0000
# 2 15.9138 65.1125 20.3046 0.0000 15.5802 0.0000
# 3 -2.9581 20.3046 74.3148 0.0000 20.7992 0.0000
# 4 0.0000 0.0000 0.0000 -80.8605 0.0000 -16.2362
# 5 17.6279 15.5802 20.7992 0.0000 34.4806 0.0000
# 6 0.0000 0.0000 0.0000 -16.2362 0.0000 4.7877
#
#
#
# Elastic Compliance Matrix: (Units=1/GPa)
#
#
# Indices 1 2 3 4 5 6 
#
# 1 0.029799 -0.005492 0.007527 0.000000 -0.017293 0.000000
# 2 -0.005492 0.018823 -0.004532 0.000000 -0.002964 0.000000
# 3 0.007527 -0.004532 0.018646 0.000000 -0.013048 0.000000
# 4 0.000000 0.000000 0.000000 -0.007357 0.000000 -0.024950
# 5 -0.017293 -0.002964 -0.013048 0.000000 0.047052 0.000000
# 6 0.000000 0.000000 0.000000 -0.024950 0.000000 0.124257
#
#
# Mechanical properties :
#
#
# Convention : Reuss Voigt Hill
#
# Bulk Modulus (GPa) = 16.05850 28.15736 22.10793
# Shear Modulus (GPa) = 19.45740 1.92394 10.69067
#
# Velocity S-wave (km/s) = 3.14778 0.98982 2.33327
# Velocity P-wave (km/s) = 4.62482 3.95540 4.30315
#
# Compressibility (1/GPa) = 0.06227230
#
# Stress axis : x y z
#
# Youngs Moduli (GPa) = 33.55851 53.12726 53.63112
#
# Poissons Ratio (x) = 0.29178 -0.40366
# Poissons Ratio (y) = 0.18431 0.24306
# Poissons Ratio (z) = -0.25258 0.24077
#
# Static dielectric constant tensor:
#      x y z
#    x 1.677030 0.000000 -0.008560 
#    y 0.000000 1.723700 0.000000 
#    z -0.008560 0.000000 1.732780 
# 
# From -- ./inp_files/48935.got.cif
#   From: 2010.05.17/outbox.cif.g08.bks.cpg/sg10_25_cif.got.tgz:48935.got - 2010.06.03 11:33:40.
