data_PCOD9143020
_publ_section_title
;
Structure prediction by ZEFSAII (Michael W. Deem and Ramdas Pophale) SiO2 
 PCOD9143020
Probable space group: P 2/M
;
_chemical_formula_sum "Si O2"
_cell_formula_units_Z 30
_cell_length_a 24.834408
_cell_length_b 8.313604
_cell_length_c 15.831219
_cell_angle_alpha 90.000000
_cell_angle_beta 23.758976
_cell_angle_gamma 90.000000
_cell_volume 1316.873551
_symmetry_space_group_name_H-M "P 2/M"
_symmetry_group_IT_number 10
_symmetry_cell_setting 'monoclinic'
loop_
_space_group_symop_operation_xyz
x,y,z
-x,y,-z
-x,-y,-z
x,-y,z
loop_
_atom_site_type_symbol
_atom_site_label
_atom_site_fract_x
_atom_site_fract_y
_atom_site_fract_z
Si Si1 0.270961 0.688500 0.549568
Si Si2 0.995358 0.315475 0.330880
Si Si3 0.287038 0.190211 0.886140
Si Si4 0.690245 0.682985 0.970868
Si Si5 0.026568 0.812285 0.812281
Si Si6 0.000000 0.749232 0.500000
Si Si7 0.282743 0.808258 0.709244
Si Si8 0.494787 0.696000 0.911626
O O1 0.245557 0.500000 0.576530
O O2 0.132113 0.779117 0.733805
O O3 0.329481 0.721593 0.558012
O O4 0.374253 0.740906 0.329354
O O5 0.965540 0.500000 0.400207
O O6 0.927095 0.277564 0.339852
O O7 0.971320 0.195713 0.444320
O O8 0.151442 0.293482 0.085627
O O9 0.347205 0.229876 0.707886
O O10 0.254485 0.000000 0.928685
O O11 0.351481 0.221985 0.884689
O O12 0.643604 0.500000 0.049222
O O13 0.851543 0.679680 0.731180
O O14 0.627758 0.745775 0.973174
O O15 0.021977 0.000000 0.798465
O O16 0.875484 0.766782 0.054108
O O17 0.295433 0.000000 0.677919
O O18 0.489259 0.500000 0.924180
O O19 0.500000 0.756277 0.000000
#
# Coordination Sequence:
#
# PCOD9143020 Si02
#       8
#     4   4   4   4   4   2   4   4
#     4  11  22  35  57  86 109 147 203 246 286 339
#     4  10  18  30  50  80 113 146 189 236 284 341
#     4   9  18  34  54  80 115 150 180 223 293 355
#     4  10  19  35  59  84 113 148 193 244 292 342
#     4  10  21  36  54  80 117 157 191 233 296 354
#     4  10  19  30  55  90 111 138 187 244 297 342
#     4   9  19  36  57  81 116 156 186 227 295 359
#     4   9  21  40  60  81 114 159 198 238 290 348
#
# _framework density 22.781230000000001
#
# number of rings (size 3 to 8) (size 9 to 14) (size 15 to 20)
#    0.000    2.267    0.000    4.800    1.867    4.800 
#    0.000   10.333    0.000    6.000    0.000    0.000 
#    0.000    0.000    0.000    0.000    0.000    0.000 
#
# Total GULP energy -167123.005840 kJ/mol
# GULP energy per Si atom -5570.766861 kJ/mol
# Density = 2.272938 g / cm^3
# Si number density = 22.781230 Si / 1000 Ang^3
#
#
#
# Elastic Constant Matrix: (Units=GPa)
#
#
# Indices 1 2 3 4 5 6 
#
# 1 172.8030 18.3366 57.1891 0.0000 31.0550 0.0000
# 2 18.3366 31.2539 14.0575 0.0000 6.5895 0.0000
# 3 57.1891 14.0575 65.4860 0.0000 9.0316 0.0000
# 4 0.0000 0.0000 0.0000 21.3509 0.0000 19.6291
# 5 31.0550 6.5895 9.0316 0.0000 50.7316 0.0000
# 6 0.0000 0.0000 0.0000 19.6291 0.0000 25.8355
#
#
#
# Elastic Compliance Matrix: (Units=1/GPa)
#
#
# Indices 1 2 3 4 5 6 
#
# 1 0.008971 -0.001253 -0.007002 0.000000 -0.004082 0.000000
# 2 -0.001253 0.036147 -0.006278 0.000000 -0.002811 0.000000
# 3 -0.007002 -0.006278 0.022584 0.000000 0.001081 0.000000
# 4 0.000000 0.000000 0.000000 0.155345 0.000000 -0.118027
# 5 -0.004082 -0.002811 0.001081 0.000000 0.022383 0.000000
# 6 0.000000 0.000000 0.000000 -0.118027 0.000000 0.128380
#
#
# Mechanical properties :
#
#
# Convention : Reuss Voigt Hill
#
# Bulk Modulus (GPa) = 25.88247 49.85660 37.86953
# Shear Modulus (GPa) = 12.02630 31.58092 21.80361
#
# Velocity S-wave (km/s) = 2.30011 3.72730 3.09704
# Velocity P-wave (km/s) = 4.29418 6.36052 5.42661
#
# Compressibility (1/GPa) = 0.03863619
#
# Stress axis : x y z
#
# Youngs Moduli (GPa) = 111.47092 27.66460 44.27895
#
# Poissons Ratio (x) = 0.03466 0.31006
# Poissons Ratio (y) = 0.13967 0.27797
# Poissons Ratio (z) = 0.78056 0.17367
#
# Static dielectric constant tensor:
#      x y z
#    x 1.915240 0.000000 0.002020 
#    y 0.000000 1.805220 0.000000 
#    z 0.002020 0.000000 1.859630 
# 
# From -- ./inp_files/71294.got.cif
#   From: 2010.05.17/outbox.cif.g08.bks.cpg/sg10_36_cif.got.tgz:71294.got - 2010.06.03 11:33:40.
