data_PCOD9143544
_publ_section_title
;
Structure prediction by ZEFSAII (Michael W. Deem and Ramdas Pophale) SiO2 
 PCOD9143544
Probable space group: P 2/M
;
_chemical_formula_sum "Si O2"
_cell_formula_units_Z 18
_cell_length_a 5.491543
_cell_length_b 19.826429
_cell_length_c 6.993938
_cell_angle_alpha 90.000000
_cell_angle_beta 77.869075
_cell_angle_gamma 90.000000
_cell_volume 744.479827
_symmetry_space_group_name_H-M "P 2/M"
_symmetry_group_IT_number 10
_symmetry_cell_setting 'monoclinic'
loop_
_space_group_symop_operation_xyz
x,y,z
-x,y,-z
-x,-y,-z
x,-y,z
loop_
_atom_site_type_symbol
_atom_site_label
_atom_site_fract_x
_atom_site_fract_y
_atom_site_fract_z
Si Si1 0.918458 0.789714 0.238594
Si Si2 0.283805 0.000000 0.376483
Si Si3 0.579389 0.853762 0.770414
Si Si4 0.314834 0.420022 0.267967
Si Si5 0.190741 0.365291 0.713066
O O1 0.676850 0.838356 0.301634
O O2 0.828579 0.714803 0.301420
O O3 0.171880 0.809909 0.307073
O O4 0.000000 0.790773 0.000000
O O5 0.500000 0.000000 0.500000
O O6 0.332886 0.930976 0.255704
O O7 0.000000 0.000000 0.500000
O O8 0.500000 0.838504 0.000000
O O9 0.334289 0.500000 0.246970
O O10 0.251103 0.399567 0.498325
O O11 0.580794 0.386159 0.191767
O O12 0.080900 0.392286 0.190971
#
# Coordination Sequence:
#
# PCOD9143544 Si02
#       5
#     4   2   4   4   4
#     4  10  21  38  60  85 113 150 200 244 279 339
#     4  12  25  44  61  98 126 154 190 256 303 326
#     4  10  22  43  65  84 116 168 204 230 285 369
#     4  10  19  33  53  76 109 149 191 232 285 356
#     4  10  18  32  51  80 106 141 185 233 293 327
#
# _framework density 24.177955999999998
#
# number of rings (size 3 to 8) (size 9 to 14) (size 15 to 20)
#    0.000    1.778    0.000    6.333    0.000    0.000 
#   24.000    4.444    0.000    7.333    0.000    0.000 
#    0.000    0.000    0.000    0.000    0.000    0.000 
#
# Total GULP energy -100738.513669 kJ/mol
# GULP energy per Si atom -5596.584093 kJ/mol
# Density = 2.412293 g / cm^3
# Si number density = 24.177956 Si / 1000 Ang^3
#
#
#
# Elastic Constant Matrix: (Units=GPa)
#
#
# Indices 1 2 3 4 5 6 
#
# 1 280.8079 83.3266 43.3592 0.0000 -11.6534 0.0000
# 2 83.3266 172.0289 -16.1240 0.0000 -23.3128 0.0000
# 3 43.3592 -16.1240 65.2338 0.0000 -12.9512 0.0000
# 4 0.0000 0.0000 0.0000 95.0905 0.0000 -13.5013
# 5 -11.6534 -23.3128 -12.9512 0.0000 44.8397 0.0000
# 6 0.0000 0.0000 0.0000 -13.5013 0.0000 56.3452
#
#
#
# Elastic Compliance Matrix: (Units=1/GPa)
#
#
# Indices 1 2 3 4 5 6 
#
# 1 0.005110 -0.003109 -0.004479 0.000000 -0.001582 0.000000
# 2 -0.003109 0.008496 0.005180 0.000000 0.005106 0.000000
# 3 -0.004479 0.005180 0.021101 0.000000 0.007624 0.000000
# 4 0.000000 0.000000 0.000000 0.010887 0.000000 0.002609
# 5 -0.001582 0.005106 0.007624 0.000000 0.026747 0.000000
# 6 0.000000 0.000000 0.000000 0.002609 0.000000 0.018373
#
#
# Mechanical properties :
#
#
# Convention : Reuss Voigt Hill
#
# Bulk Modulus (GPa) = 33.45476 82.13268 57.79372
# Shear Modulus (GPa) = 47.39672 66.42232 56.90952
#
# Velocity S-wave (km/s) = 4.43236 5.24709 4.85684
# Velocity P-wave (km/s) = 6.32941 8.41148 7.44360
#
# Compressibility (1/GPa) = 0.02989111
#
# Stress axis : x y z
#
# Youngs Moduli (GPa) = 195.70578 117.69604 47.39210
#
# Poissons Ratio (x) = 0.36595 0.21227
# Poissons Ratio (y) = 0.60850 -0.24551
# Poissons Ratio (z) = 0.87655 -0.60971
#
# Static dielectric constant tensor:
#      x y z
#    x 1.922600 0.000000 0.033160 
#    y 0.000000 1.844540 0.000000 
#    z 0.033160 0.000000 1.944930 
# 
# From -- ./inp_files/14720.got.cif
#   From: 2010.05.17/outbox.cif.g08.bks.cpg/sg10_8_cif.got.tgz:14720.got - 2010.06.03 11:33:40.
