data_PCOD9143286
_publ_section_title
;
Structure prediction by ZEFSAII (Michael W. Deem and Ramdas Pophale) SiO2 
 PCOD9143286
Probable space group: P 2/M
;
_chemical_formula_sum "Si O2"
_cell_formula_units_Z 24
_cell_length_a 17.038524
_cell_length_b 7.607870
_cell_length_c 23.849747
_cell_angle_alpha 90.000000
_cell_angle_beta 156.825140
_cell_angle_gamma 90.000000
_cell_volume 1216.651346
_symmetry_space_group_name_H-M "P 2/M"
_symmetry_group_IT_number 10
_symmetry_cell_setting 'monoclinic'
loop_
_space_group_symop_operation_xyz
x,y,z
-x,y,-z
-x,-y,-z
x,-y,z
loop_
_atom_site_type_symbol
_atom_site_label
_atom_site_fract_x
_atom_site_fract_y
_atom_site_fract_z
Si Si1 0.723314 0.710108 0.154664
Si Si2 0.285088 0.211121 0.338134
Si Si3 0.090317 0.291180 0.322926
Si Si4 0.013412 0.787566 0.444841
Si Si5 0.788486 0.215921 0.836549
Si Si6 0.624428 0.203662 0.391996
O O1 0.712112 0.500000 0.140080
O O2 0.883829 0.775600 0.214195
O O3 0.824955 0.743221 0.281744
O O4 0.500000 0.780650 0.000000
O O5 0.500000 0.278749 0.500000
O O6 0.124956 0.254489 0.280719
O O7 0.234991 0.273980 0.243148
O O8 0.298443 0.000000 0.343936
O O9 0.099972 0.500000 0.338268
O O10 0.269366 0.210915 0.477383
O O11 0.212363 0.719820 0.543667
O O12 0.000000 0.725584 0.500000
O O13 0.024376 0.000000 0.452983
O O14 0.596382 0.278257 0.745649
O O15 0.783155 0.000000 0.833427
O O16 0.000000 0.270219 0.000000
O O17 0.600164 0.000000 0.359993
#
# Coordination Sequence:
#
# PCOD9143286 Si02
#       6
#     4   4   4   4   4   4
#     4   9  19  36  54  72  99 135 170 205 248 301
#     4  10  18  31  51  74  97 126 165 200 236 290
#     4  10  19  31  51  76  98 125 166 206 245 286
#     4   9  18  32  51  77 103 127 162 209 255 296
#     4   9  17  30  48  70  95 127 163 195 232 285
#     4   9  16  31  52  69  96 132 164 198 241 291
#
# _framework density 19.726275000000001
#
# number of rings (size 3 to 8) (size 9 to 14) (size 15 to 20)
#    0.000    2.667    1.667    0.500    0.000    1.667 
#    3.000    0.000    0.000    2.000    0.000    0.000 
#    0.000    0.000    0.000    0.000    0.000    0.000 
#
# Total GULP energy -133858.749346 kJ/mol
# GULP energy per Si atom -5577.447889 kJ/mol
# Density = 1.968138 g / cm^3
# Si number density = 19.726275 Si / 1000 Ang^3
#
#
#
# Elastic Constant Matrix: (Units=GPa)
#
#
# Indices 1 2 3 4 5 6 
#
# 1 142.8184 -4.8479 96.0146 0.0000 1.9986 0.0000
# 2 -4.8479 40.7876 2.8006 0.0000 3.3538 0.0000
# 3 96.0146 2.8006 177.4955 0.0000 20.8949 0.0000
# 4 0.0000 0.0000 0.0000 13.3567 0.0000 -6.2497
# 5 1.9986 3.3538 20.8949 0.0000 27.0070 0.0000
# 6 0.0000 0.0000 0.0000 -6.2497 0.0000 14.5161
#
#
#
# Elastic Compliance Matrix: (Units=1/GPa)
#
#
# Indices 1 2 3 4 5 6 
#
# 1 0.011537 0.001491 -0.006757 0.000000 0.004189 0.000000
# 2 0.001491 0.024963 -0.000905 0.000000 -0.002510 0.000000
# 3 -0.006757 -0.000905 0.010157 0.000000 -0.007246 0.000000
# 4 0.000000 0.000000 0.000000 0.093756 0.000000 0.040365
# 5 0.004189 -0.002510 -0.007246 0.000000 0.042635 0.000000
# 6 0.000000 0.000000 0.000000 0.040365 0.000000 0.086268
#
#
# Mechanical properties :
#
#
# Convention : Reuss Voigt Hill
#
# Bulk Modulus (GPa) = 29.14309 61.00402 45.07355
# Shear Modulus (GPa) = 17.05927 28.78488 22.92207
#
# Velocity S-wave (km/s) = 2.94394 3.82411 3.41252
# Velocity P-wave (km/s) = 5.13435 7.10569 6.19888
#
# Compressibility (1/GPa) = 0.03431345
#
# Stress axis : x y z
#
# Youngs Moduli (GPa) = 86.67937 40.05929 98.45895
#
# Poissons Ratio (x) = -0.05972 0.66533
# Poissons Ratio (y) = -0.12922 0.08908
# Poissons Ratio (z) = 0.58573 0.03624
#
# Static dielectric constant tensor:
#      x y z
#    x 1.702100 0.000000 0.032180 
#    y 0.000000 1.729380 0.000000 
#    z 0.032180 0.000000 1.670550 
# 
# From -- ./inp_files/52617.got.cif
#   From: 2010.05.17/outbox.cif.g08.bks.cpg/sg10_27_cif.got.tgz:52617.got - 2010.06.03 11:33:40.
