data_PCOD9143539
_publ_section_title
;
Structure prediction by ZEFSAII (Michael W. Deem and Ramdas Pophale) SiO2 
 PCOD9143539
Probable space group: P 2/M
;
_chemical_formula_sum "Si O2"
_cell_formula_units_Z 32
_cell_length_a 12.552767
_cell_length_b 8.878948
_cell_length_c 34.324442
_cell_angle_alpha 90.000000
_cell_angle_beta 149.353557
_cell_angle_gamma 90.000000
_cell_volume 1950.079367
_symmetry_space_group_name_H-M "P 2/M"
_symmetry_group_IT_number 10
_symmetry_cell_setting 'monoclinic'
loop_
_space_group_symop_operation_xyz
x,y,z
-x,y,-z
-x,-y,-z
x,-y,z
loop_
_atom_site_type_symbol
_atom_site_label
_atom_site_fract_x
_atom_site_fract_y
_atom_site_fract_z
Si Si1 0.638974 0.320936 0.082586
Si Si2 0.037259 0.320483 0.089307
Si Si3 0.476759 0.679715 0.183813
Si Si4 0.495137 0.679142 0.335934
Si Si5 0.142164 0.173432 0.505524
Si Si6 0.944700 0.179833 0.818768
Si Si7 0.618127 0.820677 0.927422
Si Si8 0.773493 0.319726 0.347000
O O1 0.655398 0.500000 0.094356
O O2 0.523146 0.243115 0.082090
O O3 0.864134 0.249549 0.145208
O O4 0.500000 0.297978 0.000000
O O5 0.007508 0.500000 0.084784
O O6 0.257481 0.295571 0.137234
O O7 0.039050 0.244215 0.132197
O O8 0.846748 0.252907 0.004813
O O9 0.491651 0.500000 0.180835
O O10 0.473476 0.769032 0.142703
O O11 0.661650 0.722736 0.271638
O O12 0.460703 0.500000 0.326398
O O13 0.653043 0.731518 0.419418
O O14 0.277007 0.765455 0.267671
O O15 0.612705 0.713812 0.331908
O O16 0.000000 0.178841 0.500000
O O17 0.991821 0.240359 0.425182
O O18 0.195657 0.000000 0.514835
O O19 0.957918 0.000000 0.823601
O O20 0.633796 0.000000 0.934843
O O21 0.803916 0.500000 0.357071
#
# Coordination Sequence:
#
# PCOD9143539 Si02
#       8
#     4   4   4   4   4   4   4   4
#     4  11  23  40  61  77  98 138 182 221 265 321
#     4  11  21  37  56  76 104 144 184 217 259 317
#     4  10  21  37  55  76 106 145 186 220 256 315
#     4  10  18  32  51  74 105 142 180 214 255 317
#     4   9  17  28  44  72 106 139 172 214 265 312
#     4  12  23  34  54  82 110 137 172 224 275 315
#     4  12  25  38  54  79 107 137 177 227 275 314
#     4   9  17  31  50  73 102 142 182 214 253 310
#
# _framework density 16.409589
#
# number of rings (size 3 to 8) (size 9 to 14) (size 15 to 20)
#    0.000    1.500    2.500    4.125    0.000    5.500 
#    0.000    0.000    0.000    0.000    0.000    0.875 
#    0.000    7.000    0.000    0.000    0.000    0.000 
#
# Total GULP energy -178752.642451 kJ/mol
# GULP energy per Si atom -5586.020077 kJ/mol
# Density = 1.637224 g / cm^3
# Si number density = 16.409589 Si / 1000 Ang^3
#
#
#
# Elastic Constant Matrix: (Units=GPa)
#
#
# Indices 1 2 3 4 5 6 
#
# 1 36.1835 31.9225 34.0435 0.0000 -10.6505 0.0000
# 2 31.9225 82.5334 53.9534 0.0000 -5.2308 0.0000
# 3 34.0435 53.9534 128.0645 0.0000 -9.3640 0.0000
# 4 0.0000 0.0000 0.0000 23.3029 0.0000 1.3132
# 5 -10.6505 -5.2308 -9.3640 0.0000 15.1451 0.0000
# 6 0.0000 0.0000 0.0000 1.3132 0.0000 13.7652
#
#
#
# Elastic Compliance Matrix: (Units=1/GPa)
#
#
# Indices 1 2 3 4 5 6 
#
# 1 0.056280 -0.015892 -0.006046 0.000000 0.030350 0.000000
# 2 -0.015892 0.021241 -0.005242 0.000000 -0.007080 0.000000
# 3 -0.006046 -0.005242 0.011710 0.000000 0.001178 0.000000
# 4 0.000000 0.000000 0.000000 0.043145 0.000000 -0.004116
# 5 0.030350 -0.007080 0.001178 0.000000 0.085654 0.000000
# 6 0.000000 0.000000 0.000000 -0.004116 0.000000 0.073040
#
#
# Mechanical properties :
#
#
# Convention : Reuss Voigt Hill
#
# Bulk Modulus (GPa) = 28.67748 54.06892 41.37320
# Shear Modulus (GPa) = 14.00349 18.90010 16.45179
#
# Velocity S-wave (km/s) = 2.92442 3.39746 3.16978
# Velocity P-wave (km/s) = 5.37745 6.95783 6.21805
#
# Compressibility (1/GPa) = 0.03487057
#
# Stress axis : x y z
#
# Youngs Moduli (GPa) = 17.76845 47.07867 85.39352
#
# Poissons Ratio (x) = 0.74816 0.51633
# Poissons Ratio (y) = 0.28237 0.44763
# Poissons Ratio (z) = 0.10744 0.24679
#
# Static dielectric constant tensor:
#      x y z
#    x 1.522150 0.000000 -0.001290 
#    y 0.000000 1.544770 0.000000 
#    z -0.001290 0.000000 1.550440 
# 
# From -- ./inp_files/58099.got.cif
#   From: 2010.05.17/outbox.cif.g08.bks.cpg/sg10_30_cif.got.tgz:58099.got - 2010.06.03 11:33:40.
