data_PCOD9143281
_publ_section_title
;
Structure prediction by ZEFSAII (Michael W. Deem and Ramdas Pophale) SiO2 
 PCOD9143281
Probable space group: P 2/M
;
_chemical_formula_sum "Si O2"
_cell_formula_units_Z 26
_cell_length_a 10.608537
_cell_length_b 9.847545
_cell_length_c 20.679921
_cell_angle_alpha 90.000000
_cell_angle_beta 138.061861
_cell_angle_gamma 90.000000
_cell_volume 1443.849444
_symmetry_space_group_name_H-M "P 2/M"
_symmetry_group_IT_number 10
_symmetry_cell_setting 'monoclinic'
loop_
_space_group_symop_operation_xyz
x,y,z
-x,y,-z
-x,-y,-z
x,-y,z
loop_
_atom_site_type_symbol
_atom_site_label
_atom_site_fract_x
_atom_site_fract_y
_atom_site_fract_z
Si Si1 0.030465 0.343679 0.605401
Si Si2 0.306115 0.848423 0.554360
Si Si3 0.602920 0.160305 0.273432
Si Si4 0.545707 0.163436 0.916051
Si Si5 0.500000 0.240040 0.500000
Si Si6 0.114167 0.649895 0.303162
Si Si7 0.187934 0.836424 0.869182
O O1 0.053435 0.500000 0.593326
O O2 0.853390 0.266994 0.505544
O O3 0.982650 0.346207 0.663254
O O4 0.212987 0.251821 0.665253
O O5 0.444374 0.828331 0.668527
O O6 0.405638 0.840872 0.522917
O O7 0.221564 0.000000 0.529187
O O8 0.461111 0.202089 0.161891
O O9 0.645477 0.000000 0.278234
O O10 0.347449 0.198332 0.875761
O O11 0.556062 0.000000 0.923158
O O12 0.716884 0.209552 0.026925
O O13 0.666785 0.323964 0.597825
O O14 0.088443 0.500000 0.265128
O O15 0.006996 0.762814 0.220827
O O16 0.164995 0.000000 0.859728
#
# Coordination Sequence:
#
# PCOD9143281 Si02
#       7
#     4   4   4   4   2   4   4
#     4  10  20  32  47  72 105 136 163 197 249 306
#     4  10  21  34  51  72  95 128 171 214 250 288
#     4  10  18  31  51  74 101 131 163 203 248 298
#     4   8  15  28  48  76 106 132 160 195 246 304
#     4  10  22  38  52  70  98 132 174 214 252 294
#     4  10  20  34  52  74 101 134 171 209 247 290
#     4   9  16  29  51  76 102 134 164 197 246 298
#
# _framework density 18.007418000000001
#
# number of rings (size 3 to 8) (size 9 to 14) (size 15 to 20)
#    0.000    2.462    1.538    2.308    0.000    6.154 
#    0.000    2.308    0.000    0.923    0.000    5.385 
#    0.000    0.000    0.000    0.000    0.000    0.000 
#
# Total GULP energy -144762.323558 kJ/mol
# GULP energy per Si atom -5567.781675 kJ/mol
# Density = 1.796643 g / cm^3
# Si number density = 18.007418 Si / 1000 Ang^3
#
#
#
# Elastic Constant Matrix: (Units=GPa)
#
#
# Indices 1 2 3 4 5 6 
#
# 1 27.0546 13.5805 25.3540 0.0000 -5.0809 0.0000
# 2 13.5805 74.9319 46.0081 0.0000 0.6258 0.0000
# 3 25.3540 46.0081 143.3076 0.0000 -11.6368 0.0000
# 4 0.0000 0.0000 0.0000 -2.5978 0.0000 5.1780
# 5 -5.0809 0.6258 -11.6368 0.0000 28.5506 0.0000
# 6 0.0000 0.0000 0.0000 5.1780 0.0000 5.3275
#
#
#
# Elastic Compliance Matrix: (Units=1/GPa)
#
#
# Indices 1 2 3 4 5 6 
#
# 1 0.046191 -0.004597 -0.006227 0.000000 0.005783 0.000000
# 2 -0.004597 0.017272 -0.004994 0.000000 -0.003232 0.000000
# 3 -0.006227 -0.004994 0.009931 0.000000 0.003049 0.000000
# 4 0.000000 0.000000 0.000000 -0.131052 0.000000 0.127375
# 5 0.005783 -0.003232 0.003049 0.000000 0.037368 0.000000
# 6 0.000000 0.000000 0.000000 0.127375 0.000000 0.063905
#
#
# Mechanical properties :
#
#
# Convention : Reuss Voigt Hill
#
# Bulk Modulus (GPa) = 23.94733 46.13102 35.03918
# Shear Modulus (GPa) = 56.07290 16.94615 36.50953
#
# Velocity S-wave (km/s) = 5.58627 3.07101 4.50763
# Velocity P-wave (km/s) = 7.41188 6.18451 6.82584
#
# Compressibility (1/GPa) = 0.04175831
#
# Stress axis : x y z
#
# Youngs Moduli (GPa) = 21.64914 57.89702 100.69859
#
# Poissons Ratio (x) = 0.26613 0.62703
# Poissons Ratio (y) = 0.09951 0.50292
# Poissons Ratio (z) = 0.13481 0.28916
#
# Static dielectric constant tensor:
#      x y z
#    x 1.628220 0.000000 -0.035730 
#    y 0.000000 1.614710 0.000000 
#    z -0.035730 0.000000 1.649770 
# 
# From -- ./inp_files/49014.got.cif
#   From: 2010.05.17/outbox.cif.g08.bks.cpg/sg10_25_cif.got.tgz:49014.got - 2010.06.03 11:33:40.
