data_PCOD9143176
_publ_section_title
;
Structure prediction by ZEFSAII (Michael W. Deem and Ramdas Pophale) SiO2 
 PCOD9143176
Probable space group: P 2/M
;
_chemical_formula_sum "Si O2"
_cell_formula_units_Z 28
_cell_length_a 9.799417
_cell_length_b 13.705603
_cell_length_c 18.595429
_cell_angle_alpha 90.000000
_cell_angle_beta 44.593871
_cell_angle_gamma 90.000000
_cell_volume 1753.433348
_symmetry_space_group_name_H-M "P 2/M"
_symmetry_group_IT_number 10
_symmetry_cell_setting 'monoclinic'
loop_
_space_group_symop_operation_xyz
x,y,z
-x,y,-z
-x,-y,-z
x,-y,z
loop_
_atom_site_type_symbol
_atom_site_label
_atom_site_fract_x
_atom_site_fract_y
_atom_site_fract_z
Si Si1 0.815555 0.382069 0.619489
Si Si2 0.607660 0.612880 0.254809
Si Si3 0.272844 0.889864 0.107485
Si Si4 0.771963 0.693844 0.794197
Si Si5 0.340573 0.315864 0.921514
Si Si6 0.193920 0.109908 0.974764
Si Si7 0.988648 0.615329 0.846992
O O1 0.801094 0.500000 0.637514
O O2 0.612413 0.348560 0.659053
O O3 0.830220 0.329133 0.690770
O O4 0.000000 0.364633 0.500000
O O5 0.594111 0.500000 0.281569
O O6 0.663479 0.622659 0.149787
O O7 0.792351 0.655937 0.227193
O O8 0.216069 0.805725 0.183830
O O9 0.250594 0.000000 0.143479
O O10 0.500000 0.876765 0.000000
O O11 0.160179 0.882053 0.073539
O O12 0.543916 0.664824 0.884754
O O13 0.900370 0.634126 0.802080
O O14 0.330799 0.201063 0.904990
O O15 0.157846 0.338267 0.040166
O O16 0.273806 0.000000 0.933399
O O17 0.000000 0.118923 0.000000
O O18 0.993974 0.500000 0.859933
#
# Coordination Sequence:
#
# PCOD9143176 Si02
#       7
#     4   4   4   4   4   4   4
#     4   9  19  37  56  70  90 122 161 207 252 292
#     4   9  19  32  47  68  94 128 162 190 235 289
#     4  10  18  31  47  68 101 134 162 193 233 281
#     4  11  20  31  47  72  94 126 167 199 238 283
#     4  11  19  29  44  65 100 138 160 186 226 282
#     4  10  19  29  43  65  95 133 169 194 221 267
#     4  11  20  29  43  69 101 127 156 194 232 281
#
# _framework density 15.968671000000001
#
# number of rings (size 3 to 8) (size 9 to 14) (size 15 to 20)
#    0.000    1.857    2.857    2.571    0.000    3.429 
#    0.000    0.714    0.000    3.857    0.000    0.000 
#    0.000    1.143    0.000    0.000    0.000    0.000 
#
# Total GULP energy -156009.122702 kJ/mol
# GULP energy per Si atom -5571.754382 kJ/mol
# Density = 1.593233 g / cm^3
# Si number density = 15.968671 Si / 1000 Ang^3
#
#
#
# Elastic Constant Matrix: (Units=GPa)
#
#
# Indices 1 2 3 4 5 6 
#
# 1 135.3368 13.0248 39.3905 0.0000 -11.7053 0.0000
# 2 13.0248 52.4177 21.8311 0.0000 -0.8510 0.0000
# 3 39.3905 21.8311 70.6435 0.0000 -16.5325 0.0000
# 4 0.0000 0.0000 0.0000 12.9246 0.0000 6.1704
# 5 -11.7053 -0.8510 -16.5325 0.0000 11.1433 0.0000
# 6 0.0000 0.0000 0.0000 6.1704 0.0000 19.0008
#
#
#
# Elastic Compliance Matrix: (Units=1/GPa)
#
#
# Indices 1 2 3 4 5 6 
#
# 1 0.008897 -0.000475 -0.004037 0.000000 0.003320 0.000000
# 2 -0.000475 0.023185 -0.010114 0.000000 -0.013734 0.000000
# 3 -0.004037 -0.010114 0.028124 0.000000 0.036712 0.000000
# 4 0.000000 0.000000 0.000000 0.091569 0.000000 -0.029737
# 5 0.003320 -0.013734 0.036712 0.000000 0.146646 0.000000
# 6 0.000000 0.000000 0.000000 -0.029737 0.000000 0.062286
#
#
# Mechanical properties :
#
#
# Convention : Reuss Voigt Hill
#
# Bulk Modulus (GPa) = 32.30722 45.21008 38.75865
# Shear Modulus (GPa) = 12.49134 20.89051 16.69092
#
# Velocity S-wave (km/s) = 2.79989 3.62085 3.23651
# Velocity P-wave (km/s) = 5.54329 6.77156 6.18797
#
# Compressibility (1/GPa) = 0.03095284
#
# Stress axis : x y z
#
# Youngs Moduli (GPa) = 112.39936 43.13132 35.55705
#
# Poissons Ratio (x) = 0.02051 0.14354
# Poissons Ratio (y) = 0.05344 0.35962
# Poissons Ratio (z) = 0.45375 0.43623
#
# Static dielectric constant tensor:
#      x y z
#    x 1.586680 0.000000 -0.012790 
#    y 0.000000 1.571850 0.000000 
#    z -0.012790 0.000000 1.490620 
# 
# From -- ./inp_files/28958.got.cif
#   From: 2010.05.17/outbox.cif.g08.bks.cpg/sg10_15_cif.got.tgz:28958.got - 2010.06.03 11:33:40.
