data_PCOD9143007
_publ_section_title
;
Structure prediction by ZEFSAII (Michael W. Deem and Ramdas Pophale) SiO2 
 PCOD9143007
Probable space group: P 2/M
;
_chemical_formula_sum "Si O2"
_cell_formula_units_Z 28
_cell_length_a 7.309406
_cell_length_b 17.423142
_cell_length_c 14.596726
_cell_angle_alpha 90.000000
_cell_angle_beta 42.390123
_cell_angle_gamma 90.000000
_cell_volume 1253.247109
_symmetry_space_group_name_H-M "P 2/M"
_symmetry_group_IT_number 10
_symmetry_cell_setting 'monoclinic'
loop_
_space_group_symop_operation_xyz
x,y,z
-x,y,-z
-x,-y,-z
x,-y,z
loop_
_atom_site_type_symbol
_atom_site_label
_atom_site_fract_x
_atom_site_fract_y
_atom_site_fract_z
Si Si1 0.024699 0.837993 0.702278
Si Si2 0.829740 0.585835 0.875000
Si Si3 0.132799 0.000000 0.596709
Si Si4 0.461770 0.833210 0.793272
Si Si5 0.451054 0.000000 0.292378
Si Si6 0.207001 0.414998 0.559364
Si Si7 0.786047 0.252129 0.950684
Si Si8 0.261447 0.745227 0.460386
O O1 0.741668 0.838333 0.749505
O O2 0.956663 0.806473 0.826480
O O3 0.143967 0.922752 0.651028
O O4 0.218352 0.779608 0.576567
O O5 0.926376 0.500000 0.867603
O O6 0.902510 0.661315 0.906574
O O7 0.968623 0.599495 0.723271
O O8 0.500000 0.581832 0.000000
O O9 0.352343 0.000000 0.434200
O O10 0.837053 0.000000 0.656269
O O11 0.399385 0.921098 0.789692
O O12 0.506660 0.783410 0.685188
O O13 0.272730 0.785512 0.930676
O O14 0.500000 0.416674 0.500000
O O15 0.158762 0.500000 0.538603
O O16 0.242851 0.345914 0.475515
O O17 0.500000 0.258683 0.000000
O O18 0.000000 0.771497 0.500000
#
# Coordination Sequence:
#
# PCOD9143007 Si02
#       8
#     4   4   2   4   2   4   4   4
#     4   9  15  25  40  65  96 134 177 218 264 315
#     4   9  17  30  51  75 100 136 180 217 265 326
#     4   9  14  21  37  59  95 140 173 213 268 325
#     4   9  17  25  41  67 102 135 170 222 273 318
#     4   9  14  23  35  59  99 139 168 205 281 331
#     4  10  21  37  56  80 111 145 180 224 275 325
#     4   9  16  26  41  66  99 133 172 219 263 313
#     4  10  18  30  50  77 105 136 178 226 270 313
#
# _framework density 22.341961999999999
#
# number of rings (size 3 to 8) (size 9 to 14) (size 15 to 20)
#    0.000    2.714    2.857    0.000    2.000    0.857 
#    0.000    3.571    0.000    0.857    0.000    5.000 
#    0.000    1.143    0.000    0.000    0.000    0.000 
#
# Total GULP energy -156267.674246 kJ/mol
# GULP energy per Si atom -5580.988366 kJ/mol
# Density = 2.229111 g / cm^3
# Si number density = 22.341962 Si / 1000 Ang^3
#
#
#
# Elastic Constant Matrix: (Units=GPa)
#
#
# Indices 1 2 3 4 5 6 
#
# 1 28.9564 -9.8397 4.4821 0.0000 -33.7258 0.0000
# 2 -9.8397 230.9032 90.8611 0.0000 26.0483 0.0000
# 3 4.4821 90.8611 114.3069 0.0000 26.2985 0.0000
# 4 0.0000 0.0000 0.0000 11.4489 0.0000 25.0912
# 5 -33.7258 26.0483 26.2985 0.0000 17.8748 0.0000
# 6 0.0000 0.0000 0.0000 25.0912 0.0000 -0.4321
#
#
#
# Elastic Compliance Matrix: (Units=1/GPa)
#
#
# Indices 1 2 3 4 5 6 
#
# 1 -0.013623 0.000150 0.009643 0.000000 -0.040110 0.000000
# 2 0.000150 0.006391 -0.004547 0.000000 -0.002340 0.000000
# 3 0.009643 -0.004547 0.009485 0.000000 0.010867 0.000000
# 4 0.000000 0.000000 0.000000 0.000681 0.000000 0.039544
# 5 -0.040110 -0.002340 0.010867 0.000000 -0.032310 0.000000
# 6 0.000000 0.000000 0.000000 0.039544 0.000000 -0.018043
#
#
# Mechanical properties :
#
#
# Convention : Reuss Voigt Hill
#
# Bulk Modulus (GPa) = 78.47222 60.57482 69.52352
# Shear Modulus (GPa) = -93.17171 25.02252 -34.07459
#
# Velocity S-wave (km/s) = -6.46476 3.35024 -3.90954
# Velocity P-wave (km/s) = 4.53041 6.49129 3.28727
#
# Compressibility (1/GPa) = 0.01274336
#
# Stress axis : x y z
#
# Youngs Moduli (GPa) = -73.40442 156.48135 105.43335
#
# Poissons Ratio (x) = -0.02341 -1.01672
# Poissons Ratio (y) = 0.01098 0.47942
# Poissons Ratio (z) = 0.70786 0.71155
#
# Static dielectric constant tensor:
#      x y z
#    x 1.898520 0.000000 -0.060360 
#    y 0.000000 1.817240 0.000000 
#    z -0.060360 0.000000 1.820380 
# 
# From -- ./inp_files/77086.got.cif
#   From: 2010.05.17/outbox.cif.g08.bks.cpg/sg10_39_cif.got.tgz:77086.got - 2010.06.03 11:33:40.
