data_PCOD9143091
_publ_section_title
;
Structure prediction by ZEFSAII (Michael W. Deem and Ramdas Pophale) SiO2 
 PCOD9143091
Probable space group: P 2/M
;
_chemical_formula_sum "Si O2"
_cell_formula_units_Z 26
_cell_length_a 27.174529
_cell_length_b 8.891607
_cell_length_c 10.974973
_cell_angle_alpha 90.000000
_cell_angle_beta 25.078600
_cell_angle_gamma 90.000000
_cell_volume 1124.007917
_symmetry_space_group_name_H-M "P 2/M"
_symmetry_group_IT_number 10
_symmetry_cell_setting 'monoclinic'
loop_
_space_group_symop_operation_xyz
x,y,z
-x,y,-z
-x,-y,-z
x,-y,z
loop_
_atom_site_type_symbol
_atom_site_label
_atom_site_fract_x
_atom_site_fract_y
_atom_site_fract_z
Si Si1 0.615899 0.671912 0.153991
Si Si2 0.500000 0.765245 0.000000
Si Si3 0.083313 0.175825 0.099205
Si Si4 0.231327 0.677182 0.969485
Si Si5 0.447947 0.837935 0.380513
Si Si6 0.091709 0.671308 0.681897
Si Si7 0.734624 0.178425 0.534043
O O1 0.500000 0.671084 0.500000
O O2 0.628408 0.500000 0.082984
O O3 0.726913 0.715325 0.986601
O O4 0.572426 0.788085 0.151764
O O5 0.458009 0.847709 0.214542
O O6 0.374395 0.707336 0.237557
O O7 0.131585 0.237636 0.119149
O O8 0.183553 0.191464 0.769728
O O9 0.056927 0.000000 0.169103
O O10 0.974685 0.264260 0.286365
O O11 0.208496 0.500000 0.017548
O O12 0.349656 0.716896 0.630880
O O13 0.413070 0.000000 0.511226
O O14 0.128491 0.500000 0.577717
O O15 0.192969 0.773529 0.509739
O O16 0.000000 0.669026 0.000000
O O17 0.702308 0.000000 0.615970
#
# Coordination Sequence:
#
# PCOD9143091 Si02
#       7
#     4   2   4   4   4   4   4
#     4   8  17  33  48  66  96 132 166 209 262 305
#     4  12  23  36  51  74 109 146 175 208 251 296
#     4  10  18  30  52  77  99 129 171 212 254 306
#     4  10  19  32  50  72 102 133 165 212 265 305
#     4  11  20  32  49  70  99 137 177 211 248 300
#     4   9  18  32  48  69  99 130 166 213 260 300
#     4  10  19  33  49  67  99 139 175 206 247 300
#
# _framework density 23.131511
#
# number of rings (size 3 to 8) (size 9 to 14) (size 15 to 20)
#    0.000    2.154    1.538    4.154    0.000    5.846 
#    0.000    3.462    0.000    0.000    0.000    1.077 
#    0.000    7.385    0.000    0.000    0.000    0.000 
#
# Total GULP energy -144990.581019 kJ/mol
# GULP energy per Si atom -5576.560808 kJ/mol
# Density = 2.307886 g / cm^3
# Si number density = 23.131511 Si / 1000 Ang^3
#
#
#
# Elastic Constant Matrix: (Units=GPa)
#
#
# Indices 1 2 3 4 5 6 
#
# 1 158.5285 52.5104 2.4952 0.0000 -50.2029 0.0000
# 2 52.5104 61.9181 0.7980 0.0000 -15.6960 0.0000
# 3 2.4952 0.7980 69.3592 0.0000 -18.6262 0.0000
# 4 0.0000 0.0000 0.0000 -2.9616 0.0000 -12.5662
# 5 -50.2029 -15.6960 -18.6262 0.0000 28.8170 0.0000
# 6 0.0000 0.0000 0.0000 -12.5662 0.0000 32.2547
#
#
#
# Elastic Compliance Matrix: (Units=1/GPa)
#
#
# Indices 1 2 3 4 5 6 
#
# 1 0.021061 -0.008239 0.009662 0.000000 0.038449 0.000000
# 2 -0.008239 0.022511 -0.000634 0.000000 -0.002502 0.000000
# 3 0.009662 -0.000634 0.022392 0.000000 0.030961 0.000000
# 4 0.000000 0.000000 0.000000 -0.127270 0.000000 -0.049583
# 5 0.038449 -0.002502 0.030961 0.000000 0.120333 0.000000
# 6 0.000000 0.000000 0.000000 -0.049583 0.000000 0.011686
#
#
# Mechanical properties :
#
#
# Convention : Reuss Voigt Hill
#
# Bulk Modulus (GPa) = 14.80552 44.60144 29.70348
# Shear Modulus (GPa) = 54.55587 27.22215 40.88901
#
# Velocity S-wave (km/s) = 4.86172 3.43424 4.20893
# Velocity P-wave (km/s) = 6.15870 5.92021 6.04063
#
# Compressibility (1/GPa) = 0.06754237
#
# Stress axis : x y z
#
# Youngs Moduli (GPa) = 47.48151 44.42194 44.65913
#
# Poissons Ratio (x) = 0.36598 -0.43151
# Poissons Ratio (y) = 0.39119 0.02833
# Poissons Ratio (z) = -0.45878 0.02818
#
# Static dielectric constant tensor:
#      x y z
#    x 1.890860 0.000000 -0.001160 
#    y 0.000000 1.802970 0.000000 
#    z -0.001160 0.000000 1.934840 
# 
# From -- ./inp_files/57383.got.cif
#   From: 2010.05.17/outbox.cif.g08.bks.cpg/sg10_29_cif.got.tgz:57383.got - 2010.06.03 11:33:40.
