data_PCOD9143154
_publ_section_title
;
Structure prediction by ZEFSAII (Michael W. Deem and Ramdas Pophale) SiO2 
 PCOD9143154
Probable space group: P 2/M
;
_chemical_formula_sum "Si O2"
_cell_formula_units_Z 20
_cell_length_a 15.982937
_cell_length_b 7.798664
_cell_length_c 23.002120
_cell_angle_alpha 90.000000
_cell_angle_beta 156.786664
_cell_angle_gamma 90.000000
_cell_volume 1130.088931
_symmetry_space_group_name_H-M "P 2/M"
_symmetry_group_IT_number 10
_symmetry_cell_setting 'monoclinic'
loop_
_space_group_symop_operation_xyz
x,y,z
-x,y,-z
-x,-y,-z
x,-y,z
loop_
_atom_site_type_symbol
_atom_site_label
_atom_site_fract_x
_atom_site_fract_y
_atom_site_fract_z
Si Si1 0.774924 0.292117 0.330268
Si Si2 0.266927 0.292245 0.829957
Si Si3 0.320150 0.804954 0.081101
Si Si4 0.986963 0.805904 0.222132
Si Si5 0.938617 0.500000 0.028242
Si Si6 0.752649 0.500000 0.665203
O O1 0.763270 0.500000 0.324423
O O2 0.763536 0.238337 0.255784
O O3 0.570281 0.225352 0.233935
O O4 0.000000 0.238839 0.500000
O O5 0.258040 0.500000 0.826769
O O6 0.094050 0.223400 0.764498
O O7 0.500000 0.238520 0.000000
O O8 0.278122 0.000000 0.072927
O O9 0.214969 0.781680 0.949932
O O10 0.203713 0.665813 0.046600
O O11 0.155036 0.666127 0.308854
O O12 0.063966 0.000000 0.263795
O O13 0.139831 0.500000 0.201546
O O14 0.000000 0.500000 0.000000
O O15 0.500000 0.500000 0.500000
#
# Coordination Sequence:
#
# PCOD9143154 Si02
#       6
#     4   4   4   4   2   2
#     4  10  20  34  53  83 120 156 183 221 273 325
#     4  10  18  30  56  84 113 148 190 224 257 324
#     4  10  20  36  60  84 111 148 189 225 271 333
#     4  10  20  35  59  87 112 145 187 227 272 330
#     4  10  22  42  64  82 106 142 188 236 283 330
#     4  10  22  42  62  83 110 142 180 235 293 332
#
# _framework density 17.697721999999999
#
# number of rings (size 3 to 8) (size 9 to 14) (size 15 to 20)
#    0.000    2.000    4.000    0.000    0.000    2.400 
#    3.600    0.000    0.000    0.000    0.000    0.000 
#    0.000    0.000    0.000    0.000    0.000    0.000 
#
# Total GULP energy -111640.893035 kJ/mol
# GULP energy per Si atom -5582.044652 kJ/mol
# Density = 1.765744 g / cm^3
# Si number density = 17.697722 Si / 1000 Ang^3
#
#
#
# Elastic Constant Matrix: (Units=GPa)
#
#
# Indices 1 2 3 4 5 6 
#
# 1 134.5085 55.7737 59.6213 0.0000 5.3489 0.0000
# 2 55.7737 93.7836 59.5558 0.0000 9.9406 0.0000
# 3 59.6213 59.5558 142.8809 0.0000 11.2726 0.0000
# 4 0.0000 0.0000 0.0000 5.1861 0.0000 -8.7251
# 5 5.3489 9.9406 11.2726 0.0000 23.5587 0.0000
# 6 0.0000 0.0000 0.0000 -8.7251 0.0000 1.4702
#
#
#
# Elastic Compliance Matrix: (Units=1/GPa)
#
#
# Indices 1 2 3 4 5 6 
#
# 1 0.010457 -0.004750 -0.002447 0.000000 0.000801 0.000000
# 2 -0.004750 0.016918 -0.004772 0.000000 -0.003777 0.000000
# 3 -0.002447 -0.004772 0.010191 0.000000 -0.002307 0.000000
# 4 0.000000 0.000000 0.000000 -0.021462 0.000000 -0.127368
# 5 0.000801 -0.003777 -0.002307 0.000000 0.044963 0.000000
# 6 0.000000 0.000000 0.000000 -0.127368 0.000000 -0.075706
#
#
# Mechanical properties :
#
#
# Convention : Reuss Voigt Hill
#
# Bulk Modulus (GPa) = 73.37332 80.11941 76.74636
# Shear Modulus (GPa) = 361.27057 19.12449 190.19753
#
# Velocity S-wave (km/s) = 14.30304 3.29084 10.37802
# Velocity P-wave (km/s) = 17.72903 7.73362 13.67712
#
# Compressibility (1/GPa) = 0.01362893
#
# Stress axis : x y z
#
# Youngs Moduli (GPa) = 95.63315 59.10794 98.12711
#
# Poissons Ratio (x) = 0.28075 0.24009
# Poissons Ratio (y) = 0.45423 0.46825
# Poissons Ratio (z) = 0.23399 0.28206
#
# Static dielectric constant tensor:
#      x y z
#    x 1.574960 0.000000 -0.017240 
#    y 0.000000 1.627510 0.000000 
#    z -0.017240 0.000000 1.582130 
# 
# From -- ./inp_files/31456.got.cif
#   From: 2010.05.17/outbox.cif.g08.bks.cpg/sg10_16_cif.got.tgz:31456.got - 2010.06.03 11:33:40.
