data_PCOD9143778
_publ_section_title
;
Structure prediction by ZEFSAII (Michael W. Deem and Ramdas Pophale) SiO2 
 PCOD9143778
Probable space group: P 2/M
;
_chemical_formula_sum "Si O2"
_cell_formula_units_Z 32
_cell_length_a 17.398857
_cell_length_b 16.050788
_cell_length_c 11.959907
_cell_angle_alpha 90.000000
_cell_angle_beta 24.989342
_cell_angle_gamma 90.000000
_cell_volume 1410.976727
_symmetry_space_group_name_H-M "P 2/M"
_symmetry_group_IT_number 10
_symmetry_cell_setting 'monoclinic'
loop_
_space_group_symop_operation_xyz
x,y,z
-x,y,-z
-x,-y,-z
x,-y,z
loop_
_atom_site_type_symbol
_atom_site_label
_atom_site_fract_x
_atom_site_fract_y
_atom_site_fract_z
Si Si1 0.279186 0.405824 0.024025
Si Si2 0.723716 0.593881 0.433133
Si Si3 0.716896 0.257641 0.832191
Si Si4 0.720424 0.315245 0.207282
Si Si5 0.846502 0.127280 0.041883
Si Si6 0.182190 0.909317 0.182979
Si Si7 0.705456 0.744043 0.602479
Si Si8 0.250420 0.909153 0.593692
O O1 0.213936 0.500000 0.124627
O O2 0.501875 0.408750 0.733633
O O3 0.236652 0.367277 0.959641
O O4 0.207745 0.339871 0.208685
O O5 0.790336 0.500000 0.363262
O O6 0.765243 0.629700 0.256133
O O7 0.791477 0.664202 0.429512
O O8 0.729614 0.176033 0.891659
O O9 0.791985 0.238481 0.609438
O O10 0.504492 0.277232 0.102068
O O11 0.500000 0.298570 0.500000
O O12 0.823047 0.227068 0.072994
O O13 0.831394 0.097372 0.934006
O O14 0.039246 0.095844 0.834500
O O15 0.717939 0.097986 0.314330
O O16 0.000000 0.910441 0.500000
O O17 0.269342 0.000000 0.091436
O O18 0.689087 0.824876 0.546068
O O19 0.317601 0.000000 0.467709
#
# Coordination Sequence:
#
# PCOD9143778 Si02
#       8
#     4   4   4   4   4   4   4   4
#     4   9  17  31  54  84 115 147 183 224 276 332
#     4   9  17  31  54  84 115 146 183 228 274 329
#     4  10  21  36  56  84 114 149 190 232 276 328
#     4  10  18  32  57  87 116 145 180 228 283 331
#     4  11  21  37  60  83 110 144 185 229 278 336
#     4  11  23  39  59  83 110 145 187 230 278 335
#     4  10  21  37  56  82 115 150 189 232 281 323
#     4  11  23  39  59  82 110 147 189 230 278 337
#
# _framework density 22.679324999999999
#
# number of rings (size 3 to 8) (size 9 to 14) (size 15 to 20)
#    0.000    1.875    2.500    2.625    0.000    4.000 
#    0.000    3.750    0.000    6.750    0.000    0.000 
#    0.000    0.000    0.000    0.000    0.000    0.000 
#
# Total GULP energy -178520.834552 kJ/mol
# GULP energy per Si atom -5578.776080 kJ/mol
# Density = 2.262771 g / cm^3
# Si number density = 22.679325 Si / 1000 Ang^3
#
#
#
# Elastic Constant Matrix: (Units=GPa)
#
#
# Indices 1 2 3 4 5 6 
#
# 1 122.1383 70.6634 33.7299 0.0000 45.4688 0.0000
# 2 70.6634 232.9323 37.5075 0.0000 27.5454 0.0000
# 3 33.7299 37.5075 54.3306 0.0000 17.6378 0.0000
# 4 0.0000 0.0000 0.0000 0.9553 0.0000 -20.7751
# 5 45.4688 27.5454 17.6378 0.0000 34.4319 0.0000
# 6 0.0000 0.0000 0.0000 -20.7751 0.0000 1.0093
#
#
#
# Elastic Compliance Matrix: (Units=1/GPa)
#
#
# Indices 1 2 3 4 5 6 
#
# 1 0.018022 -0.002619 -0.002800 0.000000 -0.020268 0.000000
# 2 -0.002619 0.005411 -0.002191 0.000000 0.000253 0.000000
# 3 -0.002800 -0.002191 0.023854 0.000000 -0.006769 0.000000
# 4 0.000000 0.000000 0.000000 -0.002344 0.000000 -0.048242
# 5 -0.020268 0.000253 -0.006769 0.000000 0.059073 0.000000
# 6 0.000000 0.000000 0.000000 -0.048242 0.000000 -0.002218
#
#
# Mechanical properties :
#
#
# Convention : Reuss Voigt Hill
#
# Bulk Modulus (GPa) = 31.18648 77.02255 54.10452
# Shear Modulus (GPa) = 39.15210 25.11267 32.13239
#
# Velocity S-wave (km/s) = 4.15943 3.33121 3.76814
# Velocity P-wave (km/s) = 6.07031 6.98794 6.54523
#
# Compressibility (1/GPa) = 0.03206517
#
# Stress axis : x y z
#
# Youngs Moduli (GPa) = 55.48920 184.82092 41.92113
#
# Poissons Ratio (x) = 0.48412 0.11738
# Poissons Ratio (y) = 0.14535 0.09186
# Poissons Ratio (z) = 0.15537 0.40498
#
# Static dielectric constant tensor:
#      x y z
#    x 1.848000 0.000000 -0.017150 
#    y 0.000000 1.801710 0.000000 
#    z -0.017150 0.000000 1.960430 
# 
# From -- ./inp_files/53984.got.cif
#   From: 2010.05.17/outbox.cif.g08.bks.cpg/sg10_27_cif.got.tgz:53984.got - 2010.06.03 11:33:40.
