data_PCOD9143731
_publ_section_title
;
Structure prediction by ZEFSAII (Michael W. Deem and Ramdas Pophale) SiO2 
 PCOD9143731
Probable space group: P 2/M
;
_chemical_formula_sum "Si O2"
_cell_formula_units_Z 20
_cell_length_a 10.176675
_cell_length_b 7.559257
_cell_length_c 16.352129
_cell_angle_alpha 90.000000
_cell_angle_beta 125.077715
_cell_angle_gamma 90.000000
_cell_volume 1029.463074
_symmetry_space_group_name_H-M "P 2/M"
_symmetry_group_IT_number 10
_symmetry_cell_setting 'monoclinic'
loop_
_space_group_symop_operation_xyz
x,y,z
-x,y,-z
-x,-y,-z
x,-y,z
loop_
_atom_site_type_symbol
_atom_site_label
_atom_site_fract_x
_atom_site_fract_y
_atom_site_fract_z
Si Si1 0.512425 0.703895 0.740819
Si Si2 0.007526 0.201838 0.295791
Si Si3 0.153109 0.298597 0.603529
Si Si4 0.358554 0.215388 0.388300
Si Si5 0.728590 0.000000 0.888382
Si Si6 0.034395 0.000000 0.876609
O O1 0.501523 0.500000 0.765175
O O2 0.332022 0.777408 0.660614
O O3 0.602522 0.711136 0.686452
O O4 0.615055 0.829917 0.836124
O O5 0.892126 0.298260 0.316845
O O6 0.959671 0.166655 0.184083
O O7 0.186611 0.276347 0.359524
O O8 0.015495 0.000000 0.331696
O O9 0.168187 0.500000 0.577705
O O10 0.000000 0.220717 0.500000
O O11 0.500000 0.263135 0.500000
O O12 0.351642 0.000000 0.379534
O O13 0.866573 0.000000 0.866586
O O14 0.824392 0.000000 0.007463
#
# Coordination Sequence:
#
# PCOD9143731 Si02
#       6
#     4   4   4   4   2   2
#     4  11  22  37  58  87 113 152 199 228 287 347
#     4   9  18  35  53  85 108 145 197 224 282 346
#     4  10  22  37  53  82 125 159 185 228 282 341
#     4  10  18  32  55  84 117 148 188 236 281 339
#     4  11  20  43  64  81 121 145 183 265 292 331
#     4   9  20  39  64  85 109 149 191 237 312 341
#
# _framework density 19.427603000000001
#
# number of rings (size 3 to 8) (size 9 to 14) (size 15 to 20)
#    0.600    1.400    3.000    1.200    1.400    1.600 
#    0.000    5.000    0.000    2.400    0.000    0.000 
#    0.000    0.000    0.000    0.000    0.000    0.000 
#
# Total GULP energy -111472.673580 kJ/mol
# GULP energy per Si atom -5573.633679 kJ/mol
# Density = 1.938339 g / cm^3
# Si number density = 19.427603 Si / 1000 Ang^3
#
#
#
# Elastic Constant Matrix: (Units=GPa)
#
#
# Indices 1 2 3 4 5 6 
#
# 1 42.8660 3.8136 -15.7547 0.0000 11.0521 0.0000
# 2 3.8136 68.4802 28.9543 0.0000 9.4287 0.0000
# 3 -15.7547 28.9543 100.5150 0.0000 9.7439 0.0000
# 4 0.0000 0.0000 0.0000 3.6880 0.0000 -5.9750
# 5 11.0521 9.4287 9.7439 0.0000 33.6710 0.0000
# 6 0.0000 0.0000 0.0000 -5.9750 0.0000 23.6059
#
#
#
# Elastic Compliance Matrix: (Units=1/GPa)
#
#
# Indices 1 2 3 4 5 6 
#
# 1 0.028581 -0.002822 0.006302 0.000000 -0.010415 0.000000
# 2 -0.002822 0.017286 -0.005188 0.000000 -0.002413 0.000000
# 3 0.006302 -0.005188 0.012851 0.000000 -0.004335 0.000000
# 4 0.000000 0.000000 0.000000 0.459643 0.000000 0.116343
# 5 -0.010415 -0.002413 -0.004335 0.000000 0.035048 0.000000
# 6 0.000000 0.000000 0.000000 0.116343 0.000000 0.071811
#
#
# Mechanical properties :
#
#
# Convention : Reuss Voigt Hill
#
# Bulk Modulus (GPa) = 18.08234 27.32084 22.70159
# Shear Modulus (GPa) = 7.72715 25.18284 16.45499
#
# Velocity S-wave (km/s) = 1.99651 3.60424 2.91347
# Velocity P-wave (km/s) = 3.82655 5.60483 4.79878
#
# Compressibility (1/GPa) = 0.05530257
#
# Stress axis : x y z
#
# Youngs Moduli (GPa) = 34.98798 57.85173 77.81359
#
# Poissons Ratio (x) = 0.16328 -0.49042
# Poissons Ratio (y) = 0.09875 0.40368
# Poissons Ratio (z) = -0.22051 0.30012
#
# Static dielectric constant tensor:
#      x y z
#    x 1.668680 0.000000 0.008760 
#    y 0.000000 1.695830 0.000000 
#    z 0.008760 0.000000 1.670760 
# 
# From -- ./inp_files/31440.got.cif
#   From: 2010.05.17/outbox.cif.g08.bks.cpg/sg10_16_cif.got.tgz:31440.got - 2010.06.03 11:33:40.
