data_PCOD9143252
_publ_section_title
;
Structure prediction by ZEFSAII (Michael W. Deem and Ramdas Pophale) SiO2 
 PCOD9143252
Probable space group: P 2/M
;
_chemical_formula_sum "Si O2"
_cell_formula_units_Z 24
_cell_length_a 6.969117
_cell_length_b 16.296343
_cell_length_c 10.766967
_cell_angle_alpha 90.000000
_cell_angle_beta 117.595051
_cell_angle_gamma 90.000000
_cell_volume 1083.713300
_symmetry_space_group_name_H-M "P 2/M"
_symmetry_group_IT_number 10
_symmetry_cell_setting 'monoclinic'
loop_
_space_group_symop_operation_xyz
x,y,z
-x,y,-z
-x,-y,-z
x,-y,z
loop_
_atom_site_type_symbol
_atom_site_label
_atom_site_fract_x
_atom_site_fract_y
_atom_site_fract_z
Si Si1 0.126675 0.000000 0.406679
Si Si2 0.194030 0.812230 0.453876
Si Si3 0.249872 0.828654 0.027183
Si Si4 0.841765 0.000000 0.071923
Si Si5 0.099952 0.296489 0.795470
Si Si6 0.702072 0.405731 0.961523
Si Si7 0.533963 0.720524 0.273423
O O1 0.238681 0.091294 0.435186
O O2 0.000000 0.000000 0.500000
O O3 0.969039 0.000000 0.239603
O O4 0.382201 0.758997 0.573665
O O5 0.000000 0.816715 0.500000
O O6 0.102326 0.757355 0.311717
O O7 0.421657 0.800282 0.178359
O O8 0.286618 0.917764 0.986283
O O9 0.252736 0.766519 0.914792
O O10 0.000000 0.822607 0.000000
O O11 0.000000 0.000000 0.000000
O O12 0.242441 0.316005 0.717642
O O13 0.099497 0.369934 0.895287
O O14 0.733337 0.500000 0.936990
O O15 0.634969 0.349677 0.823151
O O16 0.500000 0.401785 0.000000
#
# Coordination Sequence:
#
# PCOD9143252 Si02
#       7
#     2   4   4   2   4   4   4
#     4  10  18  31  50  75 104 139 175 221 267 300
#     4   9  17  29  48  69 100 129 167 210 257 298
#     4  10  19  32  49  67  98 131 171 207 256 303
#     4  10  20  33  51  70 103 144 176 218 264 311
#     4   9  16  31  50  69  95 128 164 210 252 306
#     4   8  14  26  46  71  99 126 159 205 259 310
#     4   9  18  31  49  74  95 128 170 212 254 305
#
# _framework density 22.146080999999999
#
# number of rings (size 3 to 8) (size 9 to 14) (size 15 to 20)
#    0.000    2.833    1.667    1.500    0.000    0.667 
#    0.000    4.167    0.000   15.000    0.000    0.000 
#    0.000   10.667    0.000    0.000    0.000    0.000 
#
# Total GULP energy -133614.361866 kJ/mol
# GULP energy per Si atom -5567.265078 kJ/mol
# Density = 2.209568 g / cm^3
# Si number density = 22.146081 Si / 1000 Ang^3
#
#
#
# Elastic Constant Matrix: (Units=GPa)
#
#
# Indices 1 2 3 4 5 6 
#
# 1 88.0977 0.9891 26.0085 0.0000 5.9956 0.0000
# 2 0.9891 180.1848 81.9703 0.0000 -3.3896 0.0000
# 3 26.0085 81.9703 183.2607 0.0000 9.6703 0.0000
# 4 0.0000 0.0000 0.0000 34.7299 0.0000 4.6010
# 5 5.9956 -3.3896 9.6703 0.0000 23.4824 0.0000
# 6 0.0000 0.0000 0.0000 4.6010 0.0000 3.2017
#
#
#
# Elastic Compliance Matrix: (Units=1/GPa)
#
#
# Indices 1 2 3 4 5 6 
#
# 1 0.012064 0.000778 -0.001946 0.000000 -0.002167 0.000000
# 2 0.000778 0.007146 -0.003425 0.000000 0.002243 0.000000
# 3 -0.001946 -0.003425 0.007426 0.000000 -0.003056 0.000000
# 4 0.000000 0.000000 0.000000 0.035564 0.000000 -0.051108
# 5 -0.002167 0.002243 -0.003056 0.000000 0.044720 0.000000
# 6 0.000000 0.000000 0.000000 -0.051108 0.000000 0.385780
#
#
# Mechanical properties :
#
#
# Convention : Reuss Voigt Hill
#
# Bulk Modulus (GPa) = 57.30420 74.38656 65.84538
# Shear Modulus (GPa) = 9.84826 35.12115 22.48471
#
# Velocity S-wave (km/s) = 2.11107 3.98664 3.18982
# Velocity P-wave (km/s) = 5.64569 7.40628 6.58509
#
# Compressibility (1/GPa) = 0.01745073
#
# Stress axis : x y z
#
# Youngs Moduli (GPa) = 82.88962 139.93926 134.65941
#
# Poissons Ratio (x) = -0.10891 0.26204
# Poissons Ratio (y) = -0.06451 0.46123
# Poissons Ratio (z) = 0.16130 0.47931
#
# Static dielectric constant tensor:
#      x y z
#    x 1.947830 0.000000 -0.061890 
#    y 0.000000 1.939180 0.000000 
#    z -0.061890 0.000000 1.796770 
# 
# From -- ./inp_files/43323.got.cif
#   From: 2010.05.17/outbox.cif.g08.bks.cpg/sg10_22_cif.got.tgz:43323.got - 2010.06.03 11:33:40.
