data_PCOD9143965
_publ_section_title
;
Structure prediction by ZEFSAII (Michael W. Deem and Ramdas Pophale) SiO2 
 PCOD9143965
Probable space group: P 2/M
;
_chemical_formula_sum "Si O2"
_cell_formula_units_Z 28
_cell_length_a 11.587807
_cell_length_b 10.319634
_cell_length_c 12.989579
_cell_angle_alpha 90.000000
_cell_angle_beta 59.718943
_cell_angle_gamma 90.000000
_cell_volume 1341.387647
_symmetry_space_group_name_H-M "P 2/M"
_symmetry_group_IT_number 10
_symmetry_cell_setting 'monoclinic'
loop_
_space_group_symop_operation_xyz
x,y,z
-x,y,-z
-x,-y,-z
x,-y,z
loop_
_atom_site_type_symbol
_atom_site_label
_atom_site_fract_x
_atom_site_fract_y
_atom_site_fract_z
Si Si1 0.615343 0.775786 0.210587
Si Si2 0.300450 0.856019 0.602775
Si Si3 0.612247 0.360178 0.587513
Si Si4 0.985664 0.850699 0.705670
Si Si5 0.870754 0.152103 0.986827
Si Si6 0.200918 0.348351 0.302145
Si Si7 0.407644 0.858478 0.141070
O O1 0.667326 0.840948 0.291594
O O2 0.526967 0.654103 0.287921
O O3 0.504906 0.853798 0.195629
O O4 0.744771 0.763079 0.079665
O O5 0.374698 0.752705 0.499802
O O6 0.142615 0.836725 0.656714
O O7 0.336411 0.000000 0.551838
O O8 0.620806 0.500000 0.533228
O O9 0.734444 0.347844 0.613296
O O10 0.912912 0.833970 0.849277
O O11 0.929760 0.739900 0.655400
O O12 0.965431 0.000000 0.678864
O O13 0.833184 0.000000 0.019459
O O14 0.000000 0.177637 0.000000
O O15 0.184785 0.500000 0.279703
O O16 0.310477 0.264145 0.189780
O O17 0.338856 0.000000 0.169967
O O18 0.500000 0.850166 0.000000
#
# Coordination Sequence:
#
# PCOD9143965 Si02
#       7
#     4   4   4   4   4   4   4
#     4  11  21  36  62  92 126 159 196 243 300 362
#     4  11  23  38  61  94 124 156 200 253 305 356
#     4  10  25  45  62  83 118 165 209 254 304 356
#     4  10  21  38  62  93 127 159 197 246 303 362
#     4  10  18  33  59  90 127 159 187 231 298 366
#     4  10  22  40  59  82 115 160 208 251 300 353
#     4  10  20  35  59  91 122 156 199 245 298 359
#
# _framework density 20.873906000000002
#
# number of rings (size 3 to 8) (size 9 to 14) (size 15 to 20)
#    0.000    1.714    1.429    3.000    0.000    9.429 
#    0.000    6.429    0.000    0.857    0.000    0.000 
#    0.000    0.000    0.000    0.000    0.000    0.000 
#
# Total GULP energy -156355.653937 kJ/mol
# GULP energy per Si atom -5584.130498 kJ/mol
# Density = 2.082640 g / cm^3
# Si number density = 20.873906 Si / 1000 Ang^3
#
#
#
# Elastic Constant Matrix: (Units=GPa)
#
#
# Indices 1 2 3 4 5 6 
#
# 1 132.3214 59.1920 17.3481 0.0000 -6.6833 0.0000
# 2 59.1920 154.9462 45.7384 0.0000 4.8927 0.0000
# 3 17.3481 45.7384 67.4931 0.0000 -8.7964 0.0000
# 4 0.0000 0.0000 0.0000 -21.1737 0.0000 16.2203
# 5 -6.6833 4.8927 -8.7964 0.0000 26.4328 0.0000
# 6 0.0000 0.0000 0.0000 16.2203 0.0000 -1.8613
#
#
#
# Elastic Compliance Matrix: (Units=1/GPa)
#
#
# Indices 1 2 3 4 5 6 
#
# 1 0.009373 -0.003876 0.000648 0.000000 0.003303 0.000000
# 2 -0.003876 0.009986 -0.006418 0.000000 -0.004964 0.000000
# 3 0.000648 -0.006418 0.020045 0.000000 0.008022 0.000000
# 4 0.000000 0.000000 0.000000 0.008321 0.000000 0.072513
# 5 0.003303 -0.004964 0.008022 0.000000 0.042256 0.000000
# 6 0.000000 0.000000 0.000000 0.072513 0.000000 0.094658
#
#
# Mechanical properties :
#
#
# Convention : Reuss Voigt Hill
#
# Bulk Modulus (GPa) = 49.72257 66.59085 58.15671
# Shear Modulus (GPa) = 23.73780 16.17835 19.95808
#
# Velocity S-wave (km/s) = 3.37590 2.78699 3.09548
# Velocity P-wave (km/s) = 6.25042 6.50594 6.37946
#
# Compressibility (1/GPa) = 0.02011159
#
# Stress axis : x y z
#
# Youngs Moduli (GPa) = 106.68654 100.14085 49.88895
#
# Poissons Ratio (x) = 0.38818 -0.03234
# Poissons Ratio (y) = 0.41356 0.32018
# Poissons Ratio (z) = -0.06915 0.64269
#
# Static dielectric constant tensor:
#      x y z
#    x 1.789400 0.000000 -0.015500 
#    y 0.000000 1.727580 0.000000 
#    z -0.015500 0.000000 1.743290 
# 
# From -- ./inp_files/63632.got.cif
#   From: 2010.05.17/outbox.cif.g08.bks.cpg/sg10_32_cif.got.tgz:63632.got - 2010.06.03 11:33:40.
