data_PCOD9143472
_publ_section_title
;
Structure prediction by ZEFSAII (Michael W. Deem and Ramdas Pophale) SiO2 
 PCOD9143472
Probable space group: P 2/M
;
_chemical_formula_sum "Si O2"
_cell_formula_units_Z 32
_cell_length_a 14.645913
_cell_length_b 14.951579
_cell_length_c 20.461106
_cell_angle_alpha 90.000000
_cell_angle_beta 20.244460
_cell_angle_gamma 90.000000
_cell_volume 1550.392915
_symmetry_space_group_name_H-M "P 2/M"
_symmetry_group_IT_number 10
_symmetry_cell_setting 'monoclinic'
loop_
_space_group_symop_operation_xyz
x,y,z
-x,y,-z
-x,-y,-z
x,-y,z
loop_
_atom_site_type_symbol
_atom_site_label
_atom_site_fract_x
_atom_site_fract_y
_atom_site_fract_z
Si Si1 0.090467 0.783616 0.697616
Si Si2 0.502132 0.848219 0.071471
Si Si3 0.670521 0.401142 0.317797
Si Si4 0.015331 0.715393 0.416924
Si Si5 0.853902 0.601386 0.402131
Si Si6 0.953189 0.780913 0.129015
Si Si7 0.454111 0.899831 0.670353
Si Si8 0.471122 0.849046 0.238728
O O1 0.062046 0.677491 0.705767
O O2 0.167522 0.804080 0.719505
O O3 0.311832 0.831859 0.506334
O O4 0.805467 0.820869 0.872859
O O5 0.451485 0.889572 0.178439
O O6 0.291683 0.765368 0.213888
O O7 0.500000 0.891675 0.000000
O O8 0.500000 0.389110 0.500000
O O9 0.792121 0.500000 0.240985
O O10 0.459387 0.400856 0.400646
O O11 0.866405 0.320128 0.173772
O O12 0.939812 0.643363 0.413134
O O13 0.792310 0.792465 0.571149
O O14 0.000000 0.675086 0.500000
O O15 0.951385 0.500000 0.326966
O O16 0.809629 0.849460 0.176690
O O17 0.265446 0.787821 0.932101
O O18 0.478617 0.908737 0.731877
O O19 0.475265 0.000000 0.627669
#
# Coordination Sequence:
#
# PCOD9143472 Si02
#       8
#     4   4   4   4   4   4   4   4
#     4  11  21  38  60  93 121 159 205 254 303 357
#     4  10  19  36  67  90 114 159 203 254 307 355
#     4  10  18  31  55  87 123 163 200 240 293 356
#     4  10  20  39  62  86 120 166 206 248 308 355
#     4  11  20  33  59  90 126 164 204 246 296 355
#     4  11  21  36  61  91 127 159 204 249 299 362
#     4  12  24  41  64  89 124 163 197 245 312 377
#     4  10  22  37  61  89 121 161 203 248 302 371
#
# _framework density 20.63993
#
# number of rings (size 3 to 8) (size 9 to 14) (size 15 to 20)
#    0.000    1.375    5.000    0.750    0.000    2.250 
#    0.000    3.750    0.000   19.875    0.000    0.000 
#    0.000    0.000    0.000    0.000    0.000    0.000 
#
# Total GULP energy -178194.692760 kJ/mol
# GULP energy per Si atom -5568.584149 kJ/mol
# Density = 2.059295 g / cm^3
# Si number density = 20.639930 Si / 1000 Ang^3
#
#
#
# Elastic Constant Matrix: (Units=GPa)
#
#
# Indices 1 2 3 4 5 6 
#
# 1 155.1505 31.1240 25.7532 0.0000 7.1779 0.0000
# 2 31.1240 91.4624 13.6374 0.0000 -3.1491 0.0000
# 3 25.7532 13.6374 70.7094 0.0000 -8.8052 0.0000
# 4 0.0000 0.0000 0.0000 -25.9678 0.0000 0.7817
# 5 7.1779 -3.1491 -8.8052 0.0000 30.9724 0.0000
# 6 0.0000 0.0000 0.0000 0.7817 0.0000 -65.2244
#
#
#
# Elastic Compliance Matrix: (Units=1/GPa)
#
#
# Indices 1 2 3 4 5 6 
#
# 1 0.007454 -0.002239 -0.002619 0.000000 -0.002700 0.000000
# 2 -0.002239 0.011939 -0.001318 0.000000 0.001358 0.000000
# 3 -0.002619 -0.001318 0.015975 0.000000 0.005015 0.000000
# 4 0.000000 0.000000 0.000000 -0.038523 0.000000 -0.000462
# 5 -0.002700 0.001358 0.005015 0.000000 0.034476 0.000000
# 6 0.000000 0.000000 0.000000 -0.000462 0.000000 -0.015337
#
#
# Mechanical properties :
#
#
# Convention : Reuss Voigt Hill
#
# Bulk Modulus (GPa) = 43.44928 50.92794 47.18861
# Shear Modulus (GPa) = 138.85834 4.40990 71.63412
#
# Velocity S-wave (km/s) = 8.21113 1.46329 5.89762
# Velocity P-wave (km/s) = 10.53535 5.25195 8.32396
#
# Compressibility (1/GPa) = 0.02301534
#
# Stress axis : x y z
#
# Youngs Moduli (GPa) = 134.15282 83.76157 62.59784
#
# Poissons Ratio (x) = 0.18754 0.16396
# Poissons Ratio (y) = 0.30037 0.08250
# Poissons Ratio (z) = 0.35138 0.11039
#
# Static dielectric constant tensor:
#      x y z
#    x 1.822690 0.000000 0.047690 
#    y 0.000000 1.718400 0.000000 
#    z 0.047690 0.000000 1.741630 
# 
# From -- ./inp_files/61887.got.cif
#   From: 2010.05.17/outbox.cif.g08.bks.cpg/sg10_31_cif.got.tgz:61887.got - 2010.06.03 11:33:40.
