data_PCOD9143299
_publ_section_title
;
Structure prediction by ZEFSAII (Michael W. Deem and Ramdas Pophale) SiO2 
 PCOD9143299
Probable space group: P 2/M
;
_chemical_formula_sum "Si O2"
_cell_formula_units_Z 24
_cell_length_a 17.972404
_cell_length_b 7.870549
_cell_length_c 25.798836
_cell_angle_alpha 90.000000
_cell_angle_beta 160.419051
_cell_angle_gamma 90.000000
_cell_volume 1223.025163
_symmetry_space_group_name_H-M "P 2/M"
_symmetry_group_IT_number 10
_symmetry_cell_setting 'monoclinic'
loop_
_space_group_symop_operation_xyz
x,y,z
-x,y,-z
-x,-y,-z
x,-y,z
loop_
_atom_site_type_symbol
_atom_site_label
_atom_site_fract_x
_atom_site_fract_y
_atom_site_fract_z
Si Si1 0.156767 0.702922 0.258113
Si Si2 0.146774 0.699200 0.443985
Si Si3 0.295432 0.707863 0.901792
Si Si4 0.332935 0.707756 0.045466
Si Si5 0.790964 0.291570 0.398332
Si Si6 0.564293 0.197927 0.457637
O O1 0.154807 0.500000 0.260956
O O2 0.264577 0.765971 0.382807
O O3 0.324769 0.750883 0.322673
O O4 0.903569 0.762087 0.085953
O O5 0.099254 0.500000 0.420359
O O6 0.182646 0.768455 0.525106
O O7 0.352683 0.713888 0.540028
O O8 0.933293 0.770668 0.273593
O O9 0.288406 0.500000 0.898596
O O10 0.500000 0.757188 0.000000
O O11 0.328903 0.762038 0.982824
O O12 0.336252 0.500000 0.048459
O O13 0.556032 0.764709 0.220306
O O14 0.788176 0.500000 0.396391
O O15 0.000000 0.240821 0.500000
O O16 0.564757 0.000000 0.447480
#
# Coordination Sequence:
#
# PCOD9143299 Si02
#       6
#     4   4   4   4   4   4
#     4  10  18  32  54  78 105 134 169 212 263 311
#     4  10  18  31  51  77 105 137 171 208 257 307
#     4   9  15  24  43  73 103 128 162 209 254 295
#     4   9  16  27  45  74 106 133 164 206 256 304
#     4   9  17  29  48  78 111 137 166 210 259 303
#     4  11  21  33  51  76 105 135 172 215 262 307
#
# _framework density 19.623473000000001
#
# number of rings (size 3 to 8) (size 9 to 14) (size 15 to 20)
#    0.000    2.333    1.667    4.000    0.000    4.000 
#    0.000    0.833    0.000    8.000    0.000    0.000 
#    0.000    0.000    0.000    0.000    0.000    0.000 
#
# Total GULP energy -133930.430179 kJ/mol
# GULP energy per Si atom -5580.434591 kJ/mol
# Density = 1.957881 g / cm^3
# Si number density = 19.623473 Si / 1000 Ang^3
#
#
#
# Elastic Constant Matrix: (Units=GPa)
#
#
# Indices 1 2 3 4 5 6 
#
# 1 155.4210 -18.2528 93.1729 0.0000 -1.9436 0.0000
# 2 -18.2528 17.3330 1.8627 0.0000 -6.0062 0.0000
# 3 93.1729 1.8627 157.4738 0.0000 3.4373 0.0000
# 4 0.0000 0.0000 0.0000 38.8835 0.0000 -71.2712
# 5 -1.9436 -6.0062 3.4373 0.0000 35.2215 0.0000
# 6 0.0000 0.0000 0.0000 -71.2712 0.0000 58.2713
#
#
#
# Elastic Compliance Matrix: (Units=1/GPa)
#
#
# Indices 1 2 3 4 5 6 
#
# 1 0.013305 0.016386 -0.008160 0.000000 0.004325 0.000000
# 2 0.016386 0.081642 -0.011008 0.000000 0.015901 0.000000
# 3 -0.008160 -0.011008 0.011384 0.000000 -0.003438 0.000000
# 4 0.000000 0.000000 0.000000 -0.020709 0.000000 -0.025329
# 5 0.004325 0.015901 -0.003438 0.000000 0.031677 0.000000
# 6 0.000000 0.000000 0.000000 -0.025329 0.000000 -0.013819
#
#
# Mechanical properties :
#
#
# Convention : Reuss Voigt Hill
#
# Bulk Modulus (GPa) = 9.92398 53.75484 31.83941
# Shear Modulus (GPa) = 35.05517 43.37160 39.21339
#
# Velocity S-wave (km/s) = 4.23116 4.70637 4.47507
# Velocity P-wave (km/s) = 5.37944 7.54889 6.55455
#
# Compressibility (1/GPa) = 0.10076599
#
# Stress axis : x y z
#
# Youngs Moduli (GPa) = 75.16228 12.24861 87.84509
#
# Poissons Ratio (x) = -0.20071 0.71683
# Poissons Ratio (y) = -1.23162 0.96700
# Poissons Ratio (z) = 0.61334 0.13483
#
# Static dielectric constant tensor:
#      x y z
#    x 1.626720 0.000000 0.011350 
#    y 0.000000 1.698150 0.000000 
#    z 0.011350 0.000000 1.681720 
# 
# From -- ./inp_files/80047.got.cif
#   From: 2010.05.17/outbox.cif.g08.bks.cpg/sg10_41_cif.got.tgz:80047.got - 2010.06.03 11:33:40.
