data_PCOD9143394
_publ_section_title
;
Structure prediction by ZEFSAII (Michael W. Deem and Ramdas Pophale) SiO2 
 PCOD9143394
Probable space group: P 2/M
;
_chemical_formula_sum "Si O2"
_cell_formula_units_Z 32
_cell_length_a 13.142922
_cell_length_b 7.588236
_cell_length_c 32.883194
_cell_angle_alpha 90.000000
_cell_angle_beta 26.905946
_cell_angle_gamma 90.000000
_cell_volume 1484.060124
_symmetry_space_group_name_H-M "P 2/M"
_symmetry_group_IT_number 10
_symmetry_cell_setting 'monoclinic'
loop_
_space_group_symop_operation_xyz
x,y,z
-x,y,-z
-x,-y,-z
x,-y,z
loop_
_atom_site_type_symbol
_atom_site_label
_atom_site_fract_x
_atom_site_fract_y
_atom_site_fract_z
Si Si1 0.753290 0.715351 0.099797
Si Si2 0.131262 0.197575 0.635573
Si Si3 0.416960 0.709922 0.380331
Si Si4 0.572387 0.715811 0.716063
Si Si5 0.624961 0.705337 0.828294
Si Si6 0.346752 0.786544 0.091903
Si Si7 0.835501 0.787025 0.287678
Si Si8 0.055909 0.707972 0.572329
O O1 0.760746 0.500000 0.097000
O O2 0.647544 0.770991 0.180461
O O3 0.571227 0.768230 0.130951
O O4 0.000000 0.778198 0.000000
O O5 0.861102 0.197837 0.738414
O O6 0.215679 0.280198 0.648029
O O7 0.158343 0.271888 0.580805
O O8 0.220057 0.000000 0.602058
O O9 0.380979 0.500000 0.389601
O O10 0.421959 0.777390 0.332489
O O11 0.647677 0.737479 0.322360
O O12 0.218346 0.782907 0.479663
O O13 0.569431 0.500000 0.717176
O O14 0.800276 0.773554 0.658121
O O15 0.671029 0.500000 0.802068
O O16 0.557450 0.723792 0.899176
O O17 0.085112 0.728830 0.184970
O O18 0.346912 0.000000 0.091709
O O19 0.500000 0.726089 0.000000
O O20 0.841989 0.000000 0.288351
O O21 0.040329 0.500000 0.570730
#
# Coordination Sequence:
#
# PCOD9143394 Si02
#       8
#     4   4   4   4   4   4   4   4
#     4   9  17  29  49  79 109 137 169 211 269 323
#     4  10  20  35  56  78 103 142 182 219 268 326
#     4  10  21  34  54  80 107 141 180 223 268 325
#     4   9  17  33  53  75 108 143 174 215 268 322
#     4  10  18  31  53  80 107 137 175 225 271 313
#     4   9  19  36  56  76 103 145 186 219 265 326
#     4   9  20  37  53  73 107 144 177 218 271 322
#     4  10  19  34  56  81 104 136 182 225 270 320
#
# _framework density 21.562470000000001
#
# number of rings (size 3 to 8) (size 9 to 14) (size 15 to 20)
#    0.000    2.500    1.250    1.875    0.000    6.250 
#    0.000    4.375    0.000    3.000    0.000    0.000 
#    0.000    0.000    0.000    0.000    0.000    0.000 
#
# Total GULP energy -178607.623173 kJ/mol
# GULP energy per Si atom -5581.488224 kJ/mol
# Density = 2.151339 g / cm^3
# Si number density = 21.562470 Si / 1000 Ang^3
#
#
#
# Elastic Constant Matrix: (Units=GPa)
#
#
# Indices 1 2 3 4 5 6 
#
# 1 86.0283 -1.6042 43.2353 0.0000 24.9077 0.0000
# 2 -1.6042 46.4331 5.4819 0.0000 -0.0938 0.0000
# 3 43.2353 5.4819 125.3205 0.0000 28.2437 0.0000
# 4 0.0000 0.0000 0.0000 3.9358 0.0000 3.4900
# 5 24.9077 -0.0938 28.2437 0.0000 34.3867 0.0000
# 6 0.0000 0.0000 0.0000 3.4900 0.0000 33.8983
#
#
#
# Elastic Compliance Matrix: (Units=1/GPa)
#
#
# Indices 1 2 3 4 5 6 
#
# 1 0.015939 0.000959 -0.003607 0.000000 -0.008580 0.000000
# 2 0.000959 0.021735 -0.001397 0.000000 0.000512 0.000000
# 3 -0.003607 -0.001397 0.010673 0.000000 -0.006157 0.000000
# 4 0.000000 0.000000 0.000000 0.279608 0.000000 -0.028787
# 5 -0.008580 0.000512 -0.006157 0.000000 0.040354 0.000000
# 6 0.000000 0.000000 0.000000 -0.028787 0.000000 0.032464
#
#
# Mechanical properties :
#
#
# Convention : Reuss Voigt Hill
#
# Bulk Modulus (GPa) = 24.84038 39.11198 31.97618
# Shear Modulus (GPa) = 11.84042 28.48875 20.16459
#
# Velocity S-wave (km/s) = 2.34588 3.63880 3.06137
# Velocity P-wave (km/s) = 4.34542 5.98605 5.23046
#
# Compressibility (1/GPa) = 0.04025704
#
# Stress axis : x y z
#
# Youngs Moduli (GPa) = 62.73930 46.00776 93.69640
#
# Poissons Ratio (x) = -0.04413 0.33798
# Poissons Ratio (y) = -0.06018 0.13090
# Poissons Ratio (z) = 0.22631 0.06428
#
# Static dielectric constant tensor:
#      x y z
#    x 1.760590 0.000000 0.021690 
#    y 0.000000 1.819580 0.000000 
#    z 0.021690 0.000000 1.776280 
# 
# From -- ./inp_files/55316.got.cif
#   From: 2010.05.17/outbox.cif.g08.bks.cpg/sg10_28_cif.got.tgz:55316.got - 2010.06.03 11:33:40.
