data_PCOD9143569
_publ_section_title
;
Structure prediction by ZEFSAII (Michael W. Deem and Ramdas Pophale) SiO2 
 PCOD9143569
Probable space group: P 2/M
;
_chemical_formula_sum "Si O2"
_cell_formula_units_Z 28
_cell_length_a 19.923319
_cell_length_b 7.378268
_cell_length_c 27.157114
_cell_angle_alpha 90.000000
_cell_angle_beta 161.235667
_cell_angle_gamma 90.000000
_cell_volume 1284.159134
_symmetry_space_group_name_H-M "P 2/M"
_symmetry_group_IT_number 10
_symmetry_cell_setting 'monoclinic'
loop_
_space_group_symop_operation_xyz
x,y,z
-x,y,-z
-x,-y,-z
x,-y,z
loop_
_atom_site_type_symbol
_atom_site_label
_atom_site_fract_x
_atom_site_fract_y
_atom_site_fract_z
Si Si1 0.720561 0.208927 0.168499
Si Si2 0.316993 0.279048 0.335204
Si Si3 0.459585 0.279006 0.606547
Si Si4 0.014392 0.719326 0.743017
Si Si5 0.968812 0.782021 0.533868
Si Si6 0.486876 0.715769 0.737313
Si Si7 0.126880 0.721502 0.929341
O O1 0.866238 0.212868 0.221847
O O2 0.852876 0.288610 0.305372
O O3 0.676560 0.000000 0.151839
O O4 0.500000 0.292884 0.000000
O O5 0.500000 0.222963 0.500000
O O6 0.316921 0.500000 0.335917
O O7 0.377725 0.222059 0.322273
O O8 0.089436 0.222097 0.195241
O O9 0.462446 0.500000 0.609391
O O10 0.496056 0.215154 0.687568
O O11 0.227612 0.226559 0.428023
O O12 0.019535 0.500000 0.744987
O O13 0.117365 0.777879 0.865760
O O14 0.740882 0.744021 0.397651
O O15 0.000000 0.715417 0.500000
O O16 0.986691 0.000000 0.545248
O O17 0.517213 0.500000 0.754927
O O18 0.670921 0.784583 0.900374
O O19 0.128581 0.500000 0.930301
#
# Coordination Sequence:
#
# PCOD9143569 Si02
#       7
#     4   4   4   4   4   4   4
#     4  10  22  38  55  77 101 127 166 212 252 298
#     4   9  14  24  43  70 104 138 169 203 248 294
#     4   9  16  27  47  71 101 137 167 202 247 295
#     4  10  18  32  52  76 104 134 168 205 250 299
#     4  10  22  39  56  74  99 133 169 204 250 308
#     4  10  20  34  50  76 108 133 166 211 254 294
#     4   9  18  29  46  75 108 137 168 208 249 294
#
# _framework density 21.804151999999998
#
# number of rings (size 3 to 8) (size 9 to 14) (size 15 to 20)
#    0.000    2.429    2.857    0.000    2.000    1.143 
#    0.000    2.857    0.000    0.000    0.000    6.000 
#    0.000    0.000    0.000    0.000    0.000    0.000 
#
# Total GULP energy -156434.009697 kJ/mol
# GULP energy per Si atom -5586.928918 kJ/mol
# Density = 2.175452 g / cm^3
# Si number density = 21.804152 Si / 1000 Ang^3
#
#
#
# Elastic Constant Matrix: (Units=GPa)
#
#
# Indices 1 2 3 4 5 6 
#
# 1 163.4627 -5.1104 79.5796 0.0000 -35.7428 0.0000
# 2 -5.1104 76.7506 5.5493 0.0000 -7.3006 0.0000
# 3 79.5796 5.5493 182.3886 0.0000 -35.5047 0.0000
# 4 0.0000 0.0000 0.0000 6.9817 0.0000 -4.5302
# 5 -35.7428 -7.3006 -35.5047 0.0000 39.6657 0.0000
# 6 0.0000 0.0000 0.0000 -4.5302 0.0000 141.8693
#
#
#
# Elastic Compliance Matrix: (Units=1/GPa)
#
#
# Indices 1 2 3 4 5 6 
#
# 1 0.008733 0.001318 -0.002751 0.000000 0.005650 0.000000
# 2 0.001318 0.013461 -0.000328 0.000000 0.003371 0.000000
# 3 -0.002751 -0.000328 0.007507 0.000000 0.004180 0.000000
# 4 0.000000 0.000000 0.000000 0.146261 0.000000 0.004670
# 5 0.005650 0.003371 0.004180 0.000000 0.034664 0.000000
# 6 0.000000 0.000000 0.000000 0.004670 0.000000 0.007198
#
#
# Mechanical properties :
#
#
# Convention : Reuss Voigt Hill
#
# Bulk Modulus (GPa) = 38.19860 64.73767 51.46813
# Shear Modulus (GPa) = 21.73218 60.54225 41.13721
#
# Velocity S-wave (km/s) = 3.16048 5.27510 4.34829
# Velocity P-wave (km/s) = 5.55654 8.17663 6.99043
#
# Compressibility (1/GPa) = 0.02617897
#
# Stress axis : x y z
#
# Youngs Moduli (GPa) = 114.50267 74.28669 133.21383
#
# Poissons Ratio (x) = -0.09790 0.36644
# Poissons Ratio (y) = -0.15089 0.04374
# Poissons Ratio (z) = 0.31497 0.02439
#
# Static dielectric constant tensor:
#      x y z
#    x 1.748900 0.000000 -0.022280 
#    y 0.000000 1.875200 0.000000 
#    z -0.022280 0.000000 1.763540 
# 
# From -- ./inp_files/36898.got.cif
#   From: 2010.05.17/outbox.cif.g08.bks.cpg/sg10_19_cif.got.tgz:36898.got - 2010.06.03 11:33:40.
