data_PCOD9143141
_publ_section_title
;
Structure prediction by ZEFSAII (Michael W. Deem and Ramdas Pophale) SiO2 
 PCOD9143141
Probable space group: P 2/M
;
_chemical_formula_sum "Si O2"
_cell_formula_units_Z 32
_cell_length_a 22.026886
_cell_length_b 7.615440
_cell_length_c 13.108695
_cell_angle_alpha 90.000000
_cell_angle_beta 138.297362
_cell_angle_gamma 90.000000
_cell_volume 1462.857637
_symmetry_space_group_name_H-M "P 2/M"
_symmetry_group_IT_number 10
_symmetry_cell_setting 'monoclinic'
loop_
_space_group_symop_operation_xyz
x,y,z
-x,y,-z
-x,-y,-z
x,-y,z
loop_
_atom_site_type_symbol
_atom_site_label
_atom_site_fract_x
_atom_site_fract_y
_atom_site_fract_z
Si Si1 0.897422 0.215385 0.351423
Si Si2 0.608066 0.794851 0.280190
Si Si3 0.706338 0.713818 0.612061
Si Si4 0.092736 0.287895 0.063666
Si Si5 0.828796 0.794069 0.044849
Si Si6 0.413245 0.296381 0.115464
Si Si7 0.719430 0.203933 0.229281
Si Si8 0.631993 0.301340 0.726651
O O1 0.865677 0.267646 0.198936
O O2 0.819681 0.277597 0.332256
O O3 0.000000 0.273699 0.500000
O O4 0.897249 0.000000 0.353565
O O5 0.670213 0.775178 0.458261
O O6 0.510790 0.712808 0.184156
O O7 0.659967 0.718782 0.246749
O O8 0.588856 0.000000 0.236469
O O9 0.703775 0.500000 0.610937
O O10 0.811067 0.769189 0.764798
O O11 0.641831 0.776156 0.625398
O O12 0.092781 0.500000 0.066938
O O13 0.098562 0.230265 0.953783
O O14 0.000000 0.225348 0.000000
O O15 0.805251 0.000000 0.023431
O O16 0.737514 0.696940 0.895441
O O17 0.386800 0.500000 0.092871
O O18 0.417398 0.221376 0.236176
O O19 0.338369 0.211727 0.947832
O O20 0.732933 0.000000 0.273591
O O21 0.597049 0.500000 0.670545
#
# Coordination Sequence:
#
# PCOD9143141 Si02
#       8
#     4   4   4   4   4   4   4   4
#     4   9  18  33  54  81 111 145 182 223 280 337
#     4  11  24  38  55  81 116 154 187 230 284 338
#     4   9  19  37  57  78 110 147 186 229 278 336
#     4   9  19  36  57  79 109 151 188 225 281 340
#     4  10  18  30  54  82 107 140 184 234 276 324
#     4  11  22  37  61  86 109 144 192 238 281 338
#     4  10  21  39  58  79 113 152 188 229 281 340
#     4   9  19  36  58  81 108 145 182 226 284 339
#
# _framework density 21.874991000000001
#
# number of rings (size 3 to 8) (size 9 to 14) (size 15 to 20)
#    0.000    2.250    1.250    2.250    0.000    6.750 
#    0.000    3.750    0.000    3.375    0.000    0.000 
#    0.000    0.000    0.000    0.000    0.000    0.000 
#
# Total GULP energy -178673.102149 kJ/mol
# GULP energy per Si atom -5583.534442 kJ/mol
# Density = 2.182520 g / cm^3
# Si number density = 21.874991 Si / 1000 Ang^3
#
#
#
# Elastic Constant Matrix: (Units=GPa)
#
#
# Indices 1 2 3 4 5 6 
#
# 1 166.8595 4.7721 41.3829 0.0000 21.6704 0.0000
# 2 4.7721 48.2114 -4.3906 0.0000 0.6709 0.0000
# 3 41.3829 -4.3906 71.1367 0.0000 10.1857 0.0000
# 4 0.0000 0.0000 0.0000 20.8304 0.0000 -1.3732
# 5 21.6704 0.6709 10.1857 0.0000 29.1203 0.0000
# 6 0.0000 0.0000 0.0000 -1.3732 0.0000 15.0735
#
#
#
# Elastic Compliance Matrix: (Units=1/GPa)
#
#
# Indices 1 2 3 4 5 6 
#
# 1 0.007523 -0.001035 -0.003834 0.000000 -0.004234 0.000000
# 2 -0.001035 0.021028 0.001957 0.000000 -0.000399 0.000000
# 3 -0.003834 0.001957 0.016851 0.000000 -0.003086 0.000000
# 4 0.000000 0.000000 0.000000 0.048297 0.000000 0.004400
# 5 -0.004234 -0.000399 -0.003086 0.000000 0.038579 0.000000
# 6 0.000000 0.000000 0.000000 0.004400 0.000000 0.066742
#
#
# Mechanical properties :
#
#
# Convention : Reuss Voigt Hill
#
# Bulk Modulus (GPa) = 25.26670 41.08182 33.17426
# Shear Modulus (GPa) = 22.93177 29.30106 26.11642
#
# Velocity S-wave (km/s) = 3.24127 3.66386 3.45903
# Velocity P-wave (km/s) = 5.05800 6.05966 5.58135
#
# Compressibility (1/GPa) = 0.03957778
#
# Stress axis : x y z
#
# Youngs Moduli (GPa) = 132.91737 47.55515 59.34489
#
# Poissons Ratio (x) = 0.04922 0.22755
# Poissons Ratio (y) = 0.13757 -0.11614
# Poissons Ratio (z) = 0.50965 -0.09307
#
# Static dielectric constant tensor:
#      x y z
#    x 1.836690 0.000000 -0.001650 
#    y 0.000000 1.825580 0.000000 
#    z -0.001650 0.000000 1.752080 
# 
# From -- ./inp_files/70019.got.cif
#   From: 2010.05.17/outbox.cif.g08.bks.cpg/sg10_36_cif.got.tgz:70019.got - 2010.06.03 11:33:40.
