data_PCOD9143881
_publ_section_title
;
Structure prediction by ZEFSAII (Michael W. Deem and Ramdas Pophale) SiO2 
 PCOD9143881
Probable space group: P 2/M
;
_chemical_formula_sum "Si O2"
_cell_formula_units_Z 32
_cell_length_a 23.761930
_cell_length_b 7.457936
_cell_length_c 14.978082
_cell_angle_alpha 90.000000
_cell_angle_beta 31.602903
_cell_angle_gamma 90.000000
_cell_volume 1390.951347
_symmetry_space_group_name_H-M "P 2/M"
_symmetry_group_IT_number 10
_symmetry_cell_setting 'monoclinic'
loop_
_space_group_symop_operation_xyz
x,y,z
-x,y,-z
-x,-y,-z
x,-y,z
loop_
_atom_site_type_symbol
_atom_site_label
_atom_site_fract_x
_atom_site_fract_y
_atom_site_fract_z
Si Si1 0.171865 0.719661 0.514172
Si Si2 0.609124 0.716870 0.403925
Si Si3 0.832544 0.797049 0.009918
Si Si4 0.736680 0.287750 0.951798
Si Si5 0.505278 0.280970 0.722051
Si Si6 0.027165 0.296554 0.866849
Si Si7 0.581632 0.718793 0.813641
Si Si8 0.105480 0.719298 0.410816
O O1 0.167735 0.500000 0.521834
O O2 0.116738 0.783368 0.679965
O O3 0.295620 0.773152 0.338646
O O4 0.111467 0.776110 0.505364
O O5 0.500000 0.767674 0.500000
O O6 0.616679 0.500000 0.388734
O O7 0.717040 0.786595 0.213968
O O8 0.588235 0.774048 0.533576
O O9 0.870475 0.000000 0.956028
O O10 0.811800 0.736269 0.936597
O O11 0.920388 0.696568 0.950228
O O12 0.724235 0.500000 0.955798
O O13 0.793104 0.220193 0.785735
O O14 0.616598 0.218685 0.131706
O O15 0.504677 0.500000 0.719703
O O16 0.540638 0.225613 0.772106
O O17 0.935684 0.500000 0.163087
O O18 0.000000 0.213444 0.000000
O O19 0.580892 0.500000 0.816196
O O20 0.500000 0.779578 0.000000
O O21 0.105978 0.500000 0.410671
O O22 0.000000 0.775901 0.500000
#
# Coordination Sequence:
#
# PCOD9143881 Si02
#       8
#     4   4   4   4   4   4   4   4
#     4   9  17  30  49  81 116 144 182 231 281 333
#     4  10  19  35  57  81 109 143 185 230 276 332
#     4  12  25  38  55  80 114 149 185 233 288 336
#     4  10  18  33  55  80 109 144 184 223 273 336
#     4   9  17  28  48  76 107 143 178 218 271 331
#     4  10  22  39  61  84 109 149 196 237 276 326
#     4   9  16  26  44  77 119 148 169 216 283 337
#     4   9  16  26  47  76 107 140 177 228 281 328
#
# _framework density 23.005837
#
# number of rings (size 3 to 8) (size 9 to 14) (size 15 to 20)
#    0.000    2.250    1.250    2.625    1.750    5.500 
#    0.000    0.000    0.000    3.375    0.000    0.000 
#    0.000    2.500    0.000    0.000    0.000    0.000 
#
# Total GULP energy -178850.223215 kJ/mol
# GULP energy per Si atom -5589.069475 kJ/mol
# Density = 2.295348 g / cm^3
# Si number density = 23.005837 Si / 1000 Ang^3
#
#
#
# Elastic Constant Matrix: (Units=GPa)
#
#
# Indices 1 2 3 4 5 6 
#
# 1 124.8350 -12.0072 53.3154 0.0000 20.9512 0.0000
# 2 -12.0072 60.3106 -0.0098 0.0000 -1.2583 0.0000
# 3 53.3154 -0.0098 147.6826 0.0000 26.9204 0.0000
# 4 0.0000 0.0000 0.0000 211.1458 0.0000 199.1381
# 5 20.9512 -1.2583 26.9204 0.0000 46.5706 0.0000
# 6 0.0000 0.0000 0.0000 199.1381 0.0000 128.5317
#
#
#
# Elastic Compliance Matrix: (Units=1/GPa)
#
#
# Indices 1 2 3 4 5 6 
#
# 1 0.009970 0.001930 -0.003120 0.000000 -0.002630 0.000000
# 2 0.001930 0.016965 -0.000694 0.000000 -0.000009 0.000000
# 3 -0.003120 -0.000694 0.008546 0.000000 -0.003555 0.000000
# 4 0.000000 0.000000 0.000000 -0.010269 0.000000 0.015909
# 5 -0.002630 -0.000009 -0.003555 0.000000 0.024711 0.000000
# 6 0.000000 0.000000 0.000000 0.015909 0.000000 -0.016869
#
#
# Mechanical properties :
#
#
# Convention : Reuss Voigt Hill
#
# Bulk Modulus (GPa) = 31.53394 46.15833 38.84614
# Shear Modulus (GPa) = 105.50198 96.68496 101.09347
#
# Velocity S-wave (km/s) = 6.77926 6.48980 6.63611
# Velocity P-wave (km/s) = 8.66109 8.73293 8.69708
#
# Compressibility (1/GPa) = 0.03171186
#
# Stress axis : x y z
#
# Youngs Moduli (GPa) = 100.30146 58.94600 117.01995
#
# Poissons Ratio (x) = -0.11374 0.36508
# Poissons Ratio (y) = -0.19354 0.08120
# Poissons Ratio (z) = 0.31292 0.04090
#
# Static dielectric constant tensor:
#      x y z
#    x 1.824890 0.000000 0.006570 
#    y 0.000000 1.900020 0.000000 
#    z 0.006570 0.000000 1.842520 
# 
# From -- ./inp_files/71501.got.cif
#   From: 2010.05.17/outbox.cif.g08.bks.cpg/sg10_36_cif.got.tgz:71501.got - 2010.06.03 11:33:40.
