data_PCOD9143268
_publ_section_title
;
Structure prediction by ZEFSAII (Michael W. Deem and Ramdas Pophale) SiO2 
 PCOD9143268
Probable space group: P 2/M
;
_chemical_formula_sum "Si O2"
_cell_formula_units_Z 24
_cell_length_a 17.723247
_cell_length_b 8.071279
_cell_length_c 20.624830
_cell_angle_alpha 90.000000
_cell_angle_beta 20.666285
_cell_angle_gamma 90.000000
_cell_volume 1041.256268
_symmetry_space_group_name_H-M "P 2/M"
_symmetry_group_IT_number 10
_symmetry_cell_setting 'monoclinic'
loop_
_space_group_symop_operation_xyz
x,y,z
-x,y,-z
-x,-y,-z
x,-y,z
loop_
_atom_site_type_symbol
_atom_site_label
_atom_site_fract_x
_atom_site_fract_y
_atom_site_fract_z
Si Si1 0.614408 0.308684 0.068138
Si Si2 0.859034 0.000000 0.196276
Si Si3 0.087473 0.809725 0.278598
Si Si4 0.259180 0.316540 0.532884
Si Si5 0.923384 0.313136 0.925093
Si Si6 0.753956 0.811161 0.717043
Si Si7 0.472824 0.000000 0.414756
O O1 0.673299 0.500000 0.007856
O O2 0.377913 0.280361 0.232175
O O3 0.757159 0.193879 0.907662
O O4 0.691879 0.278279 0.078807
O O5 0.997759 0.166160 0.092824
O O6 0.708711 0.000000 0.254588
O O7 0.693307 0.000000 0.390694
O O8 0.227841 0.739121 0.225025
O O9 0.878285 0.715527 0.421689
O O10 0.029190 0.000000 0.341547
O O11 0.356148 0.500000 0.453356
O O12 0.088783 0.314465 0.730297
O O13 0.416304 0.165171 0.420635
O O14 0.926977 0.500000 0.949543
O O15 0.000000 0.816152 0.500000
O O16 0.670889 0.000000 0.788415
#
# Coordination Sequence:
#
# PCOD9143268 Si02
#       7
#     4   2   4   4   4   4   2
#     4  10  20  32  49  72  96 128 171 210 243 291
#     4   9  16  24  42  61  91 130 156 191 243 295
#     4  10  18  31  51  71  95 130 172 211 244 290
#     4   9  16  27  43  64  93 125 161 204 240 284
#     4   8  16  27  40  64  92 121 161 201 236 283
#     4  10  22  36  49  70 100 131 164 206 254 298
#     4   9  16  26  38  65  93 124 162 191 241 299
#
# _framework density 23.049081000000001
#
# number of rings (size 3 to 8) (size 9 to 14) (size 15 to 20)
#    0.000    2.667    0.833    2.500    4.667    4.333 
#    0.000    3.333    0.000    0.000    0.000    0.000 
#    0.000    2.667    0.000    5.167    0.000    4.333 
#
# Total GULP energy -134012.074082 kJ/mol
# GULP energy per Si atom -5583.836420 kJ/mol
# Density = 2.299662 g / cm^3
# Si number density = 23.049081 Si / 1000 Ang^3
#
#
#
# Elastic Constant Matrix: (Units=GPa)
#
#
# Indices 1 2 3 4 5 6 
#
# 1 82.3776 73.5112 69.2664 0.0000 -35.9841 0.0000
# 2 73.5112 155.1035 64.2976 0.0000 -47.5648 0.0000
# 3 69.2664 64.2976 48.7117 0.0000 -44.5806 0.0000
# 4 0.0000 0.0000 0.0000 -60.9400 0.0000 -44.3715
# 5 -35.9841 -47.5648 -44.5806 0.0000 58.0879 0.0000
# 6 0.0000 0.0000 0.0000 -44.3715 0.0000 -23.7071
#
#
#
# Elastic Compliance Matrix: (Units=1/GPa)
#
#
# Indices 1 2 3 4 5 6 
#
# 1 -0.012507 -0.007122 0.049585 0.000000 0.024475 0.000000
# 2 -0.007122 0.011850 -0.002257 0.000000 0.003559 0.000000
# 3 0.049585 -0.002257 -0.069147 0.000000 -0.024200 0.000000
# 4 0.000000 0.000000 0.000000 0.045232 0.000000 -0.084659
# 5 0.024475 0.003559 -0.024200 0.000000 0.016719 0.000000
# 6 0.000000 0.000000 0.000000 -0.084659 0.000000 0.116271
#
#
# Mechanical properties :
#
#
# Convention : Reuss Voigt Hill
#
# Bulk Modulus (GPa) = 94.27376 77.81589 86.04483
# Shear Modulus (GPa) = 158.51423 -0.03732 79.23845
#
# Velocity S-wave (km/s) = 8.30191 -0.12739 5.86965
# Velocity P-wave (km/s) = 11.52761 5.81486 9.12958
#
# Compressibility (1/GPa) = 0.01060741
#
# Stress axis : x y z
#
# Youngs Moduli (GPa) = -79.95362 84.38944 -14.46201
#
# Poissons Ratio (x) = 0.60100 0.71710
# Poissons Ratio (y) = -0.56941 -0.03265
# Poissons Ratio (z) = 3.96449 0.19050
#
# Static dielectric constant tensor:
#      x y z
#    x 1.930840 0.000000 0.036820 
#    y 0.000000 1.817470 0.000000 
#    z 0.036820 0.000000 1.903980 
# 
# From -- ./inp_files/33817.got.cif
#   From: 2010.05.17/outbox.cif.g08.bks.cpg/sg10_17_cif.got.tgz:33817.got - 2010.06.03 11:33:40.
