data_PCOD9143825
_publ_section_title
;
Structure prediction by ZEFSAII (Michael W. Deem and Ramdas Pophale) SiO2 
 PCOD9143825
Probable space group: P 2/M
;
_chemical_formula_sum "Si O2"
_cell_formula_units_Z 32
_cell_length_a 15.029195
_cell_length_b 14.095777
_cell_length_c 9.095078
_cell_angle_alpha 90.000000
_cell_angle_beta 97.130695
_cell_angle_gamma 90.000000
_cell_volume 1911.873237
_symmetry_space_group_name_H-M "P 2/M"
_symmetry_group_IT_number 10
_symmetry_cell_setting 'monoclinic'
loop_
_space_group_symop_operation_xyz
x,y,z
-x,y,-z
-x,-y,-z
x,-y,z
loop_
_atom_site_type_symbol
_atom_site_label
_atom_site_fract_x
_atom_site_fract_y
_atom_site_fract_z
Si Si1 0.700818 0.283408 0.095958
Si Si2 0.033114 0.386252 0.166597
Si Si3 0.588931 0.891906 0.098475
Si Si4 0.537527 0.108791 0.661986
Si Si5 0.637795 0.292468 0.754953
Si Si6 0.206111 0.613913 0.380811
Si Si7 0.464627 0.392760 0.823746
Si Si8 0.852357 0.612128 0.294274
O O1 0.675200 0.172666 0.099108
O O2 0.625446 0.332703 0.183200
O O3 0.793425 0.321374 0.176944
O O4 0.684332 0.311128 0.922839
O O5 0.042981 0.500000 0.152042
O O6 0.127866 0.353575 0.251772
O O7 0.955552 0.371515 0.271798
O O8 0.000000 0.349970 0.000000
O O9 0.550327 0.893807 0.253637
O O10 0.600939 0.000000 0.047024
O O11 0.500000 0.849280 0.000000
O O12 0.500000 0.142601 0.500000
O O13 0.611925 0.181934 0.733570
O O14 0.570615 0.000000 0.658782
O O15 0.703116 0.331905 0.643415
O O16 0.542425 0.346100 0.743379
O O17 0.219522 0.500000 0.366509
O O18 0.172362 0.629503 0.540739
O O19 0.446130 0.500000 0.773041
O O20 0.500000 0.394918 0.000000
O O21 0.833248 0.500000 0.259679
#
# Coordination Sequence:
#
# PCOD9143825 Si02
#       8
#     4   4   4   4   4   4   4   4
#     4  11  19  31  47  73  98 131 169 207 251 293
#     4   9  17  33  55  75  95 126 167 210 250 290
#     4  10  18  33  53  72  96 128 170 216 255 292
#     4  10  21  35  51  71  98 132 168 211 259 300
#     4  11  20  31  49  72  99 131 170 208 246 296
#     4  10  21  34  49  72 103 136 168 204 248 296
#     4   9  17  28  42  63  95 131 166 201 238 280
#     4  10  21  34  50  73 104 135 166 205 248 297
#
# _framework density 16.737511999999999
#
# number of rings (size 3 to 8) (size 9 to 14) (size 15 to 20)
#    0.000    2.000    2.500    2.250    1.750    4.000 
#    0.000    0.000    0.000    3.000    0.000    0.875 
#    0.000    5.000    0.000    0.000    0.000    0.000 
#
# Total GULP energy -178365.156671 kJ/mol
# GULP energy per Si atom -5573.911146 kJ/mol
# Density = 1.669942 g / cm^3
# Si number density = 16.737512 Si / 1000 Ang^3
#
#
#
# Elastic Constant Matrix: (Units=GPa)
#
#
# Indices 1 2 3 4 5 6 
#
# 1 51.8615 21.1425 3.6128 0.0000 -10.3726 0.0000
# 2 21.1425 62.4622 2.8598 0.0000 1.8417 0.0000
# 3 3.6128 2.8598 51.2280 0.0000 -8.4482 0.0000
# 4 0.0000 0.0000 0.0000 12.8654 0.0000 6.3190
# 5 -10.3726 1.8417 -8.4482 0.0000 25.1175 0.0000
# 6 0.0000 0.0000 0.0000 6.3190 0.0000 7.9001
#
#
#
# Elastic Compliance Matrix: (Units=1/GPa)
#
#
# Indices 1 2 3 4 5 6 
#
# 1 0.025090 -0.008849 0.000572 0.000000 0.011203 0.000000
# 2 -0.008849 0.019230 -0.001360 0.000000 -0.005522 0.000000
# 3 0.000572 -0.001360 0.020763 0.000000 0.007320 0.000000
# 4 0.000000 0.000000 0.000000 0.128023 0.000000 -0.102399
# 5 0.011203 -0.005522 0.007320 0.000000 0.047306 0.000000
# 6 0.000000 0.000000 0.000000 -0.102399 0.000000 0.208484
#
#
# Mechanical properties :
#
#
# Convention : Reuss Voigt Hill
#
# Bulk Modulus (GPa) = 21.82965 24.53132 23.18049
# Shear Modulus (GPa) = 10.34252 18.37237 14.35744
#
# Velocity S-wave (km/s) = 2.48851 3.31671 2.93200
# Velocity P-wave (km/s) = 4.61818 5.41810 5.03405
#
# Compressibility (1/GPa) = 0.04580925
#
# Stress axis : x y z
#
# Youngs Moduli (GPa) = 39.85580 52.00190 48.16194
#
# Poissons Ratio (x) = 0.46018 -0.02755
# Poissons Ratio (y) = 0.35269 0.06550
# Poissons Ratio (z) = -0.02280 0.07073
#
# Static dielectric constant tensor:
#      x y z
#    x 1.548960 0.000000 -0.005300 
#    y 0.000000 1.581620 0.000000 
#    z -0.005300 0.000000 1.628560 
# 
# From -- ./inp_files/29139.got.cif
#   From: 2010.05.17/outbox.cif.g08.bks.cpg/sg10_15_cif.got.tgz:29139.got - 2010.06.03 11:33:40.
