data_PCOD9143137
_publ_section_title
;
Structure prediction by ZEFSAII (Michael W. Deem and Ramdas Pophale) SiO2 
 PCOD9143137
Probable space group: P 2/M
;
_chemical_formula_sum "Si O2"
_cell_formula_units_Z 24
_cell_length_a 14.475702
_cell_length_b 7.382476
_cell_length_c 18.185192
_cell_angle_alpha 90.000000
_cell_angle_beta 145.236048
_cell_angle_gamma 90.000000
_cell_volume 1108.113797
_symmetry_space_group_name_H-M "P 2/M"
_symmetry_group_IT_number 10
_symmetry_cell_setting 'monoclinic'
loop_
_space_group_symop_operation_xyz
x,y,z
-x,y,-z
-x,-y,-z
x,-y,z
loop_
_atom_site_type_symbol
_atom_site_label
_atom_site_fract_x
_atom_site_fract_y
_atom_site_fract_z
Si Si1 0.978433 0.278402 0.227566
Si Si2 0.405065 0.209283 0.367762
Si Si3 0.040589 0.294315 0.105773
Si Si4 0.318744 0.278919 0.862464
Si Si5 0.813185 0.720730 0.380546
Si Si6 0.708373 0.280937 0.472300
O O1 0.981613 0.500000 0.228426
O O2 0.821491 0.223302 0.172022
O O3 0.978224 0.216374 0.142617
O O4 0.143530 0.222560 0.377665
O O5 0.500000 0.287426 0.500000
O O6 0.234714 0.299237 0.240139
O O7 0.535164 0.219611 0.388169
O O8 0.366715 0.000000 0.359174
O O9 0.974825 0.500000 0.059890
O O10 0.000000 0.209356 0.000000
O O11 0.316965 0.500000 0.862223
O O12 0.273081 0.220784 0.750356
O O13 0.500000 0.220804 0.000000
O O14 0.810177 0.500000 0.378763
O O15 0.739122 0.779670 0.409276
O O16 0.000000 0.775323 0.500000
O O17 0.709755 0.500000 0.474209
#
# Coordination Sequence:
#
# PCOD9143137 Si02
#       6
#     4   4   4   4   4   4
#     4   9  16  28  47  73 105 139 169 209 266 314
#     4  11  23  37  54  78 107 140 183 224 264 316
#     4  10  21  36  56  81 110 141 178 221 266 318
#     4   9  16  25  40  67 105 137 162 203 258 313
#     4   9  15  25  43  71  99 127 167 210 257 311
#     4  10  18  30  54  79 103 136 176 220 264 310
#
# _framework density 21.658422999999999
#
# number of rings (size 3 to 8) (size 9 to 14) (size 15 to 20)
#    0.000    2.333    3.333    0.500    0.000    2.333 
#    0.000    5.000    0.000    0.500    0.000    0.000 
#    0.000    3.333    0.000    0.000    0.000    0.000 
#
# Total GULP energy -134059.478429 kJ/mol
# GULP energy per Si atom -5585.811601 kJ/mol
# Density = 2.160913 g / cm^3
# Si number density = 21.658423 Si / 1000 Ang^3
#
#
#
# Elastic Constant Matrix: (Units=GPa)
#
#
# Indices 1 2 3 4 5 6 
#
# 1 179.1882 -4.7301 61.9208 0.0000 -29.6369 0.0000
# 2 -4.7301 78.0175 0.7433 0.0000 -5.4908 0.0000
# 3 61.9208 0.7433 130.0750 0.0000 -28.8957 0.0000
# 4 0.0000 0.0000 0.0000 -5.0731 0.0000 8.7371
# 5 -29.6369 -5.4908 -28.8957 0.0000 43.0328 0.0000
# 6 0.0000 0.0000 0.0000 8.7371 0.0000 9.1557
#
#
#
# Elastic Compliance Matrix: (Units=1/GPa)
#
#
# Indices 1 2 3 4 5 6 
#
# 1 0.007037 0.000674 -0.002654 0.000000 0.003150 0.000000
# 2 0.000674 0.013011 0.000090 0.000000 0.002185 0.000000
# 3 -0.002654 0.000090 0.010046 0.000000 0.004929 0.000000
# 4 0.000000 0.000000 0.000000 -0.074567 0.000000 0.071158
# 5 0.003150 0.002185 0.004929 0.000000 0.028996 0.000000
# 6 0.000000 0.000000 0.000000 0.071158 0.000000 0.041317
#
#
# Mechanical properties :
#
#
# Convention : Reuss Voigt Hill
#
# Bulk Modulus (GPa) = 38.00262 55.90543 46.95403
# Shear Modulus (GPa) = 130.24016 31.37954 80.80985
#
# Velocity S-wave (km/s) = 7.76301 3.81049 6.11490
# Velocity P-wave (km/s) = 9.89630 6.72519 8.46064
#
# Compressibility (1/GPa) = 0.02631397
#
# Stress axis : x y z
#
# Youngs Moduli (GPa) = 142.11501 76.85585 99.54531
#
# Poissons Ratio (x) = -0.05177 0.26417
# Poissons Ratio (y) = -0.09573 -0.00899
# Poissons Ratio (z) = 0.37714 -0.00694
#
# Static dielectric constant tensor:
#      x y z
#    x 1.781230 0.000000 -0.037010 
#    y 0.000000 1.845660 0.000000 
#    z -0.037010 0.000000 1.737160 
# 
# From -- ./inp_files/27234.got.cif
#   From: 2010.05.17/outbox.cif.g08.bks.cpg/sg10_14_cif.got.tgz:27234.got - 2010.06.03 11:33:40.
