data_PCOD9143924
_publ_section_title
;
Structure prediction by ZEFSAII (Michael W. Deem and Ramdas Pophale) SiO2 
 PCOD9143924
Probable space group: P 2/M
;
_chemical_formula_sum "Si O2"
_cell_formula_units_Z 32
_cell_length_a 7.976000
_cell_length_b 14.194288
_cell_length_c 27.342307
_cell_angle_alpha 90.000000
_cell_angle_beta 149.065786
_cell_angle_gamma 90.000000
_cell_volume 1591.264145
_symmetry_space_group_name_H-M "P 2/M"
_symmetry_group_IT_number 10
_symmetry_cell_setting 'monoclinic'
loop_
_space_group_symop_operation_xyz
x,y,z
-x,y,-z
-x,-y,-z
x,-y,z
loop_
_atom_site_type_symbol
_atom_site_label
_atom_site_fract_x
_atom_site_fract_y
_atom_site_fract_z
Si Si1 0.166692 0.760824 0.947597
Si Si2 0.519891 0.106313 0.897102
Si Si3 0.528981 0.219317 0.628606
Si Si4 0.338075 0.392040 0.170612
Si Si5 0.675568 0.393496 0.358957
Si Si6 0.793166 0.223799 0.260450
Si Si7 0.833228 0.750419 0.553523
Si Si8 0.840913 0.893273 0.789018
O O1 0.002494 0.662237 0.920147
O O2 0.913988 0.819756 0.850569
O O3 0.500000 0.748414 0.000000
O O4 0.251070 0.823224 0.015791
O O5 0.430459 0.146933 0.821795
O O6 0.182253 0.104070 0.843970
O O7 0.642593 0.000000 0.926335
O O8 0.442802 0.319819 0.630448
O O9 0.264251 0.196510 0.520594
O O10 0.576571 0.146441 0.684696
O O11 0.876479 0.228071 0.688504
O O12 0.340975 0.500000 0.154219
O O13 0.430448 0.392658 0.251416
O O14 0.607517 0.323754 0.213711
O O15 0.708739 0.500000 0.384619
O O16 0.010883 0.349249 0.422511
O O17 0.908480 0.203080 0.344677
O O18 0.500000 0.737468 0.500000
O O19 0.773341 0.000000 0.788575
#
# Coordination Sequence:
#
# PCOD9143924 Si02
#       8
#     4   4   4   4   4   4   4   4
#     4  10  19  34  58  84 110 140 180 233 282 328
#     4   9  18  34  58  83 107 141 186 229 275 329
#     4  10  18  33  57  83 109 144 187 227 266 324
#     4  10  21  38  56  78 113 151 182 222 279 336
#     4  10  20  34  56  83 110 144 187 232 273 321
#     4   9  20  37  54  76 114 151 180 224 275 324
#     4   9  19  34  53  78 112 151 182 220 274 323
#     4   9  17  32  55  84 113 141 176 227 285 328
#
# _framework density 20.109797
#
# number of rings (size 3 to 8) (size 9 to 14) (size 15 to 20)
#    0.000    2.500    1.250    0.750    0.000    4.000 
#    0.000    6.250    0.000    5.250    0.000    0.000 
#    0.000    0.000    0.000    0.000    0.000    0.000 
#
# Total GULP energy -178599.826491 kJ/mol
# GULP energy per Si atom -5581.244578 kJ/mol
# Density = 2.006403 g / cm^3
# Si number density = 20.109797 Si / 1000 Ang^3
#
#
#
# Elastic Constant Matrix: (Units=GPa)
#
#
# Indices 1 2 3 4 5 6 
#
# 1 48.9722 1.7721 11.0102 0.0000 6.1463 0.0000
# 2 1.7721 54.3373 34.1404 0.0000 -5.5342 0.0000
# 3 11.0102 34.1404 96.3701 0.0000 -1.1888 0.0000
# 4 0.0000 0.0000 0.0000 21.4825 0.0000 3.1765
# 5 6.1463 -5.5342 -1.1888 0.0000 14.7711 0.0000
# 6 0.0000 0.0000 0.0000 3.1765 0.0000 27.2139
#
#
#
# Elastic Compliance Matrix: (Units=1/GPa)
#
#
# Indices 1 2 3 4 5 6 
#
# 1 0.022203 -0.000027 -0.002644 0.000000 -0.009461 0.000000
# 2 -0.000027 0.024709 -0.008645 0.000000 0.008573 0.000000
# 3 -0.002644 -0.008645 0.013728 0.000000 -0.001034 0.000000
# 4 0.000000 0.000000 0.000000 0.047367 0.000000 -0.005529
# 5 -0.009461 0.008573 -0.001034 0.000000 0.074766 0.000000
# 6 0.000000 0.000000 0.000000 -0.005529 0.000000 0.037391
#
#
# Mechanical properties :
#
#
# Convention : Reuss Voigt Hill
#
# Bulk Modulus (GPa) = 26.30903 32.61389 29.46146
# Shear Modulus (GPa) = 19.57220 22.87728 21.22474
#
# Velocity S-wave (km/s) = 3.12311 3.37652 3.25228
# Velocity P-wave (km/s) = 5.11040 5.60841 5.36519
#
# Compressibility (1/GPa) = 0.03800976
#
# Stress axis : x y z
#
# Youngs Moduli (GPa) = 45.03985 40.47089 72.84119
#
# Poissons Ratio (x) = 0.00107 0.19259
# Poissons Ratio (y) = 0.00119 0.62969
# Poissons Ratio (z) = 0.11908 0.34986
#
# Static dielectric constant tensor:
#      x y z
#    x 1.731320 0.000000 -0.000550 
#    y 0.000000 1.655840 0.000000 
#    z -0.000550 0.000000 1.747210 
# 
# From -- ./inp_files/94664.got.cif
#   From: 2010.05.17/outbox.cif.g08.bks.cpg/sg10_48_cif.got.tgz:94664.got - 2010.06.03 11:33:40.
