data_PCOD9143590
_publ_section_title
;
Structure prediction by ZEFSAII (Michael W. Deem and Ramdas Pophale) SiO2 
 PCOD9143590
Probable space group: P 2/M
;
_chemical_formula_sum "Si O2"
_cell_formula_units_Z 32
_cell_length_a 18.196101
_cell_length_b 8.793591
_cell_length_c 25.310733
_cell_angle_alpha 90.000000
_cell_angle_beta 153.273082
_cell_angle_gamma 90.000000
_cell_volume 1821.417676
_symmetry_space_group_name_H-M "P 2/M"
_symmetry_group_IT_number 10
_symmetry_cell_setting 'monoclinic'
loop_
_space_group_symop_operation_xyz
x,y,z
-x,y,-z
-x,-y,-z
x,-y,z
loop_
_atom_site_type_symbol
_atom_site_label
_atom_site_fract_x
_atom_site_fract_y
_atom_site_fract_z
Si Si1 0.702546 0.183436 0.021914
Si Si2 0.399260 0.674468 0.880149
Si Si3 0.793850 0.185258 0.962922
Si Si4 0.896005 0.181955 0.252072
Si Si5 0.426049 0.184349 0.274640
Si Si6 0.311693 0.821457 0.397245
Si Si7 0.751254 0.319853 0.529726
Si Si8 0.842368 0.185079 0.811428
O O1 0.764291 0.233853 0.004178
O O2 0.822340 0.228889 0.147134
O O3 0.696534 0.000000 0.018575
O O4 0.522363 0.246456 0.918518
O O5 0.367504 0.500000 0.845223
O O6 0.232798 0.761204 0.786920
O O7 0.500000 0.675601 0.000000
O O8 0.973119 0.234166 0.058268
O O9 0.796012 0.000000 0.964389
O O10 0.652527 0.230425 0.831650
O O11 0.073918 0.251613 0.373696
O O12 0.904562 0.000000 0.258140
O O13 0.601942 0.251804 0.400267
O O14 0.296198 0.233595 0.236433
O O15 0.436736 0.000000 0.283490
O O16 0.500000 0.812204 0.500000
O O17 0.280661 0.728888 0.430073
O O18 0.204873 0.771501 0.278566
O O19 0.275728 0.000000 0.385252
O O20 0.753874 0.500000 0.526711
O O21 0.839805 0.000000 0.811078
#
# Coordination Sequence:
#
# PCOD9143590 Si02
#       8
#     4   4   4   4   4   4   4   4
#     4   9  17  31  52  80 109 135 167 209 257 305
#     4   9  17  30  50  78 111 140 166 199 249 310
#     4   9  17  29  51  79 102 128 171 223 259 296
#     4  10  19  33  55  80 107 136 170 209 253 305
#     4  10  19  34  53  72  97 135 180 219 259 301
#     4  10  18  32  53  75 100 132 170 211 256 306
#     4  12  24  35  49  72 106 140 174 213 259 310
#     4   9  16  29  51  78 102 127 169 222 265 300
#
# _framework density 17.568733000000002
#
# number of rings (size 3 to 8) (size 9 to 14) (size 15 to 20)
#    0.000    2.250    1.250    3.000    0.000    5.750 
#    0.000    0.625    0.000    3.750    0.000    5.250 
#    0.000    0.000    0.000    0.000    0.000    0.000 
#
# Total GULP energy -178543.710130 kJ/mol
# GULP energy per Si atom -5579.490942 kJ/mol
# Density = 1.752875 g / cm^3
# Si number density = 17.568733 Si / 1000 Ang^3
#
#
#
# Elastic Constant Matrix: (Units=GPa)
#
#
# Indices 1 2 3 4 5 6 
#
# 1 64.9825 22.1955 60.4468 0.0000 22.7846 0.0000
# 2 22.1955 38.9494 37.3393 0.0000 11.1061 0.0000
# 3 60.4468 37.3393 136.5745 0.0000 21.1892 0.0000
# 4 0.0000 0.0000 0.0000 5.4808 0.0000 -2.3616
# 5 22.7846 11.1061 21.1892 0.0000 25.8329 0.0000
# 6 0.0000 0.0000 0.0000 -2.3616 0.0000 3.2946
#
#
#
# Elastic Compliance Matrix: (Units=1/GPa)
#
#
# Indices 1 2 3 4 5 6 
#
# 1 0.033302 -0.003041 -0.010947 0.000000 -0.019086 0.000000
# 2 -0.003041 0.036656 -0.007616 0.000000 -0.006830 0.000000
# 3 -0.010947 -0.007616 0.014028 0.000000 0.001423 0.000000
# 4 0.000000 0.000000 0.000000 0.263986 0.000000 0.189223
# 5 -0.019086 -0.006830 0.001423 0.000000 0.057314 0.000000
# 6 0.000000 0.000000 0.000000 0.189223 0.000000 0.439157
#
#
# Mechanical properties :
#
#
# Convention : Reuss Voigt Hill
#
# Bulk Modulus (GPa) = 24.52237 53.38549 38.95393
# Shear Modulus (GPa) = 5.54789 14.95667 10.25228
#
# Velocity S-wave (km/s) = 1.77895 2.92091 2.41830
# Velocity P-wave (km/s) = 4.26706 6.46747 5.47887
#
# Compressibility (1/GPa) = 0.04077909
#
# Stress axis : x y z
#
# Youngs Moduli (GPa) = 30.02806 27.28060 71.28355
#
# Poissons Ratio (x) = 0.08296 0.78032
# Poissons Ratio (y) = 0.09131 0.54291
# Poissons Ratio (z) = 0.32871 0.20777
#
# Static dielectric constant tensor:
#      x y z
#    x 1.588480 0.000000 0.000390 
#    y 0.000000 1.589610 0.000000 
#    z 0.000390 0.000000 1.595450 
# 
# From -- ./inp_files/89977.got.cif
#   From: 2010.05.17/outbox.cif.g08.bks.cpg/sg10_45_cif.got.tgz:89977.got - 2010.06.03 11:33:40.
