data_PCOD9143498
_publ_section_title
;
Structure prediction by ZEFSAII (Michael W. Deem and Ramdas Pophale) SiO2 
 PCOD9143498
Probable space group: P 2/M
;
_chemical_formula_sum "Si O2"
_cell_formula_units_Z 28
_cell_length_a 18.381070
_cell_length_b 13.230201
_cell_length_c 21.005119
_cell_angle_alpha 90.000000
_cell_angle_beta 159.341571
_cell_angle_gamma 90.000000
_cell_volume 1802.129839
_symmetry_space_group_name_H-M "P 2/M"
_symmetry_group_IT_number 10
_symmetry_cell_setting 'monoclinic'
loop_
_space_group_symop_operation_xyz
x,y,z
-x,y,-z
-x,-y,-z
x,-y,z
loop_
_atom_site_type_symbol
_atom_site_label
_atom_site_fract_x
_atom_site_fract_y
_atom_site_fract_z
Si Si1 0.949244 0.729498 0.299342
Si Si2 0.764560 0.622530 0.568668
Si Si3 0.851154 0.884950 0.439381
Si Si4 0.307709 0.377345 0.214804
Si Si5 0.209744 0.614613 0.712608
Si Si6 0.493734 0.198060 0.068688
Si Si7 0.126831 0.377435 0.198346
O O1 0.858559 0.643965 0.272331
O O2 0.086002 0.678989 0.357273
O O3 0.081360 0.805632 0.451732
O O4 0.743144 0.786109 0.106955
O O5 0.784909 0.500000 0.578832
O O6 0.525266 0.651675 0.363215
O O7 0.814428 0.651075 0.682485
O O8 0.624098 0.867695 0.224709
O O9 0.000000 0.869331 0.500000
O O10 0.877762 0.000000 0.483264
O O11 0.307573 0.500000 0.215697
O O12 0.275224 0.345032 0.261789
O O13 0.104747 0.345774 0.010155
O O14 0.285020 0.500000 0.769367
O O15 0.380422 0.695512 0.831028
O O16 0.000000 0.623819 0.500000
O O17 0.500000 0.159668 0.000000
O O18 0.131179 0.500000 0.200999
#
# Coordination Sequence:
#
# PCOD9143498 Si02
#       7
#     4   4   4   4   4   4   4
#     4  11  21  33  47  70  98 122 155 195 239 285
#     4  10  19  28  42  67 100 133 161 189 225 267
#     4  11  21  37  56  72  88 110 152 206 256 297
#     4   8  14  26  44  62  88 127 168 197 221 256
#     4  10  18  32  49  63  89 130 166 190 219 264
#     4  10  19  34  50  70  90 116 155 197 237 280
#     4   8  14  26  42  63  89 125 168 199 220 256
#
# _framework density 15.537171000000001
#
# number of rings (size 3 to 8) (size 9 to 14) (size 15 to 20)
#    0.000    2.286    4.286    1.714    0.000    6.857 
#    0.000    0.000    0.000    0.000    0.000    0.000 
#    0.000    2.286    0.000    8.571    0.000    0.286 
#
# Total GULP energy -156003.476752 kJ/mol
# GULP energy per Si atom -5571.552741 kJ/mol
# Density = 1.550181 g / cm^3
# Si number density = 15.537171 Si / 1000 Ang^3
#
#
#
# Elastic Constant Matrix: (Units=GPa)
#
#
# Indices 1 2 3 4 5 6 
#
# 1 43.7297 13.1383 27.9736 0.0000 17.9325 0.0000
# 2 13.1383 37.3241 5.9898 0.0000 -1.2788 0.0000
# 3 27.9736 5.9898 85.8662 0.0000 11.0503 0.0000
# 4 0.0000 0.0000 0.0000 6.2032 0.0000 -1.2756
# 5 17.9325 -1.2788 11.0503 0.0000 24.4176 0.0000
# 6 0.0000 0.0000 0.0000 -1.2756 0.0000 9.3403
#
#
#
# Elastic Compliance Matrix: (Units=1/GPa)
#
#
# Indices 1 2 3 4 5 6 
#
# 1 0.046614 -0.015821 -0.010162 0.000000 -0.030463 0.000000
# 2 -0.015821 0.032600 0.001237 0.000000 0.012767 0.000000
# 3 -0.010162 0.001237 0.014761 0.000000 0.000847 0.000000
# 4 0.000000 0.000000 0.000000 0.165865 0.000000 0.022652
# 5 -0.030463 0.012767 0.000847 0.000000 0.063612 0.000000
# 6 0.000000 0.000000 0.000000 0.022652 0.000000 0.110157
#
#
# Mechanical properties :
#
#
# Convention : Reuss Voigt Hill
#
# Bulk Modulus (GPa) = 22.48021 29.01370 25.74696
# Shear Modulus (GPa) = 10.04159 15.98010 13.01084
#
# Velocity S-wave (km/s) = 2.54499 3.21051 2.89693
# Velocity P-wave (km/s) = 4.80999 5.69715 5.27226
#
# Compressibility (1/GPa) = 0.04448356
#
# Stress axis : x y z
#
# Youngs Moduli (GPa) = 21.45282 30.67450 67.74520
#
# Poissons Ratio (x) = 0.48531 0.68842
# Poissons Ratio (y) = 0.33941 -0.08381
# Poissons Ratio (z) = 0.21800 -0.03795
#
# Static dielectric constant tensor:
#      x y z
#    x 1.502100 0.000000 -0.010050 
#    y 0.000000 1.507160 0.000000 
#    z -0.010050 0.000000 1.564110 
# 
# From -- ./inp_files/85925.got.cif
#   From: 2010.05.17/outbox.cif.g08.bks.cpg/sg10_43_cif.got.tgz:85925.got - 2010.06.03 11:33:40.
