data_PCOD9143779
_publ_section_title
;
Structure prediction by ZEFSAII (Michael W. Deem and Ramdas Pophale) SiO2 
 PCOD9143779
Probable space group: P 2/M
;
_chemical_formula_sum "Si O2"
_cell_formula_units_Z 24
_cell_length_a 10.654437
_cell_length_b 12.388929
_cell_length_c 10.475955
_cell_angle_alpha 90.000000
_cell_angle_beta 58.929579
_cell_angle_gamma 90.000000
_cell_volume 1184.410678
_symmetry_space_group_name_H-M "P 2/M"
_symmetry_group_IT_number 10
_symmetry_cell_setting 'monoclinic'
loop_
_space_group_symop_operation_xyz
x,y,z
-x,y,-z
-x,-y,-z
x,-y,z
loop_
_atom_site_type_symbol
_atom_site_label
_atom_site_fract_x
_atom_site_fract_y
_atom_site_fract_z
Si Si1 0.830942 0.122987 0.330176
Si Si2 0.677139 0.267447 0.915148
Si Si3 0.656147 0.125935 0.163787
Si Si4 0.404897 0.735860 0.419053
Si Si5 0.471266 0.500000 0.360019
Si Si6 0.646966 0.500000 0.010445
Si Si7 0.885866 0.122819 0.677120
O O1 0.771525 0.137088 0.218672
O O2 0.743978 0.206838 0.463161
O O3 0.002995 0.132924 0.261310
O O4 0.789785 0.000000 0.390330
O O5 0.763257 0.214899 0.751532
O O6 0.500000 0.267639 0.000000
O O7 0.711877 0.184933 0.010088
O O8 0.723382 0.388197 0.930713
O O9 0.507370 0.187079 0.281444
O O10 0.628456 0.000000 0.157124
O O11 0.500000 0.726995 0.500000
O O12 0.391754 0.613867 0.374713
O O13 0.500000 0.500000 0.500000
O O14 0.602840 0.500000 0.184770
O O15 0.500000 0.500000 0.000000
O O16 0.000000 0.132494 0.500000
O O17 0.825006 0.000000 0.705973
#
# Coordination Sequence:
#
# PCOD9143779 Si02
#       7
#     4   4   4   4   2   2   4
#     4   9  19  35  55  84 123 159 193 239 303 364
#     4  11  24  41  62  87 118 155 204 249 299 360
#     4  10  19  32  57  87 116 152 197 245 294 353
#     4   9  17  30  52  86 118 151 193 243 293 347
#     4  10  18  32  57  87 121 158 201 254 304 350
#     4  10  22  40  60  86 120 163 199 251 308 358
#     4  10  23  41  61  87 123 162 196 244 307 364
#
# _framework density 20.263242000000002
#
# number of rings (size 3 to 8) (size 9 to 14) (size 15 to 20)
#    0.000    2.167    1.667    1.000    2.333    4.000 
#    0.000    3.750    0.000    1.000    0.000    0.000 
#    0.000    0.000    0.000    0.000    0.000    0.000 
#
# Total GULP energy -133870.390877 kJ/mol
# GULP energy per Si atom -5577.932953 kJ/mol
# Density = 2.021712 g / cm^3
# Si number density = 20.263242 Si / 1000 Ang^3
#
#
#
# Elastic Constant Matrix: (Units=GPa)
#
#
# Indices 1 2 3 4 5 6 
#
# 1 59.0888 34.2989 10.6191 0.0000 0.4816 0.0000
# 2 34.2989 173.0422 67.5666 0.0000 -6.7813 0.0000
# 3 10.6191 67.5666 87.8396 0.0000 0.1246 0.0000
# 4 0.0000 0.0000 0.0000 12.0091 0.0000 -9.3577
# 5 0.4816 -6.7813 0.1246 0.0000 24.2323 0.0000
# 6 0.0000 0.0000 0.0000 -9.3577 0.0000 7.5834
#
#
#
# Elastic Compliance Matrix: (Units=1/GPa)
#
#
# Indices 1 2 3 4 5 6 
#
# 1 0.019229 -0.004240 0.000939 0.000000 -0.001573 0.000000
# 2 -0.004240 0.009330 -0.006668 0.000000 0.002729 0.000000
# 3 0.000939 -0.006668 0.016403 0.000000 -0.001969 0.000000
# 4 0.000000 0.000000 0.000000 2.164868 0.000000 2.671385
# 5 -0.001573 0.002729 -0.001969 0.000000 0.042072 0.000000
# 6 0.000000 0.000000 0.000000 2.671385 0.000000 3.428279
#
#
# Mechanical properties :
#
#
# Convention : Reuss Voigt Hill
#
# Bulk Modulus (GPa) = 39.96204 60.54889 50.25547
# Shear Modulus (GPa) = 0.87589 22.59736 11.73663
#
# Velocity S-wave (km/s) = 0.65818 3.34307 2.40928
# Velocity P-wave (km/s) = 4.51019 6.69683 5.70917
#
# Compressibility (1/GPa) = 0.02502375
#
# Stress axis : x y z
#
# Youngs Moduli (GPa) = 52.00557 107.18365 60.96578
#
# Poissons Ratio (x) = 0.45441 -0.05723
# Poissons Ratio (y) = 0.22048 0.40651
# Poissons Ratio (z) = -0.04882 0.71469
#
# Static dielectric constant tensor:
#      x y z
#    x 1.766540 0.000000 0.073750 
#    y 0.000000 1.719940 0.000000 
#    z 0.073750 0.000000 1.794540 
# 
# From -- ./inp_files/46546.got.cif
#   From: 2010.05.17/outbox.cif.g08.bks.cpg/sg10_24_cif.got.tgz:46546.got - 2010.06.03 11:33:40.
