data_PCOD9143431
_publ_section_title
;
Structure prediction by ZEFSAII (Michael W. Deem and Ramdas Pophale) SiO2 
 PCOD9143431
Probable space group: P 2/M
;
_chemical_formula_sum "Si O2"
_cell_formula_units_Z 32
_cell_length_a 15.274651
_cell_length_b 7.406997
_cell_length_c 23.155544
_cell_angle_alpha 90.000000
_cell_angle_beta 32.325419
_cell_angle_gamma 90.000000
_cell_volume 1400.879580
_symmetry_space_group_name_H-M "P 2/M"
_symmetry_group_IT_number 10
_symmetry_cell_setting 'monoclinic'
loop_
_space_group_symop_operation_xyz
x,y,z
-x,y,-z
-x,-y,-z
x,-y,z
loop_
_atom_site_type_symbol
_atom_site_label
_atom_site_fract_x
_atom_site_fract_y
_atom_site_fract_z
Si Si1 0.735485 0.790663 0.986072
Si Si2 0.041045 0.779858 0.348490
Si Si3 0.983421 0.783176 0.252437
Si Si4 0.838768 0.718447 0.055413
Si Si5 0.556491 0.281168 0.299316
Si Si6 0.624384 0.220345 0.784104
Si Si7 0.357105 0.715394 0.621302
Si Si8 0.234280 0.791814 0.415791
O O1 0.857153 0.712586 0.870392
O O2 0.710114 0.000000 0.984385
O O3 0.827308 0.782786 0.996407
O O4 0.554514 0.712864 0.097787
O O5 0.229853 0.733235 0.253552
O O6 0.977625 0.718033 0.321602
O O7 0.928292 0.714438 0.464300
O O8 0.030799 0.000000 0.355211
O O9 0.819464 0.745945 0.308094
O O10 0.997882 0.000000 0.246943
O O11 0.840245 0.500000 0.052862
O O12 0.679771 0.777176 0.180025
O O13 0.000000 0.776304 0.000000
O O14 0.553947 0.500000 0.300212
O O15 0.620956 0.218465 0.325518
O O16 0.375337 0.215991 0.385567
O O17 0.685107 0.285184 0.687229
O O18 0.613016 0.000000 0.787289
O O19 0.500000 0.786811 0.500000
O O20 0.378961 0.500000 0.612710
O O21 0.196171 0.000000 0.422712
#
# Coordination Sequence:
#
# PCOD9143431 Si02
#       8
#     4   4   4   4   4   4   4   4
#     4  10  20  34  52  77 107 136 171 216 259 302
#     4   9  18  32  52  78 105 137 175 214 259 311
#     4  10  21  35  52  78 109 139 174 216 261 306
#     4  10  20  34  52  73  99 135 174 210 254 309
#     4  10  20  33  51  76 104 134 169 210 261 313
#     4   9  17  31  52  78 106 136 173 215 259 307
#     4  10  21  37  56  77 104 141 180 214 254 309
#     4  10  18  31  54  80 105 134 172 216 260 307
#
# _framework density 22.842793
#
# number of rings (size 3 to 8) (size 9 to 14) (size 15 to 20)
#    0.000    2.250    1.250    1.875    0.000    4.500 
#    0.000    2.500    0.000    3.750    0.000    1.750 
#    0.000    0.000    0.000    0.000    0.000    0.000 
#
# Total GULP energy -178851.613655 kJ/mol
# GULP energy per Si atom -5589.112927 kJ/mol
# Density = 2.279080 g / cm^3
# Si number density = 22.842793 Si / 1000 Ang^3
#
#
#
# Elastic Constant Matrix: (Units=GPa)
#
#
# Indices 1 2 3 4 5 6 
#
# 1 69.5572 -12.8125 7.3688 0.0000 -4.2664 0.0000
# 2 -12.8125 76.0583 -1.1962 0.0000 6.0126 0.0000
# 3 7.3688 -1.1962 125.6473 0.0000 -2.1882 0.0000
# 4 0.0000 0.0000 0.0000 2.7846 0.0000 -13.9130
# 5 -4.2664 6.0126 -2.1882 0.0000 43.6774 0.0000
# 6 0.0000 0.0000 0.0000 -13.9130 0.0000 19.7618
#
#
#
# Elastic Compliance Matrix: (Units=1/GPa)
#
#
# Indices 1 2 3 4 5 6 
#
# 1 0.014978 0.002424 -0.000836 0.000000 0.001087 0.000000
# 2 0.002424 0.013686 -0.000041 0.000000 -0.001649 0.000000
# 3 -0.000836 -0.000041 0.008013 0.000000 0.000325 0.000000
# 4 0.000000 0.000000 0.000000 -0.142641 0.000000 -0.100424
# 5 0.001087 -0.001649 0.000325 0.000000 0.023245 0.000000
# 6 0.000000 0.000000 0.000000 -0.100424 0.000000 -0.020100
#
#
# Mechanical properties :
#
#
# Convention : Reuss Voigt Hill
#
# Bulk Modulus (GPa) = 25.14352 28.66478 26.90415
# Shear Modulus (GPa) = -53.96342 31.77161 -11.09591
#
# Velocity S-wave (km/s) = -4.86571 3.73350 -2.20637
# Velocity P-wave (km/s) = 4.53164 5.58223 2.30495
#
# Compressibility (1/GPa) = 0.03977168
#
# Stress axis : x y z
#
# Youngs Moduli (GPa) = 66.76241 73.06789 124.79539
#
# Poissons Ratio (x) = -0.17712 0.10438
# Poissons Ratio (y) = -0.16184 0.00507
# Poissons Ratio (z) = 0.05584 0.00297
#
# Static dielectric constant tensor:
#      x y z
#    x 1.807220 0.000000 0.010770 
#    y 0.000000 1.931830 0.000000 
#    z 0.010770 0.000000 1.835990 
# 
# From -- ./inp_files/71289.got.cif
#   From: 2010.05.17/outbox.cif.g08.bks.cpg/sg10_36_cif.got.tgz:71289.got - 2010.06.03 11:33:40.
