data_PCOD9143288
_publ_section_title
;
Structure prediction by ZEFSAII (Michael W. Deem and Ramdas Pophale) SiO2 
 PCOD9143288
Probable space group: P 2/M
;
_chemical_formula_sum "Si O2"
_cell_formula_units_Z 32
_cell_length_a 14.417595
_cell_length_b 7.348931
_cell_length_c 13.595729
_cell_angle_alpha 90.000000
_cell_angle_beta 92.788847
_cell_angle_gamma 90.000000
_cell_volume 1438.814545
_symmetry_space_group_name_H-M "P 2/M"
_symmetry_group_IT_number 10
_symmetry_cell_setting 'monoclinic'
loop_
_space_group_symop_operation_xyz
x,y,z
-x,y,-z
-x,-y,-z
x,-y,z
loop_
_atom_site_type_symbol
_atom_site_label
_atom_site_fract_x
_atom_site_fract_y
_atom_site_fract_z
Si Si1 0.916906 0.280584 0.723061
Si Si2 0.723409 0.722699 0.624516
Si Si3 0.071407 0.790410 0.584625
Si Si4 0.903947 0.278089 0.947330
Si Si5 0.399470 0.278392 0.195612
Si Si6 0.705257 0.277970 0.008646
Si Si7 0.614017 0.277345 0.208363
Si Si8 0.715361 0.708066 0.408151
O O1 0.918083 0.500000 0.722728
O O2 0.829352 0.222002 0.652851
O O3 0.900146 0.221485 0.833600
O O4 0.013908 0.219415 0.682493
O O5 0.723218 0.500000 0.622960
O O6 0.658808 0.779343 0.711783
O O7 0.694303 0.786928 0.514851
O O8 0.172851 0.706048 0.595834
O O9 0.000000 0.710805 0.500000
O O10 0.087299 0.000000 0.558639
O O11 0.903836 0.500000 0.947769
O O12 0.811751 0.221103 0.999746
O O13 0.000000 0.218230 0.000000
O O14 0.397092 0.500000 0.195479
O O15 0.506477 0.223482 0.206295
O O16 0.351998 0.220869 0.091007
O O17 0.703703 0.500000 0.008723
O O18 0.660941 0.218075 0.108827
O O19 0.616923 0.500000 0.207225
O O20 0.668771 0.213464 0.308112
O O21 0.681871 0.500000 0.410571
#
# Coordination Sequence:
#
# PCOD9143288 Si02
#       8
#     4   4   4   4   4   4   4   4
#     4  10  18  31  51  74  99 132 169 203 242 294
#     4   9  16  27  45  68  96 128 163 200 241 291
#     4  11  23  36  51  72  98 131 167 205 250 301
#     4   9  17  26  41  70 101 131 165 205 247 287
#     4   9  15  26  42  64  99 137 165 197 248 297
#     4   9  15  25  39  62  99 136 167 197 240 296
#     4   9  18  27  41  68 101 134 163 200 249 295
#     4  10  20  33  49  74 102 129 164 204 247 298
#
# _framework density 22.240532999999999
#
# number of rings (size 3 to 8) (size 9 to 14) (size 15 to 20)
#    0.000    2.500    2.500    0.750    1.750    2.500 
#    0.000    2.500    0.000    0.375    0.000    2.625 
#    0.000    1.000    0.000    0.000    0.000    0.000 
#
# Total GULP energy -178814.461815 kJ/mol
# GULP energy per Si atom -5587.951932 kJ/mol
# Density = 2.218991 g / cm^3
# Si number density = 22.240533 Si / 1000 Ang^3
#
#
#
# Elastic Constant Matrix: (Units=GPa)
#
#
# Indices 1 2 3 4 5 6 
#
# 1 136.7751 -0.5554 104.5287 0.0000 14.6952 0.0000
# 2 -0.5554 83.8668 6.8609 0.0000 2.2306 0.0000
# 3 104.5287 6.8609 209.7391 0.0000 -0.6384 0.0000
# 4 0.0000 0.0000 0.0000 1.5523 0.0000 -3.3425
# 5 14.6952 2.2306 -0.6384 0.0000 35.1613 0.0000
# 6 0.0000 0.0000 0.0000 -3.3425 0.0000 -22.5180
#
#
#
# Elastic Compliance Matrix: (Units=1/GPa)
#
#
# Indices 1 2 3 4 5 6 
#
# 1 0.012824 0.000758 -0.006433 0.000000 -0.005525 0.000000
# 2 0.000758 0.012021 -0.000774 0.000000 -0.001094 0.000000
# 3 -0.006433 -0.000774 0.008008 0.000000 0.002883 0.000000
# 4 0.000000 0.000000 0.000000 0.488160 0.000000 -0.072462
# 5 -0.005525 -0.001094 0.002883 0.000000 0.030871 0.000000
# 6 0.000000 0.000000 0.000000 -0.072462 0.000000 -0.033653
#
#
# Mechanical properties :
#
#
# Convention : Reuss Voigt Hill
#
# Bulk Modulus (GPa) = 50.11290 72.44993 61.28142
# Shear Modulus (GPa) = 9.29746 24.14224 16.71985
#
# Velocity S-wave (km/s) = 2.04682 3.29828 2.74482
# Velocity P-wave (km/s) = 5.30727 6.86667 6.13671
#
# Compressibility (1/GPa) = 0.01995494
#
# Stress axis : x y z
#
# Youngs Moduli (GPa) = 77.97796 83.18688 124.87663
#
# Poissons Ratio (x) = -0.06307 0.80331
# Poissons Ratio (y) = -0.05912 0.09670
# Poissons Ratio (z) = 0.50162 0.06442
#
# Static dielectric constant tensor:
#      x y z
#    x 1.752630 0.000000 0.004540 
#    y 0.000000 1.853900 0.000000 
#    z 0.004540 0.000000 1.794380 
# 
# From -- ./inp_files/49783.got.cif
#   From: 2010.05.17/outbox.cif.g08.bks.cpg/sg10_25_cif.got.tgz:49783.got - 2010.06.03 11:33:40.
