data_PCOD9143328
_publ_section_title
;
Structure prediction by ZEFSAII (Michael W. Deem and Ramdas Pophale) SiO2 
 PCOD9143328
Probable space group: P 2/M
;
_chemical_formula_sum "Si O2"
_cell_formula_units_Z 26
_cell_length_a 5.523639
_cell_length_b 13.504985
_cell_length_c 20.194827
_cell_angle_alpha 90.000000
_cell_angle_beta 114.740215
_cell_angle_gamma 90.000000
_cell_volume 1368.195123
_symmetry_space_group_name_H-M "P 2/M"
_symmetry_group_IT_number 10
_symmetry_cell_setting 'monoclinic'
loop_
_space_group_symop_operation_xyz
x,y,z
-x,y,-z
-x,-y,-z
x,-y,z
loop_
_atom_site_type_symbol
_atom_site_label
_atom_site_fract_x
_atom_site_fract_y
_atom_site_fract_z
Si Si1 0.887427 0.307382 0.417729
Si Si2 0.263975 0.116280 0.856455
Si Si3 0.335092 0.388164 0.327802
Si Si4 0.815146 0.500000 0.545573
Si Si5 0.849957 0.216487 0.913302
Si Si6 0.897528 0.764161 0.280148
Si Si7 0.537182 0.388928 0.812861
O O1 0.615599 0.368187 0.395383
O O2 0.831674 0.232782 0.350726
O O3 0.000000 0.267536 0.500000
O O4 0.095071 0.391856 0.416382
O O5 0.570483 0.156263 0.891595
O O6 0.152981 0.140878 0.770095
O O7 0.057826 0.169037 0.884067
O O8 0.265359 0.000000 0.870511
O O9 0.235316 0.500000 0.333671
O O10 0.383740 0.397285 0.254542
O O11 0.186242 0.283348 0.313432
O O12 0.500000 0.500000 0.500000
O O13 0.000000 0.500000 0.500000
O O14 0.753657 0.323957 0.876452
O O15 0.000000 0.222295 0.000000
O O16 0.727456 0.678030 0.223107
O O17 0.494314 0.500000 0.834318
#
# Coordination Sequence:
#
# PCOD9143328 Si02
#       7
#     4   4   4   2   4   4   4
#     4  10  22  32  47  79 117 156 196 244 294 344
#     4  11  24  44  66  90 119 154 200 253 308 360
#     4  10  18  31  52  76 112 157 199 237 288 343
#     4  10  22  34  46  74 118 158 191 233 289 351
#     4  11  23  41  65  96 126 153 194 244 298 363
#     4  10  21  34  57  80 113 158 203 250 292 356
#     4   9  19  36  53  84 123 163 202 234 284 350
#
# _framework density 19.003136999999999
#
# number of rings (size 3 to 8) (size 9 to 14) (size 15 to 20)
#    0.000    1.846    2.308    1.385    6.462    2.154 
#    0.000    0.000    0.000    3.231    0.000    1.077 
#    0.000    0.000    0.000    0.000    0.000    0.000 
#
# Total GULP energy -144745.448683 kJ/mol
# GULP energy per Si atom -5567.132642 kJ/mol
# Density = 1.895989 g / cm^3
# Si number density = 19.003137 Si / 1000 Ang^3
#
#
#
# Elastic Constant Matrix: (Units=GPa)
#
#
# Indices 1 2 3 4 5 6 
#
# 1 78.1496 15.3234 30.7708 0.0000 13.1880 0.0000
# 2 15.3234 65.1295 31.1914 0.0000 4.5915 0.0000
# 3 30.7708 31.1914 136.1093 0.0000 8.1868 0.0000
# 4 0.0000 0.0000 0.0000 24.5473 0.0000 -14.2458
# 5 13.1880 4.5915 8.1868 0.0000 29.5572 0.0000
# 6 0.0000 0.0000 0.0000 -14.2458 0.0000 37.2488
#
#
#
# Elastic Compliance Matrix: (Units=1/GPa)
#
#
# Indices 1 2 3 4 5 6 
#
# 1 0.015181 -0.001897 -0.002652 0.000000 -0.005745 0.000000
# 2 -0.001897 0.017560 -0.003541 0.000000 -0.000901 0.000000
# 3 -0.002652 -0.003541 0.008800 0.000000 -0.000704 0.000000
# 4 0.000000 0.000000 0.000000 0.052359 0.000000 0.020025
# 5 -0.005745 -0.000901 -0.000704 0.000000 0.036731 0.000000
# 6 0.000000 0.000000 0.000000 0.020025 0.000000 0.034505
#
#
# Mechanical properties :
#
#
# Convention : Reuss Voigt Hill
#
# Bulk Modulus (GPa) = 39.42911 48.21772 43.82341
# Shear Modulus (GPa) = 26.34771 31.74417 29.04594
#
# Velocity S-wave (km/s) = 3.72760 4.09157 3.91382
# Velocity P-wave (km/s) = 6.27060 6.91013 6.59812
#
# Compressibility (1/GPa) = 0.02536197
#
# Stress axis : x y z
#
# Youngs Moduli (GPa) = 65.86972 56.94867 113.63100
#
# Poissons Ratio (x) = 0.10802 0.30134
# Poissons Ratio (y) = 0.12494 0.40238
# Poissons Ratio (z) = 0.17468 0.20166
#
# Static dielectric constant tensor:
#      x y z
#    x 1.826930 0.000000 0.015260 
#    y 0.000000 1.648680 0.000000 
#    z 0.015260 0.000000 1.787040 
# 
# From -- ./inp_files/81240.got.cif
#   From: 2010.05.17/outbox.cif.g08.bks.cpg/sg10_41_cif.got.tgz:81240.got - 2010.06.03 11:33:40.
