data_PCOD9143661
_publ_section_title
;
Structure prediction by ZEFSAII (Michael W. Deem and Ramdas Pophale) SiO2 
 PCOD9143661
Probable space group: P 2/M
;
_chemical_formula_sum "Si O2"
_cell_formula_units_Z 28
_cell_length_a 10.056314
_cell_length_b 7.735822
_cell_length_c 28.328525
_cell_angle_alpha 90.000000
_cell_angle_beta 138.461274
_cell_angle_gamma 90.000000
_cell_volume 1461.387493
_symmetry_space_group_name_H-M "P 2/M"
_symmetry_group_IT_number 10
_symmetry_cell_setting 'monoclinic'
loop_
_space_group_symop_operation_xyz
x,y,z
-x,y,-z
-x,-y,-z
x,-y,z
loop_
_atom_site_type_symbol
_atom_site_label
_atom_site_fract_x
_atom_site_fract_y
_atom_site_fract_z
Si Si1 0.979599 0.000000 0.073284
Si Si2 0.022768 0.799914 0.658228
Si Si3 0.542604 0.288738 0.663907
Si Si4 0.104901 0.709173 0.576643
Si Si5 0.534387 0.304825 0.192854
Si Si6 0.594319 0.300427 0.572677
Si Si7 0.809894 0.702560 0.818943
Si Si8 0.666281 0.000000 0.911580
O O1 0.024051 0.169928 0.116075
O O2 0.151856 0.000000 0.078363
O O3 0.770234 0.000000 0.990066
O O4 0.006797 0.782759 0.597442
O O5 0.238428 0.725792 0.730214
O O6 0.833387 0.705554 0.630483
O O7 0.014826 0.000000 0.669663
O O8 0.544002 0.500000 0.663160
O O9 0.336376 0.237364 0.634231
O O10 0.543148 0.225093 0.610273
O O11 0.729646 0.240286 0.746328
O O12 0.095613 0.500000 0.577896
O O13 0.000000 0.758734 0.500000
O O14 0.512026 0.500000 0.169572
O O15 0.383460 0.285196 0.197389
O O16 0.465356 0.167022 0.135843
O O17 0.500000 0.221046 0.500000
O O18 0.522137 0.500000 0.554902
O O19 0.868386 0.500000 0.833448
#
# Coordination Sequence:
#
# PCOD9143661 Si02
#       8
#     2   4   4   4   4   4   4   2
#     4   9  18  30  50  77 116 147 171 215 275 333
#     4  12  23  35  52  77 112 148 187 231 277 332
#     4   9  17  32  53  77 104 137 184 236 277 328
#     4  10  19  33  55  79 101 135 186 235 282 333
#     4  10  18  32  54  78 109 146 183 226 272 323
#     4  10  21  38  57  76 104 145 190 239 289 329
#     4   9  17  30  51  79 108 142 184 226 271 327
#     4   9  18  32  48  81 114 143 179 215 267 337
#
# _framework density 19.159873999999999
#
# number of rings (size 3 to 8) (size 9 to 14) (size 15 to 20)
#    0.000    2.143    2.143    2.143    0.000    3.429 
#    1.286    2.857    0.000    0.000    0.000    2.000 
#    0.000    4.571    0.000    0.000    0.000    0.000 
#
# Total GULP energy -156278.828573 kJ/mol
# GULP energy per Si atom -5581.386735 kJ/mol
# Density = 1.911627 g / cm^3
# Si number density = 19.159874 Si / 1000 Ang^3
#
#
#
# Elastic Constant Matrix: (Units=GPa)
#
#
# Indices 1 2 3 4 5 6 
#
# 1 29.9560 -5.7784 -10.1252 0.0000 -6.9111 0.0000
# 2 -5.7784 75.5854 37.0860 0.0000 -10.3736 0.0000
# 3 -10.1252 37.0860 97.1102 0.0000 -16.7017 0.0000
# 4 0.0000 0.0000 0.0000 20.9587 0.0000 2.0443
# 5 -6.9111 -10.3736 -16.7017 0.0000 22.2354 0.0000
# 6 0.0000 0.0000 0.0000 2.0443 0.0000 6.7747
#
#
#
# Elastic Compliance Matrix: (Units=1/GPa)
#
#
# Indices 1 2 3 4 5 6 
#
# 1 0.040309 0.002459 0.006449 0.000000 0.018520 0.000000
# 2 0.002459 0.016652 -0.005323 0.000000 0.004535 0.000000
# 3 0.006449 -0.005323 0.014837 0.000000 0.010666 0.000000
# 4 0.000000 0.000000 0.000000 0.049160 0.000000 -0.014834
# 5 0.018520 0.004535 0.010666 0.000000 0.060857 0.000000
# 6 0.000000 0.000000 0.000000 -0.014834 0.000000 0.152085
#
#
# Mechanical properties :
#
#
# Convention : Reuss Voigt Hill
#
# Bulk Modulus (GPa) = 12.66327 27.22404 19.94365
# Shear Modulus (GPa) = 14.16219 22.09170 18.12694
#
# Velocity S-wave (km/s) = 2.72170 3.39930 3.07919
# Velocity P-wave (km/s) = 4.06208 5.44488 4.80350
#
# Compressibility (1/GPa) = 0.07896857
#
# Stress axis : x y z
#
# Youngs Moduli (GPa) = 24.80824 60.05209 67.39811
#
# Poissons Ratio (x) = -0.14768 -0.43464
# Poissons Ratio (y) = -0.06101 0.35877
# Poissons Ratio (z) = -0.15999 0.31966
#
# Static dielectric constant tensor:
#      x y z
#    x 1.649560 0.000000 -0.009800 
#    y 0.000000 1.711170 0.000000 
#    z -0.009800 0.000000 1.662540 
# 
# From -- ./inp_files/92120.got.cif
#   From: 2010.05.17/outbox.cif.g08.bks.cpg/sg10_47_cif.got.tgz:92120.got - 2010.06.03 11:33:40.
