data_PCOD9143744
_publ_section_title
;
Structure prediction by ZEFSAII (Michael W. Deem and Ramdas Pophale) SiO2 
 PCOD9143744
Probable space group: P 2/M
;
_chemical_formula_sum "Si O2"
_cell_formula_units_Z 32
_cell_length_a 22.431755
_cell_length_b 7.676961
_cell_length_c 11.151763
_cell_angle_alpha 90.000000
_cell_angle_beta 129.896501
_cell_angle_gamma 90.000000
_cell_volume 1473.354181
_symmetry_space_group_name_H-M "P 2/M"
_symmetry_group_IT_number 10
_symmetry_cell_setting 'monoclinic'
loop_
_space_group_symop_operation_xyz
x,y,z
-x,y,-z
-x,-y,-z
x,-y,z
loop_
_atom_site_type_symbol
_atom_site_label
_atom_site_fract_x
_atom_site_fract_y
_atom_site_fract_z
Si Si1 0.495761 0.712741 0.634057
Si Si2 0.803404 0.709262 0.505477
Si Si3 0.095113 0.788629 0.863390
Si Si4 0.339128 0.697961 0.547789
Si Si5 0.238536 0.800604 0.200138
Si Si6 0.047189 0.295615 0.173154
Si Si7 0.334011 0.704099 0.094198
Si Si8 0.192088 0.792333 0.760159
O O1 0.500000 0.768197 0.500000
O O2 0.489669 0.500000 0.623424
O O3 0.419577 0.778505 0.605248
O O4 0.576915 0.760590 0.801180
O O5 0.800083 0.500000 0.516975
O O6 0.717329 0.778744 0.425071
O O7 0.869571 0.778348 0.681059
O O8 0.826505 0.742616 0.398848
O O9 0.131423 0.729782 0.783683
O O10 0.010768 0.722120 0.788882
O O11 0.094002 0.000000 0.862559
O O12 0.155863 0.732584 0.045927
O O13 0.357597 0.500000 0.609261
O O14 0.282527 0.696434 0.358982
O O15 0.292349 0.797995 0.151201
O O16 0.230158 0.000000 0.229243
O O17 0.058991 0.500000 0.162342
O O18 0.000000 0.216939 0.000000
O O19 0.335329 0.500000 0.127798
O O20 0.277602 0.727881 0.908836
O O21 0.192995 0.000000 0.770006
#
# Coordination Sequence:
#
# PCOD9143744 Si02
#       8
#     4   4   4   4   4   4   4   4
#     4   9  16  29  52  85 114 138 178 225 273 326
#     4  10  22  38  57  81 108 144 188 227 273 328
#     4   9  20  36  54  78 106 143 185 222 266 322
#     4  10  19  34  55  78 109 146 184 227 272 326
#     4  10  19  31  49  79 115 145 179 221 271 330
#     4  10  21  37  57  85 116 140 172 222 275 324
#     4  10  18  32  56  81 109 143 181 226 273 321
#     4  10  22  40  58  78 109 145 188 232 271 322
#
# _framework density 21.719149999999999
#
# number of rings (size 3 to 8) (size 9 to 14) (size 15 to 20)
#    0.000    2.250    1.250    2.625    0.000    5.750 
#    0.000    5.000    0.000    3.750    0.000    0.000 
#    0.000    0.000    0.000    0.000    0.000    0.000 
#
# Total GULP energy -178648.677529 kJ/mol
# GULP energy per Si atom -5582.771173 kJ/mol
# Density = 2.166972 g / cm^3
# Si number density = 21.719150 Si / 1000 Ang^3
#
#
#
# Elastic Constant Matrix: (Units=GPa)
#
#
# Indices 1 2 3 4 5 6 
#
# 1 117.3954 2.8949 41.9621 0.0000 22.8241 0.0000
# 2 2.8949 50.8494 1.5652 0.0000 2.7625 0.0000
# 3 41.9621 1.5652 68.1386 0.0000 2.7581 0.0000
# 4 0.0000 0.0000 0.0000 -2.3145 0.0000 -0.8250
# 5 22.8241 2.7625 2.7581 0.0000 36.9530 0.0000
# 6 0.0000 0.0000 0.0000 -0.8250 0.0000 21.4840
#
#
#
# Elastic Compliance Matrix: (Units=1/GPa)
#
#
# Indices 1 2 3 4 5 6 
#
# 1 0.012589 -0.000095 -0.007458 0.000000 -0.007212 0.000000
# 2 -0.000095 0.019757 -0.000339 0.000000 -0.001393 0.000000
# 3 -0.007458 -0.000339 0.019147 0.000000 0.003203 0.000000
# 4 0.000000 0.000000 0.000000 -0.426218 0.000000 -0.016368
# 5 -0.007212 -0.001393 0.003203 0.000000 0.031381 0.000000
# 6 0.000000 0.000000 0.000000 -0.016368 0.000000 0.045918
#
#
# Mechanical properties :
#
#
# Convention : Reuss Voigt Hill
#
# Bulk Modulus (GPa) = 28.00468 36.58089 32.29279
# Shear Modulus (GPa) = -18.53648 23.88856 2.67604
#
# Velocity S-wave (km/s) = -2.92458 3.32005 1.11121
# Velocity P-wave (km/s) = 1.23199 5.61927 4.06780
#
# Compressibility (1/GPa) = 0.03570831
#
# Stress axis : x y z
#
# Youngs Moduli (GPa) = 79.43695 50.61384 52.22679
#
# Poissons Ratio (x) = 0.00482 0.38953
# Poissons Ratio (y) = 0.00757 0.01769
# Poissons Ratio (z) = 0.59247 0.01715
#
# Static dielectric constant tensor:
#      x y z
#    x 1.828240 0.000000 0.015920 
#    y 0.000000 1.833740 0.000000 
#    z 0.015920 0.000000 1.773910 
# 
# From -- ./inp_files/55377.got.cif
#   From: 2010.05.17/outbox.cif.g08.bks.cpg/sg10_28_cif.got.tgz:55377.got - 2010.06.03 11:33:40.
