data_PCOD9143864
_publ_section_title
;
Structure prediction by ZEFSAII (Michael W. Deem and Ramdas Pophale) SiO2 
 PCOD9143864
Probable space group: P 2/M
;
_chemical_formula_sum "Si O2"
_cell_formula_units_Z 21
_cell_length_a 8.037694
_cell_length_b 17.360222
_cell_length_c 13.711341
_cell_angle_alpha 90.000000
_cell_angle_beta 25.793588
_cell_angle_gamma 90.000000
_cell_volume 832.503451
_symmetry_space_group_name_H-M "P 2/M"
_symmetry_group_IT_number 10
_symmetry_cell_setting 'monoclinic'
loop_
_space_group_symop_operation_xyz
x,y,z
-x,y,-z
-x,-y,-z
x,-y,z
loop_
_atom_site_type_symbol
_atom_site_label
_atom_site_fract_x
_atom_site_fract_y
_atom_site_fract_z
Si Si1 0.000000 0.500000 0.000000
Si Si2 0.049956 0.781299 0.087601
Si Si3 0.997591 0.385353 0.829623
Si Si4 0.942497 0.210950 0.636394
Si Si5 0.927685 0.386340 0.648579
Si Si6 0.956809 0.912826 0.781106
O O1 0.856221 0.433439 0.155330
O O2 0.491376 0.779046 0.887393
O O3 0.889638 0.704664 0.223314
O O4 0.949130 0.868884 0.168488
O O5 0.000000 0.769447 0.000000
O O6 0.072032 0.413691 0.679450
O O7 0.533923 0.390961 0.093324
O O8 0.082719 0.298482 0.561814
O O9 0.103574 0.151352 0.627966
O O10 0.000000 0.176345 0.500000
O O11 0.000000 0.417721 0.500000
O O12 0.092809 0.000000 0.701994
O O13 0.500000 0.917048 0.000000
#
# Coordination Sequence:
#
# PCOD9143864 Si02
#       6
#     1   4   4   4   4   4
#     4  12  24  38  58  84 118 144 176 228 290 342
#     4  10  18  33  55  76 107 144 179 224 276 330
#     4  10  20  37  58  82 110 145 182 230 281 329
#     4   9  17  31  54  79 103 140 187 224 261 321
#     4   9  18  36  62  82 104 145 195 226 262 330
#     4   9  17  30  51  79 107 141 183 222 265 322
#
# _framework density 25.225117999999998
#
# number of rings (size 3 to 8) (size 9 to 14) (size 15 to 20)
#    0.000    2.476    2.857    0.000    0.000    2.286 
#    0.000    4.762    0.000    1.143    0.000    0.000 
#    0.000    0.000    0.000    0.000    0.000    0.000 
#
# Total GULP energy -116908.868521 kJ/mol
# GULP energy per Si atom -5567.088977 kJ/mol
# Density = 2.516770 g / cm^3
# Si number density = 25.225118 Si / 1000 Ang^3
#
#
#
# Elastic Constant Matrix: (Units=GPa)
#
#
# Indices 1 2 3 4 5 6 
#
# 1 103.8557 27.2711 55.8201 0.0000 23.8589 0.0000
# 2 27.2711 208.9920 26.8240 0.0000 35.4051 0.0000
# 3 55.8201 26.8240 112.4153 0.0000 36.6052 0.0000
# 4 0.0000 0.0000 0.0000 9.7670 0.0000 31.4228
# 5 23.8589 35.4051 36.6052 0.0000 80.3289 0.0000
# 6 0.0000 0.0000 0.0000 31.4228 0.0000 16.5798
#
#
#
# Elastic Compliance Matrix: (Units=1/GPa)
#
#
# Indices 1 2 3 4 5 6 
#
# 1 0.013342 -0.000815 -0.006173 0.000000 -0.000791 0.000000
# 2 -0.000815 0.005253 -0.000204 0.000000 -0.001980 0.000000
# 3 -0.006173 -0.000204 0.013367 0.000000 -0.004168 0.000000
# 4 0.000000 0.000000 0.000000 -0.020086 0.000000 0.038067
# 5 -0.000791 -0.001980 -0.004168 0.000000 0.015456 0.000000
# 6 0.000000 0.000000 0.000000 0.038067 0.000000 -0.011832
#
#
# Mechanical properties :
#
#
# Convention : Reuss Voigt Hill
#
# Bulk Modulus (GPa) = 56.89015 71.67705 64.28360
# Shear Modulus (GPa) = 139.88695 42.35833 91.12264
#
# Velocity S-wave (km/s) = 7.45492 4.10226 6.01683
# Velocity P-wave (km/s) = 9.83377 7.13546 8.59121
#
# Compressibility (1/GPa) = 0.01757774
#
# Stress axis : x y z
#
# Youngs Moduli (GPa) = 74.94942 190.37312 74.81271
#
# Poissons Ratio (x) = 0.15510 0.46184
# Poissons Ratio (y) = 0.06106 0.01526
# Poissons Ratio (z) = 0.46269 0.03884
#
# Static dielectric constant tensor:
#      x y z
#    x 2.022190 0.000000 -0.060720 
#    y 0.000000 1.971360 0.000000 
#    z -0.060720 0.000000 2.081710 
# 
# From -- ./inp_files/19747.got.cif
#   From: 2010.05.17/outbox.cif.g08.bks.cpg/sg10_10_cif.got.tgz:19747.got - 2010.06.03 11:33:40.
