data_PCOD9143174
_publ_section_title
;
Structure prediction by ZEFSAII (Michael W. Deem and Ramdas Pophale) SiO2 
 PCOD9143174
Probable space group: P 2/M
;
_chemical_formula_sum "Si O2"
_cell_formula_units_Z 32
_cell_length_a 21.775798
_cell_length_b 14.050614
_cell_length_c 18.199697
_cell_angle_alpha 90.000000
_cell_angle_beta 160.474077
_cell_angle_gamma 90.000000
_cell_volume 1861.158143
_symmetry_space_group_name_H-M "P 2/M"
_symmetry_group_IT_number 10
_symmetry_cell_setting 'monoclinic'
loop_
_space_group_symop_operation_xyz
x,y,z
-x,y,-z
-x,-y,-z
x,-y,z
loop_
_atom_site_type_symbol
_atom_site_label
_atom_site_fract_x
_atom_site_fract_y
_atom_site_fract_z
Si Si1 0.778269 0.389179 0.244832
Si Si2 0.140405 0.392727 0.398408
Si Si3 0.778421 0.387420 0.751007
Si Si4 0.615996 0.239136 0.960598
Si Si5 0.273849 0.743357 0.675421
Si Si6 0.219977 0.389115 0.085439
Si Si7 0.968838 0.109263 0.377264
Si Si8 0.554130 0.665766 0.363963
O O1 0.721570 0.500000 0.186808
O O2 0.707189 0.321243 0.230241
O O3 0.000000 0.385352 0.500000
O O4 0.706883 0.339751 0.089532
O O5 0.094408 0.500000 0.369968
O O6 0.180621 0.327911 0.512576
O O7 0.320885 0.393968 0.551240
O O8 0.971740 0.350652 0.161426
O O9 0.723848 0.500000 0.677349
O O10 0.721739 0.353758 0.768565
O O11 0.688381 0.324286 0.585702
O O12 0.000000 0.384950 0.000000
O O13 0.459269 0.220955 0.845085
O O14 0.520894 0.250783 0.773807
O O15 0.778157 0.162688 0.145076
O O16 0.137164 0.830089 0.535502
O O17 0.182397 0.500000 0.057535
O O18 0.374577 0.378989 0.198576
O O19 0.000000 0.110683 0.500000
O O20 0.966668 0.000000 0.349933
#
# Coordination Sequence:
#
# PCOD9143174 Si02
#       8
#     4   4   4   4   4   4   4   4
#     4  11  22  36  54  76 113 159 192 220 259 311
#     4  10  20  32  48  75 109 148 185 225 263 306
#     4  10  18  31  47  67 104 148 193 232 262 303
#     4  11  23  38  57  82 114 141 185 235 271 326
#     4  11  21  37  57  79 111 143 185 227 271 327
#     4  10  19  29  47  67  98 146 191 230 264 301
#     4  11  23  42  64  83 106 136 178 233 296 345
#     4  11  21  32  49  72 105 143 185 226 266 312
#
# _framework density 17.193594999999998
#
# number of rings (size 3 to 8) (size 9 to 14) (size 15 to 20)
#    0.000    1.375    3.750    3.000    0.000    5.500 
#    0.000    1.250    0.000    0.000    0.000    0.000 
#    0.000    8.500    0.000    3.250    0.000    0.000 
#
# Total GULP energy -178461.419976 kJ/mol
# GULP energy per Si atom -5576.919374 kJ/mol
# Density = 1.715446 g / cm^3
# Si number density = 17.193595 Si / 1000 Ang^3
#
#
#
# Elastic Constant Matrix: (Units=GPa)
#
#
# Indices 1 2 3 4 5 6 
#
# 1 80.9866 31.3204 37.8012 0.0000 -11.4480 0.0000
# 2 31.3204 85.0879 43.9030 0.0000 0.8104 0.0000
# 3 37.8012 43.9030 101.9865 0.0000 1.9739 0.0000
# 4 0.0000 0.0000 0.0000 3.0920 0.0000 -4.1265
# 5 -11.4480 0.8104 1.9739 0.0000 30.2133 0.0000
# 6 0.0000 0.0000 0.0000 -4.1265 0.0000 7.5027
#
#
#
# Elastic Compliance Matrix: (Units=1/GPa)
#
#
# Indices 1 2 3 4 5 6 
#
# 1 0.017052 -0.003873 -0.004786 0.000000 0.006877 0.000000
# 2 -0.003873 0.015988 -0.005417 0.000000 -0.001542 0.000000
# 3 -0.004786 -0.005417 0.013961 0.000000 -0.002580 0.000000
# 4 0.000000 0.000000 0.000000 1.215938 0.000000 0.668774
# 5 0.006877 -0.001542 -0.002580 0.000000 0.035914 0.000000
# 6 0.000000 0.000000 0.000000 0.668774 0.000000 0.501116
#
#
# Mechanical properties :
#
#
# Convention : Reuss Voigt Hill
#
# Bulk Modulus (GPa) = 53.05428 54.90113 53.97771
# Shear Modulus (GPa) = 2.72568 18.49737 10.61153
#
# Velocity S-wave (km/s) = 1.26045 3.28354 2.48700
# Velocity P-wave (km/s) = 5.74824 6.80999 6.30152
#
# Compressibility (1/GPa) = 0.01884862
#
# Stress axis : x y z
#
# Youngs Moduli (GPa) = 58.64567 62.54755 71.62735
#
# Poissons Ratio (x) = 0.24222 0.34282
# Poissons Ratio (y) = 0.22711 0.38802
# Poissons Ratio (z) = 0.28069 0.33883
#
# Static dielectric constant tensor:
#      x y z
#    x 1.627040 0.000000 -0.006420 
#    y 0.000000 1.543840 0.000000 
#    z -0.006420 0.000000 1.636570 
# 
# From -- ./inp_files/79749.got.cif
#   From: 2010.05.17/outbox.cif.g08.bks.cpg/sg10_40_cif.got.tgz:79749.got - 2010.06.03 11:33:40.
