data_PCOD9143486
_publ_section_title
;
Structure prediction by ZEFSAII (Michael W. Deem and Ramdas Pophale) SiO2 
 PCOD9143486
Probable space group: P 2/M
;
_chemical_formula_sum "Si O2"
_cell_formula_units_Z 32
_cell_length_a 12.660638
_cell_length_b 15.103264
_cell_length_c 7.061130
_cell_angle_alpha 90.000000
_cell_angle_beta 96.032960
_cell_angle_gamma 90.000000
_cell_volume 1342.729808
_symmetry_space_group_name_H-M "P 2/M"
_symmetry_group_IT_number 10
_symmetry_cell_setting 'monoclinic'
loop_
_space_group_symop_operation_xyz
x,y,z
-x,y,-z
-x,-y,-z
x,-y,z
loop_
_atom_site_type_symbol
_atom_site_label
_atom_site_fract_x
_atom_site_fract_y
_atom_site_fract_z
Si Si1 0.235307 0.096921 0.751018
Si Si2 0.406515 0.405937 0.256900
Si Si3 0.965199 0.399316 0.708911
Si Si4 0.169719 0.712662 0.811635
Si Si5 0.693615 0.902988 0.803215
Si Si6 0.232970 0.724368 0.261329
Si Si7 0.463608 0.165107 0.709414
Si Si8 0.617395 0.354824 0.188609
O O1 0.169967 0.189892 0.714622
O O2 0.355857 0.108256 0.696748
O O3 0.191423 0.000000 0.684283
O O4 0.251157 0.092790 0.981973
O O5 0.359653 0.500000 0.303202
O O6 0.342601 0.324614 0.329229
O O7 0.532979 0.404465 0.303170
O O8 0.390367 0.394259 0.024692
O O9 0.949303 0.500000 0.783026
O O10 0.862647 0.336453 0.689363
O O11 0.000000 0.409314 0.500000
O O12 0.061497 0.341388 0.813536
O O13 0.260220 0.652246 0.730368
O O14 0.216854 0.724889 0.030840
O O15 0.751683 0.827431 0.690977
O O16 0.570576 0.876718 0.815683
O O17 0.697002 0.000000 0.716500
O O18 0.500000 0.180016 0.500000
O O19 0.428730 0.255103 0.807479
#
# Coordination Sequence:
#
# PCOD9143486 Si02
#       8
#     4   4   4   4   4   4   4   4
#     4   9  19  35  57  84 115 150 191 239 290 339
#     4  10  18  31  58  88 113 146 189 239 291 343
#     4  11  25  43  61  82 112 151 194 238 288 343
#     4   9  20  36  60  86 110 146 191 238 289 336
#     4  10  20  36  59  85 114 150 193 240 286 338
#     4  10  20  37  62  87 115 143 191 241 290 340
#     4  11  21  31  49  80 122 165 198 229 276 339
#     4   9  18  32  51  82 119 146 183 231 283 335
#
# _framework density 23.832049000000001
#
# number of rings (size 3 to 8) (size 9 to 14) (size 15 to 20)
#    0.000    2.125    1.250    3.000    3.500    7.500 
#    0.000    0.625    0.000    5.250    0.000    0.000 
#    0.000    0.000    0.000    0.000    0.000    0.000 
#
# Total GULP energy -178728.593192 kJ/mol
# GULP energy per Si atom -5585.268537 kJ/mol
# Density = 2.377781 g / cm^3
# Si number density = 23.832049 Si / 1000 Ang^3
#
#
#
# Elastic Constant Matrix: (Units=GPa)
#
#
# Indices 1 2 3 4 5 6 
#
# 1 121.3591 77.9965 -6.4611 0.0000 -8.9921 0.0000
# 2 77.9965 213.2477 4.7480 0.0000 -7.1219 0.0000
# 3 -6.4611 4.7480 58.6786 0.0000 -9.6776 0.0000
# 4 0.0000 0.0000 0.0000 -0.2945 0.0000 -3.7304
# 5 -8.9921 -7.1219 -9.6776 0.0000 32.9697 0.0000
# 6 0.0000 0.0000 0.0000 -3.7304 0.0000 34.2111
#
#
#
# Elastic Compliance Matrix: (Units=1/GPa)
#
#
# Indices 1 2 3 4 5 6 
#
# 1 0.011139 -0.004027 0.002007 0.000000 0.002757 0.000000
# 2 -0.004027 0.006182 -0.000951 0.000000 -0.000042 0.000000
# 3 0.002007 -0.000951 0.018281 0.000000 0.005708 0.000000
# 4 0.000000 0.000000 0.000000 -1.426010 0.000000 -0.155492
# 5 0.002757 -0.000042 0.005708 0.000000 0.032749 0.000000
# 6 0.000000 0.000000 0.000000 -0.155492 0.000000 0.012275
#
#
# Mechanical properties :
#
#
# Convention : Reuss Voigt Hill
#
# Bulk Modulus (GPa) = 33.71309 60.65025 47.18167
# Shear Modulus (GPa) = -3.76066 34.51073 15.37503
#
# Velocity S-wave (km/s) = -1.25754 3.80949 2.54272
# Velocity P-wave (km/s) = 3.47394 6.69731 5.33489
#
# Compressibility (1/GPa) = 0.02966207
#
# Stress axis : x y z
#
# Youngs Moduli (GPa) = 89.77327 161.76057 54.70063
#
# Poissons Ratio (x) = 0.65138 -0.10979
# Poissons Ratio (y) = 0.36150 0.05199
# Poissons Ratio (z) = -0.18019 0.15376
#
# Static dielectric constant tensor:
#      x y z
#    x 1.908520 0.000000 0.014350 
#    y 0.000000 1.950130 0.000000 
#    z 0.014350 0.000000 2.018740 
# 
# From -- ./inp_files/25325.got.cif
#   From: 2010.05.17/outbox.cif.g08.bks.cpg/sg10_13_cif.got.tgz:25325.got - 2010.06.03 11:33:40.
