data_PCOD9143665
_publ_section_title
;
Structure prediction by ZEFSAII (Michael W. Deem and Ramdas Pophale) SiO2 
 PCOD9143665
Probable space group: P 2/M
;
_chemical_formula_sum "Si O2"
_cell_formula_units_Z 32
_cell_length_a 21.298106
_cell_length_b 8.527453
_cell_length_c 26.134128
_cell_angle_alpha 90.000000
_cell_angle_beta 22.392293
_cell_angle_gamma 90.000000
_cell_volume 1808.138783
_symmetry_space_group_name_H-M "P 2/M"
_symmetry_group_IT_number 10
_symmetry_cell_setting 'monoclinic'
loop_
_space_group_symop_operation_xyz
x,y,z
-x,y,-z
-x,-y,-z
x,-y,z
loop_
_atom_site_type_symbol
_atom_site_label
_atom_site_fract_x
_atom_site_fract_y
_atom_site_fract_z
Si Si1 0.657873 0.812012 0.147387
Si Si2 0.137396 0.691486 0.436532
Si Si3 0.086086 0.689348 0.592053
Si Si4 0.997566 0.188726 0.845430
Si Si5 0.166536 0.812478 0.138400
Si Si6 0.510393 0.311960 0.152518
Si Si7 0.643045 0.310832 0.430308
Si Si8 0.593301 0.310517 0.584600
O O1 0.560741 0.746301 0.171185
O O2 0.568934 0.750556 0.264832
O O3 0.650240 0.000000 0.151371
O O4 0.848664 0.765067 0.995440
O O5 0.135534 0.500000 0.437887
O O6 0.099186 0.741318 0.523441
O O7 0.323551 0.739025 0.282212
O O8 0.000000 0.745168 0.500000
O O9 0.084975 0.500000 0.593372
O O10 0.247553 0.741024 0.502289
O O11 0.925818 0.749019 0.742430
O O12 0.175411 0.257621 0.722881
O O13 0.937675 0.238333 0.833588
O O14 0.008274 0.000000 0.837404
O O15 0.168431 0.000000 0.137463
O O16 0.351117 0.751828 0.990161
O O17 0.516026 0.500000 0.148234
O O18 0.500000 0.255420 0.500000
O O19 0.640260 0.500000 0.432787
O O20 0.611304 0.257294 0.512540
O O21 0.590588 0.500000 0.587295
#
# Coordination Sequence:
#
# PCOD9143665 Si02
#       8
#     4   4   4   4   4   4   4   4
#     4  10  20  33  52  80 109 136 172 217 263 307
#     4   9  18  33  53  78 107 135 171 218 263 310
#     4  10  18  32  54  80 103 133 177 221 259 302
#     4   9  19  34  51  75 104 136 173 210 254 310
#     4  10  20  33  51  79 109 137 173 218 263 306
#     4  10  18  32  54  79 105 138 175 214 264 308
#     4  10  21  36  54  77 106 137 170 213 264 311
#     4  10  19  33  53  80 105 132 177 220 255 306
#
# _framework density 17.697755999999998
#
# number of rings (size 3 to 8) (size 9 to 14) (size 15 to 20)
#    0.000    2.250    2.500    1.875    0.000    3.750 
#    0.000    1.250    0.000   10.875    0.000    0.000 
#    0.000    0.000    0.000    0.000    0.000    0.000 
#
# Total GULP energy -178533.706309 kJ/mol
# GULP energy per Si atom -5579.178322 kJ/mol
# Density = 1.765748 g / cm^3
# Si number density = 17.697756 Si / 1000 Ang^3
#
#
#
# Elastic Constant Matrix: (Units=GPa)
#
#
# Indices 1 2 3 4 5 6 
#
# 1 112.7756 20.0983 87.5695 0.0000 -7.4878 0.0000
# 2 20.0983 11.6528 21.4224 0.0000 -1.3045 0.0000
# 3 87.5695 21.4224 181.9405 0.0000 -4.4378 0.0000
# 4 0.0000 0.0000 0.0000 -31.6744 0.0000 6.2652
# 5 -7.4878 -1.3045 -4.4378 0.0000 27.1503 0.0000
# 6 0.0000 0.0000 0.0000 6.2652 0.0000 11.0573
#
#
#
# Elastic Compliance Matrix: (Units=1/GPa)
#
#
# Indices 1 2 3 4 5 6 
#
# 1 0.016840 -0.017811 -0.005940 0.000000 0.002818 0.000000
# 2 -0.017811 0.128633 -0.006568 0.000000 0.000195 0.000000
# 3 -0.005940 -0.006568 0.009117 0.000000 -0.000463 0.000000
# 4 0.000000 0.000000 0.000000 -0.028389 0.000000 0.016086
# 5 0.002818 0.000195 -0.000463 0.000000 0.037543 0.000000
# 6 0.000000 0.000000 0.000000 0.016086 0.000000 0.081324
#
#
# Mechanical properties :
#
#
# Convention : Reuss Voigt Hill
#
# Bulk Modulus (GPa) = 10.64370 62.72771 36.68570
# Shear Modulus (GPa) = 14.83581 13.12524 13.98052
#
# Velocity S-wave (km/s) = 2.89846 2.72625 2.81367
# Velocity P-wave (km/s) = 4.15074 6.74023 5.59729
#
# Compressibility (1/GPa) = 0.09395229
#
# Stress axis : x y z
#
# Youngs Moduli (GPa) = 59.38067 7.77408 109.68319
#
# Poissons Ratio (x) = 0.13846 0.65147
# Poissons Ratio (y) = 1.05763 0.72044
# Poissons Ratio (z) = 0.35270 0.05106
#
# Static dielectric constant tensor:
#      x y z
#    x 1.589260 0.000000 0.000310 
#    y 0.000000 1.599710 0.000000 
#    z 0.000310 0.000000 1.602070 
# 
# From -- ./inp_files/86731.got.cif
#   From: 2010.05.17/outbox.cif.g08.bks.cpg/sg10_44_cif.got.tgz:86731.got - 2010.06.03 11:33:40.
