data_PCOD9143435
_publ_section_title
;
Structure prediction by ZEFSAII (Michael W. Deem and Ramdas Pophale) SiO2 
 PCOD9143435
Probable space group: P 2/M
;
_chemical_formula_sum "Si O2"
_cell_formula_units_Z 28
_cell_length_a 12.256816
_cell_length_b 7.569100
_cell_length_c 15.083507
_cell_angle_alpha 90.000000
_cell_angle_beta 116.976488
_cell_angle_gamma 90.000000
_cell_volume 1247.084505
_symmetry_space_group_name_H-M "P 2/M"
_symmetry_group_IT_number 10
_symmetry_cell_setting 'monoclinic'
loop_
_space_group_symop_operation_xyz
x,y,z
-x,y,-z
-x,-y,-z
x,-y,z
loop_
_atom_site_type_symbol
_atom_site_label
_atom_site_fract_x
_atom_site_fract_y
_atom_site_fract_z
Si Si1 0.856409 0.716856 0.697533
Si Si2 0.625459 0.291522 0.001487
Si Si3 0.117644 0.701468 0.832555
Si Si4 0.877413 0.287154 0.502603
Si Si5 0.490364 0.211735 0.216133
Si Si6 0.246891 0.794402 0.714077
Si Si7 0.581508 0.291581 0.612793
O O1 0.860540 0.500000 0.703180
O O2 0.866215 0.771620 0.598507
O O3 0.720875 0.777183 0.674730
O O4 0.981067 0.778416 0.792046
O O5 0.627546 0.500000 0.023807
O O6 0.612613 0.269539 0.891014
O O7 0.500000 0.216761 0.000000
O O8 0.756894 0.217720 0.082035
O O9 0.111784 0.500000 0.863590
O O10 0.146722 0.699381 0.737470
O O11 0.877208 0.500000 0.502855
O O12 0.772950 0.226016 0.397672
O O13 0.000000 0.223304 0.500000
O O14 0.617716 0.277809 0.220445
O O15 0.477798 0.271815 0.312480
O O16 0.495537 0.000000 0.219113
O O17 0.239190 0.000000 0.734093
O O18 0.500000 0.220257 0.500000
O O19 0.595380 0.500000 0.598558
#
# Coordination Sequence:
#
# PCOD9143435 Si02
#       7
#     4   4   4   4   4   4   4
#     4   9  18  34  56  83 111 143 185 235 291 337
#     4  10  20  35  60  89 113 146 193 242 287 338
#     4  10  19  35  57  82 113 144 181 232 288 341
#     4  10  18  31  54  80 109 146 183 227 283 342
#     4  11  24  39  57  82 117 157 193 235 288 344
#     4  11  22  33  49  79 116 150 184 226 279 339
#     4  10  21  39  63  86 111 148 197 245 280 331
#
# _framework density 22.452369000000001
#
# number of rings (size 3 to 8) (size 9 to 14) (size 15 to 20)
#    0.000    1.857    2.857    1.714    0.000    4.286 
#    0.000    2.143    0.000    4.286    0.000    0.000 
#    0.000    0.000    0.000    0.000    0.000    0.000 
#
# Total GULP energy -156233.419753 kJ/mol
# GULP energy per Si atom -5579.764991 kJ/mol
# Density = 2.240127 g / cm^3
# Si number density = 22.452369 Si / 1000 Ang^3
#
#
#
# Elastic Constant Matrix: (Units=GPa)
#
#
# Indices 1 2 3 4 5 6 
#
# 1 113.0704 3.3435 34.9105 0.0000 31.3793 0.0000
# 2 3.3435 56.1124 -4.2022 0.0000 8.7929 0.0000
# 3 34.9105 -4.2022 126.3328 0.0000 30.8358 0.0000
# 4 0.0000 0.0000 0.0000 32.6915 0.0000 -0.4121
# 5 31.3793 8.7929 30.8358 0.0000 41.0396 0.0000
# 6 0.0000 0.0000 0.0000 -0.4121 0.0000 -5.2036
#
#
#
# Elastic Compliance Matrix: (Units=1/GPa)
#
#
# Indices 1 2 3 4 5 6 
#
# 1 0.011397 0.000471 -0.001203 0.000000 -0.007911 0.000000
# 2 0.000471 0.018853 0.001924 0.000000 -0.005845 0.000000
# 3 -0.001203 0.001924 0.010027 0.000000 -0.007026 0.000000
# 4 0.000000 0.000000 0.000000 0.030559 0.000000 -0.002420
# 5 -0.007911 -0.005845 -0.007026 0.000000 0.036948 0.000000
# 6 0.000000 0.000000 0.000000 -0.002420 0.000000 -0.191983
#
#
# Mechanical properties :
#
#
# Convention : Reuss Voigt Hill
#
# Bulk Modulus (GPa) = 23.44104 40.40215 31.92159
# Shear Modulus (GPa) = -69.09700 31.13642 -18.98029
#
# Velocity S-wave (km/s) = -5.55353 3.72798 -2.91066
# Velocity P-wave (km/s) = 5.53708 6.04683 1.71826
#
# Compressibility (1/GPa) = 0.04266023
#
# Stress axis : x y z
#
# Youngs Moduli (GPa) = 87.74191 53.04128 99.73078
#
# Poissons Ratio (x) = -0.02496 0.11995
# Poissons Ratio (y) = -0.04129 -0.19185
# Poissons Ratio (z) = 0.10553 -0.10203
#
# Static dielectric constant tensor:
#      x y z
#    x 1.841870 0.000000 0.075950 
#    y 0.000000 1.832800 0.000000 
#    z 0.075950 0.000000 1.877040 
# 
# From -- ./inp_files/63894.got.cif
#   From: 2010.05.17/outbox.cif.g08.bks.cpg/sg10_32_cif.got.tgz:63894.got - 2010.06.03 11:33:40.
