data_PCOD9143038
_publ_section_title
;
Structure prediction by ZEFSAII (Michael W. Deem and Ramdas Pophale) SiO2 
 PCOD9143038
Probable space group: P 2/M
;
_chemical_formula_sum "Si O2"
_cell_formula_units_Z 32
_cell_length_a 12.555008
_cell_length_b 7.595814
_cell_length_c 32.231356
_cell_angle_alpha 90.000000
_cell_angle_beta 150.012687
_cell_angle_gamma 90.000000
_cell_volume 1536.290306
_symmetry_space_group_name_H-M "P 2/M"
_symmetry_group_IT_number 10
_symmetry_cell_setting 'monoclinic'
loop_
_space_group_symop_operation_xyz
x,y,z
-x,y,-z
-x,-y,-z
x,-y,z
loop_
_atom_site_type_symbol
_atom_site_label
_atom_site_fract_x
_atom_site_fract_y
_atom_site_fract_z
Si Si1 0.178093 0.207942 0.240664
Si Si2 0.367632 0.287678 0.393669
Si Si3 0.484439 0.206862 0.884182
Si Si4 0.371064 0.212543 0.223281
Si Si5 0.956101 0.215092 0.032399
Si Si6 0.813694 0.285098 0.579478
Si Si7 0.707370 0.784510 0.096492
Si Si8 0.286039 0.293710 0.729121
O O1 0.269300 0.229152 0.317375
O O2 0.339036 0.275473 0.259625
O O3 0.936346 0.279197 0.157470
O O4 0.158619 0.000000 0.225629
O O5 0.367751 0.500000 0.393674
O O6 0.610683 0.227903 0.483865
O O7 0.232678 0.232105 0.388559
O O8 0.331572 0.274345 0.869042
O O9 0.399037 0.222058 0.808661
O O10 0.504724 0.000000 0.899830
O O11 0.724024 0.279936 0.967679
O O12 0.570749 0.270252 0.263216
O O13 0.153950 0.269291 0.127038
O O14 0.380910 0.000000 0.225553
O O15 0.951860 0.000000 0.031734
O O16 0.000000 0.268035 0.000000
O O17 0.810386 0.500000 0.577292
O O18 0.045871 0.223009 0.643976
O O19 0.715850 0.000000 0.097899
O O20 0.500000 0.732625 0.000000
O O21 0.267084 0.500000 0.730841
#
# Coordination Sequence:
#
# PCOD9143038 Si02
#       8
#     4   4   4   4   4   4   4   4
#     4  10  20  33  51  77 107 133 164 209 254 292
#     4   9  17  35  60  78  97 130 168 199 244 309
#     4  10  18  30  51  75 100 131 168 207 251 299
#     4  10  20  35  51  69 100 140 174 204 244 296
#     4   9  15  27  48  69  91 128 177 207 227 281
#     4   8  17  34  56  79 100 127 163 205 248 299
#     4   9  17  30  50  77 104 132 169 208 244 290
#     4  11  21  33  50  75 103 126 162 213 256 292
#
# _framework density 20.829398000000001
#
# number of rings (size 3 to 8) (size 9 to 14) (size 15 to 20)
#    0.000    2.500    1.250    2.625    0.000    3.500 
#    0.000    5.000    0.000    6.750    0.000    0.000 
#    0.000    0.000    0.000    0.000    0.000    0.000 
#
# Total GULP energy -178601.446322 kJ/mol
# GULP energy per Si atom -5581.295198 kJ/mol
# Density = 2.078199 g / cm^3
# Si number density = 20.829398 Si / 1000 Ang^3
#
#
#
# Elastic Constant Matrix: (Units=GPa)
#
#
# Indices 1 2 3 4 5 6 
#
# 1 133.5494 -8.4895 60.2329 0.0000 21.3768 0.0000
# 2 -8.4895 35.7012 -12.6385 0.0000 5.6552 0.0000
# 3 60.2329 -12.6385 99.5826 0.0000 20.2173 0.0000
# 4 0.0000 0.0000 0.0000 3.6770 0.0000 -9.5978
# 5 21.3768 5.6552 20.2173 0.0000 38.2735 0.0000
# 6 0.0000 0.0000 0.0000 -9.5978 0.0000 4.5580
#
#
#
# Elastic Compliance Matrix: (Units=1/GPa)
#
#
# Indices 1 2 3 4 5 6 
#
# 1 0.010596 0.001005 -0.005656 0.000000 -0.003079 0.000000
# 2 0.001005 0.031229 0.004936 0.000000 -0.007783 0.000000
# 3 -0.005656 0.004936 0.015229 0.000000 -0.005615 0.000000
# 4 0.000000 0.000000 0.000000 -0.060485 0.000000 -0.127363
# 5 -0.003079 -0.007783 -0.005615 0.000000 0.031963 0.000000
# 6 0.000000 0.000000 0.000000 -0.127363 0.000000 -0.048795
#
#
# Mechanical properties :
#
#
# Convention : Reuss Voigt Hill
#
# Bulk Modulus (GPa) = 17.35416 38.56035 27.95725
# Shear Modulus (GPa) = -3080.51086 24.61692 -1527.94697
#
# Velocity S-wave (km/s) = -38.49851 3.44151 -27.11357
# Velocity P-wave (km/s) = 44.36024 5.86043 31.09249
#
# Compressibility (1/GPa) = 0.05762307
#
# Stress axis : x y z
#
# Youngs Moduli (GPa) = 94.37914 32.02121 65.66225
#
# Poissons Ratio (x) = -0.03218 0.37140
# Poissons Ratio (y) = -0.09484 -0.32409
# Poissons Ratio (z) = 0.53383 -0.15805
#
# Static dielectric constant tensor:
#      x y z
#    x 1.755900 0.000000 0.017860 
#    y 0.000000 1.802990 0.000000 
#    z 0.017860 0.000000 1.724430 
# 
# From -- ./inp_files/95050.got.cif
#   From: 2010.05.17/outbox.cif.g08.bks.cpg/sg10_48_cif.got.tgz:95050.got - 2010.06.03 11:33:40.
