data_PCOD9143079
_publ_section_title
;
Structure prediction by ZEFSAII (Michael W. Deem and Ramdas Pophale) SiO2 
 PCOD9143079
Probable space group: P 2/M
;
_chemical_formula_sum "Si O2"
_cell_formula_units_Z 28
_cell_length_a 14.572725
_cell_length_b 10.444871
_cell_length_c 14.259625
_cell_angle_alpha 90.000000
_cell_angle_beta 39.614454
_cell_angle_gamma 90.000000
_cell_volume 1383.925653
_symmetry_space_group_name_H-M "P 2/M"
_symmetry_group_IT_number 10
_symmetry_cell_setting 'monoclinic'
loop_
_space_group_symop_operation_xyz
x,y,z
-x,y,-z
-x,-y,-z
x,-y,z
loop_
_atom_site_type_symbol
_atom_site_label
_atom_site_fract_x
_atom_site_fract_y
_atom_site_fract_z
Si Si1 0.345738 0.850046 0.142754
Si Si2 0.803492 0.243240 0.395316
Si Si3 0.253004 0.847936 0.929909
Si Si4 0.978060 0.642216 0.904723
Si Si5 0.351179 0.855241 0.649819
Si Si6 0.419011 0.148007 0.296676
Si Si7 0.034420 0.845105 0.365421
O O1 0.337657 0.847626 0.261840
O O2 0.197756 0.799495 0.217179
O O3 0.353477 0.000000 0.106868
O O4 0.500000 0.789062 0.000000
O O5 0.760832 0.145231 0.346304
O O6 0.655573 0.245681 0.572507
O O7 0.876013 0.351250 0.272871
O O8 0.919032 0.202432 0.381887
O O9 0.285332 0.805713 0.797114
O O10 0.410193 0.832411 0.853389
O O11 0.214429 0.000000 0.966762
O O12 0.122924 0.754555 0.056954
O O13 0.914735 0.500000 0.944074
O O14 0.000000 0.661949 0.000000
O O15 0.500000 0.791399 0.500000
O O16 0.389283 0.000000 0.646509
O O17 0.403107 0.000000 0.344089
O O18 0.000000 0.808100 0.500000
O O19 0.034157 0.000000 0.362583
#
# Coordination Sequence:
#
# PCOD9143079 Si02
#       7
#     4   4   4   4   4   4   4
#     4   9  18  31  46  75 122 167 194 233 296 364
#     4  12  21  34  58  83 113 163 208 244 296 358
#     4  10  21  36  58  90 119 153 199 247 301 361
#     4  11  26  46  60  81 123 169 207 252 308 367
#     4  10  18  30  51  84 124 155 186 241 305 358
#     4  10  19  33  56  88 126 159 195 247 305 361
#     4  10  19  31  50  84 126 160 194 242 304 361
#
# _framework density 20.232301
#
# number of rings (size 3 to 8) (size 9 to 14) (size 15 to 20)
#    0.000    1.714    4.286    1.286    2.000    2.000 
#    0.000    0.714    0.000    3.000    0.000    1.000 
#    0.000    0.000    0.000    0.000    0.000    0.000 
#
# Total GULP energy -155885.639912 kJ/mol
# GULP energy per Si atom -5567.344283 kJ/mol
# Density = 2.018625 g / cm^3
# Si number density = 20.232301 Si / 1000 Ang^3
#
#
#
# Elastic Constant Matrix: (Units=GPa)
#
#
# Indices 1 2 3 4 5 6 
#
# 1 126.3565 18.5862 11.1751 0.0000 -3.0334 0.0000
# 2 18.5862 52.5674 27.6166 0.0000 -14.5856 0.0000
# 3 11.1751 27.6166 83.9520 0.0000 -7.2687 0.0000
# 4 0.0000 0.0000 0.0000 0.0039 0.0000 1.6585
# 5 -3.0334 -14.5856 -7.2687 0.0000 31.2419 0.0000
# 6 0.0000 0.0000 0.0000 1.6585 0.0000 0.8895
#
#
#
# Elastic Compliance Matrix: (Units=1/GPa)
#
#
# Indices 1 2 3 4 5 6 
#
# 1 0.008362 -0.003050 -0.000166 0.000000 -0.000651 0.000000
# 2 -0.003050 0.027002 -0.007563 0.000000 0.010551 0.000000
# 3 -0.000166 -0.007563 0.014405 0.000000 -0.000196 0.000000
# 4 0.000000 0.000000 0.000000 -0.323815 0.000000 0.603731
# 5 -0.000651 0.010551 -0.000196 0.000000 0.036825 0.000000
# 6 0.000000 0.000000 0.000000 0.603731 0.000000 -0.001415
#
#
# Mechanical properties :
#
#
# Convention : Reuss Voigt Hill
#
# Bulk Modulus (GPa) = 35.44752 41.95908 38.70330
# Shear Modulus (GPa) = -24.07620 20.12693 -1.97463
#
# Velocity S-wave (km/s) = -3.45336 3.15745 -0.98899
# Velocity P-wave (km/s) = 1.28738 5.83750 4.22692
#
# Compressibility (1/GPa) = 0.02821072
#
# Stress axis : x y z
#
# Youngs Moduli (GPa) = 119.59173 37.03402 69.42191
#
# Poissons Ratio (x) = 0.11294 0.01154
# Poissons Ratio (y) = 0.36472 0.52505
# Poissons Ratio (z) = 0.01987 0.28009
#
# Static dielectric constant tensor:
#      x y z
#    x 1.752060 0.000000 -0.011750 
#    y 0.000000 1.674950 0.000000 
#    z -0.011750 0.000000 1.865550 
# 
# From -- ./inp_files/67094.got.cif
#   From: 2010.05.17/outbox.cif.g08.bks.cpg/sg10_34_cif.got.tgz:67094.got - 2010.06.03 11:33:40.
