data_PCOD9143876
_publ_section_title
;
Structure prediction by ZEFSAII (Michael W. Deem and Ramdas Pophale) SiO2 
 PCOD9143876
Probable space group: P 2/M
;
_chemical_formula_sum "Si O2"
_cell_formula_units_Z 32
_cell_length_a 32.258411
_cell_length_b 8.014341
_cell_length_c 12.504251
_cell_angle_alpha 90.000000
_cell_angle_beta 30.009314
_cell_angle_gamma 90.000000
_cell_volume 1616.816502
_symmetry_space_group_name_H-M "P 2/M"
_symmetry_group_IT_number 10
_symmetry_cell_setting 'monoclinic'
loop_
_space_group_symop_operation_xyz
x,y,z
-x,y,-z
-x,-y,-z
x,-y,z
loop_
_atom_site_type_symbol
_atom_site_label
_atom_site_fract_x
_atom_site_fract_y
_atom_site_fract_z
Si Si1 0.406127 0.700604 0.695690
Si Si2 0.922071 0.296223 0.813086
Si Si3 0.773488 0.699052 0.286993
Si Si4 0.740768 0.197983 0.827022
Si Si5 0.892342 0.701489 0.637289
Si Si6 0.275088 0.194168 0.371306
Si Si7 0.537182 0.700317 0.034524
Si Si8 0.377999 0.295835 0.521586
O O1 0.500000 0.763546 0.500000
O O2 0.410748 0.500000 0.679625
O O3 0.369884 0.758358 0.662395
O O4 0.344524 0.742270 0.929052
O O5 0.923883 0.500000 0.810474
O O6 0.888536 0.247660 0.770443
O O7 0.017671 0.242233 0.607042
O O8 0.859043 0.237292 0.044719
O O9 0.773570 0.500000 0.271099
O O10 0.760594 0.729235 0.440662
O O11 0.695153 0.763611 0.392976
O O12 0.816302 0.239685 0.736405
O O13 0.753490 0.267339 0.678831
O O14 0.734421 0.000000 0.831163
O O15 0.891184 0.500000 0.639150
O O16 0.374477 0.214939 0.150598
O O17 0.253301 0.000000 0.424006
O O18 0.549760 0.500000 0.015910
O O19 0.500000 0.731625 0.000000
O O20 0.467573 0.752701 0.274964
O O21 0.376478 0.500000 0.522630
#
# Coordination Sequence:
#
# PCOD9143876 Si02
#       8
#     4   4   4   4   4   4   4   4
#     4  10  20  35  57  82 107 138 178 223 270 323
#     4   8  16  32  60  92 114 130 163 223 280 318
#     4  10  18  33  55  79 107 137 172 219 271 318
#     4  11  24  39  53  74 110 151 186 221 263 313
#     4   9  17  35  62  88 110 137 173 215 268 328
#     4  11  24  38  50  71 107 148 187 224 262 309
#     4  10  18  33  56  79 102 135 178 221 266 316
#     4   9  17  30  52  82 108 130 167 219 270 318
#
# _framework density 19.791981
#
# number of rings (size 3 to 8) (size 9 to 14) (size 15 to 20)
#    0.000    2.250    1.250    3.000    0.000    5.500 
#    0.000    5.625    0.000    3.750    0.000    0.000 
#    0.000    0.000    0.000    0.000    0.000    0.000 
#
# Total GULP energy -178637.190463 kJ/mol
# GULP energy per Si atom -5582.412202 kJ/mol
# Density = 1.974693 g / cm^3
# Si number density = 19.791981 Si / 1000 Ang^3
#
#
#
# Elastic Constant Matrix: (Units=GPa)
#
#
# Indices 1 2 3 4 5 6 
#
# 1 106.6122 3.8954 64.0231 0.0000 6.1280 0.0000
# 2 3.8954 5.1328 1.9045 0.0000 2.0800 0.0000
# 3 64.0231 1.9045 144.0734 0.0000 14.7840 0.0000
# 4 0.0000 0.0000 0.0000 -34.9203 0.0000 3.6156
# 5 6.1280 2.0800 14.7840 0.0000 30.5864 0.0000
# 6 0.0000 0.0000 0.0000 3.6156 0.0000 46.7269
#
#
#
# Elastic Compliance Matrix: (Units=1/GPa)
#
#
# Indices 1 2 3 4 5 6 
#
# 1 0.013114 -0.008096 -0.005795 0.000000 0.000724 0.000000
# 2 -0.008096 0.205580 0.002260 0.000000 -0.013451 0.000000
# 3 -0.005795 0.002260 0.009872 0.000000 -0.003765 0.000000
# 4 0.000000 0.000000 0.000000 -0.028409 0.000000 0.002198
# 5 0.000724 -0.013451 -0.003765 0.000000 0.035284 0.000000
# 6 0.000000 0.000000 0.000000 0.002198 0.000000 0.021231
#
#
# Mechanical properties :
#
#
# Convention : Reuss Voigt Hill
#
# Bulk Modulus (GPa) = 4.87078 43.94050 24.40564
# Shear Modulus (GPa) = 14.35264 20.87828 17.61546
#
# Velocity S-wave (km/s) = 2.69583 3.25142 2.98657
# Velocity P-wave (km/s) = 3.48659 6.02868 4.92450
#
# Compressibility (1/GPa) = 0.20530610
#
# Stress axis : x y z
#
# Youngs Moduli (GPa) = 76.25490 4.86428 101.29219
#
# Poissons Ratio (x) = 0.03938 0.58697
# Poissons Ratio (y) = 0.61735 -0.22896
# Poissons Ratio (z) = 0.44188 -0.01100
#
# Static dielectric constant tensor:
#      x y z
#    x 1.698670 0.000000 0.012580 
#    y 0.000000 1.712050 0.000000 
#    z 0.012580 0.000000 1.684840 
# 
# From -- ./inp_files/55339.got.cif
#   From: 2010.05.17/outbox.cif.g08.bks.cpg/sg10_28_cif.got.tgz:55339.got - 2010.06.03 11:33:40.
