data_PCOD9143559
_publ_section_title
;
Structure prediction by ZEFSAII (Michael W. Deem and Ramdas Pophale) SiO2 
 PCOD9143559
Probable space group: P 2/M
;
_chemical_formula_sum "Si O2"
_cell_formula_units_Z 32
_cell_length_a 26.727700
_cell_length_b 7.426415
_cell_length_c 20.935058
_cell_angle_alpha 90.000000
_cell_angle_beta 158.823508
_cell_angle_gamma 90.000000
_cell_volume 1501.112449
_symmetry_space_group_name_H-M "P 2/M"
_symmetry_group_IT_number 10
_symmetry_cell_setting 'monoclinic'
loop_
_space_group_symop_operation_xyz
x,y,z
-x,y,-z
-x,-y,-z
x,-y,z
loop_
_atom_site_type_symbol
_atom_site_label
_atom_site_fract_x
_atom_site_fract_y
_atom_site_fract_z
Si Si1 0.126368 0.206870 0.416601
Si Si2 0.156740 0.217988 0.198543
Si Si3 0.900279 0.220031 0.473837
Si Si4 0.183251 0.290455 0.987606
Si Si5 0.609426 0.782127 0.881216
Si Si6 0.797199 0.218921 0.217586
Si Si7 0.292975 0.779316 0.493141
Si Si8 0.652416 0.710299 0.694836
O O1 0.138323 0.286318 0.501847
O O2 0.214413 0.284366 0.463149
O O3 0.964507 0.206272 0.204943
O O4 0.173214 0.000000 0.478260
O O5 0.214927 0.278209 0.336060
O O6 0.256487 0.276385 0.260160
O O7 0.156200 0.000000 0.197769
O O8 0.000000 0.278949 0.000000
O O9 0.805621 0.276358 0.301343
O O10 0.057666 0.271597 0.643023
O O11 0.900201 0.000000 0.475431
O O12 0.152448 0.500000 0.962952
O O13 0.287159 0.274652 0.051831
O O14 0.261008 0.213379 0.142444
O O15 0.452806 0.722758 0.683201
O O16 0.609252 0.000000 0.880993
O O17 0.672424 0.721686 0.024008
O O18 0.795639 0.000000 0.216483
O O19 0.290040 0.000000 0.489479
O O20 0.500000 0.788319 0.500000
O O21 0.630330 0.500000 0.685215
#
# Coordination Sequence:
#
# PCOD9143559 Si02
#       8
#     4   4   4   4   4   4   4   4
#     4  10  18  33  54  75 100 135 167 200 246 292
#     4  10  20  35  53  74 100 131 166 207 248 293
#     4   8  13  23  44  73 100 127 163 202 239 283
#     4  11  22  34  51  76 101 125 164 213 249 291
#     4  10  18  32  52  74 101 135 166 201 250 297
#     4   8  13  23  43  73 101 126 162 203 240 285
#     4   9  19  32  50  77 104 127 165 210 246 294
#     4  10  22  38  53  72  99 129 163 206 253 299
#
# _framework density 21.317523999999999
#
# number of rings (size 3 to 8) (size 9 to 14) (size 15 to 20)
#    0.000    2.500    1.250    2.625    0.000    2.500 
#    0.000    1.875    0.000    5.250    0.000    0.000 
#    0.000    2.000    0.000    0.000    0.000    0.000 
#
# Total GULP energy -178715.821156 kJ/mol
# GULP energy per Si atom -5584.869411 kJ/mol
# Density = 2.126900 g / cm^3
# Si number density = 21.317524 Si / 1000 Ang^3
#
#
#
# Elastic Constant Matrix: (Units=GPa)
#
#
# Indices 1 2 3 4 5 6 
#
# 1 117.2599 -15.4839 44.1607 0.0000 -18.2607 0.0000
# 2 -15.4839 66.2744 -8.7478 0.0000 -5.4564 0.0000
# 3 44.1607 -8.7478 80.9003 0.0000 -10.7246 0.0000
# 4 0.0000 0.0000 0.0000 -0.2609 0.0000 17.7125
# 5 -18.2607 -5.4564 -10.7246 0.0000 44.3365 0.0000
# 6 0.0000 0.0000 0.0000 17.7125 0.0000 34.6058
#
#
#
# Elastic Compliance Matrix: (Units=1/GPa)
#
#
# Indices 1 2 3 4 5 6 
#
# 1 0.011482 0.002254 -0.005538 0.000000 0.003667 0.000000
# 2 0.002254 0.015992 0.000912 0.000000 0.003117 0.000000
# 3 -0.005538 0.000912 0.015698 0.000000 0.001629 0.000000
# 4 0.000000 0.000000 0.000000 -0.107217 0.000000 0.054878
# 5 0.003667 0.003117 0.001629 0.000000 0.024843 0.000000
# 6 0.000000 0.000000 0.000000 0.054878 0.000000 0.000808
#
#
# Mechanical properties :
#
#
# Convention : Reuss Voigt Hill
#
# Bulk Modulus (GPa) = 26.02208 33.81028 29.91618
# Shear Modulus (GPa) = -239.93384 32.03664 -103.94860
#
# Velocity S-wave (km/s) = -10.62058 3.88084 -6.99056
# Velocity P-wave (km/s) = 11.75424 5.99800 7.14795
#
# Compressibility (1/GPa) = 0.03842890
#
# Stress axis : x y z
#
# Youngs Moduli (GPa) = 87.09023 62.52994 63.70048
#
# Poissons Ratio (x) = -0.14092 0.35277
# Poissons Ratio (y) = -0.19626 -0.05812
# Poissons Ratio (z) = 0.48231 -0.05705
#
# Static dielectric constant tensor:
#      x y z
#    x 1.731730 0.000000 -0.033350 
#    y 0.000000 1.813560 0.000000 
#    z -0.033350 0.000000 1.743540 
# 
# From -- ./inp_files/87005.got.cif
#   From: 2010.05.17/outbox.cif.g08.bks.cpg/sg10_44_cif.got.tgz:87005.got - 2010.06.03 11:33:40.
