data_PCOD9143462
_publ_section_title
;
Structure prediction by ZEFSAII (Michael W. Deem and Ramdas Pophale) SiO2 
 PCOD9143462
Probable space group: P 2/M
;
_chemical_formula_sum "Si O2"
_cell_formula_units_Z 24
_cell_length_a 25.140113
_cell_length_b 7.691209
_cell_length_c 17.819308
_cell_angle_alpha 90.000000
_cell_angle_beta 161.293906
_cell_angle_gamma 90.000000
_cell_volume 1105.020237
_symmetry_space_group_name_H-M "P 2/M"
_symmetry_group_IT_number 10
_symmetry_cell_setting 'monoclinic'
loop_
_space_group_symop_operation_xyz
x,y,z
-x,y,-z
-x,-y,-z
x,-y,z
loop_
_atom_site_type_symbol
_atom_site_label
_atom_site_fract_x
_atom_site_fract_y
_atom_site_fract_z
Si Si1 0.422149 0.713405 0.637030
Si Si2 0.953666 0.289814 0.854010
Si Si3 0.250957 0.798745 0.633841
Si Si4 0.099083 0.202207 0.893731
Si Si5 0.535394 0.699511 0.628797
Si Si6 0.585250 0.699429 0.000325
O O1 0.428444 0.500000 0.645035
O O2 0.236892 0.761828 0.414069
O O3 0.455668 0.775356 0.597445
O O4 0.554469 0.772066 0.876037
O O5 0.965004 0.500000 0.865894
O O6 0.068698 0.218059 0.942298
O O7 0.000000 0.236311 0.000000
O O8 0.402273 0.704739 0.794161
O O9 0.070060 0.730120 0.370486
O O10 0.257808 0.000000 0.619076
O O11 0.293236 0.789811 0.778521
O O12 0.118948 0.000000 0.899985
O O13 0.267033 0.297877 0.096839
O O14 0.500000 0.781161 0.500000
O O15 0.472539 0.500000 0.540512
O O16 0.639017 0.500000 0.066564
#
# Coordination Sequence:
#
# PCOD9143462 Si02
#       6
#     4   4   4   4   4   4
#     4   9  18  33  54  84 111 136 181 234 279 326
#     4  10  19  34  58  83 108 140 182 233 280 325
#     4  10  20  34  52  78 113 147 182 220 271 335
#     4  11  23  37  54  81 115 149 184 225 274 331
#     4  10  21  39  61  81 108 148 189 229 276 329
#     4  10  18  31  55  83 110 139 179 232 283 323
#
# _framework density 21.719061
#
# number of rings (size 3 to 8) (size 9 to 14) (size 15 to 20)
#    0.000    2.000    1.667    3.500    0.000    5.333 
#    0.000    3.333    0.000    5.000    0.000    0.000 
#    0.000    0.000    0.000    0.000    0.000    0.000 
#
# Total GULP energy -134046.610041 kJ/mol
# GULP energy per Si atom -5585.275418 kJ/mol
# Density = 2.166963 g / cm^3
# Si number density = 21.719061 Si / 1000 Ang^3
#
#
#
# Elastic Constant Matrix: (Units=GPa)
#
#
# Indices 1 2 3 4 5 6 
#
# 1 67.6370 -5.6147 -10.0222 0.0000 -12.6209 0.0000
# 2 -5.6147 43.6909 -5.4705 0.0000 -2.2805 0.0000
# 3 -10.0222 -5.4705 60.8477 0.0000 -16.3687 0.0000
# 4 0.0000 0.0000 0.0000 1.3731 0.0000 -21.8208
# 5 -12.6209 -2.2805 -16.3687 0.0000 40.9766 0.0000
# 6 0.0000 0.0000 0.0000 -21.8208 0.0000 2.9925
#
#
#
# Elastic Compliance Matrix: (Units=1/GPa)
#
#
# Indices 1 2 3 4 5 6 
#
# 1 0.017228 0.003254 0.005161 0.000000 0.007549 0.000000
# 2 0.003254 0.023971 0.003719 0.000000 0.003822 0.000000
# 3 0.005161 0.003719 0.020282 0.000000 0.009898 0.000000
# 4 0.000000 0.000000 0.000000 -0.006340 0.000000 -0.046227
# 5 0.007549 0.003822 0.009898 0.000000 0.030896 0.000000
# 6 0.000000 0.000000 0.000000 -0.046227 0.000000 -0.002909
#
#
# Mechanical properties :
#
#
# Convention : Reuss Voigt Hill
#
# Bulk Modulus (GPa) = 11.66170 14.44009 13.05090
# Shear Modulus (GPa) = 57.17981 21.95398 39.56689
#
# Velocity S-wave (km/s) = 5.13655 3.18278 4.27284
# Velocity P-wave (km/s) = 6.36866 4.49108 5.51043
#
# Compressibility (1/GPa) = 0.08575078
#
# Stress axis : x y z
#
# Youngs Moduli (GPa) = 58.04391 41.71625 49.30550
#
# Poissons Ratio (x) = -0.13575 -0.25447
# Poissons Ratio (y) = -0.18889 -0.18338
# Poissons Ratio (z) = -0.29957 -0.15516
#
# Static dielectric constant tensor:
#      x y z
#    x 1.775380 0.000000 -0.045040 
#    y 0.000000 1.804390 0.000000 
#    z -0.045040 0.000000 1.801420 
# 
# From -- ./inp_files/80126.got.cif
#   From: 2010.05.17/outbox.cif.g08.bks.cpg/sg10_41_cif.got.tgz:80126.got - 2010.06.03 11:33:40.
