data_PCOD9143377
_publ_section_title
;
Structure prediction by ZEFSAII (Michael W. Deem and Ramdas Pophale) SiO2 
 PCOD9143377
Probable space group: P 2/M
;
_chemical_formula_sum "Si O2"
_cell_formula_units_Z 32
_cell_length_a 24.595674
_cell_length_b 8.619949
_cell_length_c 18.347875
_cell_angle_alpha 90.000000
_cell_angle_beta 149.620492
_cell_angle_gamma 90.000000
_cell_volume 1967.269397
_symmetry_space_group_name_H-M "P 2/M"
_symmetry_group_IT_number 10
_symmetry_cell_setting 'monoclinic'
loop_
_space_group_symop_operation_xyz
x,y,z
-x,y,-z
-x,-y,-z
x,-y,z
loop_
_atom_site_type_symbol
_atom_site_label
_atom_site_fract_x
_atom_site_fract_y
_atom_site_fract_z
Si Si1 0.528657 0.814482 0.450401
Si Si2 0.866122 0.312916 0.959070
Si Si3 0.905725 0.184101 0.723871
Si Si4 0.237218 0.685803 0.313510
Si Si5 0.932695 0.688202 0.597507
Si Si6 0.176148 0.689500 0.837601
Si Si7 0.126940 0.680441 0.625665
Si Si8 0.317432 0.312676 0.135224
O O1 0.500000 0.764567 0.500000
O O2 0.641209 0.741459 0.556868
O O3 0.430487 0.761502 0.286241
O O4 0.538213 0.000000 0.460773
O O5 0.878391 0.500000 0.975368
O O6 0.830533 0.266627 0.836747
O O7 0.770660 0.272204 0.904754
O O8 0.977771 0.239948 0.112925
O O9 0.817608 0.246439 0.678234
O O10 0.891085 0.249996 0.625689
O O11 0.902905 0.000000 0.718600
O O12 0.234676 0.500000 0.313812
O O13 0.929863 0.500000 0.594454
O O14 0.869907 0.745343 0.452474
O O15 0.058479 0.732780 0.732743
O O16 0.175971 0.500000 0.834801
O O17 0.184630 0.747306 0.764000
O O18 0.267461 0.736327 0.999935
O O19 0.159886 0.500000 0.658329
O O20 0.000000 0.680744 0.500000
O O21 0.327937 0.500000 0.147705
#
# Coordination Sequence:
#
# PCOD9143377 Si02
#       8
#     4   4   4   4   4   4   4   4
#     4  11  23  37  53  74 102 131 164 208 257 301
#     4  10  20  35  54  75  98 130 171 210 246 292
#     4  12  24  34  48  73 106 137 168 205 252 303
#     4  11  23  39  57  72  93 129 176 217 250 292
#     4   9  15  28  48  70  99 134 170 202 240 291
#     4   8  13  24  45  74 102 127 163 208 246 285
#     4   7  11  20  41  71  98 126 161 203 244 283
#     4  10  18  31  53  77 101 132 171 209 246 291
#
# _framework density 16.266200999999999
#
# number of rings (size 3 to 8) (size 9 to 14) (size 15 to 20)
#    0.000    2.250    2.500    3.750    0.000    3.500 
#    0.000    0.000    0.000    4.125    0.000    0.875 
#    0.000    7.000    0.000    0.000    0.000    0.000 
#
# Total GULP energy -178436.414695 kJ/mol
# GULP energy per Si atom -5576.137959 kJ/mol
# Density = 1.622918 g / cm^3
# Si number density = 16.266201 Si / 1000 Ang^3
#
#
#
# Elastic Constant Matrix: (Units=GPa)
#
#
# Indices 1 2 3 4 5 6 
#
# 1 134.2650 31.7722 73.6201 0.0000 -25.3140 0.0000
# 2 31.7722 23.4724 19.5454 0.0000 -5.2668 0.0000
# 3 73.6201 19.5454 80.9096 0.0000 -30.3748 0.0000
# 4 0.0000 0.0000 0.0000 171.3988 0.0000 34.6666
# 5 -25.3140 -5.2668 -30.3748 0.0000 33.0363 0.0000
# 6 0.0000 0.0000 0.0000 34.6666 0.0000 14.7029
#
#
#
# Elastic Compliance Matrix: (Units=1/GPa)
#
#
# Indices 1 2 3 4 5 6 
#
# 1 0.017601 -0.013059 -0.013101 0.000000 -0.000641 0.000000
# 2 -0.013059 0.063590 -0.005237 0.000000 -0.004684 0.000000
# 3 -0.013101 -0.005237 0.032777 0.000000 0.019263 0.000000
# 4 0.000000 0.000000 0.000000 0.011153 0.000000 -0.026296
# 5 -0.000641 -0.004684 0.019263 0.000000 0.046743 0.000000
# 6 0.000000 0.000000 0.000000 -0.026296 0.000000 0.130015
#
#
# Mechanical properties :
#
#
# Convention : Reuss Voigt Hill
#
# Bulk Modulus (GPa) = 19.54167 54.28029 36.91098
# Shear Modulus (GPa) = 13.09818 51.40824 32.25321
#
# Velocity S-wave (km/s) = 2.84075 5.62787 4.45774
# Velocity P-wave (km/s) = 4.77489 8.69902 7.01686
#
# Compressibility (1/GPa) = 0.05117270
#
# Stress axis : x y z
#
# Youngs Moduli (GPa) = 56.81475 15.72567 30.50922
#
# Poissons Ratio (x) = 0.20537 0.39971
# Poissons Ratio (y) = 0.74196 0.15979
# Poissons Ratio (z) = 0.74434 0.08236
#
# Static dielectric constant tensor:
#      x y z
#    x 1.545170 0.000000 -0.039600 
#    y 0.000000 1.546100 0.000000 
#    z -0.039600 0.000000 1.541250 
# 
# From -- ./inp_files/56408.got.cif
#   From: 2010.05.17/outbox.cif.g08.bks.cpg/sg10_29_cif.got.tgz:56408.got - 2010.06.03 11:33:40.
