data_PCOD9143966
_publ_section_title
;
Structure prediction by ZEFSAII (Michael W. Deem and Ramdas Pophale) SiO2 
 PCOD9143966
Probable space group: P 2/M
;
_chemical_formula_sum "Si O2"
_cell_formula_units_Z 28
_cell_length_a 28.087027
_cell_length_b 9.345018
_cell_length_c 9.680671
_cell_angle_alpha 90.000000
_cell_angle_beta 141.228200
_cell_angle_gamma 90.000000
_cell_volume 1591.176729
_symmetry_space_group_name_H-M "P 2/M"
_symmetry_group_IT_number 10
_symmetry_cell_setting 'monoclinic'
loop_
_space_group_symop_operation_xyz
x,y,z
-x,y,-z
-x,-y,-z
x,-y,z
loop_
_atom_site_type_symbol
_atom_site_label
_atom_site_fract_x
_atom_site_fract_y
_atom_site_fract_z
Si Si1 0.195367 0.170612 0.645018
Si Si2 0.370064 0.828042 0.369625
Si Si3 0.945598 0.335227 0.745292
Si Si4 0.499317 0.328644 0.834616
Si Si5 0.803489 0.173651 0.032605
Si Si6 0.042060 0.164492 0.742383
Si Si7 0.372887 0.169929 0.048394
O O1 0.133941 0.253170 0.416112
O O2 0.182373 0.000000 0.607076
O O3 0.183158 0.215486 0.777693
O O4 0.284006 0.196272 0.814835
O O5 0.427633 0.743750 0.596442
O O6 0.282338 0.786656 0.200471
O O7 0.384520 0.800734 0.238701
O O8 0.377803 0.000000 0.406537
O O9 0.930011 0.500000 0.676587
O O10 0.992401 0.258981 0.730526
O O11 0.000000 0.328205 0.000000
O O12 0.497483 0.500000 0.813757
O O13 0.572416 0.262212 0.923225
O O14 0.500000 0.296572 0.000000
O O15 0.805813 0.000000 0.038291
O O16 0.872569 0.220409 0.092195
O O17 0.000000 0.160758 0.500000
O O18 0.045494 0.000000 0.801335
O O19 0.387689 0.000000 0.062347
#
# Coordination Sequence:
#
# PCOD9143966 Si02
#       7
#     4   4   4   4   4   4   4
#     4   9  17  35  60  83 107 136 179 228 272 322
#     4   9  18  35  60  85 110 136 175 227 274 322
#     4  11  24  38  50  74 115 155 186 220 267 320
#     4  11  24  39  53  76 114 153 183 213 260 322
#     4   8  15  31  56  86 110 131 168 228 283 317
#     4  10  18  33  60  84 106 139 182 230 275 316
#     4   9  19  36  62  89 107 132 176 230 278 319
#
# _framework density 17.597038999999999
#
# number of rings (size 3 to 8) (size 9 to 14) (size 15 to 20)
#    0.000    2.429    1.429    3.000    0.000    5.429 
#    2.571    2.857    0.000    0.000    0.000    0.000 
#    0.000    0.000    0.000    0.000    0.000    0.000 
#
# Total GULP energy -156169.228823 kJ/mol
# GULP energy per Si atom -5577.472458 kJ/mol
# Density = 1.755699 g / cm^3
# Si number density = 17.597039 Si / 1000 Ang^3
#
#
#
# Elastic Constant Matrix: (Units=GPa)
#
#
# Indices 1 2 3 4 5 6 
#
# 1 87.9927 53.1571 60.3979 0.0000 16.4053 0.0000
# 2 53.1571 69.6888 67.8556 0.0000 8.2784 0.0000
# 3 60.3979 67.8556 108.2824 0.0000 19.3104 0.0000
# 4 0.0000 0.0000 0.0000 3.4420 0.0000 -22.0761
# 5 16.4053 8.2784 19.3104 0.0000 19.9254 0.0000
# 6 0.0000 0.0000 0.0000 -22.0761 0.0000 5.4031
#
#
#
# Elastic Compliance Matrix: (Units=1/GPa)
#
#
# Indices 1 2 3 4 5 6 
#
# 1 0.023882 -0.015099 -0.001779 0.000000 -0.011666 0.000000
# 2 -0.015099 0.047597 -0.024294 0.000000 0.016201 0.000000
# 3 -0.001779 -0.024294 0.028277 0.000000 -0.015846 0.000000
# 4 0.000000 0.000000 0.000000 -0.011526 0.000000 -0.047095
# 5 -0.011666 0.016201 -0.015846 0.000000 0.068419 0.000000
# 6 0.000000 0.000000 0.000000 -0.047095 0.000000 -0.007343
#
#
# Mechanical properties :
#
#
# Convention : Reuss Voigt Hill
#
# Bulk Modulus (GPa) = 57.42900 69.86500 63.64700
# Shear Modulus (GPa) = 21.05677 11.39100 16.22388
#
# Velocity S-wave (km/s) = 3.46296 2.54702 3.03968
# Velocity P-wave (km/s) = 6.97824 6.95979 6.96902
#
# Compressibility (1/GPa) = 0.01741281
#
# Stress axis : x y z
#
# Youngs Moduli (GPa) = 41.87294 21.00959 35.36415
#
# Poissons Ratio (x) = 0.31722 0.06290
# Poissons Ratio (y) = 0.63224 0.85915
# Poissons Ratio (z) = 0.07447 0.51041
#
# Static dielectric constant tensor:
#      x y z
#    x 1.594040 0.000000 0.018220 
#    y 0.000000 1.583900 0.000000 
#    z 0.018220 0.000000 1.605180 
# 
# From -- ./inp_files/37296.got.cif
#   From: 2010.05.17/outbox.cif.g08.bks.cpg/sg10_19_cif.got.tgz:37296.got - 2010.06.03 11:33:40.
