data_PCOD9143000
_publ_section_title
;
Structure prediction by ZEFSAII (Michael W. Deem and Ramdas Pophale) SiO2 
 PCOD9143000
Probable space group: P 2/M
;
_chemical_formula_sum "Si O2"
_cell_formula_units_Z 32
_cell_length_a 27.631224
_cell_length_b 8.681890
_cell_length_c 22.352460
_cell_angle_alpha 90.000000
_cell_angle_beta 20.191313
_cell_angle_gamma 90.000000
_cell_volume 1850.781012
_symmetry_space_group_name_H-M "P 2/M"
_symmetry_group_IT_number 10
_symmetry_cell_setting 'monoclinic'
loop_
_space_group_symop_operation_xyz
x,y,z
-x,y,-z
-x,-y,-z
x,-y,z
loop_
_atom_site_type_symbol
_atom_site_label
_atom_site_fract_x
_atom_site_fract_y
_atom_site_fract_z
Si Si1 0.343031 0.317393 0.701763
Si Si2 0.653336 0.316583 0.510293
Si Si3 0.443662 0.313217 0.001786
Si Si4 0.165242 0.819225 0.801726
Si Si5 0.237605 0.818227 0.072812
Si Si6 0.139828 0.314593 0.304419
Si Si7 0.352963 0.184062 0.817530
Si Si8 0.533040 0.685064 0.771616
O O1 0.500000 0.271793 0.500000
O O2 0.341912 0.500000 0.713512
O O3 0.242944 0.273378 0.763636
O O4 0.306944 0.232780 0.805167
O O5 0.664927 0.500000 0.489316
O O6 0.773288 0.235313 0.333025
O O7 0.502563 0.263465 0.658615
O O8 0.648467 0.281190 0.587136
O O9 0.437218 0.500000 0.013270
O O10 0.546130 0.278302 0.826651
O O11 0.500000 0.255069 0.000000
O O12 0.285955 0.262041 0.166264
O O13 0.196553 0.000000 0.772798
O O14 0.000000 0.796022 0.000000
O O15 0.241848 0.771176 0.998260
O O16 0.395135 0.775794 0.910866
O O17 0.213803 0.000000 0.104285
O O18 0.142068 0.735343 0.232535
O O19 0.141606 0.500000 0.304331
O O20 0.000000 0.259723 0.500000
O O21 0.372824 0.000000 0.798098
O O22 0.504798 0.500000 0.800291
#
# Coordination Sequence:
#
# PCOD9143000 Si02
#       8
#     4   4   4   4   4   4   4   4
#     4  11  22  35  55  83 106 130 167 213 261 302
#     4  10  18  30  50  75 101 130 165 210 256 298
#     4   8  13  24  45  70  92 119 154 194 235 278
#     4  11  24  39  55  75 101 138 175 207 251 309
#     4   9  17  28  45  72  99 128 163 201 242 290
#     4   9  17  29  46  68  95 128 162 199 241 289
#     4  10  19  31  51  77 104 132 165 209 254 301
#     4   8  15  27  45  70  97 125 158 201 245 289
#
# _framework density 17.289998000000001
#
# number of rings (size 3 to 8) (size 9 to 14) (size 15 to 20)
#    0.000    2.500    1.250    2.625    0.000    3.750 
#    0.000    0.000    2.750    6.000    0.000    0.000 
#    0.000    0.000    0.000    0.000    0.000    0.000 
#
# Total GULP energy -178239.105002 kJ/mol
# GULP energy per Si atom -5569.972031 kJ/mol
# Density = 1.725065 g / cm^3
# Si number density = 17.289998 Si / 1000 Ang^3
#
#
#
# Elastic Constant Matrix: (Units=GPa)
#
#
# Indices 1 2 3 4 5 6 
#
# 1 88.2026 8.0503 33.0862 0.0000 33.6984 0.0000
# 2 8.0503 7.6758 15.4373 0.0000 4.8321 0.0000
# 3 33.0862 15.4373 86.5638 0.0000 35.5353 0.0000
# 4 0.0000 0.0000 0.0000 -1.9474 0.0000 18.1832
# 5 33.6984 4.8321 35.5353 0.0000 28.4145 0.0000
# 6 0.0000 0.0000 0.0000 18.1832 0.0000 8.5037
#
#
#
# Elastic Compliance Matrix: (Units=1/GPa)
#
#
# Indices 1 2 3 4 5 6 
#
# 1 0.023622 -0.021540 0.009883 0.000000 -0.036712 0.000000
# 2 -0.021540 0.229769 -0.055874 0.000000 0.056347 0.000000
# 3 0.009883 -0.055874 0.038326 0.000000 -0.050149 0.000000
# 4 0.000000 0.000000 0.000000 -0.024493 0.000000 0.052373
# 5 -0.036712 0.056347 -0.050149 0.000000 0.131866 0.000000
# 6 0.000000 0.000000 0.000000 0.052373 0.000000 0.005609
#
#
# Mechanical properties :
#
#
# Convention : Reuss Voigt Hill
#
# Bulk Modulus (GPa) = 6.38344 32.84329 19.61337
# Shear Modulus (GPa) = 8.44624 15.38538 11.91581
#
# Velocity S-wave (km/s) = 2.21261 2.98626 2.62806
# Velocity P-wave (km/s) = 3.19805 5.56121 4.53622
#
# Compressibility (1/GPa) = 0.15665535
#
# Stress axis : x y z
#
# Youngs Moduli (GPa) = 42.33317 4.35220 26.09210
#
# Poissons Ratio (x) = 0.09375 -0.25787
# Poissons Ratio (y) = 0.91185 1.45787
# Poissons Ratio (z) = -0.41838 0.24317
#
# Static dielectric constant tensor:
#      x y z
#    x 1.602580 0.000000 0.039790 
#    y 0.000000 1.579640 0.000000 
#    z 0.039790 0.000000 1.593960 
# 
# From -- ./inp_files/86810.got.cif
#   From: 2010.05.17/outbox.cif.g08.bks.cpg/sg10_44_cif.got.tgz:86810.got - 2010.06.03 11:33:40.
