data_PCOD9143418
_publ_section_title
;
Structure prediction by ZEFSAII (Michael W. Deem and Ramdas Pophale) SiO2 
 PCOD9143418
Probable space group: P 2/M
;
_chemical_formula_sum "Si O2"
_cell_formula_units_Z 28
_cell_length_a 14.449800
_cell_length_b 9.675046
_cell_length_c 14.262019
_cell_angle_alpha 90.000000
_cell_angle_beta 54.043675
_cell_angle_gamma 90.000000
_cell_volume 1613.964060
_symmetry_space_group_name_H-M "P 2/M"
_symmetry_group_IT_number 10
_symmetry_cell_setting 'monoclinic'
loop_
_space_group_symop_operation_xyz
x,y,z
-x,y,-z
-x,-y,-z
x,-y,z
loop_
_atom_site_type_symbol
_atom_site_label
_atom_site_fract_x
_atom_site_fract_y
_atom_site_fract_z
Si Si1 0.332835 0.347376 0.152714
Si Si2 0.246277 0.159285 0.464290
Si Si3 0.540524 0.832945 0.774313
Si Si4 0.676730 0.338424 0.065726
Si Si5 0.059915 0.663427 0.063766
Si Si6 0.045291 0.837554 0.705599
Si Si7 0.102547 0.740477 0.378509
O O1 0.383258 0.500000 0.141071
O O2 0.405146 0.231027 0.162937
O O3 0.204312 0.345531 0.270872
O O4 0.327373 0.324937 0.045041
O O5 0.369639 0.214020 0.359971
O O6 0.167024 0.218718 0.593630
O O7 0.168720 0.167972 0.416330
O O8 0.263514 0.000000 0.478224
O O9 0.417836 0.763033 0.836036
O O10 0.536720 0.000000 0.780183
O O11 0.653594 0.500000 0.101644
O O12 0.805254 0.304626 0.020612
O O13 0.050487 0.500000 0.092294
O O14 0.001342 0.751901 0.179862
O O15 0.000000 0.687767 0.000000
O O16 0.958077 0.820778 0.670062
O O17 0.054760 0.000000 0.722134
O O18 0.000000 0.671072 0.500000
#
# Coordination Sequence:
#
# PCOD9143418 Si02
#       7
#     4   4   4   4   4   4   4
#     4  10  19  31  46  70 105 142 176 212 252 299
#     4   8  16  30  47  73 109 142 168 202 252 305
#     4  10  20  33  50  75 106 139 176 208 246 307
#     4  10  20  35  52  71 100 136 172 213 262 307
#     4  10  22  40  58  76 102 136 173 218 271 316
#     4  10  18  31  54  78 103 134 171 217 262 306
#     4   9  16  27  45  73 107 142 174 205 248 305
#
# _framework density 17.348590999999999
#
# number of rings (size 3 to 8) (size 9 to 14) (size 15 to 20)
#    0.000    2.429    1.429    1.286    0.000    5.714 
#    0.000    6.429    0.000    0.857    0.000    6.000 
#    0.000    0.000    0.000    0.000    0.000    0.000 
#
# Total GULP energy -155948.622939 kJ/mol
# GULP energy per Si atom -5569.593676 kJ/mol
# Density = 1.730910 g / cm^3
# Si number density = 17.348591 Si / 1000 Ang^3
#
#
#
# Elastic Constant Matrix: (Units=GPa)
#
#
# Indices 1 2 3 4 5 6 
#
# 1 75.5487 43.4288 67.3395 0.0000 -20.2039 0.0000
# 2 43.4288 68.1490 58.4562 0.0000 -14.6727 0.0000
# 3 67.3395 58.4562 130.7313 0.0000 -29.5395 0.0000
# 4 0.0000 0.0000 0.0000 4.1622 0.0000 -10.4832
# 5 -20.2039 -14.6727 -29.5395 0.0000 21.5289 0.0000
# 6 0.0000 0.0000 0.0000 -10.4832 0.0000 11.8311
#
#
#
# Elastic Compliance Matrix: (Units=1/GPa)
#
#
# Indices 1 2 3 4 5 6 
#
# 1 0.028363 -0.008689 -0.008766 0.000000 0.008668 0.000000
# 2 -0.008689 0.026548 -0.007463 0.000000 -0.000301 0.000000
# 3 -0.008766 -0.007463 0.018107 0.000000 0.011532 0.000000
# 4 0.000000 0.000000 0.000000 -0.195060 0.000000 -0.172837
# 5 0.008668 -0.000301 0.011532 0.000000 0.070202 0.000000
# 6 0.000000 0.000000 0.000000 -0.172837 0.000000 -0.068623
#
#
# Mechanical properties :
#
#
# Convention : Reuss Voigt Hill
#
# Bulk Modulus (GPa) = 43.13707 68.09755 55.61731
# Shear Modulus (GPa) = -79.49105 14.51806 -32.48649
#
# Velocity S-wave (km/s) = -6.77638 2.89596 -4.33202
# Velocity P-wave (km/s) = 6.02552 7.10773 2.66579
#
# Compressibility (1/GPa) = 0.02318192
#
# Stress axis : x y z
#
# Youngs Moduli (GPa) = 35.25760 37.66782 55.22638
#
# Poissons Ratio (x) = 0.32731 0.48409
# Poissons Ratio (y) = 0.30637 0.41215
# Poissons Ratio (z) = 0.30905 0.28111
#
# Static dielectric constant tensor:
#      x y z
#    x 1.578790 0.000000 -0.040390 
#    y 0.000000 1.587040 0.000000 
#    z -0.040390 0.000000 1.622130 
# 
# From -- ./inp_files/66406.got.cif
#   From: 2010.05.17/outbox.cif.g08.bks.cpg/sg10_34_cif.got.tgz:66406.got - 2010.06.03 11:33:40.
