data_PCOD9143401
_publ_section_title
;
Structure prediction by ZEFSAII (Michael W. Deem and Ramdas Pophale) SiO2 
 PCOD9143401
Probable space group: P 2/M
;
_chemical_formula_sum "Si O2"
_cell_formula_units_Z 28
_cell_length_a 23.069879
_cell_length_b 12.228219
_cell_length_c 13.210874
_cell_angle_alpha 90.000000
_cell_angle_beta 24.760744
_cell_angle_gamma 90.000000
_cell_volume 1560.910066
_symmetry_space_group_name_H-M "P 2/M"
_symmetry_group_IT_number 10
_symmetry_cell_setting 'monoclinic'
loop_
_space_group_symop_operation_xyz
x,y,z
-x,y,-z
-x,-y,-z
x,-y,z
loop_
_atom_site_type_symbol
_atom_site_label
_atom_site_fract_x
_atom_site_fract_y
_atom_site_fract_z
Si Si1 0.941395 0.879156 0.370665
Si Si2 0.649986 0.172864 0.736112
Si Si3 0.424219 0.218930 0.367523
Si Si4 0.752578 0.125670 0.187333
Si Si5 0.693545 0.875335 0.046124
Si Si6 0.875243 0.298126 0.640460
Si Si7 0.385052 0.623445 0.056861
O O1 0.793151 0.875960 0.549442
O O2 0.935779 0.780919 0.458170
O O3 0.954930 0.000000 0.397221
O O4 0.081007 0.865139 0.084129
O O5 0.650112 0.174635 0.615074
O O6 0.637467 0.290698 0.814874
O O7 0.500000 0.120984 0.000000
O O8 0.314101 0.214252 0.632402
O O9 0.551063 0.148030 0.212297
O O10 0.498966 0.326939 0.203244
O O11 0.689540 0.136568 0.174025
O O12 0.721066 0.000000 0.270930
O O13 0.736513 0.000000 0.957079
O O14 0.798732 0.786373 0.836677
O O15 0.758413 0.372276 0.776899
O O16 0.000000 0.355397 0.500000
O O17 0.415771 0.500000 0.038294
#
# Coordination Sequence:
#
# PCOD9143401 Si02
#       7
#     4   4   4   4   4   4   4
#     4  10  20  32  50  79 113 147 177 207 250 305
#     4   9  20  36  53  77 103 134 173 222 267 306
#     4  10  20  33  52  76 103 137 179 219 259 302
#     4  10  20  33  51  76 109 151 185 206 242 304
#     4  10  19  31  51  78 110 147 182 211 247 301
#     4  10  18  31  53  81 109 135 169 220 268 306
#     4   9  20  38  59  80  97 125 174 226 278 325
#
# _framework density 17.938254000000001
#
# number of rings (size 3 to 8) (size 9 to 14) (size 15 to 20)
#    0.000    2.286    1.429    2.143    0.000    6.571 
#    0.000    3.571    0.000   10.286    0.000    8.000 
#    0.000    0.000    0.000    0.000    0.000    0.000 
#
# Total GULP energy -155904.113077 kJ/mol
# GULP energy per Si atom -5568.004038 kJ/mol
# Density = 1.789743 g / cm^3
# Si number density = 17.938254 Si / 1000 Ang^3
#
#
#
# Elastic Constant Matrix: (Units=GPa)
#
#
# Indices 1 2 3 4 5 6 
#
# 1 108.8233 19.9084 36.7307 0.0000 -16.7641 0.0000
# 2 19.9084 80.7609 28.5979 0.0000 8.3967 0.0000
# 3 36.7307 28.5979 76.6700 0.0000 0.3562 0.0000
# 4 0.0000 0.0000 0.0000 12.4466 0.0000 3.0185
# 5 -16.7641 8.3967 0.3562 0.0000 35.5255 0.0000
# 6 0.0000 0.0000 0.0000 3.0185 0.0000 3.2411
#
#
#
# Elastic Compliance Matrix: (Units=1/GPa)
#
#
# Indices 1 2 3 4 5 6 
#
# 1 0.012248 -0.001823 -0.005217 0.000000 0.006263 0.000000
# 2 -0.001823 0.014940 -0.004679 0.000000 -0.004345 0.000000
# 3 -0.005217 -0.004679 0.017295 0.000000 -0.001529 0.000000
# 4 0.000000 0.000000 0.000000 0.103783 0.000000 -0.096654
# 5 0.006263 -0.004345 -0.001529 0.000000 0.032147 0.000000
# 6 0.000000 0.000000 0.000000 -0.096654 0.000000 0.398546
#
#
# Mechanical properties :
#
#
# Convention : Reuss Voigt Hill
#
# Bulk Modulus (GPa) = 47.51757 48.52536 48.02147
# Shear Modulus (GPa) = 8.20462 22.31046 15.25754
#
# Velocity S-wave (km/s) = 2.14097 3.53049 2.91960
# Velocity P-wave (km/s) = 5.71478 6.61281 6.18012
#
# Compressibility (1/GPa) = 0.02104485
#
# Stress axis : x y z
#
# Youngs Moduli (GPa) = 81.64303 66.93322 57.82141
#
# Poissons Ratio (x) = 0.12203 0.30165
# Poissons Ratio (y) = 0.14885 0.27055
# Poissons Ratio (z) = 0.42593 0.31319
#
# Static dielectric constant tensor:
#      x y z
#    x 1.639140 0.000000 -0.023670 
#    y 0.000000 1.593850 0.000000 
#    z -0.023670 0.000000 1.635890 
# 
# From -- ./inp_files/55798.got.cif
#   From: 2010.05.17/outbox.cif.g08.bks.cpg/sg10_28_cif.got.tgz:55798.got - 2010.06.03 11:33:40.
