data_PCOD9143409
_publ_section_title
;
Structure prediction by ZEFSAII (Michael W. Deem and Ramdas Pophale) SiO2 
 PCOD9143409
Probable space group: P 2/M
;
_chemical_formula_sum "Si O2"
_cell_formula_units_Z 28
_cell_length_a 9.583550
_cell_length_b 11.788972
_cell_length_c 14.628103
_cell_angle_alpha 90.000000
_cell_angle_beta 68.449224
_cell_angle_gamma 90.000000
_cell_volume 1537.150736
_symmetry_space_group_name_H-M "P 2/M"
_symmetry_group_IT_number 10
_symmetry_cell_setting 'monoclinic'
loop_
_space_group_symop_operation_xyz
x,y,z
-x,y,-z
-x,-y,-z
x,-y,z
loop_
_atom_site_type_symbol
_atom_site_label
_atom_site_fract_x
_atom_site_fract_y
_atom_site_fract_z
Si Si1 0.672274 0.869196 0.733359
Si Si2 0.523601 0.867784 0.388583
Si Si3 0.853423 0.635076 0.093163
Si Si4 0.054323 0.000000 0.847044
Si Si5 0.169943 0.772633 0.726121
Si Si6 0.430746 0.766268 0.922816
Si Si7 0.746073 0.000000 0.016551
Si Si8 0.987640 0.134010 0.395098
O O1 0.621124 0.857937 0.640046
O O2 0.567891 0.790541 0.820468
O O3 0.849527 0.852477 0.691034
O O4 0.640237 0.000000 0.767757
O O5 0.500000 0.841733 0.500000
O O6 0.652365 0.790936 0.315244
O O7 0.573344 0.000000 0.371345
O O8 0.842581 0.500000 0.088988
O O9 0.872228 0.673761 0.194001
O O10 0.703207 0.692575 0.088704
O O11 0.000000 0.673672 0.000000
O O12 0.096188 0.113638 0.784598
O O13 0.159674 0.000000 0.911528
O O14 0.878127 0.000000 0.910601
O O15 0.119922 0.779981 0.632838
O O16 0.353922 0.887781 0.963762
O O17 0.500000 0.718638 0.000000
O O18 0.000000 0.156186 0.500000
O O19 0.941396 0.000000 0.397824
#
# Coordination Sequence:
#
# PCOD9143409 Si02
#       8
#     4   4   4   2   4   4   2   4
#     4  10  20  33  48  82 125 154 181 220 281 348
#     4  10  18  31  53  83 118 153 187 226 279 347
#     4  11  26  46  64  83 110 152 207 255 297 349
#     4  11  20  30  56  86 116 157 195 239 280 352
#     4  12  20  36  60  85 114 154 200 237 285 347
#     4  12  24  36  58  87 121 152 185 233 300 362
#     4  11  21  34  50  88 127 151 187 231 298 354
#     4  10  21  34  53  88 130 162 189 225 280 354
#
# _framework density 18.215520000000001
#
# number of rings (size 3 to 8) (size 9 to 14) (size 15 to 20)
#    0.000    1.143    5.000    1.929    4.000    2.571 
#    0.000    0.000    0.000    0.857    0.000    0.000 
#    0.000    0.000    0.000    0.000    0.000    0.000 
#
# Total GULP energy -156358.727555 kJ/mol
# GULP energy per Si atom -5584.240270 kJ/mol
# Density = 1.817406 g / cm^3
# Si number density = 18.215520 Si / 1000 Ang^3
#
#
#
# Elastic Constant Matrix: (Units=GPa)
#
#
# Indices 1 2 3 4 5 6 
#
# 1 74.7242 14.5034 15.7650 0.0000 12.3905 0.0000
# 2 14.5034 41.6650 14.1779 0.0000 1.5454 0.0000
# 3 15.7650 14.1779 68.7236 0.0000 8.0673 0.0000
# 4 0.0000 0.0000 0.0000 16.2007 0.0000 -3.5304
# 5 12.3905 1.5454 8.0673 0.0000 34.0287 0.0000
# 6 0.0000 0.0000 0.0000 -3.5304 0.0000 32.3376
#
#
#
# Elastic Compliance Matrix: (Units=1/GPa)
#
#
# Indices 1 2 3 4 5 6 
#
# 1 0.015513 -0.004521 -0.002044 0.000000 -0.004959 0.000000
# 2 -0.004521 0.027131 -0.004741 0.000000 0.001538 0.000000
# 3 -0.002044 -0.004741 0.016340 0.000000 -0.002914 0.000000
# 4 0.000000 0.000000 0.000000 0.063230 0.000000 0.006903
# 5 -0.004959 0.001538 -0.002914 0.000000 0.031814 0.000000
# 6 0.000000 0.000000 0.000000 0.006903 0.000000 0.031677
#
#
# Mechanical properties :
#
#
# Convention : Reuss Voigt Hill
#
# Bulk Modulus (GPa) = 27.49250 30.44504 28.96877
# Shear Modulus (GPa) = 22.68185 25.89115 24.28650
#
# Velocity S-wave (km/s) = 3.53256 3.77421 3.65538
# Velocity P-wave (km/s) = 5.63598 5.97854 5.80979
#
# Compressibility (1/GPa) = 0.03637355
#
# Stress axis : x y z
#
# Youngs Moduli (GPa) = 64.46006 36.85856 61.19938
#
# Poissons Ratio (x) = 0.16663 0.12509
# Poissons Ratio (y) = 0.29140 0.29013
# Poissons Ratio (z) = 0.13176 0.17473
#
# Static dielectric constant tensor:
#      x y z
#    x 1.664030 0.000000 0.032150 
#    y 0.000000 1.580830 0.000000 
#    z 0.032150 0.000000 1.672520 
# 
# From -- ./inp_files/60950.got.cif
#   From: 2010.05.17/outbox.cif.g08.bks.cpg/sg10_31_cif.got.tgz:60950.got - 2010.06.03 11:33:40.
