data_PCOD9143241
_publ_section_title
;
Structure prediction by ZEFSAII (Michael W. Deem and Ramdas Pophale) SiO2 
 PCOD9143241
Probable space group: P 2/M
;
_chemical_formula_sum "Si O2"
_cell_formula_units_Z 24
_cell_length_a 6.231650
_cell_length_b 15.699514
_cell_length_c 19.565511
_cell_angle_alpha 90.000000
_cell_angle_beta 132.953176
_cell_angle_gamma 90.000000
_cell_volume 1401.001556
_symmetry_space_group_name_H-M "P 2/M"
_symmetry_group_IT_number 10
_symmetry_cell_setting 'monoclinic'
loop_
_space_group_symop_operation_xyz
x,y,z
-x,y,-z
-x,-y,-z
x,-y,z
loop_
_atom_site_type_symbol
_atom_site_label
_atom_site_fract_x
_atom_site_fract_y
_atom_site_fract_z
Si Si1 0.761065 0.753853 0.105067
Si Si2 0.357535 0.683418 0.771249
Si Si3 0.066063 0.594617 0.094878
Si Si4 0.238935 0.746146 0.394933
Si Si5 0.933935 0.905382 0.405122
Si Si6 0.357534 0.183419 0.271248
O O1 0.645995 0.723673 0.153794
O O2 0.902254 0.669884 0.099785
O O3 0.019613 0.822077 0.174718
O O4 0.500000 0.784426 0.000000
O O5 0.583639 0.605764 0.820000
O O6 0.500001 0.750000 0.750001
O O7 0.019615 0.677922 0.674718
O O8 0.972083 0.500000 0.096452
O O9 0.000000 0.603890 0.000000
O O10 0.500000 0.715574 0.500000
O O11 0.354007 0.776324 0.346205
O O12 0.097746 0.830116 0.400213
O O13 0.583637 0.894235 0.320000
O O14 0.000000 0.896107 0.500000
O O15 0.027913 0.000000 0.403548
#
# Coordination Sequence:
#
# PCOD9143241 Si02
#       6
#     4   4   4   4   4   4
#     4  10  18  31  50  72  97 128 166 201 237 282
#     4   9  19  32  47  70  99 130 164 199 238 284
#     4  10  19  30  47  73 104 131 155 193 246 295
#     4  10  18  31  50  72  97 128 166 201 237 282
#     4  10  19  30  47  73 104 131 155 193 246 295
#     4   9  19  32  47  70  99 130 164 199 238 284
#
# _framework density 17.130600999999999
#
# number of rings (size 3 to 8) (size 9 to 14) (size 15 to 20)
#    0.000    2.333    3.333    0.000    0.000    2.000 
#    0.000    0.000    0.000    1.000    0.000   21.000 
#    0.000    0.000    0.000    0.000    0.000    0.000 
#
# Total GULP energy -133617.806051 kJ/mol
# GULP energy per Si atom -5567.408585 kJ/mol
# Density = 1.709161 g / cm^3
# Si number density = 17.130601 Si / 1000 Ang^3
#
#
#
# Elastic Constant Matrix: (Units=GPa)
#
#
# Indices 1 2 3 4 5 6 
#
# 1 64.8554 4.0256 29.6119 0.0000 -9.8935 0.0000
# 2 4.0256 38.2899 14.5639 0.0000 -1.8535 0.0000
# 3 29.6119 14.5639 136.3414 0.0000 13.2940 0.0000
# 4 0.0000 0.0000 0.0000 10.1828 0.0000 2.3819
# 5 -9.8935 -1.8535 13.2940 0.0000 34.2940 0.0000
# 6 0.0000 0.0000 0.0000 2.3819 0.0000 17.7374
#
#
#
# Elastic Compliance Matrix: (Units=1/GPa)
#
#
# Indices 1 2 3 4 5 6 
#
# 1 0.018702 0.000208 -0.004793 0.000000 0.007265 0.000000
# 2 0.000208 0.027468 -0.003253 0.000000 0.002806 0.000000
# 3 -0.004793 -0.003253 0.009223 0.000000 -0.005134 0.000000
# 4 0.000000 0.000000 0.000000 0.101390 0.000000 -0.013616
# 5 0.007265 0.002806 -0.005134 0.000000 0.033397 0.000000
# 6 0.000000 0.000000 0.000000 -0.013616 0.000000 0.058207
#
#
# Mechanical properties :
#
#
# Convention : Reuss Voigt Hill
#
# Bulk Modulus (GPa) = 25.17670 37.32106 31.24888
# Shear Modulus (GPa) = 18.03093 25.19517 21.61305
#
# Velocity S-wave (km/s) = 3.24783 3.83922 3.55584
# Velocity P-wave (km/s) = 5.36595 6.44099 5.92789
#
# Compressibility (1/GPa) = 0.03971927
#
# Stress axis : x y z
#
# Youngs Moduli (GPa) = 53.46919 36.40639 108.41906
#
# Poissons Ratio (x) = -0.00758 0.51960
# Poissons Ratio (y) = -0.01114 0.35268
# Poissons Ratio (z) = 0.25625 0.11843
#
# Static dielectric constant tensor:
#      x y z
#    x 1.605100 0.000000 0.045900 
#    y 0.000000 1.539540 0.000000 
#    z 0.045900 0.000000 1.608910 
# 
# From -- ./inp_files/7239.got.cif
#   From: 2010.05.17/outbox.cif.g08.bks.cpg/sg10_4_cif.got.tgz:7239.got - 2010.06.03 11:33:40.
