data_PCOD9143774
_publ_section_title
;
Structure prediction by ZEFSAII (Michael W. Deem and Ramdas Pophale) SiO2 
 PCOD9143774
Probable space group: P 2/M
;
_chemical_formula_sum "Si O2"
_cell_formula_units_Z 32
_cell_length_a 15.573301
_cell_length_b 7.498053
_cell_length_c 11.978785
_cell_angle_alpha 90.000000
_cell_angle_beta 94.004266
_cell_angle_gamma 90.000000
_cell_volume 1395.341404
_symmetry_space_group_name_H-M "P 2/M"
_symmetry_group_IT_number 10
_symmetry_cell_setting 'monoclinic'
loop_
_space_group_symop_operation_xyz
x,y,z
-x,y,-z
-x,-y,-z
x,-y,z
loop_
_atom_site_type_symbol
_atom_site_label
_atom_site_fract_x
_atom_site_fract_y
_atom_site_fract_z
Si Si1 0.594449 0.782251 0.234891
Si Si2 0.929562 0.281971 0.729166
Si Si3 0.672558 0.216334 0.477833
Si Si4 0.723465 0.205814 0.065179
Si Si5 0.752050 0.296378 0.817763
Si Si6 0.419647 0.203585 0.318144
Si Si7 0.881392 0.283348 0.238868
Si Si8 0.132704 0.706394 0.509508
O O1 0.647913 0.731454 0.350368
O O2 0.643227 0.718940 0.128835
O O3 0.497406 0.720940 0.251639
O O4 0.596299 0.000000 0.227334
O O5 0.928610 0.500000 0.727773
O O6 0.844416 0.223147 0.786959
O O7 0.921138 0.220686 0.599437
O O8 0.021799 0.231749 0.787194
O O9 0.603928 0.281246 0.563094
O O10 0.767429 0.282249 0.516170
O O11 0.674585 0.000000 0.482451
O O12 0.805817 0.214491 0.153960
O O13 0.704834 0.000000 0.036396
O O14 0.744196 0.294883 0.950052
O O15 0.747114 0.500000 0.776944
O O16 0.669383 0.203140 0.757211
O O17 0.447091 0.000000 0.343932
O O18 0.874651 0.500000 0.236785
O O19 0.871689 0.218959 0.366094
O O20 0.106785 0.500000 0.518333
#
# Coordination Sequence:
#
# PCOD9143774 Si02
#       8
#     4   4   4   4   4   4   4   4
#     4   9  19  36  58  83 113 149 184 222 274 333
#     4   9  19  36  58  83 113 149 184 222 274 333
#     4  10  18  32  57  86 115 145 180 222 273 332
#     4  11  23  40  59  80 111 147 188 234 278 327
#     4  11  23  40  59  80 111 147 188 234 278 327
#     4  10  20  36  60  86 111 145 187 228 272 329
#     4  10  20  36  60  86 111 145 187 228 272 329
#     4  10  18  32  57  86 115 145 180 222 273 332
#
# _framework density 22.933454000000001
#
# number of rings (size 3 to 8) (size 9 to 14) (size 15 to 20)
#    0.000    2.000    2.500    1.500    0.000    4.000 
#    0.000    8.750    0.000    3.000    0.000    0.000 
#    0.000    0.000    0.000    0.000    0.000    0.000 
#
# Total GULP energy -178805.225924 kJ/mol
# GULP energy per Si atom -5587.663310 kJ/mol
# Density = 2.288126 g / cm^3
# Si number density = 22.933454 Si / 1000 Ang^3
#
#
#
# Elastic Constant Matrix: (Units=GPa)
#
#
# Indices 1 2 3 4 5 6 
#
# 1 86.0891 -8.5963 2.1265 0.0000 -15.5247 0.0000
# 2 -8.5963 66.0232 -5.0407 0.0000 -2.8195 0.0000
# 3 2.1265 -5.0407 87.0053 0.0000 -23.6644 0.0000
# 4 0.0000 0.0000 0.0000 14.4180 0.0000 4.1285
# 5 -15.5247 -2.8195 -23.6644 0.0000 17.1093 0.0000
# 6 0.0000 0.0000 0.0000 4.1285 0.0000 16.6702
#
#
#
# Elastic Compliance Matrix: (Units=1/GPa)
#
#
# Indices 1 2 3 4 5 6 
#
# 1 0.016156 0.003615 0.006354 0.000000 0.024044 0.000000
# 2 0.003615 0.016413 0.003992 0.000000 0.011507 0.000000
# 3 0.006354 0.003992 0.021347 0.000000 0.035950 0.000000
# 4 0.000000 0.000000 0.000000 0.074651 0.000000 -0.018488
# 5 0.024044 0.011507 0.035950 0.000000 0.131884 0.000000
# 6 0.000000 0.000000 0.000000 -0.018488 0.000000 0.064566
#
#
# Mechanical properties :
#
#
# Convention : Reuss Voigt Hill
#
# Bulk Modulus (GPa) = 12.21886 24.01073 18.11480
# Shear Modulus (GPa) = 15.41429 26.34806 20.88118
#
# Velocity S-wave (km/s) = 2.59536 3.39321 3.02074
# Velocity P-wave (km/s) = 3.78427 5.08373 4.48135
#
# Compressibility (1/GPa) = 0.08184069
#
# Stress axis : x y z
#
# Youngs Moduli (GPa) = 61.89705 60.92679 46.84390
#
# Poissons Ratio (x) = -0.22028 -0.29766
# Poissons Ratio (y) = -0.22378 -0.18702
# Poissons Ratio (z) = -0.39331 -0.24324
#
# Static dielectric constant tensor:
#      x y z
#    x 1.854630 0.000000 -0.036670 
#    y 0.000000 1.903310 0.000000 
#    z -0.036670 0.000000 1.824460 
# 
# From -- ./inp_files/49860.got.cif
#   From: 2010.05.17/outbox.cif.g08.bks.cpg/sg10_25_cif.got.tgz:49860.got - 2010.06.03 11:33:40.
