data_PCOD9143107
_publ_section_title
;
Structure prediction by ZEFSAII (Michael W. Deem and Ramdas Pophale) SiO2 
 PCOD9143107
Probable space group: P 2/M
;
_chemical_formula_sum "Si O2"
_cell_formula_units_Z 32
_cell_length_a 15.335760
_cell_length_b 9.228825
_cell_length_c 21.595707
_cell_angle_alpha 90.000000
_cell_angle_beta 27.805658
_cell_angle_gamma 90.000000
_cell_volume 1425.760487
_symmetry_space_group_name_H-M "P 2/M"
_symmetry_group_IT_number 10
_symmetry_cell_setting 'monoclinic'
loop_
_space_group_symop_operation_xyz
x,y,z
-x,y,-z
-x,-y,-z
x,-y,z
loop_
_atom_site_type_symbol
_atom_site_label
_atom_site_fract_x
_atom_site_fract_y
_atom_site_fract_z
Si Si1 0.584584 0.830836 0.770766
Si Si2 0.251082 0.334804 0.540498
Si Si3 0.655216 0.329871 0.315335
Si Si4 0.833987 0.666659 0.859146
Si Si5 0.008447 0.169485 0.130183
Si Si6 0.898402 0.830734 0.475923
Si Si7 0.285788 0.829210 0.850355
Si Si8 0.278716 0.326855 0.202908
O O1 0.784775 0.811645 0.610606
O O2 0.437763 0.800062 0.808682
O O3 0.578798 0.737091 0.836540
O O4 0.565335 0.000000 0.799455
O O5 0.273458 0.500000 0.501168
O O6 0.434777 0.308129 0.466093
O O7 0.238114 0.217455 0.494196
O O8 0.051256 0.332660 0.699431
O O9 0.695888 0.500000 0.295346
O O10 0.807256 0.243681 0.259051
O O11 0.683385 0.273216 0.227230
O O12 0.783861 0.500000 0.904885
O O13 0.717080 0.716152 0.872314
O O14 0.847471 0.763925 0.911086
O O15 0.992860 0.000000 0.151704
O O16 0.091881 0.190474 0.009001
O O17 0.078137 0.731108 0.352831
O O18 0.949593 0.000000 0.438135
O O19 0.301037 0.000000 0.822633
O O20 0.284254 0.500000 0.200197
#
# Coordination Sequence:
#
# PCOD9143107 Si02
#       8
#     4   4   4   4   4   4   4   4
#     4  10  20  34  54  81 112 147 186 228 277 332
#     4   9  19  35  56  84 116 150 182 226 284 335
#     4  11  22  37  61  89 116 145 184 231 285 342
#     4   9  20  40  59  78 112 150 189 232 276 329
#     4  11  24  40  60  82 109 150 194 235 282 333
#     4  10  18  30  52  81 114 150 185 224 274 332
#     4  10  22  41  59  82 117 150 185 234 284 330
#     4  10  21  35  54  81 114 150 184 227 281 334
#
# _framework density 22.444161999999999
#
# number of rings (size 3 to 8) (size 9 to 14) (size 15 to 20)
#    0.000    2.000    1.250    3.000    0.000    9.000 
#    0.000    3.125    0.000    3.750    0.000    0.000 
#    0.000    0.000    0.000    0.000    0.000    0.000 
#
# Total GULP energy -178897.092552 kJ/mol
# GULP energy per Si atom -5590.534142 kJ/mol
# Density = 2.239308 g / cm^3
# Si number density = 22.444162 Si / 1000 Ang^3
#
#
#
# Elastic Constant Matrix: (Units=GPa)
#
#
# Indices 1 2 3 4 5 6 
#
# 1 99.6449 43.6199 14.6675 0.0000 -2.5118 0.0000
# 2 43.6199 52.5639 21.6468 0.0000 6.9451 0.0000
# 3 14.6675 21.6468 62.6559 0.0000 -11.2559 0.0000
# 4 0.0000 0.0000 0.0000 18.2151 0.0000 -6.9201
# 5 -2.5118 6.9451 -11.2559 0.0000 35.3227 0.0000
# 6 0.0000 0.0000 0.0000 -6.9201 0.0000 58.2212
#
#
#
# Elastic Compliance Matrix: (Units=1/GPa)
#
#
# Indices 1 2 3 4 5 6 
#
# 1 0.016523 -0.015311 0.002306 0.000000 0.004920 0.000000
# 2 -0.015311 0.038249 -0.011856 0.000000 -0.012387 0.000000
# 3 0.002306 -0.011856 0.021177 0.000000 0.009243 0.000000
# 4 0.000000 0.000000 0.000000 0.057496 0.000000 0.006834
# 5 0.004920 -0.012387 0.009243 0.000000 0.034041 0.000000
# 6 0.000000 0.000000 0.000000 0.006834 0.000000 0.017988
#
#
# Mechanical properties :
#
#
# Convention : Reuss Voigt Hill
#
# Bulk Modulus (GPa) = 38.12855 41.63700 39.88278
# Shear Modulus (GPa) = 20.49702 31.34716 25.92209
#
# Velocity S-wave (km/s) = 3.02527 3.74126 3.40216
# Velocity P-wave (km/s) = 5.40630 6.10364 5.76552
#
# Compressibility (1/GPa) = 0.02622707
#
# Stress axis : x y z
#
# Youngs Moduli (GPa) = 60.52300 26.14436 47.22114
#
# Poissons Ratio (x) = 0.40029 -0.10888
# Poissons Ratio (y) = 0.92666 0.55984
# Poissons Ratio (z) = -0.13955 0.30996
#
# Static dielectric constant tensor:
#      x y z
#    x 1.853720 0.000000 -0.039700 
#    y 0.000000 1.746330 0.000000 
#    z -0.039700 0.000000 1.889400 
# 
# From -- ./inp_files/89493.got.cif
#   From: 2010.05.17/outbox.cif.g08.bks.cpg/sg10_45_cif.got.tgz:89493.got - 2010.06.03 11:33:40.
