data_PCOD9143360
_publ_section_title
;
Structure prediction by ZEFSAII (Michael W. Deem and Ramdas Pophale) SiO2 
 PCOD9143360
Probable space group: P 2/M
;
_chemical_formula_sum "Si O2"
_cell_formula_units_Z 17
_cell_length_a 9.227788
_cell_length_b 10.951390
_cell_length_c 6.869572
_cell_angle_alpha 90.000000
_cell_angle_beta 105.704715
_cell_angle_gamma 90.000000
_cell_volume 668.303498
_symmetry_space_group_name_H-M "P 2/M"
_symmetry_group_IT_number 10
_symmetry_cell_setting 'monoclinic'
loop_
_space_group_symop_operation_xyz
x,y,z
-x,y,-z
-x,-y,-z
x,-y,z
loop_
_atom_site_type_symbol
_atom_site_label
_atom_site_fract_x
_atom_site_fract_y
_atom_site_fract_z
Si Si1 0.533294 0.856941 0.284317
Si Si2 0.172439 0.255629 0.498231
Si Si3 0.676964 0.500000 0.543404
Si Si4 0.000000 0.000000 0.000000
Si Si5 0.169006 0.500000 0.990641
Si Si6 0.782396 0.774034 0.952128
O O1 0.500000 0.826756 0.500000
O O2 0.710757 0.827977 0.338846
O O3 0.397983 0.794650 0.116639
O O4 0.511008 0.000000 0.247859
O O5 0.250485 0.386787 0.538334
O O6 0.179000 0.232523 0.267644
O O7 0.000000 0.248946 0.500000
O O8 0.500000 0.500000 0.500000
O O9 0.726136 0.500000 0.783792
O O10 0.883195 0.891569 0.038993
O O11 0.186684 0.643222 0.930614
O O12 0.000000 0.500000 0.000000
#
# Coordination Sequence:
#
# PCOD9143360 Si02
#       6
#     4   4   2   1   2   4
#     4   9  17  31  50  75 104 136 182 227 274 323
#     4  10  20  33  54  83 113 140 174 230 291 338
#     4  10  19  35  56  85 112 144 189 231 279 329
#     4  12  20  34  56  78 106 146 202 236 262 324
#     4  10  18  31  52  83 106 133 179 232 278 322
#     4  10  20  34  55  81 106 144 186 235 276 329
#
# _framework density 25.437543999999999
#
# number of rings (size 3 to 8) (size 9 to 14) (size 15 to 20)
#    0.000    2.118    2.353    3.882    1.647    0.471 
#    0.000    0.000    0.000    2.824    0.000    6.588 
#    0.000    0.000    0.000    0.000    0.000    0.000 
#
# Total GULP energy -94665.029322 kJ/mol
# GULP energy per Si atom -5568.531137 kJ/mol
# Density = 2.537965 g / cm^3
# Si number density = 25.437544 Si / 1000 Ang^3
#
#
#
# Elastic Constant Matrix: (Units=GPa)
#
#
# Indices 1 2 3 4 5 6 
#
# 1 244.3486 56.0887 54.1443 0.0000 40.0502 0.0000
# 2 56.0887 179.3984 35.7671 0.0000 23.5959 0.0000
# 3 54.1443 35.7671 74.3174 0.0000 21.4139 0.0000
# 4 0.0000 0.0000 0.0000 18.9998 0.0000 26.2465
# 5 40.0502 23.5959 21.4139 0.0000 54.8210 0.0000
# 6 0.0000 0.0000 0.0000 26.2465 0.0000 34.8027
#
#
#
# Elastic Compliance Matrix: (Units=1/GPa)
#
#
# Indices 1 2 3 4 5 6 
#
# 1 0.005286 -0.000779 -0.002772 0.000000 -0.002444 0.000000
# 2 -0.000779 0.006422 -0.002131 0.000000 -0.001363 0.000000
# 3 -0.002772 -0.002131 0.017638 0.000000 -0.003947 0.000000
# 4 0.000000 0.000000 0.000000 -1.259416 0.000000 0.949790
# 5 -0.002444 -0.001363 -0.003947 0.000000 0.022155 0.000000
# 6 0.000000 0.000000 0.000000 0.949790 0.000000 -0.687552
#
#
# Mechanical properties :
#
#
# Convention : Reuss Voigt Hill
#
# Bulk Modulus (GPa) = 55.60777 87.78495 71.69636
# Shear Modulus (GPa) = -2.66225 45.19565 21.26670
#
# Velocity S-wave (km/s) = -1.02414 4.21970 2.89457
# Velocity P-wave (km/s) = 4.52874 7.63715 6.27836
#
# Compressibility (1/GPa) = 0.01798310
#
# Stress axis : x y z
#
# Youngs Moduli (GPa) = 189.17568 155.72311 56.69440
#
# Poissons Ratio (x) = 0.12124 0.15718
# Poissons Ratio (y) = 0.14728 0.12080
# Poissons Ratio (z) = 0.52446 0.33179
#
# Static dielectric constant tensor:
#      x y z
#    x 2.026960 0.000000 -0.102850 
#    y 0.000000 1.949030 0.000000 
#    z -0.102850 0.000000 2.026680 
# 
# From -- ./inp_files/17363.got.cif
#   From: 2010.05.17/outbox.cif.g08.bks.cpg/sg10_9_cif.got.tgz:17363.got - 2010.06.03 11:33:40.
