data_PCOD9143031
_publ_section_title
;
Structure prediction by ZEFSAII (Michael W. Deem and Ramdas Pophale) SiO2 
 PCOD9143031
Probable space group: P 2/M
;
_chemical_formula_sum "Si O2"
_cell_formula_units_Z 32
_cell_length_a 11.952503
_cell_length_b 9.199529
_cell_length_c 22.111613
_cell_angle_alpha 90.000000
_cell_angle_beta 129.280279
_cell_angle_gamma 90.000000
_cell_volume 1881.995057
_symmetry_space_group_name_H-M "P 2/M"
_symmetry_group_IT_number 10
_symmetry_cell_setting 'monoclinic'
loop_
_space_group_symop_operation_xyz
x,y,z
-x,y,-z
-x,-y,-z
x,-y,z
loop_
_atom_site_type_symbol
_atom_site_label
_atom_site_fract_x
_atom_site_fract_y
_atom_site_fract_z
Si Si1 0.841033 0.172650 0.701519
Si Si2 0.230720 0.668373 0.672708
Si Si3 0.557479 0.324543 0.086288
Si Si4 0.565257 0.666340 0.833257
Si Si5 0.672930 0.826790 0.410779
Si Si6 0.666212 0.672376 0.536238
Si Si7 0.346418 0.171810 0.250861
Si Si8 0.159652 0.171619 0.767002
O O1 0.764937 0.261117 0.622295
O O2 0.774043 0.220514 0.742563
O O3 0.012040 0.189542 0.753360
O O4 0.807042 0.000000 0.682754
O O5 0.186727 0.500000 0.651876
O O6 0.398077 0.669801 0.753051
O O7 0.233051 0.751524 0.609754
O O8 0.146395 0.751592 0.696891
O O9 0.577482 0.500000 0.098480
O O10 0.445747 0.281300 0.101418
O O11 0.707141 0.245602 0.152760
O O12 0.500000 0.292050 0.000000
O O13 0.613836 0.500000 0.849468
O O14 0.654554 0.754402 0.814719
O O15 0.695595 0.753784 0.483344
O O16 0.504248 0.801941 0.334904
O O17 0.697373 0.000000 0.420885
O O18 0.500000 0.695480 0.500000
O O19 0.689104 0.500000 0.537031
O O20 0.332686 0.000000 0.237691
O O21 0.187404 0.000000 0.767552
#
# Coordination Sequence:
#
# PCOD9143031 Si02
#       8
#     4   4   4   4   4   4   4   4
#     4  10  21  36  51  70 100 138 173 209 254 305
#     4   9  17  31  50  71 100 132 166 210 257 303
#     4   9  18  34  56  80 106 135 164 200 251 304
#     4   8  15  27  46  73 100 125 158 203 244 287
#     4  10  18  30  51  73  97 130 171 217 261 304
#     4  11  22  33  48  73 102 132 172 219 261 304
#     4   9  17  29  47  70  96 130 168 205 247 295
#     4  10  20  34  53  77 104 132 169 209 249 303
#
# _framework density 17.003232000000001
#
# number of rings (size 3 to 8) (size 9 to 14) (size 15 to 20)
#    0.000    2.500    1.250    2.250    0.000    5.750 
#    0.000    0.625    0.000    4.500    0.000    5.250 
#    0.000    0.000    0.000    0.000    0.000    0.000 
#
# Total GULP energy -178426.812359 kJ/mol
# GULP energy per Si atom -5575.837886 kJ/mol
# Density = 1.696453 g / cm^3
# Si number density = 17.003232 Si / 1000 Ang^3
#
#
#
# Elastic Constant Matrix: (Units=GPa)
#
#
# Indices 1 2 3 4 5 6 
#
# 1 117.1894 62.5949 58.9760 0.0000 -35.6400 0.0000
# 2 62.5949 69.2120 46.8725 0.0000 -15.4582 0.0000
# 3 58.9760 46.8725 77.9199 0.0000 -33.6269 0.0000
# 4 0.0000 0.0000 0.0000 13.8309 0.0000 -12.1581
# 5 -35.6400 -15.4582 -33.6269 0.0000 32.1661 0.0000
# 6 0.0000 0.0000 0.0000 -12.1581 0.0000 21.8912
#
#
#
# Elastic Compliance Matrix: (Units=1/GPa)
#
#
# Indices 1 2 3 4 5 6 
#
# 1 0.022618 -0.017007 0.000727 0.000000 0.017648 0.000000
# 2 -0.017007 0.037959 -0.018624 0.000000 -0.020071 0.000000
# 3 0.000727 -0.018624 0.036389 0.000000 0.029897 0.000000
# 4 0.000000 0.000000 0.000000 0.141274 0.000000 0.078462
# 5 0.017648 -0.020071 0.029897 0.000000 0.072252 0.000000
# 6 0.000000 0.000000 0.000000 0.078462 0.000000 0.089257
#
#
# Mechanical properties :
#
#
# Convention : Reuss Voigt Hill
#
# Bulk Modulus (GPa) = 36.81981 66.80091 51.81036
# Shear Modulus (GPa) = 10.44695 19.96950 15.20823
#
# Velocity S-wave (km/s) = 2.48142 3.43075 2.99395
# Velocity P-wave (km/s) = 5.46914 7.42064 6.51833
#
# Compressibility (1/GPa) = 0.02715929
#
# Stress axis : x y z
#
# Youngs Moduli (GPa) = 44.21189 26.34421 27.48118
#
# Poissons Ratio (x) = 0.44803 -0.01999
# Poissons Ratio (y) = 0.75190 0.51181
# Poissons Ratio (z) = -0.03215 0.49063
#
# Static dielectric constant tensor:
#      x y z
#    x 1.587400 0.000000 -0.008530 
#    y 0.000000 1.572950 0.000000 
#    z -0.008530 0.000000 1.553390 
# 
# From -- ./inp_files/52781.got.cif
#   From: 2010.05.17/outbox.cif.g08.bks.cpg/sg10_27_cif.got.tgz:52781.got - 2010.06.03 11:33:40.
