data_PCOD9143255
_publ_section_title
;
Structure prediction by ZEFSAII (Michael W. Deem and Ramdas Pophale) SiO2 
 PCOD9143255
Probable space group: P 2/M
;
_chemical_formula_sum "Si O2"
_cell_formula_units_Z 24
_cell_length_a 22.031733
_cell_length_b 7.536937
_cell_length_c 10.384263
_cell_angle_alpha 90.000000
_cell_angle_beta 140.662718
_cell_angle_gamma 90.000000
_cell_volume 1093.022745
_symmetry_space_group_name_H-M "P 2/M"
_symmetry_group_IT_number 10
_symmetry_cell_setting 'monoclinic'
loop_
_space_group_symop_operation_xyz
x,y,z
-x,y,-z
-x,-y,-z
x,-y,z
loop_
_atom_site_type_symbol
_atom_site_label
_atom_site_fract_x
_atom_site_fract_y
_atom_site_fract_z
Si Si1 0.562000 0.796521 0.910909
Si Si2 0.157129 0.204459 0.268496
Si Si3 0.636690 0.703128 0.312079
Si Si4 0.118598 0.783061 0.921307
Si Si5 0.250239 0.782487 0.908860
Si Si6 0.094034 0.216786 0.442583
O O1 0.459013 0.708403 0.759041
O O2 0.543051 0.000000 0.845170
O O3 0.610176 0.791226 0.132272
O O4 0.642600 0.721839 0.948122
O O5 0.271627 0.210348 0.472580
O O6 0.114706 0.279773 0.331134
O O7 0.124488 0.000000 0.211639
O O8 0.129289 0.281814 0.085104
O O9 0.660841 0.500000 0.323906
O O10 0.203562 0.726513 0.966590
O O11 0.013814 0.733842 0.697010
O O12 0.121768 0.000000 0.928591
O O13 0.176489 0.726233 0.675721
O O14 0.253187 0.000000 0.910880
O O15 0.098116 0.000000 0.448360
#
# Coordination Sequence:
#
# PCOD9143255 Si02
#       6
#     4   4   4   4   4   4
#     4  10  18  32  54  78 102 127 162 209 255 296
#     4  10  18  31  50  76 104 134 168 205 247 291
#     4  11  21  33  51  75 100 130 169 209 252 297
#     4   9  17  27  45  75 109 135 161 203 251 296
#     4   9  16  27  46  76 107 131 159 201 255 300
#     4   9  15  26  46  74 105 134 165 204 248 291
#
# _framework density 21.957456000000001
#
# number of rings (size 3 to 8) (size 9 to 14) (size 15 to 20)
#    0.000    2.333    1.667    4.000    0.000    4.000 
#    0.000    0.833    0.000    9.000    0.000    1.167 
#    0.000    0.000    0.000    0.000    0.000    0.000 
#
# Total GULP energy -134024.929655 kJ/mol
# GULP energy per Si atom -5584.372069 kJ/mol
# Density = 2.190748 g / cm^3
# Si number density = 21.957456 Si / 1000 Ang^3
#
#
#
# Elastic Constant Matrix: (Units=GPa)
#
#
# Indices 1 2 3 4 5 6 
#
# 1 83.9051 2.6876 1.4833 0.0000 6.9729 0.0000
# 2 2.6876 60.3158 -6.9519 0.0000 -2.8386 0.0000
# 3 1.4833 -6.9519 30.2888 0.0000 3.1885 0.0000
# 4 0.0000 0.0000 0.0000 -36.8123 0.0000 -11.6107
# 5 6.9729 -2.8386 3.1885 0.0000 35.5189 0.0000
# 6 0.0000 0.0000 0.0000 -11.6107 0.0000 -36.2314
#
#
#
# Elastic Compliance Matrix: (Units=1/GPa)
#
#
# Indices 1 2 3 4 5 6 
#
# 1 0.012149 -0.000712 -0.000506 0.000000 -0.002397 0.000000
# 2 -0.000712 0.017108 0.003839 0.000000 0.001163 0.000000
# 3 -0.000506 0.003839 0.034202 0.000000 -0.002664 0.000000
# 4 0.000000 0.000000 0.000000 -0.030219 0.000000 0.009684
# 5 -0.002397 0.001163 -0.002664 0.000000 0.028957 0.000000
# 6 0.000000 0.000000 0.000000 0.009684 0.000000 -0.030704
#
#
# Mechanical properties :
#
#
# Convention : Reuss Voigt Hill
#
# Bulk Modulus (GPa) = 14.55592 18.77196 16.66394
# Shear Modulus (GPa) = 101.72476 4.31444 53.01960
#
# Velocity S-wave (km/s) = 6.81386 1.40327 4.91924
# Velocity P-wave (km/s) = 8.27940 3.34565 6.31434
#
# Compressibility (1/GPa) = 0.06870059
#
# Stress axis : x y z
#
# Youngs Moduli (GPa) = 82.31020 58.45091 29.23808
#
# Poissons Ratio (x) = 0.04165 0.01480
# Poissons Ratio (y) = 0.05864 -0.11225
# Poissons Ratio (z) = 0.04167 -0.22441
#
# Static dielectric constant tensor:
#      x y z
#    x 1.812940 0.000000 -0.001090 
#    y 0.000000 1.832530 0.000000 
#    z -0.001090 0.000000 1.758950 
# 
# From -- ./inp_files/33787.got.cif
#   From: 2010.05.17/outbox.cif.g08.bks.cpg/sg10_17_cif.got.tgz:33787.got - 2010.06.03 11:33:40.
