data_PCOD9143469
_publ_section_title
;
Structure prediction by ZEFSAII (Michael W. Deem and Ramdas Pophale) SiO2 
 PCOD9143469
Probable space group: P 2/M
;
_chemical_formula_sum "Si O2"
_cell_formula_units_Z 32
_cell_length_a 16.617708
_cell_length_b 7.625366
_cell_length_c 25.571985
_cell_angle_alpha 90.000000
_cell_angle_beta 26.257020
_cell_angle_gamma 90.000000
_cell_volume 1433.540530
_symmetry_space_group_name_H-M "P 2/M"
_symmetry_group_IT_number 10
_symmetry_cell_setting 'monoclinic'
loop_
_space_group_symop_operation_xyz
x,y,z
-x,y,-z
-x,-y,-z
x,-y,z
loop_
_atom_site_type_symbol
_atom_site_label
_atom_site_fract_x
_atom_site_fract_y
_atom_site_fract_z
Si Si1 0.236912 0.786737 0.009874
Si Si2 0.787271 0.297209 0.399243
Si Si3 0.433864 0.214088 0.791155
Si Si4 0.541181 0.214776 0.916528
Si Si5 0.819592 0.703566 0.266415
Si Si6 0.555641 0.799522 0.332753
Si Si7 0.052656 0.204401 0.330678
Si Si8 0.156535 0.786163 0.448369
O O1 0.036501 0.719826 0.139158
O O2 0.230524 0.000000 0.014515
O O3 0.301079 0.728593 0.914733
O O4 0.387094 0.731413 0.965170
O O5 0.833632 0.500000 0.364710
O O6 0.753533 0.223933 0.360974
O O7 0.610453 0.284508 0.538690
O O8 0.959267 0.216242 0.328755
O O9 0.401032 0.271118 0.750364
O O10 0.640471 0.269662 0.683469
O O11 0.425599 0.000000 0.796679
O O12 0.744586 0.277972 0.784334
O O13 0.543167 0.000000 0.914618
O O14 0.500000 0.267420 0.000000
O O15 0.763904 0.500000 0.294893
O O16 0.728618 0.793816 0.269729
O O17 0.494369 0.000000 0.360361
O O18 0.909406 0.275685 0.456283
O O19 0.072584 0.000000 0.332406
O O20 0.000000 0.731199 0.500000
O O21 0.163645 0.000000 0.443353
#
# Coordination Sequence:
#
# PCOD9143469 Si02
#       8
#     4   4   4   4   4   4   4   4
#     4  10  20  37  60  85 116 153 193 237 286 338
#     4  11  23  39  58  83 118 153 188 237 293 347
#     4   9  18  33  54  85 118 145 182 235 286 335
#     4   9  17  29  50  84 118 147 189 241 281 320
#     4  11  25  42  58  81 114 152 194 239 292 349
#     4  11  22  39  63  89 114 144 189 241 292 346
#     4  10  18  31  55  85 115 150 191 233 281 340
#     4   9  15  26  49  82 115 145 180 226 280 332
#
# _framework density 22.322354000000001
#
# number of rings (size 3 to 8) (size 9 to 14) (size 15 to 20)
#    0.000    2.000    1.250    3.000    0.000    8.000 
#    0.000    4.375    0.000    2.625    0.000    0.000 
#    0.000    0.000    0.000    0.000    0.000    0.000 
#
# Total GULP energy -178787.112053 kJ/mol
# GULP energy per Si atom -5587.097252 kJ/mol
# Density = 2.227155 g / cm^3
# Si number density = 22.322354 Si / 1000 Ang^3
#
#
#
# Elastic Constant Matrix: (Units=GPa)
#
#
# Indices 1 2 3 4 5 6 
#
# 1 139.0237 -5.0753 37.5397 0.0000 9.9405 0.0000
# 2 -5.0753 39.6228 -2.3395 0.0000 4.3275 0.0000
# 3 37.5397 -2.3395 84.4320 0.0000 7.9990 0.0000
# 4 0.0000 0.0000 0.0000 99.3677 0.0000 -172.7329
# 5 9.9405 4.3275 7.9990 0.0000 41.9244 0.0000
# 6 0.0000 0.0000 0.0000 -172.7329 0.0000 443.6260
#
#
#
# Elastic Compliance Matrix: (Units=1/GPa)
#
#
# Indices 1 2 3 4 5 6 
#
# 1 0.008280 0.001005 -0.003522 0.000000 -0.001395 0.000000
# 2 0.001005 0.025727 0.000550 0.000000 -0.002999 0.000000
# 3 -0.003522 0.000550 0.013597 0.000000 -0.001816 0.000000
# 4 0.000000 0.000000 0.000000 0.031142 0.000000 0.012126
# 5 -0.001395 -0.002999 -0.001816 0.000000 0.024839 0.000000
# 6 0.000000 0.000000 0.000000 0.012126 0.000000 0.006975
#
#
# Mechanical properties :
#
#
# Convention : Reuss Voigt Hill
#
# Bulk Modulus (GPa) = 22.89837 35.92537 29.41187
# Shear Modulus (GPa) = 38.74459 132.51385 85.62922
#
# Velocity S-wave (km/s) = 4.17068 7.71315 6.20029
# Velocity P-wave (km/s) = 5.78559 9.76997 8.02887
#
# Compressibility (1/GPa) = 0.04367122
#
# Stress axis : x y z
#
# Youngs Moduli (GPa) = 120.76750 38.87005 73.54626
#
# Poissons Ratio (x) = -0.03907 0.25900
# Poissons Ratio (y) = -0.12138 -0.04046
# Poissons Ratio (z) = 0.42529 -0.02138
#
# Static dielectric constant tensor:
#      x y z
#    x 1.828560 0.000000 0.033630 
#    y 0.000000 1.856630 0.000000 
#    z 0.033630 0.000000 1.794060 
# 
# From -- ./inp_files/89536.got.cif
#   From: 2010.05.17/outbox.cif.g08.bks.cpg/sg10_45_cif.got.tgz:89536.got - 2010.06.03 11:33:40.
