data_PCOD9143567
_publ_section_title
;
Structure prediction by ZEFSAII (Michael W. Deem and Ramdas Pophale) SiO2 
 PCOD9143567
Probable space group: P 2/M
;
_chemical_formula_sum "Si O2"
_cell_formula_units_Z 30
_cell_length_a 31.304778
_cell_length_b 7.658263
_cell_length_c 18.725341
_cell_angle_alpha 90.000000
_cell_angle_beta 19.134425
_cell_angle_gamma 90.000000
_cell_volume 1471.500798
_symmetry_space_group_name_H-M "P 2/M"
_symmetry_group_IT_number 10
_symmetry_cell_setting 'monoclinic'
loop_
_space_group_symop_operation_xyz
x,y,z
-x,y,-z
-x,-y,-z
x,-y,z
loop_
_atom_site_type_symbol
_atom_site_label
_atom_site_fract_x
_atom_site_fract_y
_atom_site_fract_z
Si Si1 0.938127 0.291111 0.205336
Si Si2 0.586312 0.289116 0.298536
Si Si3 0.877725 0.206229 0.460252
Si Si4 0.244616 0.705032 0.202404
Si Si5 0.117857 0.206088 0.174122
Si Si6 0.000000 0.748970 0.500000
Si Si7 0.505856 0.713024 0.711928
Si Si8 0.799683 0.713682 0.278539
O O1 0.943021 0.500000 0.192555
O O2 0.875795 0.249768 0.380056
O O3 0.852650 0.231239 0.272717
O O4 0.087688 0.230325 0.955612
O O5 0.500000 0.224868 0.500000
O O6 0.581039 0.500000 0.305929
O O7 0.535882 0.229477 0.301210
O O8 0.733843 0.234966 0.077719
O O9 0.779591 0.282462 0.674435
O O10 0.020873 0.255363 0.263955
O O11 0.863572 0.000000 0.488939
O O12 0.227285 0.500000 0.209613
O O13 0.129463 0.806804 0.342040
O O14 0.387889 0.762640 0.951354
O O15 0.078932 0.313172 0.305956
O O16 0.098686 0.000000 0.222611
O O17 0.509286 0.500000 0.707525
O O18 0.652243 0.773242 0.497976
O O19 0.796786 0.500000 0.281731
#
# Coordination Sequence:
#
# PCOD9143567 Si02
#       8
#     4   4   4   4   4   2   4   4
#     4   9  17  33  58  84 102 130 172 214 261 311
#     4  10  21  34  51  78 108 139 174 213 259 301
#     4  10  22  36  51  74 107 140 173 216 263 306
#     4  10  19  32  53  77 101 135 177 217 256 303
#     4  10  21  35  51  72 103 143 179 210 254 307
#     4  10  18  32  52  76 102 132 178 224 256 294
#     4   9  17  32  51  77 109 136 166 212 263 308
#     4   8  16  31  55  83 108 130 165 215 264 313
#
# _framework density 20.387347999999999
#
# number of rings (size 3 to 8) (size 9 to 14) (size 15 to 20)
#    0.000    2.533    1.333    1.600    1.867    3.467 
#    0.000    2.000    0.000    6.400    0.000    0.000 
#    0.000    0.000    0.000    0.000    0.000    0.000 
#
# Total GULP energy -167074.236635 kJ/mol
# GULP energy per Si atom -5569.141221 kJ/mol
# Density = 2.034095 g / cm^3
# Si number density = 20.387348 Si / 1000 Ang^3
#
#
#
# Elastic Constant Matrix: (Units=GPa)
#
#
# Indices 1 2 3 4 5 6 
#
# 1 78.6419 7.2141 48.9737 0.0000 24.1197 0.0000
# 2 7.2141 46.2570 11.9291 0.0000 1.8746 0.0000
# 3 48.9737 11.9291 168.5241 0.0000 5.8034 0.0000
# 4 0.0000 0.0000 0.0000 -23.2537 0.0000 -37.2255
# 5 24.1197 1.8746 5.8034 0.0000 27.6139 0.0000
# 6 0.0000 0.0000 0.0000 -37.2255 0.0000 -40.1589
#
#
#
# Elastic Compliance Matrix: (Units=1/GPa)
#
#
# Indices 1 2 3 4 5 6 
#
# 1 0.021782 -0.001225 -0.005632 0.000000 -0.017759 0.000000
# 2 -0.001225 0.022127 -0.001204 0.000000 -0.000179 0.000000
# 3 -0.005632 -0.001204 0.007538 0.000000 0.003417 0.000000
# 4 0.000000 0.000000 0.000000 0.088868 0.000000 -0.082376
# 5 -0.017759 -0.000179 0.003417 0.000000 0.051020 0.000000
# 6 0.000000 0.000000 0.000000 -0.082376 0.000000 0.051458
#
#
# Mechanical properties :
#
#
# Convention : Reuss Voigt Hill
#
# Bulk Modulus (GPa) = 28.30808 47.73966 38.02387
# Shear Modulus (GPa) = 18.47136 7.86068 13.16602
#
# Velocity S-wave (km/s) = 3.01328 1.96572 2.54400
# Velocity P-wave (km/s) = 5.10115 5.34969 5.22690
#
# Compressibility (1/GPa) = 0.03532560
#
# Stress axis : x y z
#
# Youngs Moduli (GPa) = 45.90927 45.19326 132.66058
#
# Poissons Ratio (x) = 0.05536 0.74710
# Poissons Ratio (y) = 0.05624 0.15974
# Poissons Ratio (z) = 0.25855 0.05442
#
# Static dielectric constant tensor:
#      x y z
#    x 1.706880 0.000000 0.011660 
#    y 0.000000 1.833790 0.000000 
#    z 0.011660 0.000000 1.717800 
# 
# From -- ./inp_files/80713.got.cif
#   From: 2010.05.17/outbox.cif.g08.bks.cpg/sg10_41_cif.got.tgz:80713.got - 2010.06.03 11:33:40.
