data_PCOD9143689
_publ_section_title
;
Structure prediction by ZEFSAII (Michael W. Deem and Ramdas Pophale) SiO2 
 PCOD9143689
Probable space group: P 2/M
;
_chemical_formula_sum "Si O2"
_cell_formula_units_Z 32
_cell_length_a 31.863845
_cell_length_b 8.491590
_cell_length_c 12.841675
_cell_angle_alpha 90.000000
_cell_angle_beta 153.632502
_cell_angle_gamma 90.000000
_cell_volume 1543.178090
_symmetry_space_group_name_H-M "P 2/M"
_symmetry_group_IT_number 10
_symmetry_cell_setting 'monoclinic'
loop_
_space_group_symop_operation_xyz
x,y,z
-x,y,-z
-x,-y,-z
x,-y,z
loop_
_atom_site_type_symbol
_atom_site_label
_atom_site_fract_x
_atom_site_fract_y
_atom_site_fract_z
Si Si1 0.171264 0.813172 0.511886
Si Si2 0.419867 0.312827 0.583365
Si Si3 0.074146 0.190900 0.849994
Si Si4 0.126726 0.814730 0.188709
Si Si5 0.351690 0.182091 0.651483
Si Si6 0.123368 0.684715 0.629617
Si Si7 0.246118 0.812934 0.085400
Si Si8 0.374832 0.684383 0.919033
O O1 0.119874 0.753779 0.291608
O O2 0.144016 0.724977 0.555621
O O3 0.282991 0.785466 0.742506
O O4 0.152346 0.000000 0.481099
O O5 0.417741 0.500000 0.594680
O O6 0.384839 0.231021 0.611486
O O7 0.529287 0.269425 0.808981
O O8 0.346200 0.266236 0.330627
O O9 0.169723 0.238586 0.003351
O O10 0.982357 0.252476 0.587288
O O11 0.071896 0.000000 0.846528
O O12 0.074295 0.249270 0.970379
O O13 0.237912 0.804706 0.406533
O O14 0.102244 0.000000 0.141117
O O15 0.392708 0.287050 0.835759
O O16 0.376313 0.000000 0.726044
O O17 0.128289 0.500000 0.659892
O O18 0.198513 0.770094 0.870442
O O19 0.257311 0.000000 0.119604
O O20 0.354145 0.500000 0.891129
#
# Coordination Sequence:
#
# PCOD9143689 Si02
#       8
#     4   4   4   4   4   4   4   4
#     4  10  21  40  64  87 116 157 205 247 289 347
#     4  11  22  35  55  86 124 159 192 239 303 359
#     4  10  20  39  64  90 119 151 193 244 299 352
#     4   8  16  33  58  88 118 151 190 241 293 338
#     4  10  18  32  54  84 120 161 203 241 286 345
#     4  12  26  42  60  85 119 157 198 245 300 356
#     4  11  23  41  65  89 117 153 200 250 294 349
#     4  10  21  36  55  85 123 160 194 239 300 355
#
# _framework density 20.736428
#
# number of rings (size 3 to 8) (size 9 to 14) (size 15 to 20)
#    0.000    1.750    1.250    4.500    0.000    6.500 
#    0.000    4.375    0.000    3.750    0.000    0.000 
#    0.000    0.000    0.000    0.000    0.000    0.000 
#
# Total GULP energy -178827.209227 kJ/mol
# GULP energy per Si atom -5588.350288 kJ/mol
# Density = 2.068923 g / cm^3
# Si number density = 20.736428 Si / 1000 Ang^3
#
#
#
# Elastic Constant Matrix: (Units=GPa)
#
#
# Indices 1 2 3 4 5 6 
#
# 1 51.2445 -5.3980 12.8639 0.0000 -13.8862 0.0000
# 2 -5.3980 21.5529 1.8756 0.0000 5.4907 0.0000
# 3 12.8639 1.8756 118.0597 0.0000 -5.9234 0.0000
# 4 0.0000 0.0000 0.0000 25.5510 0.0000 0.2342
# 5 -13.8862 5.4907 -5.9234 0.0000 21.9728 0.0000
# 6 0.0000 0.0000 0.0000 0.2342 0.0000 23.7966
#
#
#
# Elastic Compliance Matrix: (Units=1/GPa)
#
#
# Indices 1 2 3 4 5 6 
#
# 1 0.024087 0.002628 -0.001962 0.000000 0.014037 0.000000
# 2 0.002628 0.050077 -0.001649 0.000000 -0.011297 0.000000
# 3 -0.001962 -0.001649 0.008788 0.000000 0.001541 0.000000
# 4 0.000000 0.000000 0.000000 0.039141 0.000000 -0.000385
# 5 0.014037 -0.011297 0.001541 0.000000 0.057620 0.000000
# 6 0.000000 0.000000 0.000000 -0.000385 0.000000 0.042027
#
#
# Mechanical properties :
#
#
# Convention : Reuss Voigt Hill
#
# Bulk Modulus (GPa) = 12.34784 23.28221 17.81503
# Shear Modulus (GPa) = 19.94404 26.36513 23.15459
#
# Velocity S-wave (km/s) = 3.10463 3.56959 3.34520
# Velocity P-wave (km/s) = 4.33812 5.31426 4.85081
#
# Compressibility (1/GPa) = 0.08098581
#
# Stress axis : x y z
#
# Youngs Moduli (GPa) = 41.51561 19.96917 113.79693
#
# Poissons Ratio (x) = -0.05247 0.22328
# Poissons Ratio (y) = -0.10909 0.18761
# Poissons Ratio (z) = 0.08146 0.03292
#
# Static dielectric constant tensor:
#      x y z
#    x 1.757740 0.000000 0.010730 
#    y 0.000000 1.692620 0.000000 
#    z 0.010730 0.000000 1.764830 
# 
# From -- ./inp_files/58345.got.cif
#   From: 2010.05.17/outbox.cif.g08.bks.cpg/sg10_30_cif.got.tgz:58345.got - 2010.06.03 11:33:40.
