data_PCOD9143265
_publ_section_title
;
Structure prediction by ZEFSAII (Michael W. Deem and Ramdas Pophale) SiO2 
 PCOD9143265
Probable space group: P 2/M
;
_chemical_formula_sum "Si O2"
_cell_formula_units_Z 28
_cell_length_a 17.435405
_cell_length_b 14.979226
_cell_length_c 7.561427
_cell_angle_alpha 90.000000
_cell_angle_beta 130.580926
_cell_angle_gamma 90.000000
_cell_volume 1499.843834
_symmetry_space_group_name_H-M "P 2/M"
_symmetry_group_IT_number 10
_symmetry_cell_setting 'monoclinic'
loop_
_space_group_symop_operation_xyz
x,y,z
-x,y,-z
-x,-y,-z
x,-y,z
loop_
_atom_site_type_symbol
_atom_site_label
_atom_site_fract_x
_atom_site_fract_y
_atom_site_fract_z
Si Si1 0.300076 0.715942 0.490152
Si Si2 0.617741 0.901143 0.392459
Si Si3 0.300075 0.284058 0.910075
Si Si4 0.113771 0.601747 0.632959
Si Si5 0.382258 0.901143 0.039234
Si Si6 0.113771 0.398253 0.208353
Si Si7 0.500000 0.397626 0.288321
O O1 0.321854 0.815076 0.451974
O O2 0.284123 0.726285 0.676184
O O3 0.202419 0.664756 0.271351
O O4 0.399962 0.655670 0.617630
O O5 0.619648 0.900262 0.179472
O O6 0.651997 0.000000 0.499895
O O7 0.499999 0.890913 0.265924
O O8 0.202418 0.335245 0.835905
O O9 0.321852 0.184923 0.013584
O O10 0.399962 0.344329 0.082256
O O11 0.123813 0.500000 0.715922
O O12 0.124505 0.597415 0.436757
O O13 0.000000 0.632744 0.500000
O O14 0.348002 0.000000 0.043903
O O15 0.123813 0.500000 0.155515
O O16 0.000000 0.367256 0.000000
O O17 0.500000 0.400458 0.500000
O O18 0.499999 0.500000 0.222226
#
# Coordination Sequence:
#
# PCOD9143265 Si02
#       7
#     4   4   4   4   4   4   4
#     4  10  18  31  51  71  91 121 159 195 227 269
#     4   8  13  23  43  71  96 116 146 189 230 268
#     4  10  18  31  51  71  91 121 159 195 227 269
#     4   9  18  31  47  67  89 117 156 196 232 271
#     4   8  13  23  43  71  96 116 146 189 230 268
#     4   9  18  31  47  67  89 117 156 196 232 271
#     4  11  23  33  42  65 100 130 151 181 234 287
#
# _framework density 18.668609
#
# number of rings (size 3 to 8) (size 9 to 14) (size 15 to 20)
#    0.000    2.714    1.429    2.143    0.000    3.429 
#    0.000    2.857    0.000    2.571    0.000    0.000 
#    0.000    0.000    0.000    0.000    0.000    0.000 
#
# Total GULP energy -156175.030513 kJ/mol
# GULP energy per Si atom -5577.679661 kJ/mol
# Density = 1.862612 g / cm^3
# Si number density = 18.668609 Si / 1000 Ang^3
#
#
#
# Elastic Constant Matrix: (Units=GPa)
#
#
# Indices 1 2 3 4 5 6 
#
# 1 53.4006 47.7826 31.5666 0.0000 21.4213 0.0000
# 2 47.7826 183.0816 64.3889 0.0000 53.6970 0.0000
# 3 31.5666 64.3889 70.0817 0.0000 32.5146 0.0000
# 4 0.0000 0.0000 0.0000 20.2592 0.0000 21.0611
# 5 21.4213 53.6970 32.5146 0.0000 50.1032 0.0000
# 6 0.0000 0.0000 0.0000 21.0611 0.0000 13.7455
#
#
#
# Elastic Compliance Matrix: (Units=1/GPa)
#
#
# Indices 1 2 3 4 5 6 
#
# 1 0.027772 -0.003654 -0.007813 0.000000 -0.002888 0.000000
# 2 -0.003654 0.009764 -0.004572 0.000000 -0.005936 0.000000
# 3 -0.007813 -0.004572 0.025991 0.000000 -0.008627 0.000000
# 4 0.000000 0.000000 0.000000 -0.083258 0.000000 0.127569
# 5 -0.002888 -0.005936 -0.008627 0.000000 0.033154 0.000000
# 6 0.000000 0.000000 0.000000 0.127569 0.000000 -0.122712
#
#
# Mechanical properties :
#
#
# Convention : Reuss Voigt Hill
#
# Bulk Modulus (GPa) = 31.79424 66.00446 48.89935
# Shear Modulus (GPa) = -74.92930 27.67665 -23.62632
#
# Velocity S-wave (km/s) = -6.34221 3.85453 -3.56134
# Velocity P-wave (km/s) = 6.04679 7.43253 3.05604
#
# Compressibility (1/GPa) = 0.03145224
#
# Stress axis : x y z
#
# Youngs Moduli (GPa) = 36.00695 102.41305 38.47507
#
# Poissons Ratio (x) = 0.37417 0.30059
# Poissons Ratio (y) = 0.13155 0.17589
# Poissons Ratio (z) = 0.28131 0.46818
#
# Static dielectric constant tensor:
#      x y z
#    x 1.664390 0.000000 -0.039840 
#    y 0.000000 1.670860 0.000000 
#    z -0.039840 0.000000 1.652070 
# 
# From -- ./inp_files/24952.got.cif
#   From: 2010.05.17/outbox.cif.g08.bks.cpg/sg10_13_cif.got.tgz:24952.got - 2010.06.03 11:33:40.
