data_PCOD9143728
_publ_section_title
;
Structure prediction by ZEFSAII (Michael W. Deem and Ramdas Pophale) SiO2 
 PCOD9143728
Probable space group: P 2/M
;
_chemical_formula_sum "Si O2"
_cell_formula_units_Z 28
_cell_length_a 21.784942
_cell_length_b 7.993630
_cell_length_c 19.542148
_cell_angle_alpha 90.000000
_cell_angle_beta 19.217881
_cell_angle_gamma 90.000000
_cell_volume 1120.163941
_symmetry_space_group_name_H-M "P 2/M"
_symmetry_group_IT_number 10
_symmetry_cell_setting 'monoclinic'
loop_
_space_group_symop_operation_xyz
x,y,z
-x,y,-z
-x,-y,-z
x,-y,z
loop_
_atom_site_type_symbol
_atom_site_label
_atom_site_fract_x
_atom_site_fract_y
_atom_site_fract_z
Si Si1 0.284465 0.300270 0.159628
Si Si2 0.000313 0.697985 0.263104
Si Si3 0.137882 0.297869 0.451691
Si Si4 0.669156 0.192565 0.280098
Si Si5 0.403350 0.802739 0.893963
Si Si6 0.549138 0.311679 0.607836
Si Si7 0.055414 0.195809 0.831383
O O1 0.312014 0.500000 0.133298
O O2 0.277719 0.236946 0.245096
O O3 0.072837 0.268927 0.354989
O O4 0.417262 0.234806 0.959930
O O5 0.965011 0.500000 0.289596
O O6 0.869362 0.764170 0.462854
O O7 0.983621 0.787701 0.208538
O O8 0.210856 0.719104 0.069884
O O9 0.159888 0.500000 0.432135
O O10 0.500000 0.273932 0.500000
O O11 0.594536 0.195338 0.280897
O O12 0.686276 0.000000 0.285282
O O13 0.876040 0.264290 0.060284
O O14 0.555454 0.731717 0.681343
O O15 0.390702 0.000000 0.898208
O O16 0.482832 0.500000 0.669451
O O17 0.750393 0.287031 0.362609
O O18 0.078107 0.000000 0.823742
#
# Coordination Sequence:
#
# PCOD9143728 Si02
#       7
#     4   4   4   4   4   4   4
#     4   8  13  25  44  70 105 149 199 247 299 358
#     4  10  18  32  55  83 116 157 204 251 303 360
#     4   7  12  23  43  71 106 148 195 246 298 359
#     4  10  23  45  71  97 128 164 199 240 298 366
#     4  11  20  32  52  81 117 157 202 253 310 363
#     4  12  25  41  64  92 125 164 208 256 301 355
#     4  11  23  40  64  93 127 164 204 250 302 360
#
# _framework density 24.996341999999999
#
# number of rings (size 3 to 8) (size 9 to 14) (size 15 to 20)
#    0.000    2.143    1.429    5.143    0.000    1.429 
#    0.000    9.286    0.000    0.857    0.000    6.000 
#    0.000    0.000    0.000    0.000    0.000    0.000 
#
# Total GULP energy -156556.063761 kJ/mol
# GULP energy per Si atom -5591.287991 kJ/mol
# Density = 2.493945 g / cm^3
# Si number density = 24.996342 Si / 1000 Ang^3
#
#
#
# Elastic Constant Matrix: (Units=GPa)
#
#
# Indices 1 2 3 4 5 6 
#
# 1 109.1314 7.2389 36.7479 0.0000 10.3583 0.0000
# 2 7.2389 63.1269 10.9414 0.0000 10.7823 0.0000
# 3 36.7479 10.9414 165.4730 0.0000 30.1068 0.0000
# 4 0.0000 0.0000 0.0000 35.1641 0.0000 6.1876
# 5 10.3583 10.7823 30.1068 0.0000 39.3826 0.0000
# 6 0.0000 0.0000 0.0000 6.1876 0.0000 10.3616
#
#
#
# Elastic Compliance Matrix: (Units=1/GPa)
#
#
# Indices 1 2 3 4 5 6 
#
# 1 0.009968 -0.000639 -0.002005 0.000000 -0.000914 0.000000
# 2 -0.000639 0.016673 -0.000186 0.000000 -0.004254 0.000000
# 3 -0.002005 -0.000186 0.007429 0.000000 -0.005101 0.000000
# 4 0.000000 0.000000 0.000000 0.031777 0.000000 -0.018976
# 5 -0.000914 -0.004254 -0.005101 0.000000 0.030696 0.000000
# 6 0.000000 0.000000 0.000000 -0.018976 0.000000 0.107843
#
#
# Mechanical properties :
#
#
# Convention : Reuss Voigt Hill
#
# Bulk Modulus (GPa) = 35.20125 49.73198 42.46662
# Shear Modulus (GPa) = 22.77723 35.83519 29.30621
#
# Velocity S-wave (km/s) = 3.02192 3.79042 3.42778
# Velocity P-wave (km/s) = 5.12729 6.25262 5.71771
#
# Compressibility (1/GPa) = 0.02840808
#
# Stress axis : x y z
#
# Youngs Moduli (GPa) = 100.32537 59.97584 134.60868
#
# Poissons Ratio (x) = 0.03835 0.26990
# Poissons Ratio (y) = 0.06415 0.02510
# Poissons Ratio (z) = 0.20116 0.01118
#
# Static dielectric constant tensor:
#      x y z
#    x 2.021800 0.000000 0.026340 
#    y 0.000000 1.876130 0.000000 
#    z 0.026340 0.000000 2.031770 
# 
# From -- ./inp_files/86448.got.cif
#   From: 2010.05.17/outbox.cif.g08.bks.cpg/sg10_44_cif.got.tgz:86448.got - 2010.06.03 11:33:40.
