data_PCOD9143211
_publ_section_title
;
Structure prediction by ZEFSAII (Michael W. Deem and Ramdas Pophale) SiO2 
 PCOD9143211
Probable space group: P 2/M
;
_chemical_formula_sum "Si O2"
_cell_formula_units_Z 28
_cell_length_a 29.180462
_cell_length_b 7.713360
_cell_length_c 9.957113
_cell_angle_alpha 90.000000
_cell_angle_beta 140.295781
_cell_angle_gamma 90.000000
_cell_volume 1431.695779
_symmetry_space_group_name_H-M "P 2/M"
_symmetry_group_IT_number 10
_symmetry_cell_setting 'monoclinic'
loop_
_space_group_symop_operation_xyz
x,y,z
-x,y,-z
-x,-y,-z
x,-y,z
loop_
_atom_site_type_symbol
_atom_site_label
_atom_site_fract_x
_atom_site_fract_y
_atom_site_fract_z
Si Si1 0.580373 0.206821 0.193031
Si Si2 0.949099 0.711003 0.189333
Si Si3 0.260213 0.292466 0.941202
Si Si4 0.297023 0.794442 0.729339
Si Si5 0.099761 0.711240 0.618110
Si Si6 0.813195 0.292457 0.734689
Si Si7 0.688822 0.290317 0.657967
O O1 0.637395 0.278336 0.212452
O O2 0.616874 0.235875 0.419707
O O3 0.576151 0.000000 0.161813
O O4 0.500000 0.277440 0.000000
O O5 0.951899 0.500000 0.188833
O O6 0.916596 0.753659 0.263015
O O7 0.031470 0.771487 0.377152
O O8 0.892502 0.772557 0.950400
O O9 0.255351 0.500000 0.944479
O O10 0.297920 0.256746 0.885827
O O11 0.178201 0.225668 0.754298
O O12 0.299925 0.228561 0.164813
O O13 0.222478 0.744366 0.488787
O O14 0.301356 0.000000 0.731787
O O15 0.100406 0.500000 0.612968
O O16 0.815908 0.500000 0.754286
O O17 0.755706 0.229198 0.716461
O O18 0.690413 0.500000 0.660835
#
# Coordination Sequence:
#
# PCOD9143211 Si02
#       7
#     4   4   4   4   4   4   4
#     4   9  19  37  57  74  93 121 159 198 234 278
#     4   8  12  21  42  71  96 120 158 205 244 272
#     4  10  18  31  49  73 103 131 158 193 238 286
#     4  10  21  34  49  70  96 127 160 195 237 286
#     4   8  13  22  41  70  99 124 155 200 242 275
#     4   9  15  28  49  72  95 123 161 204 243 279
#     4   9  17  29  50  78 101 123 155 194 238 285
#
# _framework density 19.557227999999999
#
# number of rings (size 3 to 8) (size 9 to 14) (size 15 to 20)
#    0.000    3.000    1.429    1.286    0.000    1.429 
#    0.000    1.429    0.000    9.429    0.000    2.000 
#    0.000    0.000    0.000    0.000    0.000    0.000 
#
# Total GULP energy -156047.470400 kJ/mol
# GULP energy per Si atom -5573.123943 kJ/mol
# Density = 1.951271 g / cm^3
# Si number density = 19.557228 Si / 1000 Ang^3
#
#
#
# Elastic Constant Matrix: (Units=GPa)
#
#
# Indices 1 2 3 4 5 6 
#
# 1 69.3326 -1.5055 70.2380 0.0000 3.1889 0.0000
# 2 -1.5055 24.2073 -0.0289 0.0000 7.3715 0.0000
# 3 70.2380 -0.0289 160.5365 0.0000 12.4363 0.0000
# 4 0.0000 0.0000 0.0000 34.5299 0.0000 1.1035
# 5 3.1889 7.3715 12.4363 0.0000 30.9310 0.0000
# 6 0.0000 0.0000 0.0000 1.1035 0.0000 6.7809
#
#
#
# Elastic Compliance Matrix: (Units=1/GPa)
#
#
# Indices 1 2 3 4 5 6 
#
# 1 0.026046 0.001092 -0.011526 0.000000 0.001689 0.000000
# 2 0.001092 0.044703 0.000376 0.000000 -0.010917 0.000000
# 3 -0.011526 0.000376 0.011547 0.000000 -0.003544 0.000000
# 4 0.000000 0.000000 0.000000 0.029112 0.000000 -0.004738
# 5 0.001689 -0.010917 -0.003544 0.000000 0.036183 0.000000
# 6 0.000000 0.000000 0.000000 -0.004738 0.000000 0.148245
#
#
# Mechanical properties :
#
#
# Convention : Reuss Voigt Hill
#
# Bulk Modulus (GPa) = 16.08268 43.49818 29.79043
# Shear Modulus (GPa) = 14.85098 26.80653 20.82875
#
# Velocity S-wave (km/s) = 2.75864 3.70627 3.26700
# Velocity P-wave (km/s) = 4.28813 6.37221 5.43107
#
# Compressibility (1/GPa) = 0.06217869
#
# Stress axis : x y z
#
# Youngs Moduli (GPa) = 38.39344 22.36999 86.60472
#
# Poissons Ratio (x) = -0.02442 0.99824
# Poissons Ratio (y) = -0.04192 -0.03257
# Poissons Ratio (z) = 0.44254 -0.00841
#
# Static dielectric constant tensor:
#      x y z
#    x 1.686930 0.000000 0.010470 
#    y 0.000000 1.731520 0.000000 
#    z 0.010470 0.000000 1.708590 
# 
# From -- ./inp_files/34550.got.cif
#   From: 2010.05.17/outbox.cif.g08.bks.cpg/sg10_18_cif.got.tgz:34550.got - 2010.06.03 11:33:40.
