data_PCOD9143600
_publ_section_title
;
Structure prediction by ZEFSAII (Michael W. Deem and Ramdas Pophale) SiO2 
 PCOD9143600
Probable space group: P 2/M
;
_chemical_formula_sum "Si O2"
_cell_formula_units_Z 32
_cell_length_a 22.352125
_cell_length_b 7.784962
_cell_length_c 28.718711
_cell_angle_alpha 90.000000
_cell_angle_beta 160.853603
_cell_angle_gamma 90.000000
_cell_volume 1639.047660
_symmetry_space_group_name_H-M "P 2/M"
_symmetry_group_IT_number 10
_symmetry_cell_setting 'monoclinic'
loop_
_space_group_symop_operation_xyz
x,y,z
-x,y,-z
-x,-y,-z
x,-y,z
loop_
_atom_site_type_symbol
_atom_site_label
_atom_site_fract_x
_atom_site_fract_y
_atom_site_fract_z
Si Si1 0.191695 0.699359 0.161106
Si Si2 0.916858 0.211240 0.092000
Si Si3 0.368382 0.800177 0.044565
Si Si4 0.567606 0.789101 0.100369
Si Si5 0.643470 0.700896 0.325954
Si Si6 0.362226 0.203715 0.194062
Si Si7 0.970556 0.207443 0.425232
Si Si8 0.697985 0.200252 0.656282
O O1 0.162168 0.500000 0.151420
O O2 0.333525 0.713810 0.223057
O O3 0.257993 0.789374 0.256559
O O4 0.000000 0.769756 0.000000
O O5 0.123570 0.272166 0.238538
O O6 0.915152 0.000000 0.090879
O O7 0.805136 0.271971 0.055079
O O8 0.797877 0.262249 0.959235
O O9 0.438134 0.726778 0.047174
O O10 0.535547 0.791920 0.204299
O O11 0.326518 0.000000 0.005159
O O12 0.774728 0.734429 0.262762
O O13 0.566774 0.000000 0.101098
O O14 0.500000 0.736274 0.000000
O O15 0.609700 0.500000 0.295317
O O16 0.549341 0.758494 0.304635
O O17 0.856651 0.737322 0.478058
O O18 0.344267 0.000000 0.186684
O O19 0.000000 0.267521 0.500000
O O20 0.969080 0.000000 0.424971
O O21 0.500000 0.278050 0.500000
O O22 0.689083 0.000000 0.635770
#
# Coordination Sequence:
#
# PCOD9143600 Si02
#       8
#     4   4   4   4   4   4   4   4
#     4  11  22  35  54  82 114 145 180 223 278 332
#     4   8  15  28  50  76 100 133 176 226 269 314
#     4   9  16  31  52  74 101 136 180 221 268 319
#     4   9  17  30  51  78 104 134 178 229 267 306
#     4  11  21  32  50  79 112 138 174 222 274 324
#     4  10  19  34  57  80 106 140 182 227 276 320
#     4  10  18  32  53  76 104 138 176 216 264 315
#     4  10  20  35  54  79 111 147 191 232 272 325
#
# _framework density 19.523534000000001
#
# number of rings (size 3 to 8) (size 9 to 14) (size 15 to 20)
#    0.000    2.250    2.500    2.625    0.000    1.000 
#    0.000    1.250    0.000    6.000    0.000    0.000 
#    0.000    0.000    0.000    0.000    0.000    0.000 
#
# Total GULP energy -178561.680961 kJ/mol
# GULP energy per Si atom -5580.052530 kJ/mol
# Density = 1.947910 g / cm^3
# Si number density = 19.523534 Si / 1000 Ang^3
#
#
#
# Elastic Constant Matrix: (Units=GPa)
#
#
# Indices 1 2 3 4 5 6 
#
# 1 144.2904 -8.8744 74.3142 0.0000 24.1629 0.0000
# 2 -8.8744 31.9253 0.9812 0.0000 2.4604 0.0000
# 3 74.3142 0.9812 132.9315 0.0000 21.6131 0.0000
# 4 0.0000 0.0000 0.0000 -1.9229 0.0000 -0.1062
# 5 24.1629 2.4604 21.6131 0.0000 30.2279 0.0000
# 6 0.0000 0.0000 0.0000 -0.1062 0.0000 -15.2245
#
#
#
# Elastic Compliance Matrix: (Units=1/GPa)
#
#
# Indices 1 2 3 4 5 6 
#
# 1 0.010657 0.003516 -0.005151 0.000000 -0.005122 0.000000
# 2 0.003516 0.032686 -0.001490 0.000000 -0.004405 0.000000
# 3 -0.005151 -0.001490 0.011003 0.000000 -0.003629 0.000000
# 4 0.000000 0.000000 0.000000 -0.520256 0.000000 0.003630
# 5 -0.005122 -0.004405 -0.003629 0.000000 0.040129 0.000000
# 6 0.000000 0.000000 0.000000 0.003630 0.000000 -0.065709
#
#
# Mechanical properties :
#
#
# Convention : Reuss Voigt Hill
#
# Bulk Modulus (GPa) = 20.79238 49.10990 34.95114
# Shear Modulus (GPa) = -10.65630 18.79787 4.07078
#
# Velocity S-wave (km/s) = -2.33881 3.10632 1.44554
# Velocity P-wave (km/s) = 1.83838 6.17045 4.55270
#
# Compressibility (1/GPa) = 0.04809455
#
# Stress axis : x y z
#
# Youngs Moduli (GPa) = 93.83131 30.59446 90.88190
#
# Poissons Ratio (x) = -0.10756 0.46814
# Poissons Ratio (y) = -0.32987 0.13545
# Poissons Ratio (z) = 0.48333 0.04560
#
# Static dielectric constant tensor:
#      x y z
#    x 1.683380 0.000000 0.030060 
#    y 0.000000 1.704630 0.000000 
#    z 0.030060 0.000000 1.673330 
# 
# From -- ./inp_files/86738.got.cif
#   From: 2010.05.17/outbox.cif.g08.bks.cpg/sg10_44_cif.got.tgz:86738.got - 2010.06.03 11:33:40.
