data_PCOD9143040
_publ_section_title
;
Structure prediction by ZEFSAII (Michael W. Deem and Ramdas Pophale) SiO2 
 PCOD9143040
Probable space group: P 2/M
;
_chemical_formula_sum "Si O2"
_cell_formula_units_Z 28
_cell_length_a 11.604537
_cell_length_b 21.441597
_cell_length_c 7.000226
_cell_angle_alpha 90.000000
_cell_angle_beta 40.812251
_cell_angle_gamma 90.000000
_cell_volume 1138.406561
_symmetry_space_group_name_H-M "P 2/M"
_symmetry_group_IT_number 10
_symmetry_cell_setting 'monoclinic'
loop_
_space_group_symop_operation_xyz
x,y,z
-x,y,-z
-x,-y,-z
x,-y,z
loop_
_atom_site_type_symbol
_atom_site_label
_atom_site_fract_x
_atom_site_fract_y
_atom_site_fract_z
Si Si1 0.451607 0.432830 0.832699
Si Si2 0.295196 0.930086 0.209852
Si Si3 0.836130 0.299272 0.347931
Si Si4 0.844480 0.433217 0.349012
Si Si5 0.055354 0.169147 0.654068
Si Si6 0.678851 0.167828 0.157536
Si Si7 0.447886 0.702861 0.839848
O O1 0.366565 0.500000 0.896061
O O2 0.649834 0.433121 0.496684
O O3 0.367142 0.365553 0.899375
O O4 0.500000 0.433065 0.000000
O O5 0.187316 0.889284 0.500103
O O6 0.222269 0.000000 0.282492
O O7 0.500000 0.934292 0.000000
O O8 0.301362 0.890487 0.008337
O O9 0.849528 0.365528 0.442351
O O10 0.641959 0.296257 0.497693
O O11 0.851696 0.235272 0.439998
O O12 0.000000 0.300563 0.000000
O O13 0.857090 0.500000 0.439222
O O14 0.000000 0.433390 0.000000
O O15 0.000000 0.166896 0.500000
O O16 0.874029 0.169348 0.003789
O O17 0.500000 0.159640 0.500000
O O18 0.654817 0.234890 0.084176
O O19 0.500000 0.704712 0.000000
#
# Coordination Sequence:
#
# PCOD9143040 Si02
#       7
#     4   4   4   4   4   4   4
#     4   8  14  24  41  67  94 125 173 227 266 297
#     4  10  22  42  65  84 104 135 174 211 251 309
#     4  10  18  30  51  75 100 134 179 225 260 300
#     4   8  14  24  40  65  94 125 167 219 266 301
#     4  10  21  35  54  79 110 143 172 209 258 315
#     4  11  22  35  54  82 115 144 172 213 261 310
#     4  10  18  31  52  74 102 140 182 223 261 310
#
# _framework density 24.595783000000001
#
# number of rings (size 3 to 8) (size 9 to 14) (size 15 to 20)
#    0.000    2.429    0.000    3.857    0.000    2.857 
#    0.000    0.000    0.000    3.857    0.000    0.000 
#    0.000    0.000    0.000    0.000    0.000    0.000 
#
# Total GULP energy -156231.312457 kJ/mol
# GULP energy per Si atom -5579.689731 kJ/mol
# Density = 2.453980 g / cm^3
# Si number density = 24.595783 Si / 1000 Ang^3
#
#
#
# Elastic Constant Matrix: (Units=GPa)
#
#
# Indices 1 2 3 4 5 6 
#
# 1 38.8250 38.1996 12.1965 0.0000 -7.8854 0.0000
# 2 38.1996 275.0432 66.8329 0.0000 -9.0899 0.0000
# 3 12.1965 66.8329 160.0760 0.0000 -16.5546 0.0000
# 4 0.0000 0.0000 0.0000 34.8879 0.0000 -0.3925
# 5 -7.8854 -9.0899 -16.5546 0.0000 32.0884 0.0000
# 6 0.0000 0.0000 0.0000 -0.3925 0.0000 25.7176
#
#
#
# Elastic Compliance Matrix: (Units=1/GPa)
#
#
# Indices 1 2 3 4 5 6 
#
# 1 0.031114 -0.004111 0.000017 0.000000 0.006490 0.000000
# 2 -0.004111 0.004592 -0.001663 0.000000 -0.000567 0.000000
# 3 0.000017 -0.001663 0.007280 0.000000 0.003289 0.000000
# 4 0.000000 0.000000 0.000000 0.028668 0.000000 0.000438
# 5 0.006490 -0.000567 0.003289 0.000000 0.034295 0.000000
# 6 0.000000 0.000000 0.000000 0.000438 0.000000 0.038891
#
#
# Mechanical properties :
#
#
# Convention : Reuss Voigt Hill
#
# Bulk Modulus (GPa) = 31.77339 78.71137 55.24238
# Shear Modulus (GPa) = 29.96808 42.31979 36.14393
#
# Velocity S-wave (km/s) = 3.49438 4.15253 3.83759
# Velocity P-wave (km/s) = 5.40622 7.42043 6.49192
#
# Compressibility (1/GPa) = 0.03147288
#
# Stress axis : x y z
#
# Youngs Moduli (GPa) = 32.13967 217.76990 137.36187
#
# Poissons Ratio (x) = 0.89524 -0.00232
# Poissons Ratio (y) = 0.13212 0.22838
# Poissons Ratio (z) = -0.00054 0.36207
#
# Static dielectric constant tensor:
#      x y z
#    x 2.050370 0.000000 0.036040 
#    y 0.000000 1.983980 0.000000 
#    z 0.036040 0.000000 2.080110 
# 
# From -- ./inp_files/30391.got.cif
#   From: 2010.05.17/outbox.cif.g08.bks.cpg/sg10_16_cif.got.tgz:30391.got - 2010.06.03 11:33:40.
