data_PCOD9143359
_publ_section_title
;
Structure prediction by ZEFSAII (Michael W. Deem and Ramdas Pophale) SiO2 
 PCOD9143359
Probable space group: P 2/M
;
_chemical_formula_sum "Si O2"
_cell_formula_units_Z 26
_cell_length_a 21.680274
_cell_length_b 9.556064
_cell_length_c 7.797899
_cell_angle_alpha 90.000000
_cell_angle_beta 48.109064
_cell_angle_gamma 90.000000
_cell_volume 1202.646005
_symmetry_space_group_name_H-M "P 2/M"
_symmetry_group_IT_number 10
_symmetry_cell_setting 'monoclinic'
loop_
_space_group_symop_operation_xyz
x,y,z
-x,y,-z
-x,-y,-z
x,-y,z
loop_
_atom_site_type_symbol
_atom_site_label
_atom_site_fract_x
_atom_site_fract_y
_atom_site_fract_z
Si Si1 0.735896 0.159312 0.051199
Si Si2 0.316762 0.850709 0.245896
Si Si3 0.500000 0.781878 0.000000
Si Si4 0.966348 0.840255 0.260065
Si Si5 0.820731 0.342514 0.409030
Si Si6 0.885515 0.340327 0.897212
Si Si7 0.561150 0.167515 0.547081
O O1 0.811132 0.264817 0.936635
O O2 0.655973 0.190831 0.317077
O O3 0.763738 0.000000 0.038795
O O4 0.701924 0.160595 0.920667
O O5 0.269802 0.724292 0.422186
O O6 0.282291 0.000000 0.373376
O O7 0.414216 0.850597 0.096530
O O8 0.532966 0.730797 0.753476
O O9 0.880205 0.757810 0.408598
O O10 0.956375 0.000000 0.336464
O O11 0.032274 0.753733 0.248316
O O12 0.000000 0.843781 0.000000
O O13 0.821392 0.500000 0.475572
O O14 0.855575 0.345317 0.151636
O O15 0.900428 0.500000 0.813304
O O16 0.500000 0.185091 0.500000
O O17 0.554522 0.000000 0.609090
#
# Coordination Sequence:
#
# PCOD9143359 Si02
#       7
#     4   4   2   4   4   4   4
#     4  10  21  36  55  83 119 154 197 252 302 356
#     4  11  22  36  57  85 115 152 200 252 306 360
#     4  12  21  34  59  88 119 158 201 254 315 364
#     4   9  17  32  58  89 118 149 192 245 299 355
#     4  10  21  37  57  84 118 155 197 243 295 362
#     4  10  20  35  57  84 117 157 197 239 297 362
#     4  10  18  31  52  82 117 151 195 249 303 358
#
# _framework density 21.618995999999999
#
# number of rings (size 3 to 8) (size 9 to 14) (size 15 to 20)
#    0.000    1.846    1.538    3.692    0.000    5.538 
#    0.000    1.154    0.000    6.000    0.000    0.000 
#    0.000    0.000    0.000    0.000    0.000    0.000 
#
# Total GULP energy -145140.420271 kJ/mol
# GULP energy per Si atom -5582.323857 kJ/mol
# Density = 2.156979 g / cm^3
# Si number density = 21.618996 Si / 1000 Ang^3
#
#
#
# Elastic Constant Matrix: (Units=GPa)
#
#
# Indices 1 2 3 4 5 6 
#
# 1 150.5779 67.5313 21.5745 0.0000 -24.1847 0.0000
# 2 67.5313 141.2329 26.0189 0.0000 -22.3665 0.0000
# 3 21.5745 26.0189 55.1608 0.0000 1.0315 0.0000
# 4 0.0000 0.0000 0.0000 8.0659 0.0000 -1.8920
# 5 -24.1847 -22.3665 1.0315 0.0000 36.8880 0.0000
# 6 0.0000 0.0000 0.0000 -1.8920 0.0000 -59.3831
#
#
#
# Elastic Compliance Matrix: (Units=1/GPa)
#
#
# Indices 1 2 3 4 5 6 
#
# 1 0.009067 -0.003326 -0.002052 0.000000 0.003985 0.000000
# 2 -0.003326 0.009932 -0.003457 0.000000 0.003938 0.000000
# 3 -0.002052 -0.003457 0.020637 0.000000 -0.004019 0.000000
# 4 0.000000 0.000000 0.000000 0.123059 0.000000 -0.003921
# 5 0.003985 0.003938 -0.004019 0.000000 0.032222 0.000000
# 6 0.000000 0.000000 0.000000 -0.003921 0.000000 -0.016715
#
#
# Mechanical properties :
#
#
# Convention : Reuss Voigt Hill
#
# Bulk Modulus (GPa) = 45.52711 64.13566 54.83139
# Shear Modulus (GPa) = 24.60708 12.57064 18.58886
#
# Velocity S-wave (km/s) = 3.37741 2.41397 2.93548
# Velocity P-wave (km/s) = 6.02609 6.12376 6.07512
#
# Compressibility (1/GPa) = 0.02196493
#
# Stress axis : x y z
#
# Youngs Moduli (GPa) = 110.29168 100.68965 48.45616
#
# Poissons Ratio (x) = 0.33492 0.09942
# Poissons Ratio (y) = 0.36686 0.16753
# Poissons Ratio (z) = 0.22629 0.34811
#
# Static dielectric constant tensor:
#      x y z
#    x 1.767650 0.000000 0.043830 
#    y 0.000000 1.761100 0.000000 
#    z 0.043830 0.000000 1.796900 
# 
# From -- ./inp_files/34186.got.cif
#   From: 2010.05.17/outbox.cif.g08.bks.cpg/sg10_18_cif.got.tgz:34186.got - 2010.06.03 11:33:40.
