data_PCOD9143852
_publ_section_title
;
Structure prediction by ZEFSAII (Michael W. Deem and Ramdas Pophale) SiO2 
 PCOD9143852
Probable space group: P 2/M
;
_chemical_formula_sum "Si O2"
_cell_formula_units_Z 32
_cell_length_a 24.439966
_cell_length_b 13.124729
_cell_length_c 7.826674
_cell_angle_alpha 90.000000
_cell_angle_beta 142.508554
_cell_angle_gamma 90.000000
_cell_volume 1528.026208
_symmetry_space_group_name_H-M "P 2/M"
_symmetry_group_IT_number 10
_symmetry_cell_setting 'monoclinic'
loop_
_space_group_symop_operation_xyz
x,y,z
-x,y,-z
-x,-y,-z
x,-y,z
loop_
_atom_site_type_symbol
_atom_site_label
_atom_site_fract_x
_atom_site_fract_y
_atom_site_fract_z
Si Si1 0.416315 0.381304 0.596286
Si Si2 0.407256 0.115886 0.170451
Si Si3 0.054165 0.390670 0.458881
Si Si4 0.606094 0.688201 0.078236
Si Si5 0.200735 0.383703 0.397348
Si Si6 0.227157 0.327331 0.066972
Si Si7 0.781471 0.884934 0.104068
Si Si8 0.083197 0.786828 0.296574
O O1 0.408059 0.500000 0.621191
O O2 0.405590 0.318454 0.745758
O O3 0.330289 0.350160 0.273353
O O4 0.516244 0.361775 0.777321
O O5 0.500000 0.138665 0.500000
O O6 0.414494 0.000000 0.123118
O O7 0.391086 0.197740 0.983429
O O8 0.320578 0.119702 0.078770
O O9 0.035099 0.500000 0.330076
O O10 0.032921 0.292609 0.297390
O O11 0.000000 0.386614 0.500000
O O12 0.158730 0.380624 0.768141
O O13 0.699518 0.631378 0.277133
O O14 0.170438 0.500000 0.354200
O O15 0.209285 0.368372 0.213344
O O16 0.141481 0.291873 0.326105
O O17 0.209160 0.206528 0.008130
O O18 0.849219 0.856215 0.426841
O O19 0.798968 0.000000 0.086768
O O20 0.000000 0.842638 0.000000
#
# Coordination Sequence:
#
# PCOD9143852 Si02
#       8
#     4   4   4   4   4   4   4   4
#     4  10  19  33  55  81 118 160 192 229 285 347
#     4  10  20  36  59  81 109 151 196 245 299 340
#     4  10  20  35  56  83 118 155 194 238 288 348
#     4  10  18  33  54  81 115 155 195 237 283 345
#     4  11  21  36  59  87 123 158 191 237 291 349
#     4  10  20  35  58  83 112 154 199 241 288 349
#     4  10  22  42  61  82 115 152 195 250 300 344
#     4  11  23  38  60  88 117 153 198 242 294 352
#
# _framework density 20.942049000000001
#
# number of rings (size 3 to 8) (size 9 to 14) (size 15 to 20)
#    0.000    1.750    1.250    5.250    0.000    2.250 
#    0.000    4.375    0.000   16.125    0.000    0.000 
#    0.000    0.000    0.000    0.000    0.000    0.000 
#
# Total GULP energy -178650.739289 kJ/mol
# GULP energy per Si atom -5582.835603 kJ/mol
# Density = 2.089438 g / cm^3
# Si number density = 20.942049 Si / 1000 Ang^3
#
#
#
# Elastic Constant Matrix: (Units=GPa)
#
#
# Indices 1 2 3 4 5 6 
#
# 1 35.3427 9.4263 11.3989 0.0000 10.9593 0.0000
# 2 9.4263 105.4442 0.6064 0.0000 -10.7400 0.0000
# 3 11.3989 0.6064 99.7043 0.0000 27.0932 0.0000
# 4 0.0000 0.0000 0.0000 2.7519 0.0000 -11.6389
# 5 10.9593 -10.7400 27.0932 0.0000 26.6424 0.0000
# 6 0.0000 0.0000 0.0000 -11.6389 0.0000 25.2627
#
#
#
# Elastic Compliance Matrix: (Units=1/GPa)
#
#
# Indices 1 2 3 4 5 6 
#
# 1 0.034585 -0.004809 0.000646 0.000000 -0.016822 0.000000
# 2 -0.004809 0.010742 -0.001699 0.000000 0.008036 0.000000
# 3 0.000646 -0.001699 0.014129 0.000000 -0.015319 0.000000
# 4 0.000000 0.000000 0.000000 -0.383093 0.000000 -0.176497
# 5 -0.016822 0.008036 -0.015319 0.000000 0.063271 0.000000
# 6 0.000000 0.000000 0.000000 -0.176497 0.000000 -0.041731
#
#
# Mechanical properties :
#
#
# Convention : Reuss Voigt Hill
#
# Bulk Modulus (GPa) = 20.95034 31.48382 26.21708
# Shear Modulus (GPa) = -18.21744 25.53537 3.65896
#
# Velocity S-wave (km/s) = -2.95260 3.49569 1.32325
# Velocity P-wave (km/s) = 1.26418 5.59996 3.85755
#
# Compressibility (1/GPa) = 0.04773192
#
# Stress axis : x y z
#
# Youngs Moduli (GPa) = 28.91445 93.09326 70.77785
#
# Poissons Ratio (x) = 0.44768 -0.04576
# Poissons Ratio (y) = 0.13905 0.12028
# Poissons Ratio (z) = -0.01869 0.15820
#
# Static dielectric constant tensor:
#      x y z
#    x 1.769820 0.000000 0.021640 
#    y 0.000000 1.723160 0.000000 
#    z 0.021640 0.000000 1.808910 
# 
# From -- ./inp_files/38252.got.cif
#   From: 2010.05.17/outbox.cif.g08.bks.cpg/sg10_20_cif.got.tgz:38252.got - 2010.06.03 11:33:40.
