data_PCOD9143941
_publ_section_title
;
Structure prediction by ZEFSAII (Michael W. Deem and Ramdas Pophale) SiO2 
 PCOD9143941
Probable space group: P 2/M
;
_chemical_formula_sum "Si O2"
_cell_formula_units_Z 32
_cell_length_a 12.342316
_cell_length_b 7.510577
_cell_length_c 16.039068
_cell_angle_alpha 90.000000
_cell_angle_beta 89.100232
_cell_angle_gamma 90.000000
_cell_volume 1486.604830
_symmetry_space_group_name_H-M "P 2/M"
_symmetry_group_IT_number 10
_symmetry_cell_setting 'monoclinic'
loop_
_space_group_symop_operation_xyz
x,y,z
-x,y,-z
-x,-y,-z
x,-y,z
loop_
_atom_site_type_symbol
_atom_site_label
_atom_site_fract_x
_atom_site_fract_y
_atom_site_fract_z
Si Si1 0.856463 0.289981 0.251330
Si Si2 0.009158 0.295972 0.592346
Si Si3 0.457736 0.782224 0.411072
Si Si4 0.600448 0.213832 0.251334
Si Si5 0.010119 0.212598 0.094656
Si Si6 0.228935 0.215087 0.351010
Si Si7 0.238241 0.783642 0.160302
Si Si8 0.465948 0.218064 0.091765
O O1 0.872267 0.500000 0.255784
O O2 0.728352 0.252806 0.253169
O O3 0.916920 0.215822 0.333984
O O4 0.914746 0.237746 0.163658
O O5 0.047993 0.500000 0.579295
O O6 0.886179 0.294889 0.625391
O O7 0.000000 0.212332 0.500000
O O8 0.500000 0.724372 0.500000
O O9 0.533249 0.722630 0.333134
O O10 0.332830 0.728671 0.402283
O O11 0.459053 0.000000 0.409118
O O12 0.543514 0.276924 0.166553
O O13 0.590117 0.000000 0.251452
O O14 0.122473 0.282766 0.131170
O O15 0.021090 0.000000 0.087222
O O16 0.000000 0.281367 0.000000
O O17 0.255460 0.261467 0.255884
O O18 0.217971 0.000000 0.357179
O O19 0.342898 0.724691 0.108985
O O20 0.235682 0.000000 0.155906
O O21 0.468035 0.000000 0.092706
O O22 0.500000 0.276391 0.000000
#
# Coordination Sequence:
#
# PCOD9143941 Si02
#       8
#     4   4   4   4   4   4   4   4
#     4  11  24  40  56  77 113 153 186 227 281 333
#     4  10  23  41  57  76 108 149 190 231 277 329
#     4   9  18  32  52  82 114 140 170 221 284 332
#     4  10  20  35  56  81 110 143 183 225 269 330
#     4  10  21  36  59  88 113 141 183 230 273 325
#     4  10  18  33  58  83 108 138 180 230 274 322
#     4   9  16  30  51  79 111 137 171 222 267 311
#     4   9  17  29  51  82 111 139 172 216 270 318
#
# _framework density 21.525559000000001
#
# number of rings (size 3 to 8) (size 9 to 14) (size 15 to 20)
#    0.000    2.250    2.500    0.375    3.500    1.000 
#    0.000    0.625    0.000    1.875    0.000    0.000 
#    0.000    0.000    0.000    0.000    0.000    0.000 
#
# Total GULP energy -178620.302859 kJ/mol
# GULP energy per Si atom -5581.884464 kJ/mol
# Density = 2.147657 g / cm^3
# Si number density = 21.525559 Si / 1000 Ang^3
#
#
#
# Elastic Constant Matrix: (Units=GPa)
#
#
# Indices 1 2 3 4 5 6 
#
# 1 111.8256 -10.2086 21.3221 0.0000 5.4935 0.0000
# 2 -10.2086 54.0826 4.9724 0.0000 5.2060 0.0000
# 3 21.3221 4.9724 103.9100 0.0000 3.9486 0.0000
# 4 0.0000 0.0000 0.0000 -3.6395 0.0000 -12.7376
# 5 5.4935 5.2060 3.9486 0.0000 42.1440 0.0000
# 6 0.0000 0.0000 0.0000 -12.7376 0.0000 52.1922
#
#
#
# Elastic Compliance Matrix: (Units=1/GPa)
#
#
# Indices 1 2 3 4 5 6 
#
# 1 0.009586 0.002122 -0.002018 0.000000 -0.001323 0.000000
# 2 0.002122 0.019251 -0.001260 0.000000 -0.002537 0.000000
# 3 -0.002018 -0.001260 0.010118 0.000000 -0.000529 0.000000
# 4 0.000000 0.000000 0.000000 -0.148188 0.000000 -0.036166
# 5 -0.001323 -0.002537 -0.000529 0.000000 0.024264 0.000000
# 6 0.000000 0.000000 0.000000 -0.036166 0.000000 0.010334
#
#
# Mechanical properties :
#
#
# Convention : Reuss Voigt Hill
#
# Bulk Modulus (GPa) = 27.29060 33.55442 30.42251
# Shear Modulus (GPa) = -83.18230 35.05482 -24.06374
#
# Velocity S-wave (km/s) = -6.22313 4.03987 -3.34715
# Velocity P-wave (km/s) = 6.23945 6.11414 0.87977
#
# Compressibility (1/GPa) = 0.03664266
#
# Stress axis : x y z
#
# Youngs Moduli (GPa) = 104.31813 51.94561 98.83091
#
# Poissons Ratio (x) = -0.11025 0.19947
# Poissons Ratio (y) = -0.22140 0.12456
# Poissons Ratio (z) = 0.21055 0.06547
#
# Static dielectric constant tensor:
#      x y z
#    x 1.677240 0.000000 0.059280 
#    y 0.000000 1.825150 0.000000 
#    z 0.059280 0.000000 1.762440 
# 
# From -- ./inp_files/58218.got.cif
#   From: 2010.05.17/outbox.cif.g08.bks.cpg/sg10_30_cif.got.tgz:58218.got - 2010.06.03 11:33:40.
