data_PCOD9143781
_publ_section_title
;
Structure prediction by ZEFSAII (Michael W. Deem and Ramdas Pophale) SiO2 
 PCOD9143781
Probable space group: P 2/M
;
_chemical_formula_sum "Si O2"
_cell_formula_units_Z 24
_cell_length_a 13.951202
_cell_length_b 11.972655
_cell_length_c 18.559912
_cell_angle_alpha 90.000000
_cell_angle_beta 157.555487
_cell_angle_gamma 90.000000
_cell_volume 1183.588933
_symmetry_space_group_name_H-M "P 2/M"
_symmetry_group_IT_number 10
_symmetry_cell_setting 'monoclinic'
loop_
_space_group_symop_operation_xyz
x,y,z
-x,y,-z
-x,-y,-z
x,-y,z
loop_
_atom_site_type_symbol
_atom_site_label
_atom_site_fract_x
_atom_site_fract_y
_atom_site_fract_z
Si Si1 0.253968 0.868113 0.041052
Si Si2 0.000000 0.754174 0.000000
Si Si3 0.786114 0.500000 0.011261
Si Si4 0.997393 0.710970 0.245780
Si Si5 0.160607 0.629590 0.719995
Si Si6 0.524558 0.369131 0.603641
Si Si7 0.618000 0.320439 0.277007
O O1 0.520771 0.804169 0.220843
O O2 0.274641 0.000000 0.049772
O O3 0.128722 0.830109 0.028799
O O4 0.083415 0.814802 0.858935
O O5 0.788738 0.677932 0.815003
O O6 0.945535 0.599008 0.163209
O O7 0.600396 0.402555 0.848405
O O8 0.290103 0.702278 0.470123
O O9 0.832984 0.702326 0.203921
O O10 0.194568 0.500000 0.763824
O O11 0.347737 0.655169 0.784618
O O12 0.882283 0.647374 0.494634
O O13 0.500000 0.359307 0.500000
O O14 0.505076 0.500000 0.608648
#
# Coordination Sequence:
#
# PCOD9143781 Si02
#       7
#     4   2   2   4   4   4   4
#     4  11  26  46  64  89 124 171 231 280 317 374
#     4  12  24  46  74  90 124 177 229 266 332 384
#     4  10  18  32  57  91 124 172 192 262 316 380
#     4  11  22  38  60  94 137 163 213 261 326 388
#     4  11  19  37  62 102 134 169 206 261 324 403
#     4  11  22  40  63 103 140 164 198 265 337 404
#     4  10  21  37  63  94 131 164 220 260 322 383
#
# _framework density 20.27731
#
# number of rings (size 3 to 8) (size 9 to 14) (size 15 to 20)
#    0.000    1.167    5.000    2.000    0.000    3.333 
#    6.000    8.333    0.000    0.000    0.000    0.000 
#    0.000    0.000    0.000    0.000    0.000    0.000 
#
# Total GULP energy -133706.550698 kJ/mol
# GULP energy per Si atom -5571.106279 kJ/mol
# Density = 2.023116 g / cm^3
# Si number density = 20.277310 Si / 1000 Ang^3
#
#
#
# Elastic Constant Matrix: (Units=GPa)
#
#
# Indices 1 2 3 4 5 6 
#
# 1 103.3493 23.2113 -8.0706 0.0000 -5.2740 0.0000
# 2 23.2113 128.1597 17.6940 0.0000 -5.3177 0.0000
# 3 -8.0706 17.6940 95.3453 0.0000 -20.0766 0.0000
# 4 0.0000 0.0000 0.0000 18.0676 0.0000 0.9167
# 5 -5.2740 -5.3177 -20.0766 0.0000 20.6622 0.0000
# 6 0.0000 0.0000 0.0000 0.9167 0.0000 8.0424
#
#
#
# Elastic Compliance Matrix: (Units=1/GPa)
#
#
# Indices 1 2 3 4 5 6 
#
# 1 0.010518 -0.002027 0.002165 0.000000 0.004267 0.000000
# 2 -0.002027 0.008408 -0.001742 0.000000 -0.000046 0.000000
# 3 0.002165 -0.001742 0.013850 0.000000 0.013562 0.000000
# 4 0.000000 0.000000 0.000000 0.055670 0.000000 -0.006345
# 5 0.004267 -0.000046 0.013562 0.000000 0.062653 0.000000
# 6 0.000000 0.000000 0.000000 -0.006345 0.000000 0.125064
#
#
# Mechanical properties :
#
#
# Convention : Reuss Voigt Hill
#
# Bulk Modulus (GPa) = 33.81850 43.61377 38.71614
# Shear Modulus (GPa) = 17.28749 28.95575 23.12162
#
# Velocity S-wave (km/s) = 2.92302 3.78297 3.38045
# Velocity P-wave (km/s) = 5.30153 6.37468 5.86271
#
# Compressibility (1/GPa) = 0.02956962
#
# Stress axis : x y z
#
# Youngs Moduli (GPa) = 95.07609 118.92884 72.20024
#
# Poissons Ratio (x) = 0.24104 -0.15630
# Poissons Ratio (y) = 0.19270 0.12574
# Poissons Ratio (z) = -0.20582 0.20712
#
# Static dielectric constant tensor:
#      x y z
#    x 1.813610 0.000000 0.018000 
#    y 0.000000 1.644080 0.000000 
#    z 0.018000 0.000000 1.792380 
# 
# From -- ./inp_files/85246.got.cif
#   From: 2010.05.17/outbox.cif.g08.bks.cpg/sg10_43_cif.got.tgz:85246.got - 2010.06.03 11:33:40.
