data_PCOD9143303
_publ_section_title
;
Structure prediction by ZEFSAII (Michael W. Deem and Ramdas Pophale) SiO2 
 PCOD9143303
Probable space group: P 2/M
;
_chemical_formula_sum "Si O2"
_cell_formula_units_Z 32
_cell_length_a 11.317207
_cell_length_b 8.899464
_cell_length_c 29.904737
_cell_angle_alpha 90.000000
_cell_angle_beta 29.992342
_cell_angle_gamma 90.000000
_cell_volume 1505.610194
_symmetry_space_group_name_H-M "P 2/M"
_symmetry_group_IT_number 10
_symmetry_cell_setting 'monoclinic'
loop_
_space_group_symop_operation_xyz
x,y,z
-x,y,-z
-x,-y,-z
x,-y,z
loop_
_atom_site_type_symbol
_atom_site_label
_atom_site_fract_x
_atom_site_fract_y
_atom_site_fract_z
Si Si1 0.223422 0.662775 0.085237
Si Si2 0.435608 0.681819 0.740364
Si Si3 0.463525 0.175515 0.876625
Si Si4 0.375891 0.320017 0.656054
Si Si5 0.299638 0.681050 0.529323
Si Si6 0.199675 0.825063 0.319046
Si Si7 0.987570 0.326952 0.942892
Si Si8 0.900742 0.826090 0.791999
O O1 0.123130 0.500000 0.134264
O O2 0.161151 0.674705 0.054450
O O3 0.136518 0.800294 0.143072
O O4 0.500000 0.656797 0.000000
O O5 0.427273 0.500000 0.744007
O O6 0.387062 0.727886 0.704662
O O7 0.685909 0.739047 0.676494
O O8 0.233710 0.736615 0.841915
O O9 0.606407 0.186649 0.783859
O O10 0.662135 0.234189 0.846716
O O11 0.420017 0.000000 0.901614
O O12 0.206670 0.253444 0.960465
O O13 0.369553 0.500000 0.657895
O O14 0.600086 0.275875 0.552551
O O15 0.145674 0.259877 0.705154
O O16 0.500000 0.723383 0.500000
O O17 0.273292 0.500000 0.540379
O O18 0.044931 0.755898 0.618180
O O19 0.166248 0.000000 0.340407
O O20 0.030009 0.500000 0.941626
O O21 0.924230 0.000000 0.771731
#
# Coordination Sequence:
#
# PCOD9143303 Si02
#       8
#     4   4   4   4   4   4   4   4
#     4  10  18  31  51  79 116 155 196 243 298 352
#     4  10  22  41  62  86 119 158 202 248 294 350
#     4  10  23  39  55  82 121 163 202 246 305 357
#     4  10  21  39  63  90 123 158 194 244 303 356
#     4  10  22  42  70 100 123 150 192 242 297 358
#     4  11  25  44  63  85 120 162 200 246 301 355
#     4  10  20  35  58  85 115 157 206 251 295 346
#     4  11  21  32  53  86 121 155 195 241 294 358
#
# _framework density 21.253843
#
# number of rings (size 3 to 8) (size 9 to 14) (size 15 to 20)
#    0.000    1.750    2.500    1.500    0.000    5.000 
#    0.000    5.000    0.000    0.000    0.000    0.000 
#    0.000    0.000    0.000    0.000    0.000    0.000 
#
# Total GULP energy -178481.880438 kJ/mol
# GULP energy per Si atom -5577.558764 kJ/mol
# Density = 2.120547 g / cm^3
# Si number density = 21.253843 Si / 1000 Ang^3
#
#
#
# Elastic Constant Matrix: (Units=GPa)
#
#
# Indices 1 2 3 4 5 6 
#
# 1 104.8470 23.6513 34.5610 0.0000 -27.0909 0.0000
# 2 23.6513 26.9011 31.6349 0.0000 -8.7692 0.0000
# 3 34.5610 31.6349 97.4860 0.0000 -14.0678 0.0000
# 4 0.0000 0.0000 0.0000 4.4187 0.0000 5.7333
# 5 -27.0909 -8.7692 -14.0678 0.0000 34.9568 0.0000
# 6 0.0000 0.0000 0.0000 5.7333 0.0000 12.4152
#
#
#
# Elastic Compliance Matrix: (Units=1/GPa)
#
#
# Indices 1 2 3 4 5 6 
#
# 1 0.013886 -0.008292 -0.001040 0.000000 0.008263 0.000000
# 2 -0.008292 0.067070 -0.018392 0.000000 0.002997 0.000000
# 3 -0.001040 -0.018392 0.016788 0.000000 0.001336 0.000000
# 4 0.000000 0.000000 0.000000 0.564616 0.000000 -0.260735
# 5 0.008263 0.002997 0.001336 0.000000 0.036300 0.000000
# 6 0.000000 0.000000 0.000000 -0.260735 0.000000 0.200952
#
#
# Mechanical properties :
#
#
# Convention : Reuss Voigt Hill
#
# Bulk Modulus (GPa) = 23.64362 45.43651 34.54006
# Shear Modulus (GPa) = 5.15912 19.65061 12.40486
#
# Velocity S-wave (km/s) = 1.55970 3.04397 2.41851
# Velocity P-wave (km/s) = 3.79369 5.81195 4.90769
#
# Compressibility (1/GPa) = 0.04229471
#
# Stress axis : x y z
#
# Youngs Moduli (GPa) = 72.01515 14.90989 59.56741
#
# Poissons Ratio (x) = 0.12364 0.06192
# Poissons Ratio (y) = 0.59718 1.09558
# Poissons Ratio (z) = 0.07486 0.27423
#
# Static dielectric constant tensor:
#      x y z
#    x 1.796440 0.000000 0.019620 
#    y 0.000000 1.766720 0.000000 
#    z 0.019620 0.000000 1.817980 
# 
# From -- ./inp_files/94986.got.cif
#   From: 2010.05.17/outbox.cif.g08.bks.cpg/sg10_48_cif.got.tgz:94986.got - 2010.06.03 11:33:40.
