data_PCOD9143267
_publ_section_title
;
Structure prediction by ZEFSAII (Michael W. Deem and Ramdas Pophale) SiO2 
 PCOD9143267
Probable space group: P 2/M
;
_chemical_formula_sum "Si O2"
_cell_formula_units_Z 32
_cell_length_a 6.723531
_cell_length_b 20.103778
_cell_length_c 11.468054
_cell_angle_alpha 90.000000
_cell_angle_beta 59.760427
_cell_angle_gamma 90.000000
_cell_volume 1339.189247
_symmetry_space_group_name_H-M "P 2/M"
_symmetry_group_IT_number 10
_symmetry_cell_setting 'monoclinic'
loop_
_space_group_symop_operation_xyz
x,y,z
-x,y,-z
-x,-y,-z
x,-y,z
loop_
_atom_site_type_symbol
_atom_site_label
_atom_site_fract_x
_atom_site_fract_y
_atom_site_fract_z
Si Si1 0.537326 0.574841 0.776558
Si Si2 0.430432 0.785083 0.655333
Si Si3 0.193681 0.356445 0.045306
Si Si4 0.082767 0.785666 0.110231
Si Si5 0.155637 0.575827 0.683316
Si Si6 0.239919 0.331191 0.441313
Si Si7 0.915685 0.928783 0.889796
Si Si8 0.431994 0.928592 0.655914
O O1 0.577327 0.500000 0.802041
O O2 0.414996 0.615203 0.914739
O O3 0.355170 0.574060 0.722967
O O4 0.754975 0.609451 0.653288
O O5 0.500000 0.788064 0.500000
O O6 0.157518 0.778302 0.749625
O O7 0.559750 0.718862 0.656387
O O8 0.503590 0.856874 0.686939
O O9 0.000000 0.351679 0.000000
O O10 0.222058 0.281791 0.085108
O O11 0.072165 0.403360 0.176599
O O12 0.196806 0.857268 0.101730
O O13 0.000000 0.789031 0.000000
O O14 0.141995 0.500000 0.639408
O O15 0.236484 0.632083 0.567121
O O16 0.000000 0.292892 0.500000
O O17 0.155465 0.928370 0.747859
O O18 0.796991 0.000000 0.903208
O O19 0.000000 0.929193 0.000000
O O20 0.500000 0.928751 0.500000
O O21 0.512347 0.000000 0.683296
#
# Coordination Sequence:
#
# PCOD9143267 Si02
#       8
#     4   4   4   4   4   4   4   4
#     4  10  20  35  55  75  94 120 157 201 247 295
#     4  10  18  31  51  71  95 127 161 197 237 282
#     4   9  16  29  51  77  97 114 151 198 243 290
#     4   9  15  24  43  68  93 119 149 189 230 270
#     4  10  20  35  55  75  94 119 154 197 245 297
#     4  12  24  35  48  69  99 131 164 201 240 285
#     4   8  13  20  31  54  90 125 148 170 213 271
#     4   8  14  24  41  67  94 119 150 190 235 278
#
# _framework density 23.895053999999998
#
# number of rings (size 3 to 8) (size 9 to 14) (size 15 to 20)
#    0.000    2.500    0.000    4.875    0.000    3.500 
#    0.000    0.625    0.000    1.875    0.000    0.000 
#    0.000    0.000    0.000    0.000    0.000  502.750 
#
# Total GULP energy -178650.110188 kJ/mol
# GULP energy per Si atom -5582.815943 kJ/mol
# Density = 2.384067 g / cm^3
# Si number density = 23.895054 Si / 1000 Ang^3
#
#
#
# Elastic Constant Matrix: (Units=GPa)
#
#
# Indices 1 2 3 4 5 6 
#
# 1 35.1807 13.1111 15.0150 0.0000 2.5243 0.0000
# 2 13.1111 225.0232 22.2928 0.0000 -4.3489 0.0000
# 3 15.0150 22.2928 105.7147 0.0000 -7.5654 0.0000
# 4 0.0000 0.0000 0.0000 36.3535 0.0000 -3.9524
# 5 2.5243 -4.3489 -7.5654 0.0000 29.5328 0.0000
# 6 0.0000 0.0000 0.0000 -3.9524 0.0000 -2.5447
#
#
#
# Elastic Compliance Matrix: (Units=1/GPa)
#
#
# Indices 1 2 3 4 5 6 
#
# 1 0.031133 -0.001455 -0.004401 0.000000 -0.004003 0.000000
# 2 -0.001455 0.004612 -0.000722 0.000000 0.000619 0.000000
# 3 -0.004401 -0.000722 0.010448 0.000000 0.002946 0.000000
# 4 0.000000 0.000000 0.000000 0.023534 0.000000 -0.036552
# 5 -0.004003 0.000619 0.002946 0.000000 0.035049 0.000000
# 6 0.000000 0.000000 0.000000 -0.036552 0.000000 -0.336198
#
#
# Mechanical properties :
#
#
# Convention : Reuss Voigt Hill
#
# Bulk Modulus (GPa) = 30.27017 51.86182 41.06600
# Shear Modulus (GPa) = -24.12490 33.70163 4.78837
#
# Velocity S-wave (km/s) = -3.18090 3.75961 1.41713
# Velocity P-wave (km/s) = 0.89182 6.37160 4.46105
#
# Compressibility (1/GPa) = 0.03303582
#
# Stress axis : x y z
#
# Youngs Moduli (GPa) = 32.12054 216.81497 95.71571
#
# Poissons Ratio (x) = 0.31552 0.42129
# Poissons Ratio (y) = 0.04674 0.06907
# Poissons Ratio (z) = 0.14138 0.15646
#
# Static dielectric constant tensor:
#      x y z
#    x 1.992220 0.000000 -0.035300 
#    y 0.000000 2.003780 0.000000 
#    z -0.035300 0.000000 1.903210 
# 
# From -- ./inp_files/62491.got.cif
#   From: 2010.05.17/outbox.cif.g08.bks.cpg/sg10_32_cif.got.tgz:62491.got - 2010.06.03 11:33:40.
