data_PCOD9143419
_publ_section_title
;
Structure prediction by ZEFSAII (Michael W. Deem and Ramdas Pophale) SiO2 
 PCOD9143419
Probable space group: P 2/M
;
_chemical_formula_sum "Si O2"
_cell_formula_units_Z 28
_cell_length_a 15.081375
_cell_length_b 20.240546
_cell_length_c 9.643630
_cell_angle_alpha 90.000000
_cell_angle_beta 29.532666
_cell_angle_gamma 90.000000
_cell_volume 1451.041633
_symmetry_space_group_name_H-M "P 2/M"
_symmetry_group_IT_number 10
_symmetry_cell_setting 'monoclinic'
loop_
_space_group_symop_operation_xyz
x,y,z
-x,y,-z
-x,-y,-z
x,-y,z
loop_
_atom_site_type_symbol
_atom_site_label
_atom_site_fract_x
_atom_site_fract_y
_atom_site_fract_z
Si Si1 0.209591 0.573303 0.560973
Si Si2 0.229685 0.574177 0.854088
Si Si3 0.442829 0.837134 0.728540
Si Si4 0.749174 0.696927 0.986756
Si Si5 0.792366 0.924799 0.741350
Si Si6 0.183571 0.696046 0.419882
Si Si7 0.678593 0.169729 0.664690
O O1 0.267129 0.500000 0.437343
O O2 0.272209 0.583265 0.633810
O O3 0.261596 0.634388 0.396815
O O4 0.990041 0.574023 0.850058
O O5 0.284560 0.500000 0.823989
O O6 0.302347 0.632563 0.852666
O O7 0.500000 0.862465 0.500000
O O8 0.347953 0.765154 0.837514
O O9 0.618366 0.835221 0.588415
O O10 0.309701 0.882355 0.002012
O O11 0.723347 0.694405 0.856698
O O12 0.966903 0.695349 0.701845
O O13 0.770613 0.891140 0.619691
O O14 0.000000 0.924803 0.500000
O O15 0.723736 0.000000 0.831456
O O16 0.214613 0.763730 0.457390
O O17 0.500000 0.178724 0.000000
#
# Coordination Sequence:
#
# PCOD9143419 Si02
#       7
#     4   4   4   4   4   4   4
#     4   8  15  27  45  72 105 140 188 245 297 339
#     4   8  15  28  45  71 106 145 188 239 295 346
#     4  11  24  38  56  88 125 156 189 232 283 338
#     4  10  19  32  52  78 111 146 189 242 287 338
#     4  10  21  42  70  92 115 151 191 229 274 334
#     4  10  18  31  54  78 105 144 195 246 284 330
#     4  10  20  36  57  83 116 154 188 224 279 343
#
# _framework density 19.296482000000001
#
# number of rings (size 3 to 8) (size 9 to 14) (size 15 to 20)
#    0.000    2.429    2.857    1.714    2.000    3.429 
#    0.000    5.000    0.000    3.429    0.000    0.000 
#    0.000    0.000    0.000    0.000    0.000    0.000 
#
# Total GULP energy -156038.624816 kJ/mol
# GULP energy per Si atom -5572.808029 kJ/mol
# Density = 1.925256 g / cm^3
# Si number density = 19.296482 Si / 1000 Ang^3
#
#
#
# Elastic Constant Matrix: (Units=GPa)
#
#
# Indices 1 2 3 4 5 6 
#
# 1 103.0715 62.0808 25.6153 0.0000 20.9991 0.0000
# 2 62.0808 145.4577 14.4043 0.0000 10.0568 0.0000
# 3 25.6153 14.4043 23.4398 0.0000 6.1143 0.0000
# 4 0.0000 0.0000 0.0000 16.0949 0.0000 -26.2318
# 5 20.9991 10.0568 6.1143 0.0000 21.3658 0.0000
# 6 0.0000 0.0000 0.0000 -26.2318 0.0000 107.4107
#
#
#
# Elastic Compliance Matrix: (Units=1/GPa)
#
#
# Indices 1 2 3 4 5 6 
#
# 1 0.019326 -0.005999 -0.014281 0.000000 -0.012084 0.000000
# 2 -0.005999 0.009291 0.000485 0.000000 0.001383 0.000000
# 3 -0.014281 0.000485 0.058756 0.000000 -0.003006 0.000000
# 4 0.000000 0.000000 0.000000 0.103214 0.000000 0.025207
# 5 -0.012084 0.001383 -0.003006 0.000000 0.058889 0.000000
# 6 0.000000 0.000000 0.000000 0.025207 0.000000 0.015466
#
#
# Mechanical properties :
#
#
# Convention : Reuss Voigt Hill
#
# Bulk Modulus (GPa) = 20.92816 52.90774 36.91795
# Shear Modulus (GPa) = 15.60256 40.29888 27.95072
#
# Velocity S-wave (km/s) = 2.84662 4.57487 3.81003
# Velocity P-wave (km/s) = 4.65548 7.44202 6.20714
#
# Compressibility (1/GPa) = 0.04778250
#
# Stress axis : x y z
#
# Youngs Moduli (GPa) = 51.74356 107.62676 17.01963
#
# Poissons Ratio (x) = 0.64561 0.24306
# Poissons Ratio (y) = 0.31039 -0.00825
# Poissons Ratio (z) = 0.73897 -0.05216
#
# Static dielectric constant tensor:
#      x y z
#    x 1.692480 0.000000 -0.028150 
#    y 0.000000 1.695020 0.000000 
#    z -0.028150 0.000000 1.684000 
# 
# From -- ./inp_files/30388.got.cif
#   From: 2010.05.17/outbox.cif.g08.bks.cpg/sg10_16_cif.got.tgz:30388.got - 2010.06.03 11:33:40.
