data_PCOD9143514
_publ_section_title
;
Structure prediction by ZEFSAII (Michael W. Deem and Ramdas Pophale) SiO2 
 PCOD9143514
Probable space group: P 2/M
;
_chemical_formula_sum "Si O2"
_cell_formula_units_Z 32
_cell_length_a 19.160286
_cell_length_b 22.882763
_cell_length_c 13.558421
_cell_angle_alpha 90.000000
_cell_angle_beta 17.857099
_cell_angle_gamma 90.000000
_cell_volume 1822.863101
_symmetry_space_group_name_H-M "P 2/M"
_symmetry_group_IT_number 10
_symmetry_cell_setting 'monoclinic'
loop_
_space_group_symop_operation_xyz
x,y,z
-x,y,-z
-x,-y,-z
x,-y,z
loop_
_atom_site_type_symbol
_atom_site_label
_atom_site_fract_x
_atom_site_fract_y
_atom_site_fract_z
Si Si1 0.424797 0.707382 0.846542
Si Si2 0.027147 0.147245 0.623195
Si Si3 0.376279 0.628669 0.260158
Si Si4 0.992422 0.723908 0.281112
Si Si5 0.331043 0.066218 0.322698
Si Si6 0.971491 0.565656 0.920066
Si Si7 0.375338 0.840265 0.971634
Si Si8 0.284069 0.681659 0.727061
O O1 0.446169 0.658744 0.902795
O O2 0.441932 0.772371 0.869355
O O3 0.639837 0.693800 0.485953
O O4 0.192990 0.706712 0.090991
O O5 0.099094 0.092660 0.591824
O O6 0.060537 0.208799 0.631860
O O7 0.199505 0.152853 0.299010
O O8 0.772265 0.143654 0.925616
O O9 0.199793 0.587795 0.557683
O O10 0.221342 0.681075 0.423269
O O11 0.500000 0.599994 0.000000
O O12 0.078915 0.716175 0.052594
O O13 0.429427 0.113369 0.267048
O O14 0.316067 0.000000 0.379611
O O15 0.500000 0.065492 0.000000
O O16 0.913902 0.500000 0.965178
O O17 0.000000 0.565189 0.000000
O O18 0.778573 0.614563 0.164985
O O19 0.500000 0.699928 0.500000
#
# Coordination Sequence:
#
# PCOD9143514 Si02
#       8
#     4   4   4   4   4   4   4   4
#     4  10  18  32  50  74 105 128 157 207 251 298
#     4   9  16  28  41  64  93 123 150 191 243 293
#     4  11  21  32  52  76 100 134 167 203 256 302
#     4   9  19  31  49  76 102 127 164 201 250 308
#     4   9  17  28  41  60  88 122 162 199 229 279
#     4  10  20  36  54  72  99 134 172 208 243 292
#     4   9  17  26  43  64  92 123 152 187 245 297
#     4   9  18  33  53  78  98 126 165 205 248 295
#
# _framework density 17.554801999999999
#
# number of rings (size 3 to 8) (size 9 to 14) (size 15 to 20)
#    0.000    2.500    1.250    1.500    0.000    3.500 
#    0.000    2.500    0.000    0.000    0.000    5.250 
#    0.000    5.000    0.000    0.000    0.000    0.000 
#
# Total GULP energy -178168.431468 kJ/mol
# GULP energy per Si atom -5567.763483 kJ/mol
# Density = 1.751485 g / cm^3
# Si number density = 17.554802 Si / 1000 Ang^3
#
#
#
# Elastic Constant Matrix: (Units=GPa)
#
#
# Indices 1 2 3 4 5 6 
#
# 1 45.0896 10.8528 10.2390 0.0000 5.5600 0.0000
# 2 10.8528 63.9755 -1.2788 0.0000 -2.7443 0.0000
# 3 10.2390 -1.2788 40.3321 0.0000 9.4639 0.0000
# 4 0.0000 0.0000 0.0000 16.0051 0.0000 -1.0951
# 5 5.5600 -2.7443 9.4639 0.0000 22.0478 0.0000
# 6 0.0000 0.0000 0.0000 -1.0951 0.0000 5.3552
#
#
#
# Elastic Compliance Matrix: (Units=1/GPa)
#
#
# Indices 1 2 3 4 5 6 
#
# 1 0.025072 -0.004557 -0.005441 0.000000 -0.004554 0.000000
# 2 -0.004557 0.016543 0.001033 0.000000 0.002765 0.000000
# 3 -0.005441 0.001033 0.028752 0.000000 -0.010841 0.000000
# 4 0.000000 0.000000 0.000000 0.063367 0.000000 0.012958
# 5 -0.004554 0.002765 -0.010841 0.000000 0.051502 0.000000
# 6 0.000000 0.000000 0.000000 0.012958 0.000000 0.189386
#
#
# Mechanical properties :
#
#
# Convention : Reuss Voigt Hill
#
# Bulk Modulus (GPa) = 19.07068 21.00257 20.03662
# Shear Modulus (GPa) = 12.19417 17.32057 14.75737
#
# Velocity S-wave (km/s) = 2.63845 3.14452 2.90253
# Velocity P-wave (km/s) = 4.49099 5.01737 4.76146
#
# Compressibility (1/GPa) = 0.05243652
#
# Stress axis : x y z
#
# Youngs Moduli (GPa) = 39.88500 60.44725 34.78024
#
# Poissons Ratio (x) = 0.27548 0.18923
# Poissons Ratio (y) = 0.18177 -0.03592
# Poissons Ratio (z) = 0.21700 -0.06242
#
# Static dielectric constant tensor:
#      x y z
#    x 1.637160 0.000000 0.001940 
#    y 0.000000 1.583870 0.000000 
#    z 0.001940 0.000000 1.625630 
# 
# From -- ./inp_files/54262.got.cif
#   From: 2010.05.17/outbox.cif.g08.bks.cpg/sg10_28_cif.got.tgz:54262.got - 2010.06.03 11:33:40.
