data_PCOD9143179
_publ_section_title
;
Structure prediction by ZEFSAII (Michael W. Deem and Ramdas Pophale) SiO2 
 PCOD9143179
Probable space group: P 2/M
;
_chemical_formula_sum "Si O2"
_cell_formula_units_Z 26
_cell_length_a 14.868429
_cell_length_b 12.102125
_cell_length_c 10.586176
_cell_angle_alpha 90.000000
_cell_angle_beta 49.934435
_cell_angle_gamma 90.000000
_cell_volume 1457.814611
_symmetry_space_group_name_H-M "P 2/M"
_symmetry_group_IT_number 10
_symmetry_cell_setting 'monoclinic'
loop_
_space_group_symop_operation_xyz
x,y,z
-x,y,-z
-x,-y,-z
x,-y,z
loop_
_atom_site_type_symbol
_atom_site_label
_atom_site_fract_x
_atom_site_fract_y
_atom_site_fract_z
Si Si1 0.958323 0.238700 0.402536
Si Si2 0.061587 0.370266 0.073016
Si Si3 0.283887 0.000000 0.906519
Si Si4 0.726007 0.218778 0.480733
Si Si5 0.469789 0.819166 0.670042
Si Si6 0.688091 0.371760 0.274273
Si Si7 0.835294 0.000000 0.256454
Si Si8 0.042304 0.000000 0.246618
O O1 0.818282 0.247940 0.506261
O O2 0.000000 0.281606 0.500000
O O3 0.019006 0.302445 0.231322
O O4 0.998870 0.111197 0.353375
O O5 0.030069 0.500000 0.116264
O O6 0.199317 0.362322 0.919003
O O7 0.000000 0.328730 0.000000
O O8 0.370947 0.895274 0.821895
O O9 0.206866 0.000000 0.848445
O O10 0.182870 0.000000 0.103286
O O11 0.591510 0.190344 0.634800
O O12 0.720027 0.313420 0.378476
O O13 0.779506 0.109667 0.367477
O O14 0.500000 0.863124 0.500000
O O15 0.415879 0.698833 0.692723
O O16 0.660829 0.500000 0.317231
O O17 0.970888 0.000000 0.177225
#
# Coordination Sequence:
#
# PCOD9143179 Si02
#       8
#     4   4   2   4   4   4   2   2
#     4  11  23  39  58  80 111 148 185 226 278 330
#     4  10  20  36  58  83 111 140 178 231 279 322
#     4  12  17  31  53  80 108 142 184 229 268 325
#     4  10  20  33  51  77 111 144 178 222 273 320
#     4  10  19  29  48  77 113 143 178 218 273 322
#     4  10  19  32  52  79 111 141 173 217 273 326
#     4  10  18  31  47  79 108 141 175 227 273 321
#     4  10  24  33  53  76 109 147 187 229 272 325
#
# _framework density 17.834916
#
# number of rings (size 3 to 8) (size 9 to 14) (size 15 to 20)
#    0.000    1.692    4.615    2.077    0.000    3.077 
#    0.000    0.000    0.000    4.615    0.000    2.154 
#    0.000    0.000    0.000    0.000    0.000    0.000 
#
# Total GULP energy -145064.902663 kJ/mol
# GULP energy per Si atom -5579.419333 kJ/mol
# Density = 1.779432 g / cm^3
# Si number density = 17.834916 Si / 1000 Ang^3
#
#
#
# Elastic Constant Matrix: (Units=GPa)
#
#
# Indices 1 2 3 4 5 6 
#
# 1 120.9463 30.3932 54.5517 0.0000 -14.8299 0.0000
# 2 30.3932 98.6048 30.5534 0.0000 -7.6176 0.0000
# 3 54.5517 30.5534 63.4973 0.0000 -15.5574 0.0000
# 4 0.0000 0.0000 0.0000 116.6582 0.0000 3.2268
# 5 -14.8299 -7.6176 -15.5574 0.0000 37.5994 0.0000
# 6 0.0000 0.0000 0.0000 3.2268 0.0000 20.4211
#
#
#
# Elastic Compliance Matrix: (Units=1/GPa)
#
#
# Indices 1 2 3 4 5 6 
#
# 1 0.013548 -0.000668 -0.011174 0.000000 0.000585 0.000000
# 2 -0.000668 0.011952 -0.005172 0.000000 0.000018 0.000000
# 3 -0.011174 -0.005172 0.029491 0.000000 0.006747 0.000000
# 4 0.000000 0.000000 0.000000 0.008610 0.000000 -0.001360
# 5 0.000585 0.000018 0.006747 0.000000 0.029622 0.000000
# 6 0.000000 0.000000 0.000000 -0.001360 0.000000 0.049184
#
#
# Mechanical properties :
#
#
# Convention : Reuss Voigt Hill
#
# Bulk Modulus (GPa) = 47.70989 57.11611 52.41300
# Shear Modulus (GPa) = 27.25947 46.10575 36.68261
#
# Velocity S-wave (km/s) = 3.91376 5.08994 4.54010
# Velocity P-wave (km/s) = 6.87257 8.16320 7.54553
#
# Compressibility (1/GPa) = 0.02096001
#
# Stress axis : x y z
#
# Youngs Moduli (GPa) = 73.81230 83.67138 33.90895
#
# Poissons Ratio (x) = 0.05591 0.37891
# Poissons Ratio (y) = 0.04933 0.17539
# Poissons Ratio (z) = 0.82481 0.43278
#
# Static dielectric constant tensor:
#      x y z
#    x 1.626480 0.000000 -0.027870 
#    y 0.000000 1.618200 0.000000 
#    z -0.027870 0.000000 1.607490 
# 
# From -- ./inp_files/50656.got.cif
#   From: 2010.05.17/outbox.cif.g08.bks.cpg/sg10_26_cif.got.tgz:50656.got - 2010.06.03 11:33:40.
