data_PCOD9143196
_publ_section_title
;
Structure prediction by ZEFSAII (Michael W. Deem and Ramdas Pophale) SiO2 
 PCOD9143196
Probable space group: P 2/M
;
_chemical_formula_sum "Si O2"
_cell_formula_units_Z 32
_cell_length_a 19.234064
_cell_length_b 9.113797
_cell_length_c 24.508499
_cell_angle_alpha 90.000000
_cell_angle_beta 29.259324
_cell_angle_gamma 90.000000
_cell_volume 2099.837268
_symmetry_space_group_name_H-M "P 2/M"
_symmetry_group_IT_number 10
_symmetry_cell_setting 'monoclinic'
loop_
_space_group_symop_operation_xyz
x,y,z
-x,y,-z
-x,-y,-z
x,-y,z
loop_
_atom_site_type_symbol
_atom_site_label
_atom_site_fract_x
_atom_site_fract_y
_atom_site_fract_z
Si Si1 0.876680 0.174659 0.421061
Si Si2 0.633325 0.822714 0.971903
Si Si3 0.636950 0.669313 0.523508
Si Si4 0.064818 0.173729 0.395776
Si Si5 0.835088 0.330753 0.278818
Si Si6 0.068392 0.174129 0.183815
Si Si7 0.342126 0.323519 0.163920
Si Si8 0.400819 0.830967 0.622483
O O1 0.731132 0.255692 0.505714
O O2 0.949270 0.212922 0.428540
O O3 0.989494 0.207773 0.295405
O O4 0.851542 0.000000 0.437083
O O5 0.765873 0.792976 0.920912
O O6 0.668173 0.749923 0.889300
O O7 0.619240 0.000000 0.975543
O O8 0.485800 0.747573 0.090100
O O9 0.609751 0.500000 0.554224
O O10 0.736383 0.676097 0.401016
O O11 0.492379 0.751009 0.606159
O O12 0.204168 0.270654 0.290950
O O13 0.000000 0.191178 0.500000
O O14 0.100272 0.000000 0.363428
O O15 0.853059 0.500000 0.252007
O O16 0.745353 0.246954 0.294319
O O17 0.983079 0.258250 0.195425
O O18 0.052382 0.000000 0.185894
O O19 0.352176 0.500000 0.153152
O O20 0.500000 0.826515 0.500000
O O21 0.377365 0.000000 0.652257
#
# Coordination Sequence:
#
# PCOD9143196 Si02
#       8
#     4   4   4   4   4   4   4   4
#     4   9  16  28  42  59  79 103 140 180 216 256
#     4  10  18  31  49  65  86 115 149 184 219 262
#     4   9  16  24  35  52  73 101 134 171 212 250
#     4  10  20  35  52  66  84 115 152 187 224 269
#     4   9  16  23  33  51  77 105 134 169 207 251
#     4   9  16  26  41  59  80 108 141 178 213 251
#     4  11  21  31  45  67  91 112 141 182 230 272
#     4   9  15  23  34  48  69 101 138 172 203 241
#
# _framework density 15.239276
#
# number of rings (size 3 to 8) (size 9 to 14) (size 15 to 20)
#    0.000    2.500    1.250    3.375    0.000    6.250 
#    0.000    0.000    0.000    0.000    0.000    0.000 
#    0.000    0.000    0.000    1.125    0.000   22.625 
#
# Total GULP energy -178285.723539 kJ/mol
# GULP energy per Si atom -5571.428861 kJ/mol
# Density = 1.520459 g / cm^3
# Si number density = 15.239276 Si / 1000 Ang^3
#
#
#
# Elastic Constant Matrix: (Units=GPa)
#
#
# Indices 1 2 3 4 5 6 
#
# 1 106.1243 71.3691 53.3917 0.0000 -44.7050 0.0000
# 2 71.3691 104.8688 49.9169 0.0000 -32.2854 0.0000
# 3 53.3917 49.9169 49.2870 0.0000 -24.5873 0.0000
# 4 0.0000 0.0000 0.0000 10.0806 0.0000 1.5183
# 5 -44.7050 -32.2854 -24.5873 0.0000 31.6896 0.0000
# 6 0.0000 0.0000 0.0000 1.5183 0.0000 -3.5322
#
#
#
# Elastic Compliance Matrix: (Units=1/GPa)
#
#
# Indices 1 2 3 4 5 6 
#
# 1 0.034054 -0.006893 -0.015412 0.000000 0.029060 0.000000
# 2 -0.006893 0.020810 -0.012861 0.000000 0.001498 0.000000
# 3 -0.015412 -0.012861 0.053231 0.000000 0.006456 0.000000
# 4 0.000000 0.000000 0.000000 0.093168 0.000000 0.040049
# 5 0.029060 0.001498 0.006456 0.000000 0.079086 0.000000
# 6 0.000000 0.000000 0.000000 0.040049 0.000000 -0.265891
#
#
# Mechanical properties :
#
#
# Convention : Reuss Voigt Hill
#
# Bulk Modulus (GPa) = 26.48155 67.73728 47.10941
# Shear Modulus (GPa) = 51.34585 13.35443 32.35014
#
# Velocity S-wave (km/s) = 5.81087 2.96348 4.61240
# Velocity P-wave (km/s) = 7.90168 7.50035 7.70363
#
# Compressibility (1/GPa) = 0.03776214
#
# Stress axis : x y z
#
# Youngs Moduli (GPa) = 29.36533 48.05369 18.78596
#
# Poissons Ratio (x) = 0.33124 0.28953
# Poissons Ratio (y) = 0.20242 0.24162
# Poissons Ratio (z) = 0.45258 0.61804
#
# Static dielectric constant tensor:
#      x y z
#    x 1.499110 0.000000 -0.025810 
#    y 0.000000 1.510280 0.000000 
#    z -0.025810 0.000000 1.488360 
# 
# From -- ./inp_files/89928.got.cif
#   From: 2010.05.17/outbox.cif.g08.bks.cpg/sg10_45_cif.got.tgz:89928.got - 2010.06.03 11:33:40.
