data_PCOD9143918
_publ_section_title
;
Structure prediction by ZEFSAII (Michael W. Deem and Ramdas Pophale) SiO2 
 PCOD9143918
Probable space group: P 2/M
;
_chemical_formula_sum "Si O2"
_cell_formula_units_Z 32
_cell_length_a 11.076235
_cell_length_b 8.873394
_cell_length_c 18.084060
_cell_angle_alpha 90.000000
_cell_angle_beta 67.447763
_cell_angle_gamma 90.000000
_cell_volume 1641.455045
_symmetry_space_group_name_H-M "P 2/M"
_symmetry_group_IT_number 10
_symmetry_cell_setting 'monoclinic'
loop_
_space_group_symop_operation_xyz
x,y,z
-x,y,-z
-x,-y,-z
x,-y,z
loop_
_atom_site_type_symbol
_atom_site_label
_atom_site_fract_x
_atom_site_fract_y
_atom_site_fract_z
Si Si1 0.803482 0.321080 0.241525
Si Si2 0.302793 0.322052 0.472708
Si Si3 0.419113 0.318160 0.947617
Si Si4 0.145603 0.316250 0.940831
Si Si5 0.597141 0.320401 0.763282
Si Si6 0.827942 0.177627 0.640802
Si Si7 0.536145 0.177769 0.349031
Si Si8 0.920558 0.324139 0.363286
O O1 0.771205 0.500000 0.247439
O O2 0.832254 0.274802 0.150599
O O3 0.682417 0.233030 0.304194
O O4 0.916467 0.301961 0.275989
O O5 0.312912 0.500000 0.457180
O O6 0.219459 0.248933 0.425369
O O7 0.446532 0.252611 0.432788
O O8 0.221265 0.299050 0.566466
O O9 0.407298 0.500000 0.959406
O O10 0.271396 0.265726 0.960648
O O11 0.513121 0.290537 0.855683
O O12 0.500000 0.260910 0.000000
O O13 0.146069 0.500000 0.943438
O O14 0.000000 0.267340 0.000000
O O15 0.596986 0.500000 0.750650
O O16 0.743716 0.257559 0.725452
O O17 0.529761 0.234979 0.711454
O O18 0.977062 0.217452 0.621085
O O19 0.804155 0.000000 0.645431
O O20 0.529109 0.000000 0.357873
O O21 0.954332 0.500000 0.370019
#
# Coordination Sequence:
#
# PCOD9143918 Si02
#       8
#     4   4   4   4   4   4   4   4
#     4  10  20  37  58  80 108 146 189 230 279 333
#     4  10  20  36  57  80 108 143 187 236 284 331
#     4   9  17  29  51  86 117 140 178 236 292 336
#     4   9  17  31  54  84 115 145 180 230 286 336
#     4  10  18  33  57  81 108 144 186 231 277 329
#     4  11  22  35  54  80 112 148 185 228 280 337
#     4  11  21  34  55  81 109 145 189 230 278 334
#     4  10  22  37  55  80 109 146 190 234 280 336
#
# _framework density 19.494899
#
# number of rings (size 3 to 8) (size 9 to 14) (size 15 to 20)
#    0.000    2.000    1.250    4.875    0.000    4.500 
#    0.000    6.250    0.000    1.875    0.000    0.000 
#    0.000    0.000    0.000    0.000    0.000    0.000 
#
# Total GULP energy -178488.377141 kJ/mol
# GULP energy per Si atom -5577.761786 kJ/mol
# Density = 1.945053 g / cm^3
# Si number density = 19.494899 Si / 1000 Ang^3
#
#
#
# Elastic Constant Matrix: (Units=GPa)
#
#
# Indices 1 2 3 4 5 6 
#
# 1 67.8856 64.2566 94.7750 0.0000 6.6817 0.0000
# 2 64.2566 -7.9306 -1.5553 0.0000 -15.4728 0.0000
# 3 94.7750 -1.5553 58.0456 0.0000 -10.6459 0.0000
# 4 0.0000 0.0000 0.0000 -9.3780 0.0000 -10.1858
# 5 6.6817 -15.4728 -10.6459 0.0000 27.2150 0.0000
# 6 0.0000 0.0000 0.0000 -10.1858 0.0000 48.8170
#
#
#
# Elastic Compliance Matrix: (Units=1/GPa)
#
#
# Indices 1 2 3 4 5 6 
#
# 1 0.003757 0.017266 -0.004353 0.000000 0.007191 0.000000
# 2 0.017266 0.023171 -0.027936 0.000000 -0.001994 0.000000
# 3 -0.004353 -0.027936 0.022483 0.000000 -0.006019 0.000000
# 4 0.000000 0.000000 0.000000 -0.086931 0.000000 -0.018139
# 5 0.007191 -0.001994 -0.006019 0.000000 0.031491 0.000000
# 6 0.000000 0.000000 0.000000 -0.018139 0.000000 0.016700
#
#
# Mechanical properties :
#
#
# Convention : Reuss Voigt Hill
#
# Bulk Modulus (GPa) = 51.64187 48.10589 49.87388
# Shear Modulus (GPa) = 105.99425 10.69907 58.34666
#
# Velocity S-wave (km/s) = 7.38162 2.34522 5.47669
# Velocity P-wave (km/s) = 9.95984 5.66243 8.10128
#
# Compressibility (1/GPa) = 0.01936413
#
# Stress axis : x y z
#
# Youngs Moduli (GPa) = 266.15145 43.15795 44.47788
#
# Poissons Ratio (x) = -0.74517 0.19362
# Poissons Ratio (y) = -4.59540 1.24255
# Poissons Ratio (z) = 1.15861 1.20568
#
# Static dielectric constant tensor:
#      x y z
#    x 1.552820 0.000000 -0.015610 
#    y 0.000000 1.648160 0.000000 
#    z -0.015610 0.000000 1.690530 
# 
# From -- ./inp_files/83344.got.cif
#   From: 2010.05.17/outbox.cif.g08.bks.cpg/sg10_42_cif.got.tgz:83344.got - 2010.06.03 11:33:40.
