data_PCOD9143838
_publ_section_title
;
Structure prediction by ZEFSAII (Michael W. Deem and Ramdas Pophale) SiO2 
 PCOD9143838
Probable space group: P 2/M
;
_chemical_formula_sum "Si O2"
_cell_formula_units_Z 32
_cell_length_a 10.251920
_cell_length_b 7.338629
_cell_length_c 24.811020
_cell_angle_alpha 90.000000
_cell_angle_beta 48.818845
_cell_angle_gamma 90.000000
_cell_volume 1404.905654
_symmetry_space_group_name_H-M "P 2/M"
_symmetry_group_IT_number 10
_symmetry_cell_setting 'monoclinic'
loop_
_space_group_symop_operation_xyz
x,y,z
-x,y,-z
-x,-y,-z
x,-y,z
loop_
_atom_site_type_symbol
_atom_site_label
_atom_site_fract_x
_atom_site_fract_y
_atom_site_fract_z
Si Si1 0.185356 0.709962 0.968890
Si Si2 0.136499 0.777625 0.508296
Si Si3 0.488115 0.793359 0.188628
Si Si4 0.308097 0.222749 0.765940
Si Si5 0.838713 0.222933 0.787212
Si Si6 0.151225 0.221645 0.625635
Si Si7 0.534774 0.221820 0.391081
Si Si8 0.088123 0.779970 0.113243
O O1 0.190368 0.500000 0.950051
O O2 0.186306 0.719075 0.033096
O O3 0.348726 0.799148 0.896053
O O4 0.000000 0.787120 0.000000
O O5 0.096848 0.721297 0.580559
O O6 0.335429 0.720006 0.444492
O O7 0.000000 0.717160 0.500000
O O8 0.133834 0.000000 0.507770
O O9 0.558938 0.712437 0.224743
O O10 0.325969 0.711706 0.201714
O O11 0.434585 0.000000 0.216896
O O12 0.368806 0.275738 0.690161
O O13 0.113052 0.279229 0.833288
O O14 0.306149 0.000000 0.767610
O O15 0.837339 0.280769 0.849662
O O16 0.012752 0.276256 0.708514
O O17 0.836656 0.000000 0.789099
O O18 0.342910 0.278781 0.592546
O O19 0.152637 0.000000 0.624584
O O20 0.530846 0.000000 0.393522
O O21 0.089798 0.000000 0.111863
#
# Coordination Sequence:
#
# PCOD9143838 Si02
#       8
#     4   4   4   4   4   4   4   4
#     4  11  23  37  53  74 100 129 160 201 250 300
#     4   9  17  23  31  52  86 128 165 195 235 288
#     4  10  20  33  51  75  98 126 164 207 251 292
#     4   9  16  26  45  68  89 120 166 208 240 282
#     4   9  18  30  47  71  96 122 161 211 251 284
#     4   9  15  25  38  55  85 124 162 199 239 285
#     4   9  15  24  37  56  84 123 166 201 236 283
#     4  10  18  33  54  74  96 126 166 207 245 291
#
# _framework density 22.777329999999999
#
# number of rings (size 3 to 8) (size 9 to 14) (size 15 to 20)
#    0.000    2.500    2.500    0.750    1.750    2.500 
#    0.000    3.125    0.000    0.000    0.000    0.000 
#    0.000    0.000    0.000    6.750    0.000    7.500 
#
# Total GULP energy -178808.534936 kJ/mol
# GULP energy per Si atom -5587.766717 kJ/mol
# Density = 2.272549 g / cm^3
# Si number density = 22.777330 Si / 1000 Ang^3
#
#
#
# Elastic Constant Matrix: (Units=GPa)
#
#
# Indices 1 2 3 4 5 6 
#
# 1 192.4567 1.6185 38.5735 0.0000 14.5521 0.0000
# 2 1.6185 87.0724 -9.7805 0.0000 -1.1510 0.0000
# 3 38.5735 -9.7805 69.5703 0.0000 18.0001 0.0000
# 4 0.0000 0.0000 0.0000 -101.9178 0.0000 -25.7871
# 5 14.5521 -1.1510 18.0001 0.0000 42.1942 0.0000
# 6 0.0000 0.0000 0.0000 -25.7871 0.0000 -28.1977
#
#
#
# Elastic Compliance Matrix: (Units=1/GPa)
#
#
# Indices 1 2 3 4 5 6 
#
# 1 0.005884 -0.000472 -0.003148 0.000000 -0.000699 0.000000
# 2 -0.000472 0.011714 0.002005 0.000000 -0.000373 0.000000
# 3 -0.003148 0.002005 0.018104 0.000000 -0.006583 0.000000
# 4 0.000000 0.000000 0.000000 -0.012766 0.000000 0.011674
# 5 -0.000699 -0.000373 -0.006583 0.000000 0.026739 0.000000
# 6 0.000000 0.000000 0.000000 0.011674 0.000000 -0.046140
#
#
# Mechanical properties :
#
#
# Convention : Reuss Voigt Hill
#
# Bulk Modulus (GPa) = 30.79556 45.54694 38.17125
# Shear Modulus (GPa) = 284.26992 3.66159 143.96576
#
# Velocity S-wave (km/s) = 11.18369 1.26927 7.95883
# Velocity P-wave (km/s) = 13.42818 4.71042 10.06241
#
# Compressibility (1/GPa) = 0.03247221
#
# Stress axis : x y z
#
# Youngs Moduli (GPa) = 169.96108 85.36965 55.23538
#
# Poissons Ratio (x) = 0.04031 0.17386
# Poissons Ratio (y) = 0.08025 -0.11075
# Poissons Ratio (z) = 0.53499 -0.17117
#
# Static dielectric constant tensor:
#      x y z
#    x 1.828720 0.000000 0.006580 
#    y 0.000000 1.908150 0.000000 
#    z 0.006580 0.000000 1.782700 
# 
# From -- ./inp_files/87995.got.cif
#   From: 2010.05.17/outbox.cif.g08.bks.cpg/sg10_44_cif.got.tgz:87995.got - 2010.06.03 11:33:40.
