data_PCOD9143150
_publ_section_title
;
Structure prediction by ZEFSAII (Michael W. Deem and Ramdas Pophale) SiO2 
 PCOD9143150
Probable space group: P 2/M
;
_chemical_formula_sum "Si O2"
_cell_formula_units_Z 32
_cell_length_a 18.601853
_cell_length_b 15.013104
_cell_length_c 12.331921
_cell_angle_alpha 90.000000
_cell_angle_beta 28.410597
_cell_angle_gamma 90.000000
_cell_volume 1638.588528
_symmetry_space_group_name_H-M "P 2/M"
_symmetry_group_IT_number 10
_symmetry_cell_setting 'monoclinic'
loop_
_space_group_symop_operation_xyz
x,y,z
-x,y,-z
-x,-y,-z
x,-y,z
loop_
_atom_site_type_symbol
_atom_site_label
_atom_site_fract_x
_atom_site_fract_y
_atom_site_fract_z
Si Si1 0.321384 0.595577 0.252382
Si Si2 0.674782 0.105997 0.020834
Si Si3 0.838602 0.596670 0.066297
Si Si4 0.198765 0.795731 0.942908
Si Si5 0.143943 0.167391 0.661160
Si Si6 0.320487 0.794364 0.211632
Si Si7 0.349868 0.098580 0.559636
Si Si8 0.188976 0.630874 0.655475
O O1 0.258294 0.500000 0.295959
O O2 0.267625 0.690325 0.275288
O O3 0.291127 0.600533 0.421035
O O4 0.500000 0.593919 0.000000
O O5 0.770777 0.158134 0.983233
O O6 0.500693 0.117227 0.290686
O O7 0.706344 0.000000 0.976678
O O8 0.699720 0.151099 0.871484
O O9 0.802866 0.500000 0.064109
O O10 0.798831 0.688046 0.057931
O O11 0.770026 0.600790 0.278738
O O12 0.018930 0.601404 0.850109
O O13 0.318568 0.832239 0.696747
O O14 0.034633 0.828383 0.119151
O O15 0.228997 0.162822 0.433081
O O16 0.211767 0.100221 0.657722
O O17 0.187374 0.262725 0.655451
O O18 0.500000 0.793939 0.000000
O O19 0.362823 0.000000 0.591310
#
# Coordination Sequence:
#
# PCOD9143150 Si02
#       8
#     4   4   4   4   4   4   4   4
#     4   9  17  28  48  81 116 147 183 229 284 336
#     4  11  25  43  62  82 112 159 199 236 298 365
#     4  10  18  30  55  84 115 156 192 228 280 340
#     4  11  23  38  57  88 126 151 188 241 295 348
#     4  10  20  36  60  92 118 148 190 245 293 329
#     4  10  20  38  62  83 114 151 199 243 284 340
#     4  11  22  39  63  86 112 152 195 237 293 357
#     4   9  16  30  51  84 120 149 186 234 279 334
#
# _framework density 19.529002999999999
#
# number of rings (size 3 to 8) (size 9 to 14) (size 15 to 20)
#    0.000    1.875    2.500    2.625    0.000    3.750 
#    0.000    1.250    0.000    1.500    0.000    5.250 
#    0.000    0.000    0.000    0.000    0.000    0.000 
#
# Total GULP energy -178524.732146 kJ/mol
# GULP energy per Si atom -5578.897880 kJ/mol
# Density = 1.948455 g / cm^3
# Si number density = 19.529003 Si / 1000 Ang^3
#
#
#
# Elastic Constant Matrix: (Units=GPa)
#
#
# Indices 1 2 3 4 5 6 
#
# 1 75.2507 52.3156 6.5640 0.0000 10.9600 0.0000
# 2 52.3156 121.0093 11.8923 0.0000 9.5113 0.0000
# 3 6.5640 11.8923 69.6516 0.0000 16.2365 0.0000
# 4 0.0000 0.0000 0.0000 54.4392 0.0000 15.1319
# 5 10.9600 9.5113 16.2365 0.0000 23.6722 0.0000
# 6 0.0000 0.0000 0.0000 15.1319 0.0000 14.9161
#
#
#
# Elastic Compliance Matrix: (Units=1/GPa)
#
#
# Indices 1 2 3 4 5 6 
#
# 1 0.019834 -0.008158 0.001072 0.000000 -0.006640 0.000000
# 2 -0.008158 0.011925 -0.001227 0.000000 -0.000173 0.000000
# 3 0.001072 -0.001227 0.017220 0.000000 -0.011814 0.000000
# 4 0.000000 0.000000 0.000000 0.025583 0.000000 -0.025953
# 5 -0.006640 -0.000173 -0.011814 0.000000 0.053490 0.000000
# 6 0.000000 0.000000 0.000000 -0.025953 0.000000 0.093370
#
#
# Mechanical properties :
#
#
# Convention : Reuss Voigt Hill
#
# Bulk Modulus (GPa) = 30.91036 45.27284 38.09160
# Shear Modulus (GPa) = 20.09372 31.61482 25.85427
#
# Velocity S-wave (km/s) = 3.21115 4.02788 3.64248
# Velocity P-wave (km/s) = 5.44160 6.69809 6.10227
#
# Compressibility (1/GPa) = 0.03235161
#
# Stress axis : x y z
#
# Youngs Moduli (GPa) = 50.41755 83.85718 58.07338
#
# Poissons Ratio (x) = 0.68413 -0.06223
# Poissons Ratio (y) = 0.41132 0.07126
# Poissons Ratio (z) = -0.05403 0.10289
#
# Static dielectric constant tensor:
#      x y z
#    x 1.660940 0.000000 -0.007660 
#    y 0.000000 1.737330 0.000000 
#    z -0.007660 0.000000 1.689200 
# 
# From -- ./inp_files/53975.got.cif
#   From: 2010.05.17/outbox.cif.g08.bks.cpg/sg10_27_cif.got.tgz:53975.got - 2010.06.03 11:33:40.
