data_PCOD9143843
_publ_section_title
;
Structure prediction by ZEFSAII (Michael W. Deem and Ramdas Pophale) SiO2 
 PCOD9143843
Probable space group: P 2/M
;
_chemical_formula_sum "Si O2"
_cell_formula_units_Z 28
_cell_length_a 20.207878
_cell_length_b 8.930022
_cell_length_c 14.234605
_cell_angle_alpha 90.000000
_cell_angle_beta 35.288720
_cell_angle_gamma 90.000000
_cell_volume 1483.948147
_symmetry_space_group_name_H-M "P 2/M"
_symmetry_group_IT_number 10
_symmetry_cell_setting 'monoclinic'
loop_
_space_group_symop_operation_xyz
x,y,z
-x,y,-z
-x,-y,-z
x,-y,z
loop_
_atom_site_type_symbol
_atom_site_label
_atom_site_fract_x
_atom_site_fract_y
_atom_site_fract_z
Si Si1 0.672376 0.328150 0.249006
Si Si2 0.017601 0.500000 0.630304
Si Si3 0.267052 0.827376 0.109810
Si Si4 0.106175 0.754810 0.124658
Si Si5 0.290875 0.677824 0.577376
Si Si6 0.940393 0.166638 0.160165
Si Si7 0.806056 0.500000 0.729006
Si Si8 0.518388 0.826853 0.275748
O O1 0.632409 0.500000 0.297725
O O2 0.694072 0.276702 0.330047
O O3 0.581139 0.232461 0.296817
O O4 0.790126 0.321185 0.053298
O O5 0.138744 0.500000 0.438428
O O6 0.988644 0.642447 0.725903
O O7 0.914831 0.500000 0.672958
O O8 0.169252 0.826764 0.141412
O O9 0.250851 0.666164 0.183996
O O10 0.262808 0.000000 0.157165
O O11 0.388185 0.813439 0.915373
O O12 0.035514 0.845171 0.130051
O O13 0.285336 0.500000 0.580887
O O14 0.172234 0.745480 0.679774
O O15 0.402817 0.735378 0.394360
O O16 0.902673 0.000000 0.175259
O O17 0.000000 0.240269 0.000000
O O18 0.489160 0.000000 0.321049
#
# Coordination Sequence:
#
# PCOD9143843 Si02
#       8
#     4   2   4   4   4   4   2   4
#     4  10  19  32  50  73 101 140 180 225 267 311
#     4   9  18  32  55  82 110 138 176 214 271 337
#     4   9  19  34  56  83 112 142 177 221 278 339
#     4  10  18  33  54  76 107 146 181 221 263 315
#     4  11  23  34  49  73 102 140 188 228 267 304
#     4  11  23  36  51  72 106 149 191 228 262 306
#     4   9  18  34  56  86 110 142 171 216 283 341
#     4  10  21  34  51  75 103 139 178 222 275 324
#
# _framework density 18.868583000000001
#
# number of rings (size 3 to 8) (size 9 to 14) (size 15 to 20)
#    0.000    2.000    2.143    1.714    5.000    3.714 
#    0.000    6.429    0.000    0.000    0.000    2.000 
#    0.000    3.429    0.000    0.000    0.000    0.000 
#
# Total GULP energy -155931.409419 kJ/mol
# GULP energy per Si atom -5568.978908 kJ/mol
# Density = 1.882564 g / cm^3
# Si number density = 18.868583 Si / 1000 Ang^3
#
#
#
# Elastic Constant Matrix: (Units=GPa)
#
#
# Indices 1 2 3 4 5 6 
#
# 1 21.8363 13.2722 28.4382 0.0000 -12.4340 0.0000
# 2 13.2722 96.9019 48.6186 0.0000 -5.2261 0.0000
# 3 28.4382 48.6186 92.4311 0.0000 -12.6139 0.0000
# 4 0.0000 0.0000 0.0000 26.2137 0.0000 -3.1903
# 5 -12.4340 -5.2261 -12.6139 0.0000 26.9071 0.0000
# 6 0.0000 0.0000 0.0000 -3.1903 0.0000 14.3652
#
#
#
# Elastic Compliance Matrix: (Units=1/GPa)
#
#
# Indices 1 2 3 4 5 6 
#
# 1 0.098409 0.001668 -0.026607 0.000000 0.033327 0.000000
# 2 0.001668 0.014063 -0.007941 0.000000 -0.000220 0.000000
# 3 -0.026607 -0.007941 0.022749 0.000000 -0.003173 0.000000
# 4 0.000000 0.000000 0.000000 0.039208 0.000000 0.008707
# 5 0.033327 -0.000220 -0.003173 0.000000 0.051035 0.000000
# 6 0.000000 0.000000 0.000000 0.008707 0.000000 0.071547
#
#
# Mechanical properties :
#
#
# Convention : Reuss Voigt Hill
#
# Bulk Modulus (GPa) = 14.39621 43.53637 28.96629
# Shear Modulus (GPa) = 12.95592 21.55322 17.25457
#
# Velocity S-wave (km/s) = 2.62322 3.38343 3.02729
# Velocity P-wave (km/s) = 4.10139 6.19573 5.25397
#
# Compressibility (1/GPa) = 0.06946274
#
# Stress axis : x y z
#
# Youngs Moduli (GPa) = 10.16164 71.10650 43.95849
#
# Poissons Ratio (x) = -0.11862 1.16960
# Poissons Ratio (y) = -0.01695 0.34906
# Poissons Ratio (z) = 0.27037 0.56463
#
# Static dielectric constant tensor:
#      x y z
#    x 1.645800 0.000000 0.016980 
#    y 0.000000 1.680900 0.000000 
#    z 0.016980 0.000000 1.662310 
# 
# From -- ./inp_files/49435.got.cif
#   From: 2010.05.17/outbox.cif.g08.bks.cpg/sg10_25_cif.got.tgz:49435.got - 2010.06.03 11:33:40.
