data_PCOD9143547
_publ_section_title
;
Structure prediction by ZEFSAII (Michael W. Deem and Ramdas Pophale) SiO2 
 PCOD9143547
Probable space group: P 2/M
;
_chemical_formula_sum "Si O2"
_cell_formula_units_Z 28
_cell_length_a 5.153413
_cell_length_b 21.715364
_cell_length_c 16.841738
_cell_angle_alpha 90.000000
_cell_angle_beta 124.929423
_cell_angle_gamma 90.000000
_cell_volume 1545.210263
_symmetry_space_group_name_H-M "P 2/M"
_symmetry_group_IT_number 10
_symmetry_cell_setting 'monoclinic'
loop_
_space_group_symop_operation_xyz
x,y,z
-x,y,-z
-x,-y,-z
x,-y,z
loop_
_atom_site_type_symbol
_atom_site_label
_atom_site_fract_x
_atom_site_fract_y
_atom_site_fract_z
Si Si1 0.888860 0.068984 0.322667
Si Si2 0.613869 0.500000 0.929694
Si Si3 0.000000 0.286566 0.000000
Si Si4 0.141295 0.196633 0.139569
Si Si5 0.126830 0.197288 0.434211
Si Si6 0.161600 0.250869 0.767347
Si Si7 0.136515 0.932210 0.187872
Si Si8 0.446865 0.365612 0.893534
O O1 0.512606 0.072296 0.271404
O O2 0.047531 0.127336 0.392115
O O3 0.955341 0.073366 0.239896
O O4 0.997760 0.000000 0.366769
O O5 0.468692 0.436410 0.871355
O O6 0.500000 0.500000 0.000000
O O7 0.000000 0.500000 0.000000
O O8 0.893105 0.239038 0.048499
O O9 0.239334 0.332437 0.083041
O O10 0.492431 0.216834 0.172483
O O11 0.070349 0.125047 0.119499
O O12 0.085116 0.213821 0.221071
O O13 0.500000 0.205961 0.500000
O O14 0.000000 0.205881 0.500000
O O15 0.961334 0.243826 0.343329
O O16 0.189845 0.319346 0.811040
O O17 0.071894 0.000000 0.143189
O O18 0.500000 0.362796 0.000000
#
# Coordination Sequence:
#
# PCOD9143547 Si02
#       8
#     4   2   2   4   4   4   4   4
#     4  10  20  34  51  72  96 129 170 219 283 343
#     4  10  20  32  54  84 124 148 170 204 254 312
#     4  10  20  29  53  80 110 144 176 218 254 318
#     4  11  19  34  52  75 104 136 186 217 273 312
#     4  12  23  36  53  76 104 137 181 230 272 315
#     4  11  22  35  56  76 109 143 179 218 268 319
#     4  10  18  32  52  70  96 135 177 222 275 324
#     4  10  19  35  54  86 116 146 175 207 259 317
#
# _framework density 18.120512999999999
#
# number of rings (size 3 to 8) (size 9 to 14) (size 15 to 20)
#    0.000    1.429    5.000    1.714    0.000    0.571 
#    0.000    0.357    0.000    0.000    0.000    7.000 
#    0.000    0.000    0.000    0.000    0.000    0.000 
#
# Total GULP energy -155931.351403 kJ/mol
# GULP energy per Si atom -5568.976836 kJ/mol
# Density = 1.807927 g / cm^3
# Si number density = 18.120513 Si / 1000 Ang^3
#
#
#
# Elastic Constant Matrix: (Units=GPa)
#
#
# Indices 1 2 3 4 5 6 
#
# 1 73.1776 4.4257 0.4797 0.0000 -9.1656 0.0000
# 2 4.4257 160.3080 46.3494 0.0000 -11.5092 0.0000
# 3 0.4797 46.3494 41.3652 0.0000 -11.7619 0.0000
# 4 0.0000 0.0000 0.0000 20.9902 0.0000 0.7374
# 5 -9.1656 -11.5092 -11.7619 0.0000 22.3999 0.0000
# 6 0.0000 0.0000 0.0000 0.7374 0.0000 15.7155
#
#
#
# Elastic Compliance Matrix: (Units=1/GPa)
#
#
# Indices 1 2 3 4 5 6 
#
# 1 0.014558 -0.000629 0.002514 0.000000 0.006953 0.000000
# 2 -0.000629 0.009267 -0.010692 0.000000 -0.001110 0.000000
# 3 0.002514 -0.010692 0.040974 0.000000 0.017050 0.000000
# 4 0.000000 0.000000 0.000000 0.047720 0.000000 -0.002239
# 5 0.006953 -0.001110 0.017050 0.000000 0.055870 0.000000
# 6 0.000000 0.000000 0.000000 -0.002239 0.000000 0.063736
#
#
# Mechanical properties :
#
#
# Convention : Reuss Voigt Hill
#
# Bulk Modulus (GPa) = 21.19398 41.92892 31.56145
# Shear Modulus (GPa) = 18.83458 26.72754 22.78106
#
# Velocity S-wave (km/s) = 3.22748 3.84472 3.54954
# Velocity P-wave (km/s) = 5.06067 6.54968 5.85272
#
# Compressibility (1/GPa) = 0.04718322
#
# Stress axis : x y z
#
# Youngs Moduli (GPa) = 68.69136 107.90960 24.40562
#
# Poissons Ratio (x) = 0.06792 -0.06135
# Poissons Ratio (y) = 0.04324 0.26095
# Poissons Ratio (z) = -0.17266 1.15378
#
# Static dielectric constant tensor:
#      x y z
#    x 1.679830 0.000000 0.005900 
#    y 0.000000 1.667380 0.000000 
#    z 0.005900 0.000000 1.643860 
# 
# From -- ./inp_files/73776.got.cif
#   From: 2010.05.17/outbox.cif.g08.bks.cpg/sg10_37_cif.got.tgz:73776.got - 2010.06.03 11:33:40.
