data_PCOD9143532
_publ_section_title
;
Structure prediction by ZEFSAII (Michael W. Deem and Ramdas Pophale) SiO2 
 PCOD9143532
Probable space group: P 2/M
;
_chemical_formula_sum "Si O2"
_cell_formula_units_Z 32
_cell_length_a 22.477722
_cell_length_b 7.438729
_cell_length_c 12.294021
_cell_angle_alpha 90.000000
_cell_angle_beta 46.831347
_cell_angle_gamma 90.000000
_cell_volume 1499.259558
_symmetry_space_group_name_H-M "P 2/M"
_symmetry_group_IT_number 10
_symmetry_cell_setting 'monoclinic'
loop_
_space_group_symop_operation_xyz
x,y,z
-x,y,-z
-x,-y,-z
x,-y,z
loop_
_atom_site_type_symbol
_atom_site_label
_atom_site_fract_x
_atom_site_fract_y
_atom_site_fract_z
Si Si1 0.020414 0.282583 0.098096
Si Si2 0.753089 0.720258 0.939578
Si Si3 0.580314 0.280364 0.761105
Si Si4 0.866184 0.794848 0.435903
Si Si5 0.396733 0.718995 0.020389
Si Si6 0.727076 0.711035 0.436286
Si Si7 0.090179 0.295860 0.381169
Si Si8 0.206502 0.719422 0.876359
O O1 0.016639 0.500000 0.107253
O O2 0.952659 0.215794 0.266082
O O3 0.112366 0.225508 0.006917
O O4 0.000000 0.229018 0.000000
O O5 0.754193 0.500000 0.933204
O O6 0.839755 0.782888 0.782771
O O7 0.678228 0.780589 0.958828
O O8 0.746008 0.771456 0.074336
O O9 0.581387 0.500000 0.758615
O O10 0.486209 0.225829 0.866422
O O11 0.644205 0.214909 0.591899
O O12 0.609059 0.226647 0.846160
O O13 0.798325 0.725115 0.437146
O O14 0.873969 0.699261 0.541816
O O15 0.845984 0.000000 0.485635
O O16 0.395850 0.500000 0.020804
O O17 0.712639 0.500000 0.435617
O O18 0.757440 0.785287 0.283020
O O19 0.076895 0.500000 0.356491
O O20 0.000000 0.211443 0.500000
O O21 0.205172 0.500000 0.873632
#
# Coordination Sequence:
#
# PCOD9143532 Si02
#       8
#     4   4   4   4   4   4   4   4
#     4  10  18  33  53  70  93 132 175 210 243 289
#     4   9  16  27  46  72 101 129 161 207 255 298
#     4   8  14  24  43  68  96 127 162 203 247 300
#     4  12  24  34  49  75 106 132 162 209 261 306
#     4   8  13  23  39  67 101 129 156 197 256 305
#     4  10  18  32  51  72  97 130 170 207 245 294
#     4  10  20  35  55  75  97 131 176 214 247 299
#     4   9  17  29  47  71  96 126 167 210 246 288
#
# _framework density 21.343871
#
# number of rings (size 3 to 8) (size 9 to 14) (size 15 to 20)
#    0.000    2.500    1.250    3.375    0.000    4.500 
#    0.000    0.625    0.000    4.500    0.000    7.000 
#    0.000    1.000    0.000    0.000    0.000    0.000 
#
# Total GULP energy -178740.587274 kJ/mol
# GULP energy per Si atom -5585.643352 kJ/mol
# Density = 2.129529 g / cm^3
# Si number density = 21.343871 Si / 1000 Ang^3
#
#
#
# Elastic Constant Matrix: (Units=GPa)
#
#
# Indices 1 2 3 4 5 6 
#
# 1 129.8621 -4.1002 58.5376 0.0000 -4.3471 0.0000
# 2 -4.1002 62.8241 -3.0460 0.0000 -0.2827 0.0000
# 3 58.5376 -3.0460 142.5619 0.0000 -7.9186 0.0000
# 4 0.0000 0.0000 0.0000 12.6064 0.0000 -23.8013
# 5 -4.3471 -0.2827 -7.9186 0.0000 28.7403 0.0000
# 6 0.0000 0.0000 0.0000 -23.8013 0.0000 -38.8703
#
#
#
# Elastic Compliance Matrix: (Units=1/GPa)
#
#
# Indices 1 2 3 4 5 6 
#
# 1 0.009465 0.000432 -0.003856 0.000000 0.000373 0.000000
# 2 0.000432 0.015956 0.000178 0.000000 0.000272 0.000000
# 3 -0.003856 0.000178 0.008703 0.000000 0.001816 0.000000
# 4 0.000000 0.000000 0.000000 0.036791 0.000000 -0.022528
# 5 0.000373 0.000272 0.001816 0.000000 0.035354 0.000000
# 6 0.000000 0.000000 0.000000 -0.022528 0.000000 -0.011932
#
#
# Mechanical properties :
#
#
# Convention : Reuss Voigt Hill
#
# Bulk Modulus (GPa) = 36.18985 48.67009 42.42997
# Shear Modulus (GPa) = 45.43884 19.41905 32.42895
#
# Velocity S-wave (km/s) = 4.61900 3.01959 3.90212
# Velocity P-wave (km/s) = 6.74087 5.91689 6.34227
#
# Compressibility (1/GPa) = 0.02763206
#
# Stress axis : x y z
#
# Youngs Moduli (GPa) = 105.65244 62.67406 114.90683
#
# Poissons Ratio (x) = -0.02710 0.44313
# Poissons Ratio (y) = -0.04569 -0.02050
# Poissons Ratio (z) = 0.40744 -0.01118
#
# Static dielectric constant tensor:
#      x y z
#    x 1.737170 0.000000 -0.000030 
#    y 0.000000 1.851210 0.000000 
#    z -0.000030 0.000000 1.755860 
# 
# From -- ./inp_files/55252.got.cif
#   From: 2010.05.17/outbox.cif.g08.bks.cpg/sg10_28_cif.got.tgz:55252.got - 2010.06.03 11:33:40.
