data_PCOD9143775
_publ_section_title
;
Structure prediction by ZEFSAII (Michael W. Deem and Ramdas Pophale) SiO2 
 PCOD9143775
Probable space group: P 2/M
;
_chemical_formula_sum "Si O2"
_cell_formula_units_Z 28
_cell_length_a 9.326304
_cell_length_b 19.669978
_cell_length_c 15.733448
_cell_angle_alpha 90.000000
_cell_angle_beta 151.046278
_cell_angle_gamma 90.000000
_cell_volume 1397.253322
_symmetry_space_group_name_H-M "P 2/M"
_symmetry_group_IT_number 10
_symmetry_cell_setting 'monoclinic'
loop_
_space_group_symop_operation_xyz
x,y,z
-x,y,-z
-x,-y,-z
x,-y,z
loop_
_atom_site_type_symbol
_atom_site_label
_atom_site_fract_x
_atom_site_fract_y
_atom_site_fract_z
Si Si1 0.226044 0.425276 0.540385
Si Si2 0.319855 0.081373 0.322258
Si Si3 0.390920 0.721994 0.584027
Si Si4 0.138468 0.425492 0.306534
Si Si5 0.317907 0.150382 0.988079
Si Si6 0.330762 0.144509 0.655239
Si Si7 0.970008 0.280495 0.777758
O O1 0.380195 0.500000 0.624744
O O2 0.404151 0.354701 0.627498
O O3 0.051794 0.426605 0.360438
O O4 0.000000 0.421115 0.500000
O O5 0.500000 0.102935 0.500000
O O6 0.491748 0.106357 0.327482
O O7 0.993161 0.112055 0.161961
O O8 0.302966 0.000000 0.311888
O O9 0.312727 0.777643 0.613076
O O10 0.156185 0.725290 0.384143
O O11 0.704082 0.739463 0.703285
O O12 0.500000 0.414694 0.500000
O O13 0.086958 0.500000 0.242493
O O14 0.987205 0.361004 0.185847
O O15 0.235811 0.229668 0.931138
O O16 0.500000 0.126605 0.000000
O O17 0.499498 0.141428 0.168102
O O18 0.000000 0.118003 0.500000
#
# Coordination Sequence:
#
# PCOD9143775 Si02
#       7
#     4   4   4   4   4   4   4
#     4   9  16  25  42  76 118 156 204 261 313 369
#     4  11  25  47  74 102 134 168 205 253 310 374
#     4  10  18  32  57  86 121 165 207 261 314 375
#     4   9  15  27  49  80 113 156 210 256 313 385
#     4  12  26  43  66  96 132 172 217 263 313 374
#     4  12  25  42  67  97 131 172 215 262 314 376
#     4  10  18  33  58  87 122 161 209 265 316 369
#
# _framework density 20.039315999999999
#
# number of rings (size 3 to 8) (size 9 to 14) (size 15 to 20)
#    0.000    1.571    4.286    3.429    0.000    2.857 
#    0.000    0.000    0.000    1.286    0.000    2.000 
#    0.000    0.000    0.000    0.000    0.000    0.000 
#
# Total GULP energy -156257.781464 kJ/mol
# GULP energy per Si atom -5580.635052 kJ/mol
# Density = 1.999371 g / cm^3
# Si number density = 20.039316 Si / 1000 Ang^3
#
#
#
# Elastic Constant Matrix: (Units=GPa)
#
#
# Indices 1 2 3 4 5 6 
#
# 1 168.6742 42.9239 67.3255 0.0000 -1.0078 0.0000
# 2 42.9239 94.2757 39.1913 0.0000 5.0240 0.0000
# 3 67.3255 39.1913 107.2034 0.0000 -0.1570 0.0000
# 4 0.0000 0.0000 0.0000 12.5282 0.0000 -6.6829
# 5 -1.0078 5.0240 -0.1570 0.0000 23.7810 0.0000
# 6 0.0000 0.0000 0.0000 -6.6829 0.0000 18.0647
#
#
#
# Elastic Compliance Matrix: (Units=1/GPa)
#
#
# Indices 1 2 3 4 5 6 
#
# 1 0.008196 -0.001923 -0.004443 0.000000 0.000724 0.000000
# 2 -0.001923 0.013132 -0.003597 0.000000 -0.002879 0.000000
# 3 -0.004443 -0.003597 0.013434 0.000000 0.000660 0.000000
# 4 0.000000 0.000000 0.000000 0.099444 0.000000 0.036789
# 5 0.000724 -0.002879 0.000660 0.000000 0.042694 0.000000
# 6 0.000000 0.000000 0.000000 0.036789 0.000000 0.068966
#
#
# Mechanical properties :
#
#
# Convention : Reuss Voigt Hill
#
# Bulk Modulus (GPa) = 67.40694 74.33720 70.87207
# Shear Modulus (GPa) = 18.46810 25.58894 22.02852
#
# Velocity S-wave (km/s) = 3.03907 3.57730 3.31911
# Velocity P-wave (km/s) = 6.78417 7.36471 7.08039
#
# Compressibility (1/GPa) = 0.01483527
#
# Stress axis : x y z
#
# Youngs Moduli (GPa) = 122.01557 76.15226 74.43654
#
# Poissons Ratio (x) = 0.14645 0.33071
# Poissons Ratio (y) = 0.23465 0.26775
# Poissons Ratio (z) = 0.54210 0.27393
#
# Static dielectric constant tensor:
#      x y z
#    x 1.714870 0.000000 0.012770 
#    y 0.000000 1.773310 0.000000 
#    z 0.012770 0.000000 1.681420 
# 
# From -- ./inp_files/62618.got.cif
#   From: 2010.05.17/outbox.cif.g08.bks.cpg/sg10_32_cif.got.tgz:62618.got - 2010.06.03 11:33:40.
