data_PCOD9143068
_publ_section_title
;
Structure prediction by ZEFSAII (Michael W. Deem and Ramdas Pophale) SiO2 
 PCOD9143068
Probable space group: P 2/M
;
_chemical_formula_sum "Si O2"
_cell_formula_units_Z 32
_cell_length_a 29.779469
_cell_length_b 7.468045
_cell_length_c 12.870604
_cell_angle_alpha 90.000000
_cell_angle_beta 149.910729
_cell_angle_gamma 90.000000
_cell_volume 1435.035739
_symmetry_space_group_name_H-M "P 2/M"
_symmetry_group_IT_number 10
_symmetry_cell_setting 'monoclinic'
loop_
_space_group_symop_operation_xyz
x,y,z
-x,y,-z
-x,-y,-z
x,-y,z
loop_
_atom_site_type_symbol
_atom_site_label
_atom_site_fract_x
_atom_site_fract_y
_atom_site_fract_z
Si Si1 0.174864 0.709226 0.946314
Si Si2 0.987309 0.280917 0.641340
Si Si3 0.462075 0.789872 0.814444
Si Si4 0.356914 0.716673 0.916063
Si Si5 0.273650 0.794300 0.355443
Si Si6 0.225472 0.715092 0.481587
Si Si7 0.781819 0.281758 0.185491
Si Si8 0.962342 0.282860 0.816539
O O1 0.161974 0.500000 0.898258
O O2 0.231345 0.775628 0.960703
O O3 0.073223 0.783102 0.748824
O O4 0.223952 0.719593 0.155291
O O5 0.986753 0.500000 0.634714
O O6 0.885095 0.227406 0.414297
O O7 0.005884 0.224329 0.797287
O O8 0.369089 0.713097 0.583477
O O9 0.444566 0.000000 0.798836
O O10 0.500000 0.713471 0.000000
O O11 0.540402 0.772894 0.886022
O O12 0.355032 0.500000 0.912720
O O13 0.312170 0.777490 0.717535
O O14 0.293723 0.779573 0.884174
O O15 0.216404 0.783367 0.346821
O O16 0.289635 0.000000 0.360416
O O17 0.227305 0.500000 0.476992
O O18 0.142260 0.760760 0.388209
O O19 0.779588 0.500000 0.190429
O O20 0.970456 0.500000 0.833812
O O21 0.000000 0.215096 0.000000
#
# Coordination Sequence:
#
# PCOD9143068 Si02
#       8
#     4   4   4   4   4   4   4   4
#     4  10  20  34  56  82 109 143 183 222 260 308
#     4   9  15  27  50  81 112 142 178 216 256 307
#     4  10  21  38  57  77 103 139 180 219 267 327
#     4  10  19  32  55  85 111 134 168 220 271 313
#     4  11  23  38  55  75 106 142 177 224 274 320
#     4  10  18  30  51  79 108 137 172 214 264 319
#     4   9  17  32  53  83 116 142 175 221 265 305
#     4   9  15  23  40  72 111 142 169 206 251 304
#
# _framework density 22.299095999999999
#
# number of rings (size 3 to 8) (size 9 to 14) (size 15 to 20)
#    0.000    2.250    2.500    1.500    0.000    4.750 
#    0.000    1.250    0.000    9.375    0.000    0.000 
#    0.000    0.000    0.000    0.000    0.000    0.000 
#
# Total GULP energy -178558.882961 kJ/mol
# GULP energy per Si atom -5579.965093 kJ/mol
# Density = 2.224834 g / cm^3
# Si number density = 22.299096 Si / 1000 Ang^3
#
#
#
# Elastic Constant Matrix: (Units=GPa)
#
#
# Indices 1 2 3 4 5 6 
#
# 1 154.3617 -3.4473 41.3352 0.0000 -1.1251 0.0000
# 2 -3.4473 59.1481 -0.2848 0.0000 3.6977 0.0000
# 3 41.3352 -0.2848 59.4664 0.0000 3.6557 0.0000
# 4 0.0000 0.0000 0.0000 5.8950 0.0000 21.9265
# 5 -1.1251 3.6977 3.6557 0.0000 31.2985 0.0000
# 6 0.0000 0.0000 0.0000 21.9265 0.0000 16.6474
#
#
#
# Elastic Compliance Matrix: (Units=1/GPa)
#
#
# Indices 1 2 3 4 5 6 
#
# 1 0.007996 0.000383 -0.005611 0.000000 0.000898 0.000000
# 2 0.000383 0.017053 -0.000062 0.000000 -0.001994 0.000000
# 3 -0.005611 -0.000062 0.020878 0.000000 -0.002633 0.000000
# 4 0.000000 0.000000 0.000000 -0.043507 0.000000 0.057304
# 5 0.000898 -0.001994 -0.002633 0.000000 0.032526 0.000000
# 6 0.000000 0.000000 0.000000 0.057304 0.000000 -0.015406
#
#
# Mechanical properties :
#
#
# Convention : Reuss Voigt Hill
#
# Bulk Modulus (GPa) = 28.29107 38.68692 33.48900
# Shear Modulus (GPa) = 119.32416 26.45973 72.89195
#
# Velocity S-wave (km/s) = 7.32304 3.44842 5.72357
# Velocity P-wave (km/s) = 9.17699 5.76561 7.66353
#
# Compressibility (1/GPa) = 0.03534684
#
# Stress axis : x y z
#
# Youngs Moduli (GPa) = 125.06241 58.63941 47.89675
#
# Poissons Ratio (x) = -0.02245 0.26877
# Poissons Ratio (y) = -0.04789 0.00297
# Poissons Ratio (z) = 0.70177 0.00363
#
# Static dielectric constant tensor:
#      x y z
#    x 1.821970 0.000000 -0.002860 
#    y 0.000000 1.862240 0.000000 
#    z -0.002860 0.000000 1.851400 
# 
# From -- ./inp_files/57674.got.cif
#   From: 2010.05.17/outbox.cif.g08.bks.cpg/sg10_29_cif.got.tgz:57674.got - 2010.06.03 11:33:40.
