data_PCOD9143976
_publ_section_title
;
Structure prediction by ZEFSAII (Michael W. Deem and Ramdas Pophale) SiO2 
 PCOD9143976
Probable space group: P 2/M
;
_chemical_formula_sum "Si O2"
_cell_formula_units_Z 28
_cell_length_a 7.643148
_cell_length_b 18.828476
_cell_length_c 14.670421
_cell_angle_alpha 90.000000
_cell_angle_beta 138.861789
_cell_angle_gamma 90.000000
_cell_volume 1388.913350
_symmetry_space_group_name_H-M "P 2/M"
_symmetry_group_IT_number 10
_symmetry_cell_setting 'monoclinic'
loop_
_space_group_symop_operation_xyz
x,y,z
-x,y,-z
-x,-y,-z
x,-y,z
loop_
_atom_site_type_symbol
_atom_site_label
_atom_site_fract_x
_atom_site_fract_y
_atom_site_fract_z
Si Si1 0.613684 0.801868 0.402932
Si Si2 0.765769 0.500000 0.164695
Si Si3 0.309692 0.348149 0.649619
Si Si4 0.933409 0.198999 0.703347
Si Si5 0.428199 0.919297 0.203599
Si Si6 0.867153 0.080762 0.095075
Si Si7 0.763335 0.655821 0.164589
Si Si8 0.688302 0.500000 0.350548
O O1 0.581072 0.723339 0.349795
O O2 0.349205 0.812627 0.358768
O O3 0.865784 0.804547 0.569512
O O4 0.610370 0.861313 0.323640
O O5 0.893480 0.577693 0.198017
O O6 0.687204 0.500000 0.240357
O O7 0.500000 0.500000 0.000000
O O8 0.324680 0.343914 0.764337
O O9 0.426962 0.424239 0.663941
O O10 0.000000 0.349479 0.500000
O O11 0.116509 0.137764 0.818179
O O12 0.048302 0.276365 0.772792
O O13 0.149892 0.919113 0.151656
O O14 0.532608 0.000000 0.248443
O O15 0.345865 0.902489 0.067514
O O16 0.825278 0.000000 0.111385
O O17 0.500000 0.662533 0.000000
O O18 0.000000 0.500000 0.500000
#
# Coordination Sequence:
#
# PCOD9143976 Si02
#       8
#     4   2   4   4   4   4   4   2
#     4  10  20  32  50  75 107 133 161 206 251 297
#     4   8  16  32  51  71  95 127 168 207 241 286
#     4  10  18  34  52  73  99 134 171 202 243 295
#     4  10  20  33  48  77 107 130 163 207 254 292
#     4   8  15  29  49  72  96 129 169 204 241 291
#     4   8  15  29  49  71  97 129 168 206 240 290
#     4  10  20  34  54  76  99 131 170 208 246 295
#     4   8  16  28  51  71  91 127 174 208 227 282
#
# _framework density 20.159642999999999
#
# number of rings (size 3 to 8) (size 9 to 14) (size 15 to 20)
#    0.000    2.857    1.429    0.857    2.000    0.571 
#    0.000    3.571    0.000    3.429    0.000    6.000 
#    0.000    0.000    0.000    0.000    0.000    0.000 
#
# Total GULP energy -156034.812525 kJ/mol
# GULP energy per Si atom -5572.671876 kJ/mol
# Density = 2.011376 g / cm^3
# Si number density = 20.159643 Si / 1000 Ang^3
#
#
#
# Elastic Constant Matrix: (Units=GPa)
#
#
# Indices 1 2 3 4 5 6 
#
# 1 27.6957 21.7770 18.3706 0.0000 3.5752 0.0000
# 2 21.7770 198.3297 94.2181 0.0000 -19.8458 0.0000
# 3 18.3706 94.2181 139.8146 0.0000 -30.2240 0.0000
# 4 0.0000 0.0000 0.0000 36.7444 0.0000 -2.6890
# 5 3.5752 -19.8458 -30.2240 0.0000 19.8526 0.0000
# 6 0.0000 0.0000 0.0000 -2.6890 0.0000 28.3745
#
#
#
# Elastic Compliance Matrix: (Units=1/GPa)
#
#
# Indices 1 2 3 4 5 6 
#
# 1 0.049040 -0.003311 -0.010191 0.000000 -0.027656 0.000000
# 2 -0.003311 0.007641 -0.004373 0.000000 0.001577 0.000000
# 3 -0.010191 -0.004373 0.016232 0.000000 0.022175 0.000000
# 4 0.000000 0.000000 0.000000 0.027405 0.000000 0.002597
# 5 -0.027656 0.001577 0.022175 0.000000 0.090688 0.000000
# 6 0.000000 0.000000 0.000000 0.002597 0.000000 0.035489
#
#
# Mechanical properties :
#
#
# Convention : Reuss Voigt Hill
#
# Bulk Modulus (GPa) = 26.90844 70.50793 48.70818
# Shear Modulus (GPa) = 18.20618 32.42592 25.31605
#
# Velocity S-wave (km/s) = 3.00842 4.01491 3.54754
# Velocity P-wave (km/s) = 5.04422 7.51953 6.40264
#
# Compressibility (1/GPa) = 0.03716307
#
# Stress axis : x y z
#
# Youngs Moduli (GPa) = 20.39171 130.87378 61.60656
#
# Poissons Ratio (x) = 0.43330 0.62781
# Poissons Ratio (y) = 0.06751 0.26942
# Poissons Ratio (z) = 0.20781 0.57234
#
# Static dielectric constant tensor:
#      x y z
#    x 1.737090 0.000000 0.004540 
#    y 0.000000 1.753050 0.000000 
#    z 0.004540 0.000000 1.721040 
# 
# From -- ./inp_files/62381.got.cif
#   From: 2010.05.17/outbox.cif.g08.bks.cpg/sg10_32_cif.got.tgz:62381.got - 2010.06.03 11:33:40.
