data_PCOD9143347
_publ_section_title
;
Structure prediction by ZEFSAII (Michael W. Deem and Ramdas Pophale) SiO2 
 PCOD9143347
Probable space group: P 2/M
;
_chemical_formula_sum "Si O2"
_cell_formula_units_Z 32
_cell_length_a 20.921024
_cell_length_b 7.615168
_cell_length_c 25.831588
_cell_angle_alpha 90.000000
_cell_angle_beta 23.257687
_cell_angle_gamma 90.000000
_cell_volume 1625.041683
_symmetry_space_group_name_H-M "P 2/M"
_symmetry_group_IT_number 10
_symmetry_cell_setting 'monoclinic'
loop_
_space_group_symop_operation_xyz
x,y,z
-x,y,-z
-x,-y,-z
x,-y,z
loop_
_atom_site_type_symbol
_atom_site_label
_atom_site_fract_x
_atom_site_fract_y
_atom_site_fract_z
Si Si1 0.454075 0.710554 0.114865
Si Si2 0.740871 0.786112 0.185893
Si Si3 0.036074 0.786347 0.890309
Si Si4 0.759515 0.715116 0.819235
Si Si5 0.932051 0.786866 0.855984
Si Si6 0.436586 0.790402 0.856233
Si Si7 0.922181 0.295009 0.363488
Si Si8 0.555470 0.792740 0.657314
O O1 0.455349 0.500000 0.110823
O O2 0.307869 0.770520 0.186658
O O3 0.454790 0.757986 0.174214
O O4 0.622122 0.770627 0.962929
O O5 0.812870 0.725547 0.187265
O O6 0.567026 0.722938 0.295447
O O7 0.739308 0.000000 0.190096
O O8 0.873838 0.740174 0.043104
O O9 0.020526 0.728053 0.842832
O O10 0.039867 0.000000 0.886393
O O11 0.762431 0.500000 0.818015
O O12 0.934849 0.779207 0.706449
O O13 0.017452 0.727686 0.740129
O O14 0.931370 0.000000 0.855905
O O15 0.745588 0.724420 0.997498
O O16 0.508601 0.720557 0.748862
O O17 0.421658 0.000000 0.862233
O O18 0.910893 0.500000 0.383602
O O19 0.743273 0.224190 0.505019
O O20 0.520629 0.000000 0.685539
#
# Coordination Sequence:
#
# PCOD9143347 Si02
#       8
#     4   4   4   4   4   4   4   4
#     4   9  16  31  54  75  96 127 166 212 253 289
#     4   8  13  25  48  76 102 128 164 207 248 288
#     4   8  13  24  48  79 102 124 162 211 251 288
#     4   8  16  31  51  73  97 127 168 212 249 284
#     4  10  18  31  52  79 105 129 162 208 257 299
#     4  10  19  31  50  79 108 129 159 205 256 304
#     4  11  22  36  52  73 101 136 173 208 245 298
#     4  10  20  35  52  74 106 139 165 202 253 302
#
# _framework density 19.691801999999999
#
# number of rings (size 3 to 8) (size 9 to 14) (size 15 to 20)
#    0.000    2.750    2.500    1.875    0.000    0.500 
#    0.000    3.750    0.000    8.250    0.000    1.750 
#    0.000    0.000    0.000    0.000    0.000    0.000 
#
# Total GULP energy -178432.362008 kJ/mol
# GULP energy per Si atom -5576.011313 kJ/mol
# Density = 1.964698 g / cm^3
# Si number density = 19.691802 Si / 1000 Ang^3
#
#
#
# Elastic Constant Matrix: (Units=GPa)
#
#
# Indices 1 2 3 4 5 6 
#
# 1 164.9156 -4.4383 79.5890 0.0000 -30.7619 0.0000
# 2 -4.4383 34.6779 -5.6940 0.0000 -4.2894 0.0000
# 3 79.5890 -5.6940 104.6605 0.0000 -22.4788 0.0000
# 4 0.0000 0.0000 0.0000 -21.1330 0.0000 9.2581
# 5 -30.7619 -4.2894 -22.4788 0.0000 31.0124 0.0000
# 6 0.0000 0.0000 0.0000 9.2581 0.0000 24.7366
#
#
#
# Elastic Compliance Matrix: (Units=1/GPa)
#
#
# Indices 1 2 3 4 5 6 
#
# 1 0.010310 0.000927 -0.006592 0.000000 0.005577 0.000000
# 2 0.000927 0.030197 0.002407 0.000000 0.006841 0.000000
# 3 -0.006592 0.002407 0.015830 0.000000 0.005268 0.000000
# 4 0.000000 0.000000 0.000000 -0.040654 0.000000 0.015215
# 5 0.005577 0.006841 0.005268 0.000000 0.042542 0.000000
# 6 0.000000 0.000000 0.000000 0.015215 0.000000 0.034731
#
#
# Mechanical properties :
#
#
# Convention : Reuss Voigt Hill
#
# Bulk Modulus (GPa) = 20.07171 49.24082 34.65626
# Shear Modulus (GPa) = 43.07362 22.57636 32.82499
#
# Velocity S-wave (km/s) = 4.68203 3.38965 4.08724
# Velocity P-wave (km/s) = 6.28041 6.35450 6.31756
#
# Compressibility (1/GPa) = 0.04982137
#
# Stress axis : x y z
#
# Youngs Moduli (GPa) = 96.98932 33.11601 63.17014
#
# Poissons Ratio (x) = -0.03070 0.41644
# Poissons Ratio (y) = -0.08991 -0.15206
# Poissons Ratio (z) = 0.63938 -0.07972
#
# Static dielectric constant tensor:
#      x y z
#    x 1.718480 0.000000 -0.032700 
#    y 0.000000 1.751480 0.000000 
#    z -0.032700 0.000000 1.658630 
# 
# From -- ./inp_files/93574.got.cif
#   From: 2010.05.17/outbox.cif.g08.bks.cpg/sg10_47_cif.got.tgz:93574.got - 2010.06.03 11:33:40.
