data_PCOD9143210
_publ_section_title
;
Structure prediction by ZEFSAII (Michael W. Deem and Ramdas Pophale) SiO2 
 PCOD9143210
Probable space group: P 2/M
;
_chemical_formula_sum "Si O2"
_cell_formula_units_Z 32
_cell_length_a 28.926676
_cell_length_b 7.462347
_cell_length_c 22.339173
_cell_angle_alpha 90.000000
_cell_angle_beta 18.876896
_cell_angle_gamma 90.000000
_cell_volume 1560.139846
_symmetry_space_group_name_H-M "P 2/M"
_symmetry_group_IT_number 10
_symmetry_cell_setting 'monoclinic'
loop_
_space_group_symop_operation_xyz
x,y,z
-x,y,-z
-x,-y,-z
x,-y,z
loop_
_atom_site_type_symbol
_atom_site_label
_atom_site_fract_x
_atom_site_fract_y
_atom_site_fract_z
Si Si1 0.309180 0.718741 0.619005
Si Si2 0.296464 0.705607 0.996922
Si Si3 0.838962 0.280964 0.076584
Si Si4 0.164134 0.284249 0.673247
Si Si5 0.432446 0.708953 0.022575
Si Si6 0.360967 0.280308 0.787800
Si Si7 0.841777 0.279922 0.712957
Si Si8 0.425790 0.790829 0.272808
O O1 0.308176 0.500000 0.619650
O O2 0.222121 0.775186 0.784262
O O3 0.236333 0.778956 0.646647
O O4 0.474151 0.774732 0.420218
O O5 0.249342 0.500000 0.047876
O O6 0.299835 0.783776 0.926482
O O7 0.458833 0.705831 0.823209
O O8 0.202586 0.782316 0.166126
O O9 0.838952 0.500000 0.076674
O O10 0.734741 0.224553 0.150834
O O11 0.001529 0.221526 0.867691
O O12 0.160080 0.500000 0.681024
O O13 0.268130 0.236543 0.491333
O O14 0.403676 0.500000 0.070647
O O15 0.282734 0.781330 0.179953
O O16 0.500000 0.788306 0.000000
O O17 0.542346 0.719802 0.832467
O O18 0.361553 0.500000 0.788316
O O19 0.836453 0.500000 0.720374
O O20 0.000000 0.227046 0.500000
O O21 0.458421 0.000000 0.231956
#
# Coordination Sequence:
#
# PCOD9143210 Si02
#       8
#     4   4   4   4   4   4   4   4
#     4   9  15  25  45  69  99 131 160 201 255 304
#     4   9  16  30  51  72  97 128 165 204 247 290
#     4   9  17  26  41  73 105 127 157 206 261 304
#     4  10  18  31  49  72 100 129 165 207 250 294
#     4   9  18  34  55  79 103 128 161 201 245 289
#     4   9  15  25  43  71 101 126 156 203 256 301
#     4   8  14  26  46  73 101 125 152 191 235 283
#     4  11  21  33  52  74  98 133 174 205 240 289
#
# _framework density 20.510981999999998
#
# number of rings (size 3 to 8) (size 9 to 14) (size 15 to 20)
#    0.000    2.750    1.250    2.625    0.000    3.250 
#    2.250    0.000    0.000    8.250    0.000    0.875 
#    0.000    0.000    0.000    0.000    0.000    0.000 
#
# Total GULP energy -178594.389967 kJ/mol
# GULP energy per Si atom -5581.074686 kJ/mol
# Density = 2.046430 g / cm^3
# Si number density = 20.510982 Si / 1000 Ang^3
#
#
#
# Elastic Constant Matrix: (Units=GPa)
#
#
# Indices 1 2 3 4 5 6 
#
# 1 115.0599 -8.6414 62.3500 0.0000 -0.2719 0.0000
# 2 -8.6414 60.2124 -7.9770 0.0000 -4.2737 0.0000
# 3 62.3500 -7.9770 163.7831 0.0000 -0.2052 0.0000
# 4 0.0000 0.0000 0.0000 38.0909 0.0000 122.3851
# 5 -0.2719 -4.2737 -0.2052 0.0000 25.2258 0.0000
# 6 0.0000 0.0000 0.0000 122.3851 0.0000 251.6271
#
#
#
# Elastic Compliance Matrix: (Units=1/GPa)
#
#
# Indices 1 2 3 4 5 6 
#
# 1 0.011015 0.001051 -0.004142 0.000000 0.000263 0.000000
# 2 0.001051 0.017022 0.000433 0.000000 0.002899 0.000000
# 3 -0.004142 0.000433 0.007704 0.000000 0.000091 0.000000
# 4 0.000000 0.000000 0.000000 -0.046655 0.000000 0.022692
# 5 0.000263 0.002899 0.000091 0.000000 0.040137 0.000000
# 6 0.000000 0.000000 0.000000 0.022692 0.000000 -0.007062
#
#
# Mechanical properties :
#
#
# Convention : Reuss Voigt Hill
#
# Bulk Modulus (GPa) = 32.86916 47.83540 40.35228
# Shear Modulus (GPa) = 132.91589 82.54368 107.72978
#
# Velocity S-wave (km/s) = 8.05872 6.35067 7.25514
# Velocity P-wave (km/s) = 10.13166 8.78335 9.48150
#
# Compressibility (1/GPa) = 0.03042366
#
# Stress axis : x y z
#
# Youngs Moduli (GPa) = 90.78482 58.74845 129.81046
#
# Poissons Ratio (x) = -0.06173 0.53765
# Poissons Ratio (y) = -0.09540 -0.05616
# Poissons Ratio (z) = 0.37601 -0.02542
#
# Static dielectric constant tensor:
#      x y z
#    x 1.705990 0.000000 0.006610 
#    y 0.000000 1.776560 0.000000 
#    z 0.006610 0.000000 1.695650 
# 
# From -- ./inp_files/86877.got.cif
#   From: 2010.05.17/outbox.cif.g08.bks.cpg/sg10_44_cif.got.tgz:86877.got - 2010.06.03 11:33:40.
