data_PCOD9143896
_publ_section_title
;
Structure prediction by ZEFSAII (Michael W. Deem and Ramdas Pophale) SiO2 
 PCOD9143896
Probable space group: P 2/M
;
_chemical_formula_sum "Si O2"
_cell_formula_units_Z 32
_cell_length_a 26.939580
_cell_length_b 7.464850
_cell_length_c 20.727870
_cell_angle_alpha 90.000000
_cell_angle_beta 159.369472
_cell_angle_gamma 90.000000
_cell_volume 1468.686005
_symmetry_space_group_name_H-M "P 2/M"
_symmetry_group_IT_number 10
_symmetry_cell_setting 'monoclinic'
loop_
_space_group_symop_operation_xyz
x,y,z
-x,y,-z
-x,-y,-z
x,-y,z
loop_
_atom_site_type_symbol
_atom_site_label
_atom_site_fract_x
_atom_site_fract_y
_atom_site_fract_z
Si Si1 0.344769 0.720139 0.287802
Si Si2 0.356376 0.283369 0.674356
Si Si3 0.805119 0.718669 0.396144
Si Si4 0.849517 0.707760 0.834431
Si Si5 0.635024 0.207495 0.462085
Si Si6 0.665370 0.281571 0.096146
Si Si7 0.681223 0.707518 0.888296
Si Si8 0.124508 0.280553 0.759976
O O1 0.500000 0.773655 0.500000
O O2 0.345842 0.500000 0.288547
O O3 0.231895 0.783061 0.202874
O O4 0.315440 0.783290 0.179668
O O5 0.357369 0.500000 0.675652
O O6 0.249931 0.223587 0.600891
O O7 0.321200 0.227320 0.559023
O O8 0.514296 0.222908 0.885441
O O9 0.805644 0.500000 0.397429
O O10 0.699799 0.773745 0.210821
O O11 0.963102 0.775719 0.570565
O O12 0.875891 0.500000 0.883324
O O13 0.745815 0.712794 0.647067
O O14 0.000000 0.789692 0.000000
O O15 0.479271 0.287140 0.281906
O O16 0.623024 0.000000 0.463846
O O17 0.662351 0.500000 0.092093
O O18 0.791748 0.225962 0.202366
O O19 0.722800 0.500000 0.932444
O O20 0.784440 0.782835 0.067996
O O21 0.124849 0.500000 0.759544
#
# Coordination Sequence:
#
# PCOD9143896 Si02
#       8
#     4   4   4   4   4   4   4   4
#     4   9  16  29  55  84 109 135 170 217 259 301
#     4  10  19  33  54  79 106 141 182 222 265 319
#     4   9  17  27  45  79 115 138 170 223 278 324
#     4  10  21  38  61  88 113 140 174 214 262 318
#     4  12  24  37  55  78 108 144 181 222 267 314
#     4   9  15  26  47  77 111 142 171 216 275 324
#     4  10  18  33  56  79 105 139 182 222 264 313
#     4   9  16  26  46  78 112 140 168 215 273 321
#
# _framework density 21.788184000000001
#
# number of rings (size 3 to 8) (size 9 to 14) (size 15 to 20)
#    0.000    2.250    2.500    1.875    0.000    4.250 
#    0.000    5.000    0.000    3.750    0.000    0.875 
#    0.000    0.000    0.000    0.000    0.000    0.000 
#
# Total GULP energy -178787.007934 kJ/mol
# GULP energy per Si atom -5587.093998 kJ/mol
# Density = 2.173859 g / cm^3
# Si number density = 21.788184 Si / 1000 Ang^3
#
#
#
# Elastic Constant Matrix: (Units=GPa)
#
#
# Indices 1 2 3 4 5 6 
#
# 1 142.1612 -6.1997 9.7318 0.0000 -2.9244 0.0000
# 2 -6.1997 62.6286 -8.4117 0.0000 3.0420 0.0000
# 3 9.7318 -8.4117 39.5622 0.0000 6.1201 0.0000
# 4 0.0000 0.0000 0.0000 25.5093 0.0000 -29.5189
# 5 -2.9244 3.0420 6.1201 0.0000 35.9145 0.0000
# 6 0.0000 0.0000 0.0000 -29.5189 0.0000 -49.4715
#
#
#
# Elastic Compliance Matrix: (Units=1/GPa)
#
#
# Indices 1 2 3 4 5 6 
#
# 1 0.007195 0.000427 -0.001812 0.000000 0.000858 0.000000
# 2 0.000427 0.016609 0.003737 0.000000 -0.002009 0.000000
# 3 -0.001812 0.003737 0.027309 0.000000 -0.005118 0.000000
# 4 0.000000 0.000000 0.000000 0.023190 0.000000 -0.013837
# 5 0.000858 -0.002009 -0.005118 0.000000 0.028956 0.000000
# 6 0.000000 0.000000 0.000000 -0.013837 0.000000 -0.011957
#
#
# Mechanical properties :
#
#
# Convention : Reuss Voigt Hill
#
# Bulk Modulus (GPa) = 17.91564 26.06588 21.99076
# Shear Modulus (GPa) = 47.52802 19.00590 33.26696
#
# Velocity S-wave (km/s) = 4.67558 2.95668 3.91171
# Velocity P-wave (km/s) = 6.11462 4.86264 5.52421
#
# Compressibility (1/GPa) = 0.05581715
#
# Stress axis : x y z
#
# Youngs Moduli (GPa) = 138.99356 60.20857 36.61848
#
# Poissons Ratio (x) = -0.02572 0.06634
# Poissons Ratio (y) = -0.05937 -0.13685
# Poissons Ratio (z) = 0.25182 -0.22500
#
# Static dielectric constant tensor:
#      x y z
#    x 1.779280 0.000000 0.005630 
#    y 0.000000 1.854940 0.000000 
#    z 0.005630 0.000000 1.745420 
# 
# From -- ./inp_files/86872.got.cif
#   From: 2010.05.17/outbox.cif.g08.bks.cpg/sg10_44_cif.got.tgz:86872.got - 2010.06.03 11:33:40.
