data_PCOD9143666
_publ_section_title
;
Structure prediction by ZEFSAII (Michael W. Deem and Ramdas Pophale) SiO2 
 PCOD9143666
Probable space group: P 2/M
;
_chemical_formula_sum "Si O2"
_cell_formula_units_Z 28
_cell_length_a 13.114216
_cell_length_b 9.532957
_cell_length_c 16.639750
_cell_angle_alpha 90.000000
_cell_angle_beta 45.106836
_cell_angle_gamma 90.000000
_cell_volume 1473.703315
_symmetry_space_group_name_H-M "P 2/M"
_symmetry_group_IT_number 10
_symmetry_cell_setting 'monoclinic'
loop_
_space_group_symop_operation_xyz
x,y,z
-x,y,-z
-x,-y,-z
x,-y,z
loop_
_atom_site_type_symbol
_atom_site_label
_atom_site_fract_x
_atom_site_fract_y
_atom_site_fract_z
Si Si1 0.575170 0.830592 0.871420
Si Si2 0.867368 0.164185 0.283984
Si Si3 0.379720 0.339130 0.855885
Si Si4 0.277782 0.168806 0.483607
Si Si5 0.045553 0.340107 0.063190
Si Si6 0.400271 0.163634 0.684696
Si Si7 0.839038 0.169817 0.619846
O O1 0.477658 0.752555 0.859951
O O2 0.742514 0.791644 0.752922
O O3 0.566610 0.000000 0.867217
O O4 0.500000 0.797822 0.000000
O O5 0.841902 0.220503 0.387820
O O6 0.715947 0.175167 0.320625
O O7 0.979132 0.248066 0.169608
O O8 0.906658 0.000000 0.265409
O O9 0.431298 0.500000 0.821099
O O10 0.367956 0.265676 0.776012
O O11 0.216087 0.341795 0.977323
O O12 0.435953 0.197602 0.429186
O O13 0.258350 0.212727 0.402840
O O14 0.262647 0.000000 0.491743
O O15 0.989711 0.500000 0.098623
O O16 0.000000 0.285841 0.000000
O O17 0.398132 0.000000 0.712899
O O18 0.000000 0.216282 0.500000
O O19 0.850052 0.000000 0.618474
#
# Coordination Sequence:
#
# PCOD9143666 Si02
#       7
#     4   4   4   4   4   4   4
#     4  10  21  38  61  88 112 139 184 239 285 334
#     4  10  20  31  52  83 109 140 185 233 273 323
#     4  11  22  36  57  80 106 147 190 224 271 330
#     4   9  17  31  51  78 112 142 173 220 279 331
#     4  10  21  37  52  71 109 154 188 223 272 327
#     4  10  18  32  54  79 108 141 181 225 273 324
#     4   9  17  31  54  82 111 144 175 215 280 343
#
# _framework density 18.999752999999998
#
# number of rings (size 3 to 8) (size 9 to 14) (size 15 to 20)
#    0.000    2.143    2.857    0.857    0.000    4.571 
#    0.000    3.571    0.000    2.143    0.000    0.000 
#    0.000    0.000    0.000    0.000    0.000    0.000 
#
# Total GULP energy -155887.066162 kJ/mol
# GULP energy per Si atom -5567.395220 kJ/mol
# Density = 1.895651 g / cm^3
# Si number density = 18.999753 Si / 1000 Ang^3
#
#
#
# Elastic Constant Matrix: (Units=GPa)
#
#
# Indices 1 2 3 4 5 6 
#
# 1 16.0202 8.1476 19.4558 0.0000 -4.1721 0.0000
# 2 8.1476 27.3484 37.4330 0.0000 7.5731 0.0000
# 3 19.4558 37.4330 159.6017 0.0000 10.2291 0.0000
# 4 0.0000 0.0000 0.0000 -34.8160 0.0000 -26.0398
# 5 -4.1721 7.5731 10.2291 0.0000 28.3688 0.0000
# 6 0.0000 0.0000 0.0000 -26.0398 0.0000 2.1790
#
#
#
# Elastic Compliance Matrix: (Units=1/GPa)
#
#
# Indices 1 2 3 4 5 6 
#
# 1 0.087805 -0.022926 -0.006701 0.000000 0.021450 0.000000
# 2 -0.022926 0.062795 -0.010894 0.000000 -0.016207 0.000000
# 3 -0.006701 -0.010894 0.009740 0.000000 -0.001589 0.000000
# 4 0.000000 0.000000 0.000000 -0.002890 0.000000 -0.034539
# 5 0.021450 -0.016207 -0.001589 0.000000 0.043304 0.000000
# 6 0.000000 0.000000 0.000000 -0.034539 0.000000 0.046179
#
#
# Mechanical properties :
#
#
# Convention : Reuss Voigt Hill
#
# Bulk Modulus (GPa) = 12.61102 37.00481 24.80792
# Shear Modulus (GPa) = 14.10800 8.34195 11.22498
#
# Velocity S-wave (km/s) = 2.72791 2.09764 2.43327
# Velocity P-wave (km/s) = 4.07110 5.03841 4.58036
#
# Compressibility (1/GPa) = 0.07929573
#
# Stress axis : x y z
#
# Youngs Moduli (GPa) = 11.38882 15.92485 102.67436
#
# Poissons Ratio (x) = 0.36510 0.68804
# Poissons Ratio (y) = 0.26110 1.11858
# Poissons Ratio (z) = 0.07632 0.17349
#
# Static dielectric constant tensor:
#      x y z
#    x 1.678730 0.000000 -0.014840 
#    y 0.000000 1.631520 0.000000 
#    z -0.014840 0.000000 1.728330 
# 
# From -- ./inp_files/77732.got.cif
#   From: 2010.05.17/outbox.cif.g08.bks.cpg/sg10_39_cif.got.tgz:77732.got - 2010.06.03 11:33:40.
