data_PCOD9143588
_publ_section_title
;
Structure prediction by ZEFSAII (Michael W. Deem and Ramdas Pophale) SiO2 
 PCOD9143588
Probable space group: P 2/M
;
_chemical_formula_sum "Si O2"
_cell_formula_units_Z 32
_cell_length_a 23.653224
_cell_length_b 7.708292
_cell_length_c 14.504965
_cell_angle_alpha 90.000000
_cell_angle_beta 37.181238
_cell_angle_gamma 90.000000
_cell_volume 1598.252056
_symmetry_space_group_name_H-M "P 2/M"
_symmetry_group_IT_number 10
_symmetry_cell_setting 'monoclinic'
loop_
_space_group_symop_operation_xyz
x,y,z
-x,y,-z
-x,-y,-z
x,-y,z
loop_
_atom_site_type_symbol
_atom_site_label
_atom_site_fract_x
_atom_site_fract_y
_atom_site_fract_z
Si Si1 0.687364 0.204483 0.051266
Si Si2 0.405950 0.291593 0.009014
Si Si3 0.297632 0.799043 0.631505
Si Si4 0.386324 0.711972 0.247681
Si Si5 0.001027 0.712684 0.891133
Si Si6 0.805855 0.297137 0.059622
Si Si7 0.800362 0.302179 0.412187
Si Si8 0.500777 0.788076 0.392227
O O1 0.671102 0.236485 0.964736
O O2 0.775561 0.274194 0.993291
O O3 0.592607 0.276643 0.221758
O O4 0.688824 0.000000 0.064633
O O5 0.409157 0.500000 0.004141
O O6 0.511773 0.228462 0.847775
O O7 0.384730 0.240180 0.141650
O O8 0.270927 0.788030 0.773445
O O9 0.224294 0.698568 0.664410
O O10 0.401855 0.730212 0.479485
O O11 0.292894 0.000000 0.610687
O O12 0.386838 0.500000 0.253308
O O13 0.292115 0.775302 0.419785
O O14 0.004112 0.500000 0.886940
O O15 0.096138 0.775441 0.718143
O O16 0.000000 0.766616 0.000000
O O17 0.907517 0.767884 0.959111
O O18 0.803007 0.500000 0.084596
O O19 0.806925 0.500000 0.437766
O O20 0.500000 0.737252 0.500000
O O21 0.500136 0.000000 0.390089
#
# Coordination Sequence:
#
# PCOD9143588 Si02
#       8
#     4   4   4   4   4   4   4   4
#     4  11  21  34  51  72  99 135 171 203 245 297
#     4   9  17  33  53  78 107 131 160 202 252 295
#     4  11  20  31  47  70 100 133 164 200 243 292
#     4   8  16  31  55  80 103 130 163 206 247 293
#     4   9  17  31  50  72  98 128 165 211 251 286
#     4  11  21  34  50  69  96 133 170 207 248 291
#     4  10  18  32  53  74  97 129 167 203 247 297
#     4   9  17  30  44  61  94 133 160 189 232 282
#
# _framework density 20.021872999999999
#
# number of rings (size 3 to 8) (size 9 to 14) (size 15 to 20)
#    0.000    2.250    2.500    2.625    0.000    0.000 
#    0.000    6.250    0.000    0.750    0.000    5.250 
#    0.000    0.000    0.000    0.000    0.000    0.000 
#
# Total GULP energy -178550.313270 kJ/mol
# GULP energy per Si atom -5579.697290 kJ/mol
# Density = 1.997630 g / cm^3
# Si number density = 20.021873 Si / 1000 Ang^3
#
#
#
# Elastic Constant Matrix: (Units=GPa)
#
#
# Indices 1 2 3 4 5 6 
#
# 1 130.3103 0.8560 41.1794 0.0000 -20.4714 0.0000
# 2 0.8560 40.4459 6.2154 0.0000 -4.2834 0.0000
# 3 41.1794 6.2154 87.3314 0.0000 -16.4247 0.0000
# 4 0.0000 0.0000 0.0000 -2.3852 0.0000 46.5362
# 5 -20.4714 -4.2834 -16.4247 0.0000 31.0921 0.0000
# 6 0.0000 0.0000 0.0000 46.5362 0.0000 -195.7569
#
#
#
# Elastic Compliance Matrix: (Units=1/GPa)
#
#
# Indices 1 2 3 4 5 6 
#
# 1 0.009542 0.000840 -0.003726 0.000000 0.004430 0.000000
# 2 0.000840 0.025290 -0.001595 0.000000 0.003194 0.000000
# 3 -0.003726 -0.001595 0.014232 0.000000 0.004845 0.000000
# 4 0.000000 0.000000 0.000000 0.115239 0.000000 0.027395
# 5 0.004430 0.003194 0.004845 0.000000 0.038079 0.000000
# 6 0.000000 0.000000 0.000000 0.027395 0.000000 0.001404
#
#
# Mechanical properties :
#
#
# Convention : Reuss Voigt Hill
#
# Bulk Modulus (GPa) = 24.93656 39.39880 32.16768
# Shear Modulus (GPa) = 22.11257 -19.42088 1.34585
#
# Velocity S-wave (km/s) = 3.32689 -3.11783 0.82076
# Velocity P-wave (km/s) = 5.21913 2.59989 4.12303
#
# Compressibility (1/GPa) = 0.04010176
#
# Stress axis : x y z
#
# Youngs Moduli (GPa) = 104.80186 39.54129 70.26255
#
# Poissons Ratio (x) = -0.03321 0.26179
# Poissons Ratio (y) = -0.08801 0.11208
# Poissons Ratio (z) = 0.39048 0.06307
#
# Static dielectric constant tensor:
#      x y z
#    x 1.726890 0.000000 -0.015810 
#    y 0.000000 1.727680 0.000000 
#    z -0.015810 0.000000 1.721660 
# 
# From -- ./inp_files/66028.got.cif
#   From: 2010.05.17/outbox.cif.g08.bks.cpg/sg10_34_cif.got.tgz:66028.got - 2010.06.03 11:33:40.
