data_PCOD9143072
_publ_section_title
;
Structure prediction by ZEFSAII (Michael W. Deem and Ramdas Pophale) SiO2 
 PCOD9143072
Probable space group: P 2/M
;
_chemical_formula_sum "Si O2"
_cell_formula_units_Z 32
_cell_length_a 15.056387
_cell_length_b 7.432517
_cell_length_c 24.294129
_cell_angle_alpha 90.000000
_cell_angle_beta 28.741750
_cell_angle_gamma 90.000000
_cell_volume 1307.311090
_symmetry_space_group_name_H-M "P 2/M"
_symmetry_group_IT_number 10
_symmetry_cell_setting 'monoclinic'
loop_
_space_group_symop_operation_xyz
x,y,z
-x,y,-z
-x,-y,-z
x,-y,z
loop_
_atom_site_type_symbol
_atom_site_label
_atom_site_fract_x
_atom_site_fract_y
_atom_site_fract_z
Si Si1 0.439628 0.799272 0.323428
Si Si2 0.977089 0.779813 0.287816
Si Si3 0.573534 0.779586 0.550905
Si Si4 0.031018 0.707913 0.547812
Si Si5 0.817186 0.217005 0.262166
Si Si6 0.946501 0.707849 0.968874
Si Si7 0.450628 0.791402 0.853707
Si Si8 0.710631 0.797133 0.802634
O O1 0.491243 0.714437 0.353338
O O2 0.221411 0.808966 0.451186
O O3 0.475214 0.712283 0.244720
O O4 0.523627 0.000000 0.275457
O O5 0.781473 0.723371 0.422328
O O6 0.950911 0.725012 0.238877
O O7 0.165877 0.717019 0.214724
O O8 0.981363 0.000000 0.288829
O O9 0.395459 0.730421 0.611259
O O10 0.580445 0.000000 0.548087
O O11 0.046961 0.500000 0.557228
O O12 0.000000 0.707747 0.500000
O O13 0.865661 0.796835 0.670442
O O14 0.890697 0.277890 0.163400
O O15 0.820218 0.000000 0.260254
O O16 0.897594 0.500000 0.005053
O O17 0.000000 0.783743 0.000000
O O18 0.767992 0.788723 0.035661
O O19 0.536524 0.715072 0.863709
O O20 0.512665 0.000000 0.820661
O O21 0.658539 0.000000 0.848354
#
# Coordination Sequence:
#
# PCOD9143072 Si02
#       8
#     4   4   4   4   4   4   4   4
#     4  10  18  30  51  79 111 147 185 228 278 329
#     4   9  17  31  56  89 120 148 181 228 282 330
#     4   9  16  28  53  87 116 144 182 228 277 326
#     4  11  21  30  44  72 113 156 192 225 269 327
#     4  10  20  36  61  88 113 144 188 238 280 329
#     4  11  25  44  63  82 109 147 184 230 290 341
#     4  10  21  35  58  88 112 144 192 240 283 328
#     4  10  19  34  56  82 115 151 188 230 278 331
#
# _framework density 24.477723999999998
#
# number of rings (size 3 to 8) (size 9 to 14) (size 15 to 20)
#    0.000    2.000    2.500    1.875    0.000    5.000 
#    0.000    1.875    0.000    4.500    0.000    0.000 
#    0.000    0.000    0.000    0.000    0.000    0.000 
#
# Total GULP energy -178519.750021 kJ/mol
# GULP energy per Si atom -5578.742188 kJ/mol
# Density = 2.442201 g / cm^3
# Si number density = 24.477724 Si / 1000 Ang^3
#
#
#
# Elastic Constant Matrix: (Units=GPa)
#
#
# Indices 1 2 3 4 5 6 
#
# 1 186.9043 6.8295 53.3692 0.0000 -13.4390 0.0000
# 2 6.8295 84.0063 -7.1318 0.0000 -1.0228 0.0000
# 3 53.3692 -7.1318 70.7323 0.0000 -15.7442 0.0000
# 4 0.0000 0.0000 0.0000 25.0073 0.0000 -28.8160
# 5 -13.4390 -1.0228 -15.7442 0.0000 41.8848 0.0000
# 6 0.0000 0.0000 0.0000 -28.8160 0.0000 -4.2623
#
#
#
# Elastic Compliance Matrix: (Units=1/GPa)
#
#
# Indices 1 2 3 4 5 6 
#
# 1 0.006906 -0.001006 -0.005265 0.000000 0.000212 0.000000
# 2 -0.001006 0.012179 0.002162 0.000000 0.000787 0.000000
# 3 -0.005265 0.002162 0.019604 0.000000 0.005733 0.000000
# 4 0.000000 0.000000 0.000000 0.004549 0.000000 -0.030755
# 5 0.000212 0.000787 0.005733 0.000000 0.026117 0.000000
# 6 0.000000 0.000000 0.000000 -0.030755 0.000000 -0.026690
#
#
# Mechanical properties :
#
#
# Convention : Reuss Voigt Hill
#
# Bulk Modulus (GPa) = 32.81707 49.75298 41.28502
# Shear Modulus (GPa) = 81.91505 31.76433 56.83969
#
# Velocity S-wave (km/s) = 5.79118 3.60625 4.82404
# Velocity P-wave (km/s) = 7.62582 6.14084 6.92326
#
# Compressibility (1/GPa) = 0.03047194
#
# Stress axis : x y z
#
# Youngs Moduli (GPa) = 144.80949 82.11004 51.00961
#
# Poissons Ratio (x) = 0.08258 0.26855
# Poissons Ratio (y) = 0.14565 -0.11029
# Poissons Ratio (z) = 0.76237 -0.17753
#
# Static dielectric constant tensor:
#      x y z
#    x 2.054870 0.000000 -0.000660 
#    y 0.000000 1.980930 0.000000 
#    z -0.000660 0.000000 1.890680 
# 
# From -- ./inp_files/89524.got.cif
#   From: 2010.05.17/outbox.cif.g08.bks.cpg/sg10_45_cif.got.tgz:89524.got - 2010.06.03 11:33:40.
