data_PCOD9143049
_publ_section_title
;
Structure prediction by ZEFSAII (Michael W. Deem and Ramdas Pophale) SiO2 
 PCOD9143049
Probable space group: P 2/M
;
_chemical_formula_sum "Si O2"
_cell_formula_units_Z 28
_cell_length_a 31.175267
_cell_length_b 8.678018
_cell_length_c 10.050797
_cell_angle_alpha 90.000000
_cell_angle_beta 36.413718
_cell_angle_gamma 90.000000
_cell_volume 1614.111734
_symmetry_space_group_name_H-M "P 2/M"
_symmetry_group_IT_number 10
_symmetry_cell_setting 'monoclinic'
loop_
_space_group_symop_operation_xyz
x,y,z
-x,y,-z
-x,-y,-z
x,-y,z
loop_
_atom_site_type_symbol
_atom_site_label
_atom_site_fract_x
_atom_site_fract_y
_atom_site_fract_z
Si Si1 0.503117 0.677570 0.830680
Si Si2 0.939848 0.186520 0.543883
Si Si3 0.344042 0.685375 0.239826
Si Si4 0.654239 0.815969 0.467106
Si Si5 0.063832 0.315258 0.740394
Si Si6 0.221539 0.185130 0.354144
Si Si7 0.776004 0.186933 0.958261
O O1 0.512021 0.500000 0.766059
O O2 0.574190 0.771533 0.616232
O O3 0.500000 0.678001 0.000000
O O4 0.423712 0.735656 0.988677
O O5 0.953167 0.256322 0.365488
O O6 0.858183 0.231559 0.788992
O O7 0.000000 0.233543 0.500000
O O8 0.941325 0.000000 0.528964
O O9 0.344565 0.500000 0.240664
O O10 0.335639 0.744307 0.411846
O O11 0.280676 0.747333 0.305581
O O12 0.659126 0.000000 0.466953
O O13 0.715616 0.759155 0.212082
O O14 0.070046 0.500000 0.724507
O O15 0.140987 0.243642 0.587409
O O16 0.000000 0.270409 0.000000
O O17 0.236814 0.233676 0.162851
O O18 0.222508 0.000000 0.357461
O O19 0.773760 0.000000 0.965506
#
# Coordination Sequence:
#
# PCOD9143049 Si02
#       7
#     4   4   4   4   4   4   4
#     4   8  16  31  48  68  99 134 166 206 252 295
#     4   9  18  34  55  76 100 133 172 210 248 294
#     4  10  20  34  51  74 104 133 165 208 254 299
#     4  10  18  30  51  76 101 131 169 211 252 297
#     4  10  21  36  53  76 106 135 165 205 252 299
#     4  10  20  36  56  75  99 133 171 207 247 298
#     4   8  17  33  50  73 103 130 162 208 255 295
#
# _framework density 17.347000999999999
#
# number of rings (size 3 to 8) (size 9 to 14) (size 15 to 20)
#    0.000    2.714    0.000    3.429    0.000    5.714 
#    0.000    9.286    0.000    4.286    0.000    0.000 
#    0.000    0.000    0.000    0.000    0.000    0.000 
#
# Total GULP energy -156081.910941 kJ/mol
# GULP energy per Si atom -5574.353962 kJ/mol
# Density = 1.730752 g / cm^3
# Si number density = 17.347001 Si / 1000 Ang^3
#
#
#
# Elastic Constant Matrix: (Units=GPa)
#
#
# Indices 1 2 3 4 5 6 
#
# 1 152.9077 38.5294 89.6175 0.0000 -28.9482 0.0000
# 2 38.5294 41.2050 40.7170 0.0000 -8.2473 0.0000
# 3 89.6175 40.7170 164.8358 0.0000 -20.7969 0.0000
# 4 0.0000 0.0000 0.0000 11.8960 0.0000 -15.6936
# 5 -28.9482 -8.2473 -20.7969 0.0000 13.4405 0.0000
# 6 0.0000 0.0000 0.0000 -15.6936 0.0000 14.6091
#
#
#
# Elastic Compliance Matrix: (Units=1/GPa)
#
#
# Indices 1 2 3 4 5 6 
#
# 1 0.014050 -0.005257 -0.003640 0.000000 0.021403 0.000000
# 2 -0.005257 0.035022 -0.005604 0.000000 0.001496 0.000000
# 3 -0.003640 -0.005604 0.009949 0.000000 0.004117 0.000000
# 4 0.000000 0.000000 0.000000 -0.201503 0.000000 -0.216462
# 5 0.021403 0.001496 0.004117 0.000000 0.127787 0.000000
# 6 0.000000 0.000000 0.000000 -0.216462 0.000000 -0.164081
#
#
# Mechanical properties :
#
#
# Convention : Reuss Voigt Hill
#
# Bulk Modulus (GPa) = 33.31217 77.40847 55.36032
# Shear Modulus (GPa) = -35.77331 20.66141 -7.55595
#
# Velocity S-wave (km/s) = -4.54609 3.45493 -2.08931
# Velocity P-wave (km/s) = 2.88285 7.78690 5.11493
#
# Compressibility (1/GPa) = 0.03001906
#
# Stress axis : x y z
#
# Youngs Moduli (GPa) = 71.17672 28.55373 100.51162
#
# Poissons Ratio (x) = 0.15011 0.36582
# Poissons Ratio (y) = 0.37418 0.56327
# Poissons Ratio (z) = 0.25905 0.16002
#
# Static dielectric constant tensor:
#      x y z
#    x 1.574750 0.000000 -0.017860 
#    y 0.000000 1.587170 0.000000 
#    z -0.017860 0.000000 1.588250 
# 
# From -- ./inp_files/37967.got.cif
#   From: 2010.05.17/outbox.cif.g08.bks.cpg/sg10_19_cif.got.tgz:37967.got - 2010.06.03 11:33:40.
