data_PCOD9143862
_publ_section_title
;
Structure prediction by ZEFSAII (Michael W. Deem and Ramdas Pophale) SiO2 
 PCOD9143862
Probable space group: P 2/M
;
_chemical_formula_sum "Si O2"
_cell_formula_units_Z 32
_cell_length_a 31.411558
_cell_length_b 7.459244
_cell_length_c 12.407535
_cell_angle_alpha 90.000000
_cell_angle_beta 28.216919
_cell_angle_gamma 90.000000
_cell_volume 1374.539927
_symmetry_space_group_name_H-M "P 2/M"
_symmetry_group_IT_number 10
_symmetry_cell_setting 'monoclinic'
loop_
_space_group_symop_operation_xyz
x,y,z
-x,y,-z
-x,-y,-z
x,-y,z
loop_
_atom_site_type_symbol
_atom_site_label
_atom_site_fract_x
_atom_site_fract_y
_atom_site_fract_z
Si Si1 0.586145 0.209340 0.743613
Si Si2 0.579381 0.203105 0.186493
Si Si3 0.664334 0.702645 0.782541
Si Si4 0.256524 0.781256 0.033954
Si Si5 0.031456 0.782398 0.099758
Si Si6 0.386828 0.219243 0.558505
Si Si7 0.139891 0.216192 0.663413
Si Si8 0.048726 0.219531 0.500981
O O1 0.661338 0.224001 0.667901
O O2 0.609979 0.281968 0.572796
O O3 0.566677 0.000000 0.769047
O O4 0.500000 0.286262 0.000000
O O5 0.666473 0.281411 0.053045
O O6 0.478646 0.280705 0.413905
O O7 0.572010 0.000000 0.244114
O O8 0.604035 0.198148 0.004553
O O9 0.632619 0.500000 0.853059
O O10 0.767345 0.711783 0.587258
O O11 0.299139 0.732444 0.822886
O O12 0.253176 0.000000 0.049727
O O13 0.153238 0.721941 0.278203
O O14 0.942635 0.736579 0.229380
O O15 0.012563 0.721126 0.261982
O O16 0.037121 0.000000 0.089563
O O17 0.114582 0.722142 0.840653
O O18 0.389179 0.000000 0.552887
O O19 0.146555 0.000000 0.648230
O O20 0.000000 0.274060 0.500000
O O21 0.050721 0.000000 0.498047
#
# Coordination Sequence:
#
# PCOD9143862 Si02
#       8
#     4   4   4   4   4   4   4   4
#     4  10  19  35  55  75 102 138 178 215 257 309
#     4  10  18  33  55  76 103 137 176 220 266 312
#     4  12  24  34  49  77 110 142 179 216 264 316
#     4   9  17  28  49  81 108 132 167 217 266 310
#     4   8  15  29  50  75 100 131 171 215 262 312
#     4   9  17  30  51  79 105 131 172 221 267 311
#     4   9  17  32  54  76  99 131 175 221 264 308
#     4   9  16  25  39  67 108 139 158 194 258 320
#
# _framework density 23.280519000000002
#
# number of rings (size 3 to 8) (size 9 to 14) (size 15 to 20)
#    0.000    2.500    1.250    3.000    0.000    4.750 
#    0.000    5.000    0.000    2.250    0.000    0.000 
#    0.000    3.500    0.000    0.000    0.000    0.000 
#
# Total GULP energy -178617.171135 kJ/mol
# GULP energy per Si atom -5581.786598 kJ/mol
# Density = 2.322753 g / cm^3
# Si number density = 23.280519 Si / 1000 Ang^3
#
#
#
# Elastic Constant Matrix: (Units=GPa)
#
#
# Indices 1 2 3 4 5 6 
#
# 1 75.5718 2.9677 5.3003 0.0000 28.3211 0.0000
# 2 2.9677 67.5855 5.5615 0.0000 3.9773 0.0000
# 3 5.3003 5.5615 77.6824 0.0000 13.7579 0.0000
# 4 0.0000 0.0000 0.0000 -101.6947 0.0000 33.7728
# 5 28.3211 3.9773 13.7579 0.0000 40.3752 0.0000
# 6 0.0000 0.0000 0.0000 33.7728 0.0000 -37.5905
#
#
#
# Elastic Compliance Matrix: (Units=1/GPa)
#
#
# Indices 1 2 3 4 5 6 
#
# 1 0.018036 -0.000115 0.001082 0.000000 -0.013009 0.000000
# 2 -0.000115 0.014937 -0.000868 0.000000 -0.001095 0.000000
# 3 0.001082 -0.000868 0.013814 0.000000 -0.005380 0.000000
# 4 0.000000 0.000000 0.000000 -0.014015 0.000000 -0.012592
# 5 -0.013009 -0.001095 -0.005380 0.000000 0.035834 0.000000
# 6 0.000000 0.000000 0.000000 -0.012592 0.000000 -0.037915
#
#
# Mechanical properties :
#
#
# Convention : Reuss Voigt Hill
#
# Bulk Modulus (GPa) = 21.28372 27.61097 24.44735
# Shear Modulus (GPa) = 108.33034 -5.98133 51.17450
#
# Velocity S-wave (km/s) = 6.82888 -1.60463 4.69355
# Velocity P-wave (km/s) = 8.44632 2.90736 6.31637
#
# Compressibility (1/GPa) = 0.04698426
#
# Stress axis : x y z
#
# Youngs Moduli (GPa) = 55.44410 66.94798 72.38957
#
# Poissons Ratio (x) = 0.00773 -0.07829
# Poissons Ratio (y) = 0.00640 0.06281
# Poissons Ratio (z) = -0.05997 0.05808
#
# Static dielectric constant tensor:
#      x y z
#    x 1.912700 0.000000 0.005880 
#    y 0.000000 1.936090 0.000000 
#    z 0.005880 0.000000 1.857910 
# 
# From -- ./inp_files/58123.got.cif
#   From: 2010.05.17/outbox.cif.g08.bks.cpg/sg10_30_cif.got.tgz:58123.got - 2010.06.03 11:33:40.
