data_PCOD9143103
_publ_section_title
;
Structure prediction by ZEFSAII (Michael W. Deem and Ramdas Pophale) SiO2 
 PCOD9143103
Probable space group: P 2/M
;
_chemical_formula_sum "Si O2"
_cell_formula_units_Z 30
_cell_length_a 13.736636
_cell_length_b 9.594375
_cell_length_c 12.849692
_cell_angle_alpha 90.000000
_cell_angle_beta 71.648957
_cell_angle_gamma 90.000000
_cell_volume 1607.394704
_symmetry_space_group_name_H-M "P 2/M"
_symmetry_group_IT_number 10
_symmetry_cell_setting 'monoclinic'
loop_
_space_group_symop_operation_xyz
x,y,z
-x,y,-z
-x,-y,-z
x,-y,z
loop_
_atom_site_type_symbol
_atom_site_label
_atom_site_fract_x
_atom_site_fract_y
_atom_site_fract_z
Si Si1 0.954939 0.345302 0.244453
Si Si2 0.317387 0.667270 0.293348
Si Si3 0.767130 0.835369 0.071011
Si Si4 0.000000 0.735409 0.000000
Si Si5 0.386118 0.658947 0.494514
Si Si6 0.242670 0.832733 0.691565
Si Si7 0.619935 0.832632 0.932902
Si Si8 0.912201 0.665652 0.605877
O O1 0.914641 0.500000 0.285174
O O2 0.985182 0.343778 0.113555
O O3 0.870193 0.228348 0.291385
O O4 0.049672 0.318128 0.288800
O O5 0.314506 0.500000 0.272818
O O6 0.385857 0.691024 0.372123
O O7 0.353311 0.750413 0.180765
O O8 0.203177 0.717004 0.364565
O O9 0.733920 0.784618 0.197169
O O10 0.750124 0.000000 0.077714
O O11 0.696904 0.782775 0.999637
O O12 0.890265 0.812702 0.021401
O O13 0.500000 0.662016 0.500000
O O14 0.345083 0.500000 0.518965
O O15 0.317889 0.764008 0.583694
O O16 0.244135 0.000000 0.686781
O O17 0.634343 0.000000 0.914021
O O18 0.500000 0.810462 0.000000
O O19 0.906375 0.500000 0.585355
O O20 0.000000 0.723889 0.500000
#
# Coordination Sequence:
#
# PCOD9143103 Si02
#       8
#     4   4   4   2   4   4   4   4
#     4  10  19  32  52  78 111 144 181 225 274 328
#     4  10  21  38  59  85 115 146 188 235 283 339
#     4   9  19  35  54  80 113 150 188 232 285 335
#     4  10  18  30  52  80 111 144 187 232 279 336
#     4  10  22  39  59  82 110 142 180 230 287 335
#     4  10  21  36  56  82 111 146 188 228 273 330
#     4  10  22  39  59  81 112 152 195 237 283 337
#     4   9  17  31  54  80 108 146 182 219 274 338
#
# _framework density 18.663741999999999
#
# number of rings (size 3 to 8) (size 9 to 14) (size 15 to 20)
#    0.000    2.267    0.000    2.400    1.867    3.733 
#    0.000    4.000    0.000    1.600    0.000    0.000 
#    0.000    0.000    0.000    0.000    0.000    0.000 
#
# Total GULP energy -167199.939168 kJ/mol
# GULP energy per Si atom -5573.331306 kJ/mol
# Density = 1.862126 g / cm^3
# Si number density = 18.663742 Si / 1000 Ang^3
#
#
#
# Elastic Constant Matrix: (Units=GPa)
#
#
# Indices 1 2 3 4 5 6 
#
# 1 80.6498 11.4898 31.8252 0.0000 20.4245 0.0000
# 2 11.4898 41.2559 25.3730 0.0000 5.4475 0.0000
# 3 31.8252 25.3730 75.7576 0.0000 10.5498 0.0000
# 4 0.0000 0.0000 0.0000 31.4417 0.0000 0.4853
# 5 20.4245 5.4475 10.5498 0.0000 29.5235 0.0000
# 6 0.0000 0.0000 0.0000 0.4853 0.0000 19.1280
#
#
#
# Elastic Compliance Matrix: (Units=1/GPa)
#
#
# Indices 1 2 3 4 5 6 
#
# 1 0.017193 0.000137 -0.005903 0.000000 -0.009811 0.000000
# 2 0.000137 0.030650 -0.010021 0.000000 -0.002169 0.000000
# 3 -0.005903 -0.010021 0.019163 0.000000 -0.000915 0.000000
# 4 0.000000 0.000000 0.000000 0.031817 0.000000 -0.000807
# 5 -0.009811 -0.002169 -0.000915 0.000000 0.041386 0.000000
# 6 0.000000 0.000000 0.000000 -0.000807 0.000000 0.052300
#
#
# Mechanical properties :
#
#
# Convention : Reuss Voigt Hill
#
# Bulk Modulus (GPa) = 28.22127 37.22659 32.72393
# Shear Modulus (GPa) = 21.19594 24.61700 22.90647
#
# Velocity S-wave (km/s) = 3.37363 3.63571 3.50712
# Velocity P-wave (km/s) = 5.50717 6.13300 5.82849
#
# Compressibility (1/GPa) = 0.03543427
#
# Stress axis : x y z
#
# Youngs Moduli (GPa) = 58.16158 32.62615 52.18292
#
# Poissons Ratio (x) = -0.00448 0.30801
# Poissons Ratio (y) = -0.00798 0.52293
# Poissons Ratio (z) = 0.34330 0.32695
#
# Static dielectric constant tensor:
#      x y z
#    x 1.677020 0.000000 0.009210 
#    y 0.000000 1.630030 0.000000 
#    z 0.009210 0.000000 1.647610 
# 
# From -- ./inp_files/49733.got.cif
#   From: 2010.05.17/outbox.cif.g08.bks.cpg/sg10_25_cif.got.tgz:49733.got - 2010.06.03 11:33:40.
