data_PCOD9143719
_publ_section_title
;
Structure prediction by ZEFSAII (Michael W. Deem and Ramdas Pophale) SiO2 
 PCOD9143719
Probable space group: P 2/M
;
_chemical_formula_sum "Si O2"
_cell_formula_units_Z 28
_cell_length_a 8.784426
_cell_length_b 19.431139
_cell_length_c 13.903538
_cell_angle_alpha 90.000000
_cell_angle_beta 135.834365
_cell_angle_gamma 90.000000
_cell_volume 1653.501506
_symmetry_space_group_name_H-M "P 2/M"
_symmetry_group_IT_number 10
_symmetry_cell_setting 'monoclinic'
loop_
_space_group_symop_operation_xyz
x,y,z
-x,y,-z
-x,-y,-z
x,-y,z
loop_
_atom_site_type_symbol
_atom_site_label
_atom_site_fract_x
_atom_site_fract_y
_atom_site_fract_z
Si Si1 0.111225 0.296198 0.712724
Si Si2 0.245760 0.075350 0.861827
Si Si3 0.244929 0.423510 0.654645
Si Si4 0.222388 0.153794 0.657186
Si Si5 0.637919 0.218136 0.784035
Si Si6 0.885441 0.785505 0.092135
Si Si7 0.393305 0.336831 0.555447
O O1 0.238646 0.363755 0.732573
O O2 0.192770 0.230440 0.689026
O O3 0.132891 0.272114 0.832883
O O4 0.855097 0.310362 0.574373
O O5 0.230021 0.098151 0.744478
O O6 0.161204 0.139651 0.884586
O O7 0.145153 0.000000 0.834310
O O8 0.500000 0.070897 0.000000
O O9 0.301107 0.500000 0.714979
O O10 0.385645 0.400378 0.626125
O O11 0.000000 0.425478 0.500000
O O12 0.451888 0.158838 0.704387
O O13 0.000000 0.141237 0.500000
O O14 0.524350 0.278976 0.673193
O O15 0.868817 0.207988 0.836046
O O16 0.715044 0.230473 0.929275
O O17 0.500000 0.350610 0.500000
#
# Coordination Sequence:
#
# PCOD9143719 Si02
#       7
#     4   4   4   4   4   4   4
#     4  10  18  32  55  82 105 142 180 228 276 311
#     4  10  21  38  56  79 111 148 187 226 270 330
#     4   9  18  32  51  78 112 143 182 227 269 326
#     4  11  19  33  58  81 108 141 182 234 269 321
#     4  11  20  35  53  86 109 138 184 225 279 329
#     4  10  22  35  56  82 112 142 180 232 276 325
#     4  11  19  32  53  81 113 139 179 226 279 323
#
# _framework density 16.933761000000001
#
# number of rings (size 3 to 8) (size 9 to 14) (size 15 to 20)
#    0.000    1.714    5.714    0.429    0.000    0.571 
#    0.000    2.143    0.000    2.571    0.000    2.000 
#    0.000    0.000    0.000    0.000    0.000    0.000 
#
# Total GULP energy -155937.642858 kJ/mol
# GULP energy per Si atom -5569.201531 kJ/mol
# Density = 1.689522 g / cm^3
# Si number density = 16.933761 Si / 1000 Ang^3
#
#
#
# Elastic Constant Matrix: (Units=GPa)
#
#
# Indices 1 2 3 4 5 6 
#
# 1 97.5686 41.4078 44.7716 0.0000 -11.5219 0.0000
# 2 41.4078 107.1875 38.4233 0.0000 -20.6773 0.0000
# 3 44.7716 38.4233 99.9188 0.0000 -9.5734 0.0000
# 4 0.0000 0.0000 0.0000 12.4747 0.0000 -0.8808
# 5 -11.5219 -20.6773 -9.5734 0.0000 25.3183 0.0000
# 6 0.0000 0.0000 0.0000 -0.8808 0.0000 12.9899
#
#
#
# Elastic Compliance Matrix: (Units=1/GPa)
#
#
# Indices 1 2 3 4 5 6 
#
# 1 0.014122 -0.003357 -0.004860 0.000000 0.001847 0.000000
# 2 -0.003357 0.013209 -0.002789 0.000000 0.008205 0.000000
# 3 -0.004860 -0.002789 0.013310 0.000000 0.000543 0.000000
# 4 0.000000 0.000000 0.000000 0.080548 0.000000 0.005462
# 5 0.001847 0.008205 0.000543 0.000000 0.047245 0.000000
# 6 0.000000 0.000000 0.000000 0.005462 0.000000 0.077353
#
#
# Mechanical properties :
#
#
# Convention : Reuss Voigt Hill
#
# Bulk Modulus (GPa) = 53.67847 61.54228 57.61038
# Shear Modulus (GPa) = 18.24756 22.16139 20.20448
#
# Velocity S-wave (km/s) = 3.28622 3.62154 3.45794
# Velocity P-wave (km/s) = 6.79462 7.34229 7.07376
#
# Compressibility (1/GPa) = 0.01862944
#
# Stress axis : x y z
#
# Youngs Moduli (GPa) = 70.81064 75.70614 75.12954
#
# Poissons Ratio (x) = 0.25415 0.36512
# Poissons Ratio (y) = 0.23771 0.20954
# Poissons Ratio (z) = 0.34413 0.21115
#
# Static dielectric constant tensor:
#      x y z
#    x 1.601620 0.000000 0.003540 
#    y 0.000000 1.574500 0.000000 
#    z 0.003540 0.000000 1.466010 
# 
# From -- ./inp_files/19948.got.cif
#   From: 2010.05.17/outbox.cif.g08.bks.cpg/sg10_10_cif.got.tgz:19948.got - 2010.06.03 11:33:40.
