data_PCOD9143884
_publ_section_title
;
Structure prediction by ZEFSAII (Michael W. Deem and Ramdas Pophale) SiO2 
 PCOD9143884
Probable space group: P 2/M
;
_chemical_formula_sum "Si O2"
_cell_formula_units_Z 28
_cell_length_a 22.481030
_cell_length_b 8.593830
_cell_length_c 12.738727
_cell_angle_alpha 90.000000
_cell_angle_beta 138.492505
_cell_angle_gamma 90.000000
_cell_volume 1631.014307
_symmetry_space_group_name_H-M "P 2/M"
_symmetry_group_IT_number 10
_symmetry_cell_setting 'monoclinic'
loop_
_space_group_symop_operation_xyz
x,y,z
-x,y,-z
-x,-y,-z
x,-y,z
loop_
_atom_site_type_symbol
_atom_site_label
_atom_site_fract_x
_atom_site_fract_y
_atom_site_fract_z
Si Si1 0.218593 0.310691 0.919098
Si Si2 0.401201 0.183999 0.480966
Si Si3 0.905802 0.312502 0.433416
Si Si4 0.091950 0.815776 0.329492
Si Si5 0.222761 0.685639 0.331115
Si Si6 0.407378 0.313615 0.254936
Si Si7 0.896501 0.688066 0.029206
O O1 0.218057 0.500000 0.919593
O O2 0.172798 0.262519 0.750073
O O3 0.156953 0.262930 0.936460
O O4 0.320757 0.261839 0.074377
O O5 0.318919 0.234314 0.444709
O O6 0.389772 0.268471 0.353140
O O7 0.498479 0.236495 0.651081
O O8 0.401092 0.000000 0.463369
O O9 0.901719 0.500000 0.442260
O O10 0.902082 0.234024 0.541305
O O11 0.000000 0.279014 0.500000
O O12 0.169229 0.735355 0.363345
O O13 0.995087 0.759710 0.159546
O O14 0.099155 0.000000 0.328522
O O15 0.234653 0.500000 0.343928
O O16 0.161524 0.729941 0.149465
O O17 0.415788 0.500000 0.259591
O O18 0.905405 0.500000 0.043268
#
# Coordination Sequence:
#
# PCOD9143884 Si02
#       7
#     4   4   4   4   4   4   4
#     4   9  17  32  57  84 107 137 185 233 266 306
#     4  11  21  33  51  81 116 145 175 221 279 329
#     4  10  19  36  60  79 103 143 189 230 266 311
#     4  12  25  37  51  79 116 148 181 223 274 327
#     4  11  22  38  59  79 105 147 190 225 267 325
#     4  10  18  33  55  81 110 145 186 224 265 322
#     4  10  19  36  57  80 107 144 187 224 264 319
#
# _framework density 17.167233
#
# number of rings (size 3 to 8) (size 9 to 14) (size 15 to 20)
#    0.000    1.571    2.857    4.714    0.000    3.143 
#    0.000    1.429    0.000    0.857    0.000    6.000 
#    0.000    0.000    0.000    0.000    0.000    0.000 
#
# Total GULP energy -156404.977290 kJ/mol
# GULP energy per Si atom -5585.892046 kJ/mol
# Density = 1.712816 g / cm^3
# Si number density = 17.167233 Si / 1000 Ang^3
#
#
#
# Elastic Constant Matrix: (Units=GPa)
#
#
# Indices 1 2 3 4 5 6 
#
# 1 95.1284 13.8249 35.6406 0.0000 15.5027 0.0000
# 2 13.8249 30.7067 15.4211 0.0000 1.2377 0.0000
# 3 35.6406 15.4211 79.2397 0.0000 23.5603 0.0000
# 4 0.0000 0.0000 0.0000 -251.9031 0.0000 -394.1108
# 5 15.5027 1.2377 23.5603 0.0000 28.4678 0.0000
# 6 0.0000 0.0000 0.0000 -394.1108 0.0000 -608.0735
#
#
#
# Elastic Compliance Matrix: (Units=1/GPa)
#
#
# Indices 1 2 3 4 5 6 
#
# 1 0.013189 -0.003714 -0.004141 0.000000 -0.003594 0.000000
# 2 -0.003714 0.037833 -0.007699 0.000000 0.006749 0.000000
# 3 -0.004141 -0.007699 0.020175 0.000000 -0.014108 0.000000
# 4 0.000000 0.000000 0.000000 0.283124 0.000000 -0.183502
# 5 -0.003594 0.006749 -0.014108 0.000000 0.048467 0.000000
# 6 0.000000 0.000000 0.000000 -0.183502 0.000000 0.117288
#
#
# Mechanical properties :
#
#
# Convention : Reuss Voigt Hill
#
# Bulk Modulus (GPa) = 24.94411 37.20535 31.07473
# Shear Modulus (GPa) = 8.85666 -156.95588 -74.04961
#
# Velocity S-wave (km/s) = 2.27382 -9.57215 -6.57479
# Velocity P-wave (km/s) = 4.63198 10.02241 6.28464
#
# Compressibility (1/GPa) = 0.04008963
#
# Stress axis : x y z
#
# Youngs Moduli (GPa) = 75.82150 26.43214 49.56515
#
# Poissons Ratio (x) = 0.09816 0.20524
# Poissons Ratio (y) = 0.28157 0.38162
# Poissons Ratio (z) = 0.31397 0.20351
#
# Static dielectric constant tensor:
#      x y z
#    x 1.560190 0.000000 0.011130 
#    y 0.000000 1.577390 0.000000 
#    z 0.011130 0.000000 1.579160 
# 
# From -- ./inp_files/55015.got.cif
#   From: 2010.05.17/outbox.cif.g08.bks.cpg/sg10_28_cif.got.tgz:55015.got - 2010.06.03 11:33:40.
