data_PCOD9143363
_publ_section_title
;
Structure prediction by ZEFSAII (Michael W. Deem and Ramdas Pophale) SiO2 
 PCOD9143363
Probable space group: P 2/M
;
_chemical_formula_sum "Si O2"
_cell_formula_units_Z 32
_cell_length_a 11.068055
_cell_length_b 14.881452
_cell_length_c 9.327976
_cell_angle_alpha 90.000000
_cell_angle_beta 89.327177
_cell_angle_gamma 90.000000
_cell_volume 1536.293142
_symmetry_space_group_name_H-M "P 2/M"
_symmetry_group_IT_number 10
_symmetry_cell_setting 'monoclinic'
loop_
_space_group_symop_operation_xyz
x,y,z
-x,y,-z
-x,-y,-z
x,-y,z
loop_
_atom_site_type_symbol
_atom_site_label
_atom_site_fract_x
_atom_site_fract_y
_atom_site_fract_z
Si Si1 0.824371 0.401436 0.982139
Si Si2 0.400521 0.343964 0.177444
Si Si3 0.272104 0.668828 0.467911
Si Si4 0.885612 0.106245 0.098185
Si Si5 0.039992 0.604911 0.300691
Si Si6 0.659523 0.668567 0.217781
Si Si7 0.903815 0.213730 0.392496
Si Si8 0.627060 0.172562 0.030600
O O1 0.856825 0.500000 0.032400
O O2 0.703386 0.405139 0.886513
O O3 0.923474 0.372563 0.864628
O O4 0.778422 0.347965 0.120449
O O5 0.373322 0.327854 0.344977
O O6 0.537415 0.377324 0.161082
O O7 0.378095 0.251963 0.088547
O O8 0.161597 0.614746 0.395581
O O9 0.319001 0.636902 0.621448
O O10 0.215665 0.765185 0.513813
O O11 0.888110 0.157896 0.249269
O O12 0.898292 0.000000 0.122270
O O13 0.755642 0.123893 0.024914
O O14 0.000000 0.136319 0.000000
O O15 0.000993 0.500000 0.312423
O O16 0.954679 0.686246 0.351399
O O17 0.627764 0.773162 0.183298
O O18 0.000000 0.171782 0.500000
O O19 0.500000 0.122728 0.000000
#
# Coordination Sequence:
#
# PCOD9143363 Si02
#       8
#     4   4   4   4   4   4   4   4
#     4   9  18  32  50  73 107 153 198 248 306 359
#     4   9  19  32  54  79 113 153 199 248 299 366
#     4  10  19  32  53  81 109 156 198 249 304 355
#     4  11  25  41  64  97 127 157 205 262 315 376
#     4   9  20  37  55  81 116 158 205 254 307 368
#     4  10  18  31  52  85 110 149 206 248 297 363
#     4  10  22  37  62  85 118 169 199 245 316 371
#     4   9  19  38  63  88 118 160 200 248 308 370
#
# _framework density 20.829357000000002
#
# number of rings (size 3 to 8) (size 9 to 14) (size 15 to 20)
#    0.000    2.375    1.250    1.500    7.000    4.250 
#    0.000    0.000    0.000    5.625    0.000    1.750 
#    0.000    0.000    0.000    0.000    0.000    0.000 
#
# Total GULP energy -178271.187049 kJ/mol
# GULP energy per Si atom -5570.974595 kJ/mol
# Density = 2.078195 g / cm^3
# Si number density = 20.829357 Si / 1000 Ang^3
#
#
#
# Elastic Constant Matrix: (Units=GPa)
#
#
# Indices 1 2 3 4 5 6 
#
# 1 102.3661 15.6121 38.2121 0.0000 7.2034 0.0000
# 2 15.6121 50.7614 22.0091 0.0000 0.8345 0.0000
# 3 38.2121 22.0091 146.6261 0.0000 7.9261 0.0000
# 4 0.0000 0.0000 0.0000 6.3151 0.0000 8.3728
# 5 7.2034 0.8345 7.9261 0.0000 41.4018 0.0000
# 6 0.0000 0.0000 0.0000 8.3728 0.0000 -1.3685
#
#
#
# Elastic Compliance Matrix: (Units=1/GPa)
#
#
# Indices 1 2 3 4 5 6 
#
# 1 0.011150 -0.002331 -0.002479 0.000000 -0.001418 0.000000
# 2 -0.002331 0.021560 -0.002655 0.000000 0.000479 0.000000
# 3 -0.002479 -0.002655 0.007920 0.000000 -0.001031 0.000000
# 4 0.000000 0.000000 0.000000 0.017378 0.000000 0.106327
# 5 -0.001418 0.000479 -0.001031 0.000000 0.024588 0.000000
# 6 0.000000 0.000000 0.000000 0.106327 0.000000 -0.080196
#
#
# Mechanical properties :
#
#
# Convention : Reuss Voigt Hill
#
# Bulk Modulus (GPa) = 38.90971 50.15780 44.53375
# Shear Modulus (GPa) = 193.07728 24.19771 108.63749
#
# Velocity S-wave (km/s) = 9.63826 3.41209 7.22974
# Velocity P-wave (km/s) = 11.94078 6.29728 9.54562
#
# Compressibility (1/GPa) = 0.02570053
#
# Stress axis : x y z
#
# Youngs Moduli (GPa) = 89.68935 46.38212 126.25639
#
# Poissons Ratio (x) = 0.10811 0.31301
# Poissons Ratio (y) = 0.20906 0.33517
# Poissons Ratio (z) = 0.22235 0.12313
#
# Static dielectric constant tensor:
#      x y z
#    x 1.861210 0.000000 0.017790 
#    y 0.000000 1.738260 0.000000 
#    z 0.017790 0.000000 1.810510 
# 
# From -- ./inp_files/25334.got.cif
#   From: 2010.05.17/outbox.cif.g08.bks.cpg/sg10_13_cif.got.tgz:25334.got - 2010.06.03 11:33:40.
