data_PCOD9143545
_publ_section_title
;
Structure prediction by ZEFSAII (Michael W. Deem and Ramdas Pophale) SiO2 
 PCOD9143545
Probable space group: P 2/M
;
_chemical_formula_sum "Si O2"
_cell_formula_units_Z 28
_cell_length_a 25.394343
_cell_length_b 7.506307
_cell_length_c 19.910161
_cell_angle_alpha 90.000000
_cell_angle_beta 21.380656
_cell_angle_gamma 90.000000
_cell_volume 1383.598169
_symmetry_space_group_name_H-M "P 2/M"
_symmetry_group_IT_number 10
_symmetry_cell_setting 'monoclinic'
loop_
_space_group_symop_operation_xyz
x,y,z
-x,y,-z
-x,-y,-z
x,-y,z
loop_
_atom_site_type_symbol
_atom_site_label
_atom_site_fract_x
_atom_site_fract_y
_atom_site_fract_z
Si Si1 0.347923 0.717496 0.147374
Si Si2 0.030461 0.709586 0.544132
Si Si3 0.715122 0.281364 0.932052
Si Si4 0.589389 0.215479 0.327082
Si Si5 0.140907 0.217735 0.918442
Si Si6 0.824789 0.790753 0.273190
Si Si7 0.474809 0.298227 0.318141
O O1 0.347178 0.500000 0.151189
O O2 0.193548 0.778876 0.362679
O O3 0.333821 0.766203 0.085412
O O4 0.500000 0.775431 0.000000
O O5 0.036617 0.500000 0.554051
O O6 0.000000 0.721253 0.500000
O O7 0.879078 0.781423 0.753166
O O8 0.721850 0.500000 0.925795
O O9 0.594994 0.216238 0.126979
O O10 0.500000 0.263143 0.500000
O O11 0.751377 0.273989 0.151525
O O12 0.532170 0.291091 0.326008
O O13 0.578899 0.000000 0.333225
O O14 0.195257 0.275962 0.779636
O O15 0.146984 0.000000 0.912565
O O16 0.976566 0.279542 0.120177
O O17 0.687355 0.771812 0.483323
O O18 0.847960 0.000000 0.236650
O O19 0.459496 0.500000 0.313278
#
# Coordination Sequence:
#
# PCOD9143545 Si02
#       7
#     4   4   4   4   4   4   4
#     4   8  12  20  38  60  77 104 152 194 213 242
#     4   7  10  19  35  51  71 104 143 176 206 247
#     4   8  15  26  36  53  87 122 146 175 221 270
#     4  10  18  32  52  69  84 111 157 205 234 261
#     4   8  15  29  51  70  81 103 150 205 240 262
#     4   9  16  31  51  67  84 113 154 194 232 274
#     4  11  21  30  42  66 101 131 149 179 235 290
#
# _framework density 20.237089000000001
#
# number of rings (size 3 to 8) (size 9 to 14) (size 15 to 20)
#    0.000    3.286    1.429    3.000    0.000    0.286 
#    0.000    3.571    0.000    3.429    0.000    0.000 
#    0.000   22.857    0.000    0.000    0.000    0.571 
#
# Total GULP energy -155876.231295 kJ/mol
# GULP energy per Si atom -5567.008261 kJ/mol
# Density = 2.019103 g / cm^3
# Si number density = 20.237089 Si / 1000 Ang^3
#
#
#
# Elastic Constant Matrix: (Units=GPa)
#
#
# Indices 1 2 3 4 5 6 
#
# 1 47.0436 -3.5209 56.9436 0.0000 -18.2467 0.0000
# 2 -3.5209 44.0422 1.3815 0.0000 -1.9303 0.0000
# 3 56.9436 1.3815 196.9385 0.0000 -16.2369 0.0000
# 4 0.0000 0.0000 0.0000 11.0568 0.0000 8.4456
# 5 -18.2467 -1.9303 -16.2369 0.0000 36.1713 0.0000
# 6 0.0000 0.0000 0.0000 8.4456 0.0000 -4.4856
#
#
#
# Elastic Compliance Matrix: (Units=1/GPa)
#
#
# Indices 1 2 3 4 5 6 
#
# 1 0.040292 0.004243 -0.010369 0.000000 0.015897 0.000000
# 2 0.004243 0.023206 -0.001154 0.000000 0.002861 0.000000
# 3 -0.010369 -0.001154 0.007942 0.000000 -0.001727 0.000000
# 4 0.000000 0.000000 0.000000 0.037094 0.000000 0.069842
# 5 0.015897 0.002861 -0.001727 0.000000 0.035043 0.000000
# 6 0.000000 0.000000 0.000000 0.069842 0.000000 -0.091436
#
#
# Mechanical properties :
#
#
# Convention : Reuss Voigt Hill
#
# Bulk Modulus (GPa) = 17.58095 44.18141 30.88118
# Shear Modulus (GPa) = 58.36974 24.09651 41.23313
#
# Velocity S-wave (km/s) = 5.37639 3.45441 4.51877
# Velocity P-wave (km/s) = 6.87365 6.14735 6.52062
#
# Compressibility (1/GPa) = 0.05687976
#
# Stress axis : x y z
#
# Youngs Moduli (GPa) = 24.81897 43.09176 125.91919
#
# Poissons Ratio (x) = -0.18284 1.30569
# Poissons Ratio (y) = -0.10531 0.14528
# Poissons Ratio (z) = 0.25735 0.04972
#
# Static dielectric constant tensor:
#      x y z
#    x 1.684280 0.000000 -0.020960 
#    y 0.000000 1.778860 0.000000 
#    z -0.020960 0.000000 1.790400 
# 
# From -- ./inp_files/86667.got.cif
#   From: 2010.05.17/outbox.cif.g08.bks.cpg/sg10_44_cif.got.tgz:86667.got - 2010.06.03 11:33:40.
