data_PCOD9143564
_publ_section_title
;
Structure prediction by ZEFSAII (Michael W. Deem and Ramdas Pophale) SiO2 
 PCOD9143564
Probable space group: P 2/M
;
_chemical_formula_sum "Si O2"
_cell_formula_units_Z 28
_cell_length_a 32.465587
_cell_length_b 8.790766
_cell_length_c 9.927303
_cell_angle_alpha 90.000000
_cell_angle_beta 34.718884
_cell_angle_gamma 90.000000
_cell_volume 1613.665318
_symmetry_space_group_name_H-M "P 2/M"
_symmetry_group_IT_number 10
_symmetry_cell_setting 'monoclinic'
loop_
_space_group_symop_operation_xyz
x,y,z
-x,y,-z
-x,-y,-z
x,-y,z
loop_
_atom_site_type_symbol
_atom_site_label
_atom_site_fract_x
_atom_site_fract_y
_atom_site_fract_z
Si Si1 0.185884 0.818544 0.332522
Si Si2 0.417011 0.316950 0.725215
Si Si3 0.261403 0.683667 0.626899
Si Si4 0.301910 0.818021 0.237877
Si Si5 0.099480 0.684688 0.124913
Si Si6 0.054425 0.316640 0.549988
Si Si7 0.300978 0.317461 0.818482
O O1 0.229553 0.770710 0.349152
O O2 0.106732 0.750640 0.521839
O O3 0.182168 0.000000 0.339936
O O4 0.236294 0.760543 0.074498
O O5 0.500000 0.266205 0.500000
O O6 0.415987 0.500000 0.744239
O O7 0.374451 0.281591 0.701021
O O8 0.369616 0.245038 0.971562
O O9 0.262440 0.500000 0.612817
O O10 0.297773 0.754180 0.398669
O O11 0.298735 0.725116 0.668226
O O12 0.177529 0.734812 0.864069
O O13 0.304639 0.000000 0.231428
O O14 0.099971 0.500000 0.123333
O O15 0.085260 0.727799 0.318950
O O16 0.029510 0.732114 0.226700
O O17 0.056943 0.500000 0.550795
O O18 0.289156 0.500000 0.857762
#
# Coordination Sequence:
#
# PCOD9143564 Si02
#       7
#     4   4   4   4   4   4   4
#     4  10  19  31  47  70  99 131 171 211 246 293
#     4   9  18  35  59  84 104 125 160 204 247 294
#     4  10  18  32  52  75 100 130 169 209 249 293
#     4  10  22  36  50  72 104 139 168 199 245 298
#     4   8  15  27  47  73  98 126 163 212 258 293
#     4   9  15  28  49  71  96 127 167 214 257 294
#     4   9  17  31  54  78  99 128 165 205 248 293
#
# _framework density 17.351800000000001
#
# number of rings (size 3 to 8) (size 9 to 14) (size 15 to 20)
#    0.000    2.714    1.429    1.714    0.000    2.571 
#    0.000    3.571    0.000    8.571    0.000    0.000 
#    0.000    0.000    0.000    0.000    0.000    0.000 
#
# Total GULP energy -156074.190305 kJ/mol
# GULP energy per Si atom -5574.078225 kJ/mol
# Density = 1.731231 g / cm^3
# Si number density = 17.351800 Si / 1000 Ang^3
#
#
#
# Elastic Constant Matrix: (Units=GPa)
#
#
# Indices 1 2 3 4 5 6 
#
# 1 112.4309 32.7990 67.7133 0.0000 -2.9690 0.0000
# 2 32.7990 14.3225 23.2039 0.0000 -0.4659 0.0000
# 3 67.7133 23.2039 88.8472 0.0000 -2.0940 0.0000
# 4 0.0000 0.0000 0.0000 -1.9134 0.0000 -9.4758
# 5 -2.9690 -0.4659 -2.0940 0.0000 33.5028 0.0000
# 6 0.0000 0.0000 0.0000 -9.4758 0.0000 8.7889
#
#
#
# Elastic Compliance Matrix: (Units=1/GPa)
#
#
# Indices 1 2 3 4 5 6 
#
# 1 0.030206 -0.055270 -0.008554 0.000000 0.001374 0.000000
# 2 -0.055270 0.222164 -0.015965 0.000000 -0.002806 0.000000
# 3 -0.008554 -0.015965 0.021953 0.000000 0.000392 0.000000
# 4 0.000000 0.000000 0.000000 -0.082442 0.000000 -0.088885
# 5 0.001374 -0.002806 0.000392 0.000000 0.029955 0.000000
# 6 0.000000 0.000000 0.000000 -0.088885 0.000000 0.017948
#
#
# Mechanical properties :
#
#
# Convention : Reuss Voigt Hill
#
# Bulk Modulus (GPa) = 8.71490 51.44811 30.08150
# Shear Modulus (GPa) = 11.42564 14.20128 12.81346
#
# Velocity S-wave (km/s) = 2.56885 2.86393 2.72039
# Velocity P-wave (km/s) = 3.71915 6.37578 5.21932
#
# Compressibility (1/GPa) = 0.11474602
#
# Stress axis : x y z
#
# Youngs Moduli (GPa) = 33.10586 4.50117 45.55129
#
# Poissons Ratio (x) = 0.24878 0.38965
# Poissons Ratio (y) = 1.82977 0.72722
# Poissons Ratio (z) = 0.28319 0.07186
#
# Static dielectric constant tensor:
#      x y z
#    x 1.613200 0.000000 -0.016350 
#    y 0.000000 1.579160 0.000000 
#    z -0.016350 0.000000 1.559830 
# 
# From -- ./inp_files/37100.got.cif
#   From: 2010.05.17/outbox.cif.g08.bks.cpg/sg10_19_cif.got.tgz:37100.got - 2010.06.03 11:33:40.
