data_PCOD9143447
_publ_section_title
;
Structure prediction by ZEFSAII (Michael W. Deem and Ramdas Pophale) SiO2 
 PCOD9143447
Probable space group: P 2/M
;
_chemical_formula_sum "Si O2"
_cell_formula_units_Z 32
_cell_length_a 14.895437
_cell_length_b 7.581651
_cell_length_c 12.769999
_cell_angle_alpha 90.000000
_cell_angle_beta 90.324491
_cell_angle_gamma 90.000000
_cell_volume 1442.118461
_symmetry_space_group_name_H-M "P 2/M"
_symmetry_group_IT_number 10
_symmetry_cell_setting 'monoclinic'
loop_
_space_group_symop_operation_xyz
x,y,z
-x,y,-z
-x,-y,-z
x,-y,z
loop_
_atom_site_type_symbol
_atom_site_label
_atom_site_fract_x
_atom_site_fract_y
_atom_site_fract_z
Si Si1 0.461636 0.207107 0.609747
Si Si2 0.222417 0.711500 0.464580
Si Si3 0.007359 0.286489 0.163535
Si Si4 0.209828 0.703987 0.131955
Si Si5 0.813570 0.792362 0.096058
Si Si6 0.642257 0.286162 0.703368
Si Si7 0.034175 0.285717 0.389285
Si Si8 0.271386 0.207997 0.688782
O O1 0.500000 0.283493 0.500000
O O2 0.540431 0.223879 0.695848
O O3 0.368337 0.283010 0.653615
O O4 0.444615 0.000000 0.590073
O O5 0.224091 0.500000 0.468840
O O6 0.310915 0.772833 0.405346
O O7 0.139017 0.760380 0.390940
O O8 0.212542 0.772131 0.583310
O O9 0.009805 0.500000 0.156954
O O10 0.108568 0.220811 0.142534
O O11 0.987919 0.227814 0.282884
O O12 0.921456 0.232840 0.096271
O O13 0.201324 0.500000 0.166218
O O14 0.291437 0.775207 0.203134
O O15 0.228448 0.710990 0.008548
O O16 0.773287 0.720480 0.205395
O O17 0.796554 0.000000 0.090453
O O18 0.639793 0.500000 0.705182
O O19 0.026797 0.500000 0.390348
O O20 0.000000 0.219948 0.500000
O O21 0.283141 0.000000 0.707569
#
# Coordination Sequence:
#
# PCOD9143447 Si02
#       8
#     4   4   4   4   4   4   4   4
#     4  10  20  36  59  83 109 147 187 220 269 339
#     4  10  18  31  54  83 111 140 178 223 273 328
#     4  10  19  35  58  82 109 146 188 227 270 324
#     4  10  21  39  60  82 112 148 187 229 273 324
#     4  11  24  39  55  79 112 148 189 235 276 318
#     4  10  20  35  57  87 115 137 174 231 281 321
#     4   9  16  27  47  77 110 142 177 215 261 323
#     4  10  22  39  55  78 114 149 183 227 277 330
#
# _framework density 22.189577
#
# number of rings (size 3 to 8) (size 9 to 14) (size 15 to 20)
#    0.000    2.000    2.500    1.500    0.000    5.250 
#    0.000    1.250    0.000    6.000    0.000    0.000 
#    0.000    0.000    0.000    0.000    0.000    0.000 
#
# Total GULP energy -178625.943485 kJ/mol
# GULP energy per Si atom -5582.060734 kJ/mol
# Density = 2.213907 g / cm^3
# Si number density = 22.189577 Si / 1000 Ang^3
#
#
#
# Elastic Constant Matrix: (Units=GPa)
#
#
# Indices 1 2 3 4 5 6 
#
# 1 83.7979 0.5562 39.3673 0.0000 15.4524 0.0000
# 2 0.5562 49.8652 -8.6100 0.0000 -3.3356 0.0000
# 3 39.3673 -8.6100 126.6759 0.0000 16.9396 0.0000
# 4 0.0000 0.0000 0.0000 14.3921 0.0000 6.1355
# 5 15.4524 -3.3356 16.9396 0.0000 30.3616 0.0000
# 6 0.0000 0.0000 0.0000 6.1355 0.0000 18.0989
#
#
#
# Elastic Compliance Matrix: (Units=1/GPa)
#
#
# Indices 1 2 3 4 5 6 
#
# 1 0.014806 -0.001213 -0.003953 0.000000 -0.005463 0.000000
# 2 -0.001213 0.020462 0.001496 0.000000 0.002031 0.000000
# 3 -0.003953 0.001496 0.009654 0.000000 -0.003210 0.000000
# 4 0.000000 0.000000 0.000000 0.081221 0.000000 -0.027533
# 5 -0.005463 0.002031 -0.003210 0.000000 0.037731 0.000000
# 6 0.000000 0.000000 0.000000 -0.027533 0.000000 0.064586
#
#
# Mechanical properties :
#
#
# Convention : Reuss Voigt Hill
#
# Bulk Modulus (GPa) = 26.60908 35.88512 31.24710
# Shear Modulus (GPa) = 20.13484 27.83888 23.98686
#
# Velocity S-wave (km/s) = 3.01558 3.54587 3.29142
# Velocity P-wave (km/s) = 4.91352 5.74207 5.34388
#
# Compressibility (1/GPa) = 0.03758116
#
# Stress axis : x y z
#
# Youngs Moduli (GPa) = 67.53967 48.87163 103.58815
#
# Poissons Ratio (x) = 0.05929 0.40951
# Poissons Ratio (y) = 0.08194 -0.15499
# Poissons Ratio (z) = 0.26700 -0.07312
#
# Static dielectric constant tensor:
#      x y z
#    x 1.839280 0.000000 -0.031620 
#    y 0.000000 1.833700 0.000000 
#    z -0.031620 0.000000 1.829430 
# 
# From -- ./inp_files/49785.got.cif
#   From: 2010.05.17/outbox.cif.g08.bks.cpg/sg10_25_cif.got.tgz:49785.got - 2010.06.03 11:33:40.
