data_PCOD9143753
_publ_section_title
;
Structure prediction by ZEFSAII (Michael W. Deem and Ramdas Pophale) SiO2 
 PCOD9143753
Probable space group: P 2/M
;
_chemical_formula_sum "Si O2"
_cell_formula_units_Z 28
_cell_length_a 12.284543
_cell_length_b 7.558607
_cell_length_c 15.785915
_cell_angle_alpha 90.000000
_cell_angle_beta 56.785433
_cell_angle_gamma 90.000000
_cell_volume 1226.313208
_symmetry_space_group_name_H-M "P 2/M"
_symmetry_group_IT_number 10
_symmetry_cell_setting 'monoclinic'
loop_
_space_group_symop_operation_xyz
x,y,z
-x,y,-z
-x,-y,-z
x,-y,z
loop_
_atom_site_type_symbol
_atom_site_label
_atom_site_fract_x
_atom_site_fract_y
_atom_site_fract_z
Si Si1 0.146734 0.213831 0.649012
Si Si2 0.324481 0.785977 0.225218
Si Si3 0.863549 0.199436 0.030623
Si Si4 0.133361 0.699347 0.156780
Si Si5 0.147871 0.215575 0.457429
Si Si6 0.418526 0.783275 0.801933
Si Si7 0.411354 0.784243 0.615930
O O1 0.179443 0.272029 0.539365
O O2 0.262459 0.269790 0.661798
O O3 0.003626 0.272064 0.737340
O O4 0.144266 0.000000 0.649817
O O5 0.249674 0.730269 0.172940
O O6 0.241963 0.725400 0.342376
O O7 0.472296 0.726939 0.177631
O O8 0.322898 0.000000 0.225889
O O9 0.727128 0.280003 0.117734
O O10 0.865438 0.000000 0.067718
O O11 0.860410 0.188021 0.930666
O O12 0.000000 0.284062 0.000000
O O13 0.138880 0.500000 0.123445
O O14 0.000000 0.267216 0.500000
O O15 0.152573 0.000000 0.455143
O O16 0.456448 0.731724 0.690104
O O17 0.416430 0.000000 0.805900
O O18 0.500000 0.724230 0.500000
O O19 0.414704 0.000000 0.613292
#
# Coordination Sequence:
#
# PCOD9143753 Si02
#       7
#     4   4   4   4   4   4   4
#     4  10  18  32  56  83 114 151 188 230 280 332
#     4  10  19  35  57  81 113 147 185 228 276 335
#     4  10  21  40  64  86 109 140 182 229 279 334
#     4  12  25  38  54  80 112 146 190 236 279 327
#     4   9  15  26  49  80 109 142 184 223 265 319
#     4   9  18  32  54  84 112 142 180 226 275 327
#     4   9  16  28  52  89 122 142 172 223 280 333
#
# _framework density 22.832668000000002
#
# number of rings (size 3 to 8) (size 9 to 14) (size 15 to 20)
#    0.000    2.143    1.429    3.000    0.000    6.571 
#    0.000    5.000    0.000    1.286    0.000    0.000 
#    0.000    0.000    0.000    0.000    0.000    0.000 
#
# Total GULP energy -156478.112348 kJ/mol
# GULP energy per Si atom -5588.504012 kJ/mol
# Density = 2.278070 g / cm^3
# Si number density = 22.832668 Si / 1000 Ang^3
#
#
#
# Elastic Constant Matrix: (Units=GPa)
#
#
# Indices 1 2 3 4 5 6 
#
# 1 176.1854 3.8903 48.9224 0.0000 -5.3144 0.0000
# 2 3.8903 62.4218 -2.6032 0.0000 -3.0379 0.0000
# 3 48.9224 -2.6032 93.6613 0.0000 -1.2934 0.0000
# 4 0.0000 0.0000 0.0000 -255.5488 0.0000 153.1373
# 5 -5.3144 -3.0379 -1.2934 0.0000 40.1809 0.0000
# 6 0.0000 0.0000 0.0000 153.1373 0.0000 -347.9879
#
#
#
# Elastic Compliance Matrix: (Units=1/GPa)
#
#
# Indices 1 2 3 4 5 6 
#
# 1 0.006680 -0.000526 -0.003493 0.000000 0.000731 0.000000
# 2 -0.000526 0.016141 0.000740 0.000000 0.001175 0.000000
# 3 -0.003493 0.000740 0.012522 0.000000 -0.000003 0.000000
# 4 0.000000 0.000000 0.000000 -0.005315 0.000000 -0.002339
# 5 0.000731 0.001175 -0.000003 0.000000 0.025073 0.000000
# 6 0.000000 0.000000 0.000000 -0.002339 0.000000 -0.003903
#
#
# Mechanical properties :
#
#
# Convention : Reuss Voigt Hill
#
# Bulk Modulus (GPa) = 34.74357 48.07637 41.40997
# Shear Modulus (GPa) = 74.23675 -93.86723 -9.81524
#
# Velocity S-wave (km/s) = 5.70824 -6.41874 -2.07560
# Velocity P-wave (km/s) = 7.66126 5.81652 3.52584
#
# Compressibility (1/GPa) = 0.02878230
#
# Stress axis : x y z
#
# Youngs Moduli (GPa) = 149.71005 61.95454 79.85905
#
# Poissons Ratio (x) = 0.03261 0.27899
# Poissons Ratio (y) = 0.07881 -0.05908
# Poissons Ratio (z) = 0.52301 -0.04583
#
# Static dielectric constant tensor:
#      x y z
#    x 1.826210 0.000000 -0.011840 
#    y 0.000000 1.883320 0.000000 
#    z -0.011840 0.000000 1.811030 
# 
# From -- ./inp_files/63617.got.cif
#   From: 2010.05.17/outbox.cif.g08.bks.cpg/sg10_32_cif.got.tgz:63617.got - 2010.06.03 11:33:40.
