data_PCOD9143277
_publ_section_title
;
Structure prediction by ZEFSAII (Michael W. Deem and Ramdas Pophale) SiO2 
 PCOD9143277
Probable space group: P 2/M
;
_chemical_formula_sum "Si O2"
_cell_formula_units_Z 32
_cell_length_a 18.988409
_cell_length_b 7.948180
_cell_length_c 27.125301
_cell_angle_alpha 90.000000
_cell_angle_beta 23.006629
_cell_angle_gamma 90.000000
_cell_volume 1600.026607
_symmetry_space_group_name_H-M "P 2/M"
_symmetry_group_IT_number 10
_symmetry_cell_setting 'monoclinic'
loop_
_space_group_symop_operation_xyz
x,y,z
-x,y,-z
-x,-y,-z
x,-y,z
loop_
_atom_site_type_symbol
_atom_site_label
_atom_site_fract_x
_atom_site_fract_y
_atom_site_fract_z
Si Si1 0.070271 0.794691 0.603897
Si Si2 0.698452 0.804335 0.873219
Si Si3 0.597285 0.197345 0.324213
Si Si4 0.572230 0.794981 0.671541
Si Si5 0.866522 0.303302 0.865817
Si Si6 0.692272 0.807407 0.075883
Si Si7 0.758871 0.695541 0.401392
Si Si8 0.010315 0.695255 0.935919
O O1 0.863745 0.736626 0.733564
O O2 0.217618 0.749224 0.468039
O O3 0.151859 0.722425 0.602056
O O4 0.070954 0.000000 0.608038
O O5 0.775304 0.792075 0.879123
O O6 0.678159 0.000000 0.871956
O O7 0.500000 0.725411 0.000000
O O8 0.524473 0.258446 0.317368
O O9 0.436443 0.221108 0.467206
O O10 0.785182 0.285864 0.214063
O O11 0.634296 0.000000 0.295709
O O12 0.466390 0.734991 0.787661
O O13 0.561508 0.000000 0.678686
O O14 0.879118 0.500000 0.843970
O O15 0.074415 0.243408 0.739976
O O16 0.746551 0.285153 0.991275
O O17 0.648446 0.000000 0.091293
O O18 0.869202 0.801396 0.996037
O O19 0.726261 0.500000 0.412187
O O20 0.955721 0.500000 0.967218
O O21 0.000000 0.744633 0.000000
#
# Coordination Sequence:
#
# PCOD9143277 Si02
#       8
#     4   4   4   4   4   4   4   4
#     4   8  14  27  47  73 102 129 161 202 249 298
#     4   9  17  31  55  84 108 131 164 206 249 299
#     4  10  18  31  51  73  98 128 169 216 258 300
#     4   8  15  27  46  71  96 127 165 208 250 291
#     4  10  21  36  52  74 105 137 169 206 253 310
#     4  11  21  34  52  72  99 135 175 214 254 303
#     4   9  17  30  48  70  97 128 164 208 256 303
#     4  11  22  34  49  73 104 135 170 213 260 305
#
# _framework density 19.999666999999999
#
# number of rings (size 3 to 8) (size 9 to 14) (size 15 to 20)
#    0.000    2.500    1.250    2.625    0.000    2.250 
#    0.000    1.250    0.000    4.500    0.000    5.250 
#    0.000    0.000    0.000    0.000    0.000    0.000 
#
# Total GULP energy -178336.366984 kJ/mol
# GULP energy per Si atom -5573.011468 kJ/mol
# Density = 1.995415 g / cm^3
# Si number density = 19.999667 Si / 1000 Ang^3
#
#
#
# Elastic Constant Matrix: (Units=GPa)
#
#
# Indices 1 2 3 4 5 6 
#
# 1 13.1168 -3.1576 26.3216 0.0000 7.1205 0.0000
# 2 -3.1576 24.2340 -1.9719 0.0000 2.0174 0.0000
# 3 26.3216 -1.9719 188.2943 0.0000 6.2244 0.0000
# 4 0.0000 0.0000 0.0000 28.2969 0.0000 23.3315
# 5 7.1205 2.0174 6.2244 0.0000 26.9519 0.0000
# 6 0.0000 0.0000 0.0000 23.3315 0.0000 43.1348
#
#
#
# Elastic Compliance Matrix: (Units=1/GPa)
#
#
# Indices 1 2 3 4 5 6 
#
# 1 0.133248 0.018663 -0.017354 0.000000 -0.032592 0.000000
# 2 0.018663 0.044192 -0.001888 0.000000 -0.007802 0.000000
# 3 -0.017354 -0.001888 0.007619 0.000000 0.002967 0.000000
# 4 0.000000 0.000000 0.000000 0.063788 0.000000 -0.034503
# 5 -0.032592 -0.007802 0.002967 0.000000 0.045613 0.000000
# 6 0.000000 0.000000 0.000000 -0.034503 0.000000 0.041846
#
#
# Mechanical properties :
#
#
# Convention : Reuss Voigt Hill
#
# Bulk Modulus (GPa) = 5.43773 29.78102 17.60937
# Shear Modulus (GPa) = 12.53876 33.30694 22.92285
#
# Velocity S-wave (km/s) = 2.50661 4.08533 3.38917
# Velocity P-wave (km/s) = 3.33201 6.09724 4.91317
#
# Compressibility (1/GPa) = 0.18390031
#
# Stress axis : x y z
#
# Youngs Moduli (GPa) = 7.50480 22.62862 131.25290
#
# Poissons Ratio (x) = -0.42231 2.27774
# Poissons Ratio (y) = -0.14006 0.24782
# Poissons Ratio (z) = 0.13024 0.04273
#
# Static dielectric constant tensor:
#      x y z
#    x 1.675590 0.000000 0.013940 
#    y 0.000000 1.705650 0.000000 
#    z 0.013940 0.000000 1.786460 
# 
# From -- ./inp_files/54937.got.cif
#   From: 2010.05.17/outbox.cif.g08.bks.cpg/sg10_28_cif.got.tgz:54937.got - 2010.06.03 11:33:40.
