data_PCOD9143032
_publ_section_title
;
Structure prediction by ZEFSAII (Michael W. Deem and Ramdas Pophale) SiO2 
 PCOD9143032
Probable space group: P 2/M
;
_chemical_formula_sum "Si O2"
_cell_formula_units_Z 32
_cell_length_a 20.513986
_cell_length_b 9.948479
_cell_length_c 19.082123
_cell_angle_alpha 90.000000
_cell_angle_beta 23.925693
_cell_angle_gamma 90.000000
_cell_volume 1579.353945
_symmetry_space_group_name_H-M "P 2/M"
_symmetry_group_IT_number 10
_symmetry_cell_setting 'monoclinic'
loop_
_space_group_symop_operation_xyz
x,y,z
-x,y,-z
-x,-y,-z
x,-y,z
loop_
_atom_site_type_symbol
_atom_site_label
_atom_site_fract_x
_atom_site_fract_y
_atom_site_fract_z
Si Si1 0.486460 0.643187 0.334791
Si Si2 0.325564 0.349548 0.640242
Si Si3 0.213055 0.661886 0.122385
Si Si4 0.909480 0.151864 0.183425
Si Si5 0.845851 0.346045 0.982296
Si Si6 0.863782 0.338501 0.488135
Si Si7 0.276305 0.149408 0.487737
Si Si8 0.531522 0.336799 0.889526
O O1 0.475229 0.500000 0.305736
O O2 0.364273 0.637114 0.519224
O O3 0.443593 0.771850 0.331561
O O4 0.664851 0.650842 0.189132
O O5 0.500000 0.313926 0.500000
O O6 0.278004 0.500000 0.711901
O O7 0.191778 0.234183 0.775312
O O8 0.225470 0.500000 0.109851
O O9 0.179944 0.697379 0.073543
O O10 0.380894 0.711373 0.990018
O O11 0.048773 0.693245 0.326749
O O12 0.797376 0.136828 0.362600
O O13 0.050044 0.246418 0.074199
O O14 0.955875 0.000000 0.118292
O O15 0.910220 0.500000 0.919518
O O16 0.857172 0.500000 0.482098
O O17 0.830608 0.252278 0.451306
O O18 0.711585 0.302270 0.686616
O O19 0.287512 0.000000 0.446225
O O20 0.526917 0.500000 0.893239
O O21 0.500000 0.292867 0.000000
#
# Coordination Sequence:
#
# PCOD9143032 Si02
#       8
#     4   4   4   4   4   4   4   4
#     4   9  18  31  51  75 100 132 167 208 259 304
#     4   9  18  34  54  74  97 131 175 212 245 298
#     4   9  17  28  46  73 101 131 166 206 258 312
#     4  10  20  32  49  74 103 132 163 206 257 305
#     4  10  18  31  50  74 103 130 162 207 257 310
#     4  10  18  30  51  73  99 135 170 210 260 309
#     4  10  19  31  48  73 102 130 164 208 257 309
#     4   9  18  31  47  73 106 134 169 217 260 305
#
# _framework density 20.261448999999999
#
# number of rings (size 3 to 8) (size 9 to 14) (size 15 to 20)
#    0.000    2.500    1.250    1.500    0.000    4.250 
#    0.000    3.125    0.000    4.125    0.000    0.875 
#    0.000    0.000    0.000    0.000    0.000    0.000 
#
# Total GULP energy -178252.525140 kJ/mol
# GULP energy per Si atom -5570.391411 kJ/mol
# Density = 2.021533 g / cm^3
# Si number density = 20.261449 Si / 1000 Ang^3
#
#
#
# Elastic Constant Matrix: (Units=GPa)
#
#
# Indices 1 2 3 4 5 6 
#
# 1 64.9467 21.8898 31.7828 0.0000 1.3612 0.0000
# 2 21.8898 86.3090 35.0359 0.0000 -13.2971 0.0000
# 3 31.7828 35.0359 96.1765 0.0000 -4.1173 0.0000
# 4 0.0000 0.0000 0.0000 -1.9869 0.0000 9.6111
# 5 1.3612 -13.2971 -4.1173 0.0000 26.9812 0.0000
# 6 0.0000 0.0000 0.0000 9.6111 0.0000 -0.6159
#
#
#
# Elastic Compliance Matrix: (Units=1/GPa)
#
#
# Indices 1 2 3 4 5 6 
#
# 1 0.019146 -0.003224 -0.005297 0.000000 -0.003363 0.000000
# 2 -0.003224 0.015173 -0.004162 0.000000 0.007005 0.000000
# 3 -0.005297 -0.004162 0.013677 0.000000 0.000303 0.000000
# 4 0.000000 0.000000 0.000000 0.006757 0.000000 0.105443
# 5 -0.003363 0.007005 0.000303 0.000000 0.040731 0.000000
# 6 0.000000 0.000000 0.000000 0.105443 0.000000 0.021799
#
#
# Mechanical properties :
#
#
# Convention : Reuss Voigt Hill
#
# Bulk Modulus (GPa) = 44.18734 47.20545 45.69639
# Shear Modulus (GPa) = 33.29096 15.45726 24.37411
#
# Velocity S-wave (km/s) = 4.05788 2.76504 3.47216
# Velocity P-wave (km/s) = 6.61899 5.79161 6.21907
#
# Compressibility (1/GPa) = 0.02263092
#
# Stress axis : x y z
#
# Youngs Moduli (GPa) = 52.22927 65.90814 73.11532
#
# Poissons Ratio (x) = 0.21248 0.38727
# Poissons Ratio (y) = 0.16838 0.30430
# Poissons Ratio (z) = 0.27664 0.27430
#
# Static dielectric constant tensor:
#      x y z
#    x 1.760740 0.000000 0.033450 
#    y 0.000000 1.727700 0.000000 
#    z 0.033450 0.000000 1.784900 
# 
# From -- ./inp_files/90604.got.cif
#   From: 2010.05.17/outbox.cif.g08.bks.cpg/sg10_46_cif.got.tgz:90604.got - 2010.06.03 11:33:40.
