data_PCOD9143164
_publ_section_title
;
Structure prediction by ZEFSAII (Michael W. Deem and Ramdas Pophale) SiO2 
 PCOD9143164
Probable space group: P 2/M
;
_chemical_formula_sum "Si O2"
_cell_formula_units_Z 24
_cell_length_a 18.446586
_cell_length_b 13.897895
_cell_length_c 5.445905
_cell_angle_alpha 90.000000
_cell_angle_beta 88.862621
_cell_angle_gamma 90.000000
_cell_volume 1395.884591
_symmetry_space_group_name_H-M "P 2/M"
_symmetry_group_IT_number 10
_symmetry_cell_setting 'monoclinic'
loop_
_space_group_symop_operation_xyz
x,y,z
-x,y,-z
-x,-y,-z
x,-y,z
loop_
_atom_site_type_symbol
_atom_site_label
_atom_site_fract_x
_atom_site_fract_y
_atom_site_fract_z
Si Si1 0.708082 0.117424 0.269839
Si Si2 0.915875 0.106856 0.439285
Si Si3 0.540061 0.117145 0.246983
Si Si4 0.215478 0.115583 0.231319
Si Si5 0.921423 0.385774 0.742213
Si Si6 0.086856 0.692676 0.760220
O O1 0.624310 0.145397 0.245434
O O2 0.740339 0.149424 0.529816
O O3 0.710404 0.000000 0.273382
O O4 0.754076 0.151367 0.029996
O O5 0.867961 0.129751 0.682988
O O6 0.905762 0.193056 0.251430
O O7 0.000000 0.104671 0.500000
O O8 0.893940 0.000000 0.350768
O O9 0.500000 0.147863 0.500000
O O10 0.538434 0.000000 0.246019
O O11 0.500000 0.148565 0.000000
O O12 0.225281 0.000000 0.219508
O O13 0.932341 0.500000 0.736680
O O14 0.883773 0.350845 0.496074
O O15 0.001172 0.336303 0.750875
O O16 0.883315 0.353663 0.995068
#
# Coordination Sequence:
#
# PCOD9143164 Si02
#       6
#     4   4   4   4   4   4
#     4   9  16  28  41  54  75 100 131 165 206 264
#     4  10  20  35  48  63  86 115 154 199 235 269
#     4   9  15  22  36  58  77  93 116 156 209 255
#     4   9  18  30  42  54  72 107 142 172 214 256
#     4  10  18  31  49  67  85 103 126 166 235 293
#     4  10  18  31  46  66  84 105 134 173 226 278
#
# _framework density 17.193397999999998
#
# number of rings (size 3 to 8) (size 9 to 14) (size 15 to 20)
#    0.000    2.500    1.667    3.500    0.000    5.333 
#    0.000    4.167    0.000    0.000    0.000    0.000 
#    0.000    0.000    0.000    0.000    0.000    0.000 
#
# Total GULP energy -133794.547715 kJ/mol
# GULP energy per Si atom -5574.772821 kJ/mol
# Density = 1.715426 g / cm^3
# Si number density = 17.193398 Si / 1000 Ang^3
#
#
#
# Elastic Constant Matrix: (Units=GPa)
#
#
# Indices 1 2 3 4 5 6 
#
# 1 93.5486 0.7228 44.0891 0.0000 -10.1075 0.0000
# 2 0.7228 80.1607 29.0085 0.0000 -6.3367 0.0000
# 3 44.0891 29.0085 150.7563 0.0000 2.3205 0.0000
# 4 0.0000 0.0000 0.0000 12.9628 0.0000 -1.9099
# 5 -10.1075 -6.3367 2.3205 0.0000 16.8322 0.0000
# 6 0.0000 0.0000 0.0000 -1.9099 0.0000 0.0753
#
#
#
# Elastic Compliance Matrix: (Units=1/GPa)
#
#
# Indices 1 2 3 4 5 6 
#
# 1 0.013950 0.002353 -0.004685 0.000000 0.009908 0.000000
# 2 0.002353 0.014317 -0.003555 0.000000 0.007293 0.000000
# 3 -0.004685 -0.003555 0.008770 0.000000 -0.005361 0.000000
# 4 0.000000 0.000000 0.000000 -0.028175 0.000000 -0.714800
# 5 0.009908 0.007293 -0.005361 0.000000 0.068844 0.000000
# 6 0.000000 0.000000 0.000000 -0.714800 0.000000 -4.851351
#
#
# Mechanical properties :
#
#
# Convention : Reuss Voigt Hill
#
# Bulk Modulus (GPa) = 39.58485 52.45626 46.02055
# Shear Modulus (GPa) = -1.05187 22.68372 10.81593
#
# Velocity S-wave (km/s) = -0.78302 3.63619 2.51086
# Velocity P-wave (km/s) = 4.71760 6.94298 5.93552
#
# Compressibility (1/GPa) = 0.02526219
#
# Stress axis : x y z
#
# Youngs Moduli (GPa) = 71.68437 69.84813 114.02553
#
# Poissons Ratio (x) = -0.16434 0.53421
# Poissons Ratio (y) = -0.16867 0.40538
# Poissons Ratio (z) = 0.33584 0.24832
#
# Static dielectric constant tensor:
#      x y z
#    x 1.593780 0.000000 0.008370 
#    y 0.000000 1.579600 0.000000 
#    z 0.008370 0.000000 1.707970 
# 
# From -- ./inp_files/9206.got.cif
#   From: 2010.05.17/outbox.cif.g08.bks.cpg/sg10_5_cif.got.tgz:9206.got - 2010.06.03 11:33:40.
