data_PCOD9143293
_publ_section_title
;
Structure prediction by ZEFSAII (Michael W. Deem and Ramdas Pophale) SiO2 
 PCOD9143293
Probable space group: P 2/M
;
_chemical_formula_sum "Si O2"
_cell_formula_units_Z 32
_cell_length_a 11.907828
_cell_length_b 13.895216
_cell_length_c 14.710723
_cell_angle_alpha 90.000000
_cell_angle_beta 43.775471
_cell_angle_gamma 90.000000
_cell_volume 1683.968051
_symmetry_space_group_name_H-M "P 2/M"
_symmetry_group_IT_number 10
_symmetry_cell_setting 'monoclinic'
loop_
_space_group_symop_operation_xyz
x,y,z
-x,y,-z
-x,-y,-z
x,-y,z
loop_
_atom_site_type_symbol
_atom_site_label
_atom_site_fract_x
_atom_site_fract_y
_atom_site_fract_z
Si Si1 0.583618 0.108099 0.610565
Si Si2 0.518698 0.114196 0.125437
Si Si3 0.747194 0.202800 0.850709
Si Si4 0.144141 0.385804 0.754609
Si Si5 0.610486 0.307542 0.514936
Si Si6 0.764975 0.613056 0.946607
Si Si7 0.030452 0.111207 0.583815
Si Si8 0.377454 0.385299 0.782901
O O1 0.494389 0.127773 0.758724
O O2 0.560401 0.197034 0.557461
O O3 0.777437 0.109995 0.513943
O O4 0.539300 0.000000 0.605790
O O5 0.373801 0.170218 0.158973
O O6 0.495481 0.000000 0.123156
O O7 0.681281 0.148193 0.979304
O O8 0.738529 0.315432 0.878563
O O9 0.925550 0.169888 0.717076
O O10 0.178660 0.500000 0.722062
O O11 0.212651 0.328320 0.627342
O O12 0.240044 0.352672 0.789751
O O13 0.951014 0.376452 0.872171
O O14 0.500000 0.352833 0.500000
O O15 0.552230 0.356341 0.641612
O O16 0.737304 0.500000 0.942731
O O17 0.655685 0.646669 0.095479
O O18 0.000000 0.148695 0.500000
O O19 0.971814 0.000000 0.620901
O O20 0.363063 0.500000 0.793620
#
# Coordination Sequence:
#
# PCOD9143293 Si02
#       8
#     4   4   4   4   4   4   4   4
#     4  10  20  33  49  71 100 131 162 197 242 291
#     4  10  20  34  52  74  95 121 163 209 247 286
#     4  11  19  31  51  72  96 126 155 201 251 285
#     4   9  17  31  51  73  97 126 161 204 244 280
#     4  10  19  31  49  75 102 128 161 198 241 294
#     4  10  20  32  48  72 101 130 163 196 237 293
#     4  10  18  31  51  75  95 117 158 209 250 282
#     4   9  17  31  51  73  97 126 163 205 243 277
#
# _framework density 19.002735000000001
#
# number of rings (size 3 to 8) (size 9 to 14) (size 15 to 20)
#    0.000    2.125    1.250    3.750    0.000    3.250 
#    0.000    1.250    0.000    1.875    0.000    0.000 
#    0.000   23.000    0.000    0.000    0.000    0.000 
#
# Total GULP energy -178399.866883 kJ/mol
# GULP energy per Si atom -5574.995840 kJ/mol
# Density = 1.895948 g / cm^3
# Si number density = 19.002735 Si / 1000 Ang^3
#
#
#
# Elastic Constant Matrix: (Units=GPa)
#
#
# Indices 1 2 3 4 5 6 
#
# 1 18.8439 11.1984 3.4133 0.0000 8.1393 0.0000
# 2 11.1984 61.9371 25.3276 0.0000 19.1544 0.0000
# 3 3.4133 25.3276 112.3608 0.0000 15.7203 0.0000
# 4 0.0000 0.0000 0.0000 31.4681 0.0000 5.7509
# 5 8.1393 19.1544 15.7203 0.0000 17.3999 0.0000
# 6 0.0000 0.0000 0.0000 5.7509 0.0000 9.2136
#
#
#
# Elastic Compliance Matrix: (Units=1/GPa)
#
#
# Indices 1 2 3 4 5 6 
#
# 1 0.067957 -0.004329 0.003082 0.000000 -0.029808 0.000000
# 2 -0.004329 0.025154 -0.002230 0.000000 -0.023651 0.000000
# 3 0.003082 -0.002230 0.010494 0.000000 -0.008468 0.000000
# 4 0.000000 0.000000 0.000000 0.035870 0.000000 -0.022389
# 5 -0.029808 -0.023651 -0.008468 0.000000 0.105101 0.000000
# 6 0.000000 0.000000 0.000000 -0.022389 0.000000 0.122510
#
#
# Mechanical properties :
#
#
# Convention : Reuss Voigt Hill
#
# Bulk Modulus (GPa) = 10.34650 30.33561 20.34105
# Shear Modulus (GPa) = 12.30752 21.82982 17.06867
#
# Velocity S-wave (km/s) = 2.54770 3.39303 3.00029
# Velocity P-wave (km/s) = 3.75645 5.59899 4.76758
#
# Compressibility (1/GPa) = 0.09665108
#
# Stress axis : x y z
#
# Youngs Moduli (GPa) = 14.71524 39.75503 95.29639
#
# Poissons Ratio (x) = 0.17209 -0.29368
# Poissons Ratio (y) = 0.06370 0.21247
# Poissons Ratio (z) = -0.04535 0.08864
#
# Static dielectric constant tensor:
#      x y z
#    x 1.643910 0.000000 -0.001040 
#    y 0.000000 1.689590 0.000000 
#    z -0.001040 0.000000 1.693140 
# 
# From -- ./inp_files/65078.got.cif
#   From: 2010.05.17/outbox.cif.g08.bks.cpg/sg10_33_cif.got.tgz:65078.got - 2010.06.03 11:33:40.
