data_PCOD9143273
_publ_section_title
;
Structure prediction by ZEFSAII (Michael W. Deem and Ramdas Pophale) SiO2 
 PCOD9143273
Probable space group: P 2/M
;
_chemical_formula_sum "Si O2"
_cell_formula_units_Z 32
_cell_length_a 28.526742
_cell_length_b 7.761344
_cell_length_c 19.556008
_cell_angle_alpha 90.000000
_cell_angle_beta 159.294657
_cell_angle_gamma 90.000000
_cell_volume 1530.858280
_symmetry_space_group_name_H-M "P 2/M"
_symmetry_group_IT_number 10
_symmetry_cell_setting 'monoclinic'
loop_
_space_group_symop_operation_xyz
x,y,z
-x,y,-z
-x,-y,-z
x,-y,z
loop_
_atom_site_type_symbol
_atom_site_label
_atom_site_fract_x
_atom_site_fract_y
_atom_site_fract_z
Si Si1 0.054812 0.790340 0.180245
Si Si2 0.796544 0.790304 0.758290
Si Si3 0.944502 0.295935 0.563764
Si Si4 0.480004 0.795677 0.662469
Si Si5 0.772760 0.791357 0.456609
Si Si6 0.216638 0.798812 0.783193
Si Si7 0.507514 0.790142 0.163449
Si Si8 0.774162 0.694544 0.050585
O O1 0.141829 0.746859 0.231999
O O2 0.127369 0.730634 0.347401
O O3 0.053349 0.000000 0.180753
O O4 0.904713 0.730102 0.961160
O O5 0.644680 0.728918 0.551252
O O6 0.796579 0.000000 0.763074
O O7 0.960283 0.500000 0.576511
O O8 0.831096 0.262427 0.464073
O O9 0.899076 0.222622 0.429064
O O10 0.086728 0.224258 0.783586
O O11 0.471896 0.730379 0.729881
O O12 0.460661 0.000000 0.641492
O O13 0.628979 0.769965 0.839070
O O14 0.625447 0.730497 0.275660
O O15 0.770798 0.000000 0.454813
O O16 0.207226 0.699467 0.841488
O O17 0.227467 0.000000 0.817328
O O18 0.356467 0.745546 0.939329
O O19 0.514350 0.000000 0.173085
O O20 0.767938 0.500000 0.016709
#
# Coordination Sequence:
#
# PCOD9143273 Si02
#       8
#     4   4   4   4   4   4   4   4
#     4   8  13  22  43  75 106 132 156 190 238 292
#     4   8  12  21  43  77 108 128 153 193 243 290
#     4  11  24  38  49  66  96 133 169 204 245 287
#     4   9  15  27  50  77 103 127 158 201 244 289
#     4  10  18  31  51  72 100 134 167 196 231 289
#     4  10  20  35  57  79  97 118 155 206 251 294
#     4   8  15  28  47  74 102 125 151 191 242 287
#     4  10  21  36  52  70  96 128 163 206 250 288
#
# _framework density 20.903307000000002
#
# number of rings (size 3 to 8) (size 9 to 14) (size 15 to 20)
#    0.000    2.750    1.250    3.000    0.000    4.000 
#    0.000    5.625    0.000    1.500    0.000    7.000 
#    0.000    0.000    0.000    0.000    0.000    0.000 
#
# Total GULP energy -178387.349965 kJ/mol
# GULP energy per Si atom -5574.604686 kJ/mol
# Density = 2.085573 g / cm^3
# Si number density = 20.903307 Si / 1000 Ang^3
#
#
#
# Elastic Constant Matrix: (Units=GPa)
#
#
# Indices 1 2 3 4 5 6 
#
# 1 22.9909 -1.2145 -3.1388 0.0000 13.6150 0.0000
# 2 -1.2145 29.6197 4.3373 0.0000 2.3110 0.0000
# 3 -3.1388 4.3373 119.0809 0.0000 23.4350 0.0000
# 4 0.0000 0.0000 0.0000 10.1091 0.0000 17.8033
# 5 13.6150 2.3110 23.4350 0.0000 31.3757 0.0000
# 6 0.0000 0.0000 0.0000 17.8033 0.0000 7.0215
#
#
#
# Elastic Compliance Matrix: (Units=1/GPa)
#
#
# Indices 1 2 3 4 5 6 
#
# 1 0.065705 0.004193 0.008500 0.000000 -0.035170 0.000000
# 2 0.004193 0.034302 -0.000332 0.000000 -0.004098 0.000000
# 3 0.008500 -0.000332 0.010967 0.000000 -0.011856 0.000000
# 4 0.000000 0.000000 0.000000 -0.028545 0.000000 0.072378
# 5 -0.035170 -0.004098 -0.011856 0.000000 0.056290 0.000000
# 6 0.000000 0.000000 0.000000 0.072378 0.000000 -0.041098
#
#
# Mechanical properties :
#
#
# Convention : Reuss Voigt Hill
#
# Bulk Modulus (GPa) = 7.36940 19.07327 13.22134
# Shear Modulus (GPa) = 42.32651 21.14842 31.73746
#
# Velocity S-wave (km/s) = 4.50474 3.18421 3.90076
# Velocity P-wave (km/s) = 5.53082 4.76060 5.16010
#
# Compressibility (1/GPa) = 0.13569623
#
# Stress axis : x y z
#
# Youngs Moduli (GPa) = 15.21963 29.15309 91.18275
#
# Poissons Ratio (x) = -0.12225 -0.77510
# Poissons Ratio (y) = -0.06382 0.03031
# Poissons Ratio (z) = -0.12937 0.00969
#
# Static dielectric constant tensor:
#      x y z
#    x 1.713350 0.000000 0.034600 
#    y 0.000000 1.789990 0.000000 
#    z 0.034600 0.000000 1.810320 
# 
# From -- ./inp_files/87213.got.cif
#   From: 2010.05.17/outbox.cif.g08.bks.cpg/sg10_44_cif.got.tgz:87213.got - 2010.06.03 11:33:40.
