data_PCOD9143439
_publ_section_title
;
Structure prediction by ZEFSAII (Michael W. Deem and Ramdas Pophale) SiO2 
 PCOD9143439
Probable space group: P 2/M
;
_chemical_formula_sum "Si O2"
_cell_formula_units_Z 32
_cell_length_a 17.765242
_cell_length_b 14.460527
_cell_length_c 24.661513
_cell_angle_alpha 90.000000
_cell_angle_beta 164.114378
_cell_angle_gamma 90.000000
_cell_volume 1734.115873
_symmetry_space_group_name_H-M "P 2/M"
_symmetry_group_IT_number 10
_symmetry_cell_setting 'monoclinic'
loop_
_space_group_symop_operation_xyz
x,y,z
-x,y,-z
-x,-y,-z
x,-y,z
loop_
_atom_site_type_symbol
_atom_site_label
_atom_site_fract_x
_atom_site_fract_y
_atom_site_fract_z
Si Si1 0.235103 0.894973 0.925750
Si Si2 0.741810 0.103003 0.778473
Si Si3 0.919948 0.789646 0.073026
Si Si4 0.891589 0.894849 0.366073
Si Si5 0.831012 0.226681 0.222755
Si Si6 0.810984 0.393897 0.566371
Si Si7 0.315834 0.270980 0.198664
Si Si8 0.184311 0.397065 0.300145
O O1 0.118190 0.837881 0.794295
O O2 0.186294 0.841834 0.947905
O O3 0.129484 0.000000 0.854923
O O4 0.562004 0.899710 0.142101
O O5 0.860379 0.143162 0.804580
O O6 0.569574 0.186627 0.684928
O O7 0.625184 0.000000 0.692867
O O8 0.000000 0.096587 0.000000
O O9 0.041368 0.690581 0.173930
O O10 0.701677 0.766302 0.874612
O O11 0.950957 0.825131 0.358531
O O12 0.000000 0.865563 0.500000
O O13 0.994193 0.000000 0.426382
O O14 0.972116 0.324576 0.310177
O O15 0.500000 0.236088 0.000000
O O16 0.853186 0.500000 0.580003
O O17 0.509746 0.357789 0.340820
O O18 0.831499 0.387603 0.645884
O O19 0.000000 0.289488 0.000000
O O20 0.500000 0.395132 0.500000
O O21 0.074255 0.500000 0.209293
#
# Coordination Sequence:
#
# PCOD9143439 Si02
#       8
#     4   4   4   4   4   4   4   4
#     4  10  19  33  55  84 114 147 181 225 281 336
#     4   8  15  30  49  73 109 150 182 215 265 331
#     4  10  18  31  54  81 110 143 184 232 278 335
#     4   9  19  35  58  87 114 144 183 227 279 342
#     4  10  21  39  60  81 114 153 186 236 284 338
#     4  11  23  39  59  83 112 149 196 241 288 341
#     4   9  20  35  55  81 113 153 186 233 284 341
#     4  10  20  35  56  78 107 148 193 240 282 329
#
# _framework density 18.453208
#
# number of rings (size 3 to 8) (size 9 to 14) (size 15 to 20)
#    0.000    2.625    1.250    2.250    1.750    3.000 
#    0.000    1.250    0.000    2.250    0.000    0.000 
#    0.000    0.000    0.000    0.000    0.000    0.000 
#
# Total GULP energy -178438.898624 kJ/mol
# GULP energy per Si atom -5576.215582 kJ/mol
# Density = 1.841121 g / cm^3
# Si number density = 18.453208 Si / 1000 Ang^3
#
#
#
# Elastic Constant Matrix: (Units=GPa)
#
#
# Indices 1 2 3 4 5 6 
#
# 1 117.4043 67.7498 17.6137 0.0000 -11.6130 0.0000
# 2 67.7498 151.6809 27.5533 0.0000 -5.9290 0.0000
# 3 17.6137 27.5533 37.4344 0.0000 -3.4874 0.0000
# 4 0.0000 0.0000 0.0000 23.3641 0.0000 2.1355
# 5 -11.6130 -5.9290 -3.4874 0.0000 16.6698 0.0000
# 6 0.0000 0.0000 0.0000 2.1355 0.0000 27.0441
#
#
#
# Elastic Compliance Matrix: (Units=1/GPa)
#
#
# Indices 1 2 3 4 5 6 
#
# 1 0.012231 -0.004935 -0.001522 0.000000 0.006447 0.000000
# 2 -0.004935 0.009641 -0.004870 0.000000 -0.001027 0.000000
# 3 -0.001522 -0.004870 0.031366 0.000000 0.003769 0.000000
# 4 0.000000 0.000000 0.000000 0.043112 0.000000 -0.003404
# 5 0.006447 -0.001027 0.003769 0.000000 0.064903 0.000000
# 6 0.000000 0.000000 0.000000 -0.003404 0.000000 0.037245
#
#
# Mechanical properties :
#
#
# Convention : Reuss Voigt Hill
#
# Bulk Modulus (GPa) = 32.69725 59.15037 45.92381
# Shear Modulus (GPa) = 21.61243 26.32246 23.96744
#
# Velocity S-wave (km/s) = 3.42599 3.78093 3.60783
# Velocity P-wave (km/s) = 5.77991 7.15433 6.50353
#
# Compressibility (1/GPa) = 0.03058361
#
# Stress axis : x y z
#
# Youngs Moduli (GPa) = 81.75718 103.71851 31.88209
#
# Poissons Ratio (x) = 0.51182 0.04853
# Poissons Ratio (y) = 0.40345 0.15528
# Poissons Ratio (z) = 0.12446 0.50515
#
# Static dielectric constant tensor:
#      x y z
#    x 1.627760 0.000000 0.001060 
#    y 0.000000 1.639780 0.000000 
#    z 0.001060 0.000000 1.654520 
# 
# From -- ./inp_files/85418.got.cif
#   From: 2010.05.17/outbox.cif.g08.bks.cpg/sg10_43_cif.got.tgz:85418.got - 2010.06.03 11:33:40.
