data_PCOD9143780
_publ_section_title
;
Structure prediction by ZEFSAII (Michael W. Deem and Ramdas Pophale) SiO2 
 PCOD9143780
Probable space group: P 2/M
;
_chemical_formula_sum "Si O2"
_cell_formula_units_Z 24
_cell_length_a 14.891948
_cell_length_b 13.690456
_cell_length_c 7.843907
_cell_angle_alpha 90.000000
_cell_angle_beta 38.440717
_cell_angle_gamma 90.000000
_cell_volume 994.227812
_symmetry_space_group_name_H-M "P 2/M"
_symmetry_group_IT_number 10
_symmetry_cell_setting 'monoclinic'
loop_
_space_group_symop_operation_xyz
x,y,z
-x,y,-z
-x,-y,-z
x,-y,z
loop_
_atom_site_type_symbol
_atom_site_label
_atom_site_fract_x
_atom_site_fract_y
_atom_site_fract_z
Si Si1 0.712862 0.770037 0.166832
Si Si2 0.544116 0.391064 0.208661
Si Si3 0.817510 0.389460 0.594909
Si Si4 0.148932 0.172000 0.349819
Si Si5 0.197847 0.392157 0.768634
Si Si6 0.831134 0.885057 0.292377
O O1 0.601774 0.697562 0.237140
O O2 0.832203 0.689144 0.047153
O O3 0.716804 0.829756 0.338903
O O4 0.745993 0.844429 0.965782
O O5 0.580546 0.500000 0.223003
O O6 0.371281 0.386167 0.468849
O O7 0.642527 0.386547 0.891828
O O8 0.860273 0.500000 0.585159
O O9 0.864329 0.289969 0.614496
O O10 0.862360 0.379383 0.330877
O O11 0.191542 0.136506 0.473526
O O12 0.000000 0.130201 0.500000
O O13 0.164249 0.500000 0.880716
O O14 0.819014 0.000000 0.279546
O O15 0.000000 0.857833 0.000000
#
# Coordination Sequence:
#
# PCOD9143780 Si02
#       6
#     4   4   4   4   4   4
#     4  11  21  35  59  87 117 149 184 232 288 339
#     4   9  18  32  55  89 123 157 197 235 267 319
#     4   9  18  32  53  85 122 160 195 229 272 330
#     4  11  22  38  59  84 116 147 186 235 288 346
#     4  10  18  32  57  87 122 160 198 233 268 319
#     4  11  24  43  65  86 107 137 188 247 298 345
#
# _framework density 24.139337999999999
#
# number of rings (size 3 to 8) (size 9 to 14) (size 15 to 20)
#    0.000    1.833    3.333    1.500    0.000    5.333 
#    0.000    0.000    0.000    6.500    0.000    5.833 
#    0.000    0.000    0.000    0.000    0.000    0.000 
#
# Total GULP energy -133670.181089 kJ/mol
# GULP energy per Si atom -5569.590879 kJ/mol
# Density = 2.408440 g / cm^3
# Si number density = 24.139338 Si / 1000 Ang^3
#
#
#
# Elastic Constant Matrix: (Units=GPa)
#
#
# Indices 1 2 3 4 5 6 
#
# 1 111.4708 28.4799 24.1698 0.0000 20.7587 0.0000
# 2 28.4799 82.8768 -4.4343 0.0000 -2.5498 0.0000
# 3 24.1698 -4.4343 66.8973 0.0000 17.9172 0.0000
# 4 0.0000 0.0000 0.0000 13.7992 0.0000 -9.0856
# 5 20.7587 -2.5498 17.9172 0.0000 52.9164 0.0000
# 6 0.0000 0.0000 0.0000 -9.0856 0.0000 -6.7861
#
#
#
# Elastic Compliance Matrix: (Units=1/GPa)
#
#
# Indices 1 2 3 4 5 6 
#
# 1 0.011463 -0.004234 -0.003479 0.000000 -0.003523 0.000000
# 2 -0.004234 0.013678 0.001996 0.000000 0.001644 0.000000
# 3 -0.003479 0.001996 0.017536 0.000000 -0.004477 0.000000
# 4 0.000000 0.000000 0.000000 0.038516 0.000000 -0.051567
# 5 -0.003523 0.001644 -0.004477 0.000000 0.021875 0.000000
# 6 0.000000 0.000000 0.000000 -0.051567 0.000000 -0.078320
#
#
# Mechanical properties :
#
#
# Convention : Reuss Voigt Hill
#
# Bulk Modulus (GPa) = 32.00501 39.74176 35.87338
# Shear Modulus (GPa) = 107.30582 26.18788 66.74685
#
# Velocity S-wave (km/s) = 6.67452 3.29730 5.26409
# Velocity P-wave (km/s) = 8.52562 5.56736 7.20006
#
# Compressibility (1/GPa) = 0.03124511
#
# Stress axis : x y z
#
# Youngs Moduli (GPa) = 87.23761 73.10829 57.02409
#
# Poissons Ratio (x) = 0.30952 0.19836
# Poissons Ratio (y) = 0.36933 -0.11382
# Poissons Ratio (z) = 0.30346 -0.14592
#
# Static dielectric constant tensor:
#      x y z
#    x 1.976480 0.000000 -0.000580 
#    y 0.000000 1.896580 0.000000 
#    z -0.000580 0.000000 2.125710 
# 
# From -- ./inp_files/29282.got.cif
#   From: 2010.05.17/outbox.cif.g08.bks.cpg/sg10_15_cif.got.tgz:29282.got - 2010.06.03 11:33:40.
