data_PCOD9143201
_publ_section_title
;
Structure prediction by ZEFSAII (Michael W. Deem and Ramdas Pophale) SiO2 
 PCOD9143201
Probable space group: P 2/M
;
_chemical_formula_sum "Si O2"
_cell_formula_units_Z 24
_cell_length_a 20.779987
_cell_length_b 8.227984
_cell_length_c 12.403979
_cell_angle_alpha 90.000000
_cell_angle_beta 39.793836
_cell_angle_gamma 90.000000
_cell_volume 1357.369406
_symmetry_space_group_name_H-M "P 2/M"
_symmetry_group_IT_number 10
_symmetry_cell_setting 'monoclinic'
loop_
_space_group_symop_operation_xyz
x,y,z
-x,y,-z
-x,-y,-z
x,-y,z
loop_
_atom_site_type_symbol
_atom_site_label
_atom_site_fract_x
_atom_site_fract_y
_atom_site_fract_z
Si Si1 0.387416 0.694169 0.118275
Si Si2 0.356199 0.812086 0.920776
Si Si3 0.561216 0.686805 0.573773
Si Si4 0.263390 0.690191 0.473334
Si Si5 0.279667 0.804871 0.799897
Si Si6 0.884818 0.697395 0.157455
O O1 0.391779 0.500000 0.131391
O O2 0.304655 0.761558 0.308572
O O3 0.500000 0.757746 0.000000
O O4 0.359442 0.723613 0.030728
O O5 0.466997 0.795598 0.725875
O O6 0.283459 0.749733 0.919296
O O7 0.333451 0.000000 0.971135
O O8 0.527136 0.500000 0.609078
O O9 0.641868 0.695643 0.567084
O O10 0.623276 0.736527 0.388523
O O11 0.238776 0.500000 0.485715
O O12 0.170896 0.758848 0.661998
O O13 0.183020 0.751218 0.856169
O O14 0.286251 0.000000 0.790416
O O15 0.881957 0.500000 0.163333
O O16 0.000000 0.749645 0.000000
#
# Coordination Sequence:
#
# PCOD9143201 Si02
#       6
#     4   4   4   4   4   4
#     4  10  18  31  49  69  97 135 174 204 238 291
#     4  11  22  32  44  68 104 139 169 204 244 293
#     4  10  18  31  50  71  98 133 171 207 245 292
#     4   8  15  29  48  72  99 124 157 205 248 286
#     4  10  21  34  47  70 103 133 164 204 253 303
#     4   9  18  34  57  80  98 121 160 210 259 305
#
# _framework density 17.681259000000001
#
# number of rings (size 3 to 8) (size 9 to 14) (size 15 to 20)
#    0.000    2.333    1.667    3.000    0.000    5.333 
#    0.000    0.833    0.000    1.000    0.000    7.000 
#    0.000    0.000    0.000    0.000    0.000    0.000 
#
# Total GULP energy -133795.878968 kJ/mol
# GULP energy per Si atom -5574.828290 kJ/mol
# Density = 1.764102 g / cm^3
# Si number density = 17.681259 Si / 1000 Ang^3
#
#
#
# Elastic Constant Matrix: (Units=GPa)
#
#
# Indices 1 2 3 4 5 6 
#
# 1 81.8235 1.9923 74.9187 0.0000 17.3473 0.0000
# 2 1.9923 12.7125 6.4312 0.0000 1.8370 0.0000
# 3 74.9187 6.4312 119.0340 0.0000 10.1513 0.0000
# 4 0.0000 0.0000 0.0000 16.0645 0.0000 5.0794
# 5 17.3473 1.8370 10.1513 0.0000 30.0912 0.0000
# 6 0.0000 0.0000 0.0000 5.0794 0.0000 22.1246
#
#
#
# Elastic Compliance Matrix: (Units=1/GPa)
#
#
# Indices 1 2 3 4 5 6 
#
# 1 0.033291 0.006866 -0.020234 0.000000 -0.012785 0.000000
# 2 0.006866 0.082662 -0.008257 0.000000 -0.006219 0.000000
# 3 -0.020234 -0.008257 0.021153 0.000000 0.005033 0.000000
# 4 0.000000 0.000000 0.000000 0.067121 0.000000 -0.015410
# 5 -0.012785 -0.006219 0.005033 0.000000 0.039285 0.000000
# 6 0.000000 0.000000 0.000000 -0.015410 0.000000 0.048736
#
#
# Mechanical properties :
#
#
# Convention : Reuss Voigt Hill
#
# Bulk Modulus (GPa) = 10.65452 42.25049 26.45251
# Shear Modulus (GPa) = 13.63203 22.33794 17.98498
#
# Velocity S-wave (km/s) = 2.77968 3.55824 3.19278
# Velocity P-wave (km/s) = 4.04241 6.38976 5.34650
#
# Compressibility (1/GPa) = 0.09385685
#
# Stress axis : x y z
#
# Youngs Moduli (GPa) = 30.03818 12.09739 47.27527
#
# Poissons Ratio (x) = -0.08306 0.95655
# Poissons Ratio (y) = -0.20625 0.39037
# Poissons Ratio (z) = 0.60778 0.09989
#
# Static dielectric constant tensor:
#      x y z
#    x 1.606050 0.000000 0.022830 
#    y 0.000000 1.615990 0.000000 
#    z 0.022830 0.000000 1.616360 
# 
# From -- ./inp_files/45158.got.cif
#   From: 2010.05.17/outbox.cif.g08.bks.cpg/sg10_23_cif.got.tgz:45158.got - 2010.06.03 11:33:40.
