data_PCOD9143046
_publ_section_title
;
Structure prediction by ZEFSAII (Michael W. Deem and Ramdas Pophale) SiO2 
 PCOD9143046
Probable space group: P 2/M
;
_chemical_formula_sum "Si O2"
_cell_formula_units_Z 32
_cell_length_a 23.315383
_cell_length_b 7.326111
_cell_length_c 15.625568
_cell_angle_alpha 90.000000
_cell_angle_beta 148.065806
_cell_angle_gamma 90.000000
_cell_volume 1411.764640
_symmetry_space_group_name_H-M "P 2/M"
_symmetry_group_IT_number 10
_symmetry_cell_setting 'monoclinic'
loop_
_space_group_symop_operation_xyz
x,y,z
-x,y,-z
-x,-y,-z
x,-y,z
loop_
_atom_site_type_symbol
_atom_site_label
_atom_site_fract_x
_atom_site_fract_y
_atom_site_fract_z
Si Si1 0.874439 0.722614 0.338825
Si Si2 0.086436 0.277862 0.262954
Si Si3 0.275531 0.723299 0.372781
Si Si4 0.506085 0.292432 0.728561
Si Si5 0.252787 0.723589 0.992045
Si Si6 0.791164 0.279459 0.416746
Si Si7 0.545228 0.790230 0.145901
Si Si8 0.842573 0.722274 0.946842
O O1 0.873475 0.500000 0.337622
O O2 0.816034 0.781932 0.352246
O O3 0.000000 0.778146 0.500000
O O4 0.812665 0.781532 0.175143
O O5 0.085855 0.500000 0.259578
O O6 0.182209 0.218858 0.321064
O O7 0.118074 0.224794 0.399595
O O8 0.965989 0.218471 0.086140
O O9 0.277421 0.500000 0.379082
O O10 0.394674 0.788476 0.550850
O O11 0.237754 0.777868 0.230582
O O12 0.509172 0.500000 0.699746
O O13 0.622769 0.212677 0.853803
O O14 0.494152 0.296731 0.816193
O O15 0.253444 0.500000 0.990874
O O16 0.196108 0.778829 0.008341
O O17 0.788714 0.500000 0.412820
O O18 0.674718 0.218083 0.303136
O O19 0.508730 0.000000 0.103874
O O20 0.500000 0.710509 0.000000
O O21 0.843334 0.500000 0.947362
#
# Coordination Sequence:
#
# PCOD9143046 Si02
#       8
#     4   4   4   4   4   4   4   4
#     4   9  16  26  42  68 100 131 164 200 241 291
#     4   9  15  25  42  68 100 130 163 199 240 291
#     4   9  16  26  42  67  99 134 165 197 242 294
#     4  10  19  33  51  72 101 128 162 205 245 294
#     4   9  17  27  40  64  97 131 163 199 244 290
#     4  10  18  30  51  75  99 130 164 202 247 287
#     4  11  23  36  50  71  98 128 164 202 244 296
#     4   9  16  25  40  67 104 136 160 198 249 290
#
# _framework density 22.666668000000001
#
# number of rings (size 3 to 8) (size 9 to 14) (size 15 to 20)
#    0.000    2.500    1.250    2.250    0.000    7.000 
#    0.000    2.500    0.000    0.375    0.000    6.125 
#    0.000    0.000    0.000    0.000    0.000    0.000 
#
# Total GULP energy -178870.879185 kJ/mol
# GULP energy per Si atom -5589.714975 kJ/mol
# Density = 2.261508 g / cm^3
# Si number density = 22.666668 Si / 1000 Ang^3
#
#
#
# Elastic Constant Matrix: (Units=GPa)
#
#
# Indices 1 2 3 4 5 6 
#
# 1 111.1484 -0.3463 56.5610 0.0000 4.4396 0.0000
# 2 -0.3463 88.3965 3.5808 0.0000 -0.8823 0.0000
# 3 56.5610 3.5808 168.2895 0.0000 3.4011 0.0000
# 4 0.0000 0.0000 0.0000 -3.6356 0.0000 5.3780
# 5 4.4396 -0.8823 3.4011 0.0000 45.5429 0.0000
# 6 0.0000 0.0000 0.0000 5.3780 0.0000 -29.1536
#
#
#
# Elastic Compliance Matrix: (Units=1/GPa)
#
#
# Indices 1 2 3 4 5 6 
#
# 1 0.010884 0.000182 -0.003646 0.000000 -0.000785 0.000000
# 2 0.000182 0.011328 -0.000307 0.000000 0.000225 0.000000
# 3 -0.003646 -0.000307 0.007178 0.000000 -0.000187 0.000000
# 4 0.000000 0.000000 0.000000 -0.378281 0.000000 -0.069782
# 5 -0.000785 0.000225 -0.000187 0.000000 0.022052 0.000000
# 6 0.000000 0.000000 0.000000 -0.069782 0.000000 -0.047174
#
#
# Mechanical properties :
#
#
# Convention : Reuss Voigt Hill
#
# Bulk Modulus (GPa) = 45.76836 54.15836 49.96336
# Shear Modulus (GPa) = -13.92026 23.08665 4.58319
#
# Velocity S-wave (km/s) = -2.48085 3.19490 1.42351
# Velocity P-wave (km/s) = 3.46837 6.12822 4.97919
#
# Compressibility (1/GPa) = 0.02184915
#
# Stress axis : x y z
#
# Youngs Moduli (GPa) = 91.87483 88.27643 139.31654
#
# Poissons Ratio (x) = -0.01611 0.50797
# Poissons Ratio (y) = -0.01677 0.04276
# Poissons Ratio (z) = 0.33499 0.02709
#
# Static dielectric constant tensor:
#      x y z
#    x 1.773250 0.000000 -0.001390 
#    y 0.000000 1.875180 0.000000 
#    z -0.001390 0.000000 1.806930 
# 
# From -- ./inp_files/71589.got.cif
#   From: 2010.05.17/outbox.cif.g08.bks.cpg/sg10_36_cif.got.tgz:71589.got - 2010.06.03 11:33:40.
