data_PCOD9143863
_publ_section_title
;
Structure prediction by ZEFSAII (Michael W. Deem and Ramdas Pophale) SiO2 
 PCOD9143863
Probable space group: P 2/M
;
_chemical_formula_sum "Si O2"
_cell_formula_units_Z 28
_cell_length_a 20.246214
_cell_length_b 7.538614
_cell_length_c 23.401393
_cell_angle_alpha 90.000000
_cell_angle_beta 159.516637
_cell_angle_gamma 90.000000
_cell_volume 1249.870159
_symmetry_space_group_name_H-M "P 2/M"
_symmetry_group_IT_number 10
_symmetry_cell_setting 'monoclinic'
loop_
_space_group_symop_operation_xyz
x,y,z
-x,y,-z
-x,-y,-z
x,-y,z
loop_
_atom_site_type_symbol
_atom_site_label
_atom_site_fract_x
_atom_site_fract_y
_atom_site_fract_z
Si Si1 0.064417 0.281704 0.412356
Si Si2 0.746094 0.793735 0.963563
Si Si3 0.826729 0.286172 0.898619
Si Si4 0.408003 0.296832 0.760892
Si Si5 0.629938 0.716156 0.051757
Si Si6 0.460342 0.282917 0.531968
Si Si7 0.878628 0.290358 0.667370
O O1 0.066751 0.500000 0.415202
O O2 0.208458 0.220257 0.578201
O O3 0.141632 0.221636 0.413105
O O4 0.845763 0.225880 0.236711
O O5 0.820561 0.763045 0.959921
O O6 0.550456 0.702483 0.822280
O O7 0.712818 0.000000 0.944396
O O8 0.909421 0.733344 0.138984
O O9 0.834582 0.500000 0.903537
O O10 0.632504 0.230183 0.711861
O O11 0.000000 0.221275 0.000000
O O12 0.367652 0.500000 0.744927
O O13 0.527338 0.219641 0.910552
O O14 0.639916 0.500000 0.056178
O O15 0.500000 0.762967 0.000000
O O16 0.500000 0.222042 0.500000
O O17 0.455714 0.500000 0.525884
O O18 0.267069 0.219195 0.403914
O O19 0.841892 0.500000 0.634149
#
# Coordination Sequence:
#
# PCOD9143863 Si02
#       7
#     4   4   4   4   4   4   4
#     4   9  17  30  53  84 111 144 187 229 279 335
#     4  12  24  36  53  79 112 147 187 233 282 332
#     4  10  20  36  59  83 107 141 184 228 280 338
#     4  10  19  35  59  82 111 149 188 230 277 333
#     4   9  17  30  52  87 123 146 175 229 287 334
#     4   9  17  30  52  82 107 132 176 230 276 325
#     4  10  18  33  55  76 105 142 185 232 276 330
#
# _framework density 22.402325999999999
#
# number of rings (size 3 to 8) (size 9 to 14) (size 15 to 20)
#    0.000    2.143    1.429    3.000    0.000    5.429 
#    0.000    5.714    0.000    2.143    0.000    1.000 
#    0.000    0.000    0.000    0.000    0.000    0.000 
#
# Total GULP energy -156398.560699 kJ/mol
# GULP energy per Si atom -5585.662882 kJ/mol
# Density = 2.235134 g / cm^3
# Si number density = 22.402326 Si / 1000 Ang^3
#
#
#
# Elastic Constant Matrix: (Units=GPa)
#
#
# Indices 1 2 3 4 5 6 
#
# 1 140.6155 -16.4822 54.0467 0.0000 27.5734 0.0000
# 2 -16.4822 69.0338 11.3629 0.0000 -15.8203 0.0000
# 3 54.0467 11.3629 191.5758 0.0000 -19.3790 0.0000
# 4 0.0000 0.0000 0.0000 -30.4183 0.0000 12.2919
# 5 27.5734 -15.8203 -19.3790 0.0000 54.1061 0.0000
# 6 0.0000 0.0000 0.0000 12.2919 0.0000 -48.4376
#
#
#
# Elastic Compliance Matrix: (Units=1/GPa)
#
#
# Indices 1 2 3 4 5 6 
#
# 1 0.009732 0.001575 -0.003418 0.000000 -0.005724 0.000000
# 2 0.001575 0.015823 -0.001033 0.000000 0.003454 0.000000
# 3 -0.003418 -0.001033 0.006631 0.000000 0.003815 0.000000
# 4 0.000000 0.000000 0.000000 -0.036631 0.000000 -0.009296
# 5 -0.005724 0.003454 0.003815 0.000000 0.023775 0.000000
# 6 0.000000 0.000000 0.000000 -0.009296 0.000000 -0.023004
#
#
# Mechanical properties :
#
#
# Convention : Reuss Voigt Hill
#
# Bulk Modulus (GPa) = 37.83107 55.45332 46.64219
# Shear Modulus (GPa) = 459.08300 18.53654 238.80977
#
# Velocity S-wave (km/s) = 14.33078 2.87964 10.33595
# Velocity P-wave (km/s) = 17.05146 5.98862 12.77920
#
# Compressibility (1/GPa) = 0.02643330
#
# Stress axis : x y z
#
# Youngs Moduli (GPa) = 102.75155 63.19817 150.79956
#
# Poissons Ratio (x) = -0.09951 0.51543
# Poissons Ratio (y) = -0.16179 0.15583
# Poissons Ratio (z) = 0.35120 0.06530
#
# Static dielectric constant tensor:
#      x y z
#    x 1.793500 0.000000 -0.010530 
#    y 0.000000 1.835640 0.000000 
#    z -0.010530 0.000000 1.793440 
# 
# From -- ./inp_files/90416.got.cif
#   From: 2010.05.17/outbox.cif.g08.bks.cpg/sg10_46_cif.got.tgz:90416.got - 2010.06.03 11:33:40.
