data_PCOD9143493
_publ_section_title
;
Structure prediction by ZEFSAII (Michael W. Deem and Ramdas Pophale) SiO2 
 PCOD9143493
Probable space group: P 2/M
;
_chemical_formula_sum "Si O2"
_cell_formula_units_Z 28
_cell_length_a 13.915450
_cell_length_b 8.728921
_cell_length_c 14.828609
_cell_angle_alpha 90.000000
_cell_angle_beta 77.621118
_cell_angle_gamma 90.000000
_cell_volume 1759.309534
_symmetry_space_group_name_H-M "P 2/M"
_symmetry_group_IT_number 10
_symmetry_cell_setting 'monoclinic'
loop_
_space_group_symop_operation_xyz
x,y,z
-x,y,-z
-x,-y,-z
x,-y,z
loop_
_atom_site_type_symbol
_atom_site_label
_atom_site_fract_x
_atom_site_fract_y
_atom_site_fract_z
Si Si1 0.418311 0.179292 0.900418
Si Si2 0.277683 0.317813 0.070746
Si Si3 0.584734 0.316930 0.599212
Si Si4 0.754886 0.179421 0.210813
Si Si5 0.631243 0.182986 0.778735
Si Si6 0.629685 0.814781 0.400505
Si Si7 0.888863 0.315651 0.036555
O O1 0.341228 0.193075 0.833897
O O2 0.525038 0.224615 0.843510
O O3 0.421604 0.000000 0.926922
O O4 0.372798 0.274740 0.991163
O O5 0.272556 0.500000 0.083471
O O6 0.289048 0.237387 0.164604
O O7 0.184683 0.264954 0.029022
O O8 0.579215 0.500000 0.595460
O O9 0.635400 0.262577 0.680961
O O10 0.473991 0.248004 0.617268
O O11 0.637166 0.250512 0.499584
O O12 0.718024 0.232109 0.316143
O O13 0.841179 0.264267 0.140532
O O14 0.779954 0.000000 0.211257
O O15 0.633312 0.000000 0.767189
O O16 0.624310 0.000000 0.402841
O O17 0.889258 0.500000 0.034527
O O18 0.000000 0.260417 0.000000
#
# Coordination Sequence:
#
# PCOD9143493 Si02
#       7
#     4   4   4   4   4   4   4
#     4   9  17  30  44  62  90 127 162 189 225 278
#     4  10  20  31  45  68  93 120 157 199 235 279
#     4  11  21  30  44  68  96 128 167 205 233 268
#     4   9  17  30  49  71  94 124 162 198 233 276
#     4  11  20  32  46  63  92 132 164 192 233 282
#     4  10  18  32  48  66  95 131 165 197 238 282
#     4   9  19  35  52  71  97 126 154 192 245 293
#
# _framework density 15.915335000000001
#
# number of rings (size 3 to 8) (size 9 to 14) (size 15 to 20)
#    0.000    2.143    1.429    3.857    0.000    4.857 
#    0.000    0.000    0.000    0.000    0.000    1.000 
#    0.000    8.000    0.000    0.000    0.000    0.000 
#
# Total GULP energy -156184.317839 kJ/mol
# GULP energy per Si atom -5578.011351 kJ/mol
# Density = 1.587911 g / cm^3
# Si number density = 15.915335 Si / 1000 Ang^3
#
#
#
# Elastic Constant Matrix: (Units=GPa)
#
#
# Indices 1 2 3 4 5 6 
#
# 1 65.3936 21.7155 56.0534 0.0000 -10.6197 0.0000
# 2 21.7155 50.3650 44.8271 0.0000 1.0155 0.0000
# 3 56.0534 44.8271 135.9788 0.0000 0.8707 0.0000
# 4 0.0000 0.0000 0.0000 34.1811 0.0000 -0.0951
# 5 -10.6197 1.0155 0.8707 0.0000 18.3681 0.0000
# 6 0.0000 0.0000 0.0000 -0.0951 0.0000 15.7300
#
#
#
# Elastic Compliance Matrix: (Units=1/GPa)
#
#
# Indices 1 2 3 4 5 6 
#
# 1 0.028293 -0.002922 -0.010809 0.000000 0.017032 0.000000
# 2 -0.002922 0.028425 -0.008148 0.000000 -0.002875 0.000000
# 3 -0.010809 -0.008148 0.014537 0.000000 -0.006488 0.000000
# 4 0.000000 0.000000 0.000000 0.029256 0.000000 0.000177
# 5 0.017032 -0.002875 -0.006488 0.000000 0.064756 0.000000
# 6 0.000000 0.000000 0.000000 0.000177 0.000000 0.063574
#
#
# Mechanical properties :
#
#
# Convention : Reuss Voigt Hill
#
# Bulk Modulus (GPa) = 36.36607 55.21437 45.79022
# Shear Modulus (GPa) = 17.74529 22.26525 20.00527
#
# Velocity S-wave (km/s) = 3.34276 3.74435 3.54924
# Velocity P-wave (km/s) = 6.14801 7.31173 6.75498
#
# Compressibility (1/GPa) = 0.02749816
#
# Stress axis : x y z
#
# Youngs Moduli (GPa) = 35.34396 35.18079 68.78875
#
# Poissons Ratio (x) = 0.10280 0.74353
# Poissons Ratio (y) = 0.10328 0.56046
# Poissons Ratio (z) = 0.38203 0.28664
#
# Static dielectric constant tensor:
#      x y z
#    x 1.520450 0.000000 0.010850 
#    y 0.000000 1.534400 0.000000 
#    z 0.010850 0.000000 1.546740 
# 
# From -- ./inp_files/65728.got.cif
#   From: 2010.05.17/outbox.cif.g08.bks.cpg/sg10_33_cif.got.tgz:65728.got - 2010.06.03 11:33:40.
