data_PCOD9143370
_publ_section_title
;
Structure prediction by ZEFSAII (Michael W. Deem and Ramdas Pophale) SiO2 
 PCOD9143370
Probable space group: P 2/M
;
_chemical_formula_sum "Si O2"
_cell_formula_units_Z 24
_cell_length_a 22.422945
_cell_length_b 7.343574
_cell_length_c 11.937014
_cell_angle_alpha 90.000000
_cell_angle_beta 31.902645
_cell_angle_gamma 90.000000
_cell_volume 1038.777068
_symmetry_space_group_name_H-M "P 2/M"
_symmetry_group_IT_number 10
_symmetry_cell_setting 'monoclinic'
loop_
_space_group_symop_operation_xyz
x,y,z
-x,y,-z
-x,-y,-z
x,-y,z
loop_
_atom_site_type_symbol
_atom_site_label
_atom_site_fract_x
_atom_site_fract_y
_atom_site_fract_z
Si Si1 0.280057 0.777426 0.550082
Si Si2 0.830250 0.211569 0.048300
Si Si3 0.535323 0.209365 0.127569
Si Si4 0.967642 0.777165 0.426839
Si Si5 0.743888 0.221959 0.661667
Si Si6 0.389981 0.718494 0.745547
O O1 0.210185 0.710939 0.768349
O O2 0.410447 0.713861 0.345160
O O3 0.233592 0.727425 0.502479
O O4 0.281341 0.000000 0.555527
O O5 0.723030 0.221158 0.136433
O O6 0.857012 0.000000 0.026440
O O7 0.938434 0.286698 0.811489
O O8 0.598121 0.214402 0.146822
O O9 0.516176 0.000000 0.124170
O O10 0.621920 0.287379 0.898926
O O11 0.844075 0.720253 0.583598
O O12 0.000000 0.718795 0.500000
O O13 0.969039 0.000000 0.425354
O O14 0.740665 0.000000 0.670462
O O15 0.500000 0.779143 0.500000
O O16 0.390417 0.500000 0.747538
#
# Coordination Sequence:
#
# PCOD9143370 Si02
#       6
#     4   4   4   4   4   4
#     4   9  17  28  46  76 105 131 167 208 249 293
#     4  10  19  32  52  76 102 132 169 210 247 292
#     4  10  18  31  53  76 102 133 167 208 249 295
#     4   9  17  29  46  72 104 135 167 204 248 293
#     4   9  17  29  48  76 107 135 164 204 252 295
#     4  11  22  34  50  74 103 132 164 206 257 303
#
# _framework density 23.104089999999999
#
# number of rings (size 3 to 8) (size 9 to 14) (size 15 to 20)
#    0.000    2.333    1.667    2.000    0.000    6.000 
#    0.000    3.333    0.000    7.500    0.000    1.167 
#    0.000    0.000    0.000    0.000    0.000    0.000 
#
# Total GULP energy -134167.027294 kJ/mol
# GULP energy per Si atom -5590.292804 kJ/mol
# Density = 2.305150 g / cm^3
# Si number density = 23.104090 Si / 1000 Ang^3
#
#
#
# Elastic Constant Matrix: (Units=GPa)
#
#
# Indices 1 2 3 4 5 6 
#
# 1 111.7690 -4.5181 51.2433 0.0000 24.8586 0.0000
# 2 -4.5181 91.2108 14.3223 0.0000 3.1180 0.0000
# 3 51.2433 14.3223 159.9119 0.0000 9.0472 0.0000
# 4 0.0000 0.0000 0.0000 -19.5276 0.0000 -1.3873
# 5 24.8586 3.1180 9.0472 0.0000 29.0760 0.0000
# 6 0.0000 0.0000 0.0000 -1.3873 0.0000 -49.6845
#
#
#
# Elastic Compliance Matrix: (Units=1/GPa)
#
#
# Indices 1 2 3 4 5 6 
#
# 1 0.012962 0.001572 -0.003724 0.000000 -0.010092 0.000000
# 2 0.001572 0.011334 -0.001399 0.000000 -0.002124 0.000000
# 3 -0.003724 -0.001399 0.007516 0.000000 0.000995 0.000000
# 4 0.000000 0.000000 0.000000 -0.051311 0.000000 0.001433
# 5 -0.010092 -0.002124 0.000995 0.000000 0.042939 0.000000
# 6 0.000000 0.000000 0.000000 0.001433 0.000000 -0.020167
#
#
# Mechanical properties :
#
#
# Convention : Reuss Voigt Hill
#
# Bulk Modulus (GPa) = 40.46797 53.88741 47.17769
# Shear Modulus (GPa) = 268.67288 12.09573 140.38431
#
# Velocity S-wave (km/s) = 10.79539 2.29056 7.80343
# Velocity P-wave (km/s) = 13.15070 5.51090 10.08243
#
# Compressibility (1/GPa) = 0.02471090
#
# Stress axis : x y z
#
# Youngs Moduli (GPa) = 77.14682 88.23247 133.05637
#
# Poissons Ratio (x) = -0.13868 0.49544
# Poissons Ratio (y) = -0.12126 0.18609
# Poissons Ratio (z) = 0.28726 0.12340
#
# Static dielectric constant tensor:
#      x y z
#    x 1.803510 0.000000 0.009400 
#    y 0.000000 1.864550 0.000000 
#    z 0.009400 0.000000 1.841290 
# 
# From -- ./inp_files/45017.got.cif
#   From: 2010.05.17/outbox.cif.g08.bks.cpg/sg10_23_cif.got.tgz:45017.got - 2010.06.03 11:33:40.
