data_PCOD9143827
_publ_section_title
;
Structure prediction by ZEFSAII (Michael W. Deem and Ramdas Pophale) SiO2 
 PCOD9143827
Probable space group: P 2/M
;
_chemical_formula_sum "Si O2"
_cell_formula_units_Z 32
_cell_length_a 25.140171
_cell_length_b 17.277339
_cell_length_c 10.322386
_cell_angle_alpha 90.000000
_cell_angle_beta 154.473768
_cell_angle_gamma 90.000000
_cell_volume 1932.084643
_symmetry_space_group_name_H-M "P 2/M"
_symmetry_group_IT_number 10
_symmetry_cell_setting 'monoclinic'
loop_
_space_group_symop_operation_xyz
x,y,z
-x,y,-z
-x,-y,-z
x,-y,z
loop_
_atom_site_type_symbol
_atom_site_label
_atom_site_fract_x
_atom_site_fract_y
_atom_site_fract_z
Si Si1 0.993405 0.684150 0.633941
Si Si2 0.567341 0.587431 0.287107
Si Si3 0.103796 0.591537 0.337246
Si Si4 0.643619 0.324636 0.083028
Si Si5 0.493275 0.176456 0.841874
Si Si6 0.270541 0.727592 0.268093
Si Si7 0.741553 0.235306 0.056465
Si Si8 0.396834 0.087914 0.161337
O O1 0.000000 0.653234 0.500000
O O2 0.950694 0.621203 0.645407
O O3 0.885892 0.748180 0.392840
O O4 0.123719 0.721708 0.959743
O O5 0.612234 0.500000 0.395155
O O6 0.673213 0.648807 0.549700
O O7 0.500000 0.597127 0.000000
O O8 0.456822 0.607625 0.142339
O O9 0.132684 0.500000 0.404836
O O10 0.227933 0.640882 0.582163
O O11 0.000000 0.604260 0.000000
O O12 0.670301 0.289280 0.001588
O O13 0.579190 0.254433 0.021255
O O14 0.352858 0.204584 0.510513
O O15 0.542188 0.121249 0.835917
O O16 0.500000 0.142870 0.000000
O O17 0.293789 0.739063 0.165644
O O18 0.705267 0.148273 0.013123
O O19 0.500000 0.088474 0.500000
O O20 0.353387 0.000000 0.047815
#
# Coordination Sequence:
#
# PCOD9143827 Si02
#       8
#     4   4   4   4   4   4   4   4
#     4   9  20  35  53  72  98 134 175 214 257 301
#     4  10  21  32  46  69  99 136 173 217 269 311
#     4  10  21  32  47  70  98 135 176 222 265 300
#     4   9  18  33  49  68 101 130 174 213 258 301
#     4  10  20  31  53  82 105 136 168 210 253 301
#     4  10  18  33  53  73 102 133 173 216 252 306
#     4   9  18  35  54  77  99 132 168 212 248 307
#     4  10  19  34  58  83 108 137 163 199 253 310
#
# _framework density 16.562421000000001
#
# number of rings (size 3 to 8) (size 9 to 14) (size 15 to 20)
#    0.000    2.375    1.250    1.875    3.500    1.000 
#    0.000    6.250    0.000    4.125    0.000    0.875 
#    0.000    0.000    0.000    0.000    0.000    0.000 
#
# Total GULP energy -178301.784503 kJ/mol
# GULP energy per Si atom -5571.930766 kJ/mol
# Density = 1.652472 g / cm^3
# Si number density = 16.562421 Si / 1000 Ang^3
#
#
#
# Elastic Constant Matrix: (Units=GPa)
#
#
# Indices 1 2 3 4 5 6 
#
# 1 64.1485 21.3130 27.9949 0.0000 -7.3712 0.0000
# 2 21.3130 86.3556 29.7775 0.0000 -14.0400 0.0000
# 3 27.9949 29.7775 83.4218 0.0000 -2.4509 0.0000
# 4 0.0000 0.0000 0.0000 17.7520 0.0000 -2.7219
# 5 -7.3712 -14.0400 -2.4509 0.0000 20.3426 0.0000
# 6 0.0000 0.0000 0.0000 -2.7219 0.0000 9.2036
#
#
#
# Elastic Compliance Matrix: (Units=1/GPa)
#
#
# Indices 1 2 3 4 5 6 
#
# 1 0.019270 -0.002027 -0.005599 0.000000 0.004909 0.000000
# 2 -0.002027 0.015100 -0.004441 0.000000 0.009152 0.000000
# 3 -0.005599 -0.004441 0.015356 0.000000 -0.003243 0.000000
# 4 0.000000 0.000000 0.000000 0.059007 0.000000 0.017451
# 5 0.004909 0.009152 -0.003243 0.000000 0.056862 0.000000
# 6 0.000000 0.000000 0.000000 0.017451 0.000000 0.113814
#
#
# Mechanical properties :
#
#
# Convention : Reuss Voigt Hill
#
# Bulk Modulus (GPa) = 39.07465 43.56628 41.32046
# Shear Modulus (GPa) = 16.02190 19.78233 17.90212
#
# Velocity S-wave (km/s) = 3.11362 3.45977 3.29125
# Velocity P-wave (km/s) = 6.04729 6.50549 6.28057
#
# Compressibility (1/GPa) = 0.02559204
#
# Stress axis : x y z
#
# Youngs Moduli (GPa) = 51.89478 66.22733 65.12155
#
# Poissons Ratio (x) = 0.13426 0.36460
# Poissons Ratio (y) = 0.10520 0.28918
# Poissons Ratio (z) = 0.29055 0.29409
#
# Static dielectric constant tensor:
#      x y z
#    x 1.582830 0.000000 -0.003470 
#    y 0.000000 1.542220 0.000000 
#    z -0.003470 0.000000 1.558850 
# 
# From -- ./inp_files/36477.got.cif
#   From: 2010.05.17/outbox.cif.g08.bks.cpg/sg10_19_cif.got.tgz:36477.got - 2010.06.03 11:33:40.
