data_PCOD9143229
_publ_section_title
;
Structure prediction by ZEFSAII (Michael W. Deem and Ramdas Pophale) SiO2 
 PCOD9143229
Probable space group: P 2/M
;
_chemical_formula_sum "Si O2"
_cell_formula_units_Z 32
_cell_length_a 12.908918
_cell_length_b 8.915793
_cell_length_c 24.164392
_cell_angle_alpha 90.000000
_cell_angle_beta 46.592125
_cell_angle_gamma 90.000000
_cell_volume 2020.456432
_symmetry_space_group_name_H-M "P 2/M"
_symmetry_group_IT_number 10
_symmetry_cell_setting 'monoclinic'
loop_
_space_group_symop_operation_xyz
x,y,z
-x,y,-z
-x,-y,-z
x,-y,z
loop_
_atom_site_type_symbol
_atom_site_label
_atom_site_fract_x
_atom_site_fract_y
_atom_site_fract_z
Si Si1 0.618108 0.817480 0.690374
Si Si2 0.822481 0.180617 0.417158
Si Si3 0.940039 0.817058 0.581944
Si Si4 0.330329 0.820342 0.850854
Si Si5 0.541719 0.819639 0.592248
Si Si6 0.885664 0.672807 0.991457
Si Si7 0.893583 0.821828 0.166156
Si Si8 0.762956 0.321460 0.322248
O O1 0.776605 0.767181 0.648020
O O2 0.489404 0.768946 0.777269
O O3 0.582353 0.776227 0.640123
O O4 0.618277 0.000000 0.691244
O O5 0.674707 0.213032 0.503540
O O6 0.821918 0.258669 0.358294
O O7 0.952817 0.228210 0.408832
O O8 0.829319 0.000000 0.407598
O O9 0.000000 0.770188 0.500000
O O10 0.940126 0.000000 0.581456
O O11 0.231425 0.790937 0.833143
O O12 0.329362 0.000000 0.859402
O O13 0.256371 0.743058 0.930296
O O14 0.397747 0.740205 0.626361
O O15 0.518148 0.000000 0.600303
O O16 0.865481 0.500000 0.983291
O O17 0.960349 0.764084 0.914943
O O18 0.000000 0.678025 0.000000
O O19 0.853192 0.740332 0.237425
O O20 0.897874 0.000000 0.173018
O O21 0.762453 0.500000 0.322247
#
# Coordination Sequence:
#
# PCOD9143229 Si02
#       8
#     4   4   4   4   4   4   4   4
#     4   9  15  26  47  75 101 125 158 204 251 288
#     4  10  20  33  52  73  95 127 169 210 248 290
#     4   9  15  27  50  77  98 119 159 213 256 286
#     4   9  16  27  45  69  98 129 160 195 238 288
#     4  10  18  32  51  71  96 128 166 206 246 290
#     4   9  17  28  43  67 100 131 159 191 233 287
#     4  10  18  31  50  70  95 127 164 199 240 290
#     4  12  24  34  46  67 100 135 168 203 244 293
#
# _framework density 15.838006999999999
#
# number of rings (size 3 to 8) (size 9 to 14) (size 15 to 20)
#    0.000    2.250    2.500    2.250    0.000    4.000 
#    0.000    0.000    0.000    1.875    0.000    0.875 
#    0.000    7.000    0.000    0.000    0.000    0.000 
#
# Total GULP energy -178474.272922 kJ/mol
# GULP energy per Si atom -5577.321029 kJ/mol
# Density = 1.580196 g / cm^3
# Si number density = 15.838007 Si / 1000 Ang^3
#
#
#
# Elastic Constant Matrix: (Units=GPa)
#
#
# Indices 1 2 3 4 5 6 
#
# 1 103.0738 37.5201 77.0119 0.0000 2.2039 0.0000
# 2 37.5201 38.4170 52.0013 0.0000 1.3903 0.0000
# 3 77.0119 52.0013 140.6392 0.0000 -16.5546 0.0000
# 4 0.0000 0.0000 0.0000 6.3126 0.0000 4.4976
# 5 2.2039 1.3903 -16.5546 0.0000 16.5461 0.0000
# 6 0.0000 0.0000 0.0000 4.4976 0.0000 0.7250
#
#
#
# Elastic Compliance Matrix: (Units=1/GPa)
#
#
# Indices 1 2 3 4 5 6 
#
# 1 0.019411 -0.004112 -0.010624 0.000000 -0.012869 0.000000
# 2 -0.004112 0.066126 -0.025830 0.000000 -0.030852 0.000000
# 3 -0.010624 -0.025830 0.025957 0.000000 0.029556 0.000000
# 4 0.000000 0.000000 0.000000 -0.046319 0.000000 0.287350
# 5 -0.012869 -0.030852 0.029556 0.000000 0.094315 0.000000
# 6 0.000000 0.000000 0.000000 0.287350 0.000000 -0.403308
#
#
# Mechanical properties :
#
#
# Convention : Reuss Voigt Hill
#
# Bulk Modulus (GPa) = 32.93440 68.35516 50.64478
# Shear Modulus (GPa) = -32.77308 12.42319 -10.17495
#
# Velocity S-wave (km/s) = -4.55386 2.80374 -2.53739
# Velocity P-wave (km/s) = 2.60969 7.33034 4.84373
#
# Compressibility (1/GPa) = 0.03036339
#
# Stress axis : x y z
#
# Youngs Moduli (GPa) = 51.51615 15.12258 38.52457
#
# Poissons Ratio (x) = 0.06219 0.40927
# Poissons Ratio (y) = 0.21184 0.99509
# Poissons Ratio (z) = 0.54729 0.39062
#
# Static dielectric constant tensor:
#      x y z
#    x 1.510200 0.000000 -0.012030 
#    y 0.000000 1.523710 0.000000 
#    z -0.012030 0.000000 1.526110 
# 
# From -- ./inp_files/52791.got.cif
#   From: 2010.05.17/outbox.cif.g08.bks.cpg/sg10_27_cif.got.tgz:52791.got - 2010.06.03 11:33:40.
