data_PCOD9143205
_publ_section_title
;
Structure prediction by ZEFSAII (Michael W. Deem and Ramdas Pophale) SiO2 
 PCOD9143205
Probable space group: P 2/M
;
_chemical_formula_sum "Si O2"
_cell_formula_units_Z 28
_cell_length_a 19.614539
_cell_length_b 8.426575
_cell_length_c 16.623876
_cell_angle_alpha 90.000000
_cell_angle_beta 147.386405
_cell_angle_gamma 90.000000
_cell_volume 1480.903006
_symmetry_space_group_name_H-M "P 2/M"
_symmetry_group_IT_number 10
_symmetry_cell_setting 'monoclinic'
loop_
_space_group_symop_operation_xyz
x,y,z
-x,y,-z
-x,-y,-z
x,-y,z
loop_
_atom_site_type_symbol
_atom_site_label
_atom_site_fract_x
_atom_site_fract_y
_atom_site_fract_z
Si Si1 0.562114 0.319767 0.681024
Si Si2 0.392976 0.308562 0.829391
Si Si3 0.048599 0.815903 0.131785
Si Si4 0.880428 0.807400 0.628175
Si Si5 0.101636 0.308436 0.534188
Si Si6 0.589245 0.812785 0.329198
Si Si7 0.335413 0.177575 0.364089
O O1 0.604470 0.500000 0.722557
O O2 0.521176 0.264027 0.727973
O O3 0.429534 0.297851 0.501117
O O4 0.659104 0.215243 0.725267
O O5 0.395061 0.500000 0.821546
O O6 0.246503 0.264567 0.701969
O O7 0.427671 0.226961 0.780370
O O8 0.500000 0.266283 0.000000
O O9 0.038753 0.752088 0.213440
O O10 0.198050 0.817705 0.264103
O O11 0.000948 0.000000 0.085745
O O12 0.000000 0.739547 0.000000
O O13 0.921503 0.753293 0.579879
O O14 0.732938 0.755442 0.491347
O O15 0.880997 0.000000 0.630712
O O16 0.095645 0.500000 0.525075
O O17 0.000000 0.254193 0.500000
O O18 0.587565 0.000000 0.342660
O O19 0.383974 0.000000 0.427867
#
# Coordination Sequence:
#
# PCOD9143205 Si02
#       7
#     4   4   4   4   4   4   4
#     4  11  20  30  47  72  99 128 164 207 251 295
#     4   9  18  33  52  75 103 135 165 202 255 310
#     4   9  17  31  51  73 100 134 170 209 254 301
#     4   9  17  31  51  75  98 126 169 212 248 293
#     4   9  18  33  53  76 101 132 168 205 251 308
#     4  10  18  31  51  75  99 128 168 211 252 297
#     4  10  18  31  49  70  98 130 164 204 250 295
#
# _framework density 18.907385000000001
#
# number of rings (size 3 to 8) (size 9 to 14) (size 15 to 20)
#    0.000    2.429    1.429    3.000    0.000    1.143 
#    0.000    1.429    0.000    7.286    0.000    0.000 
#    0.000    0.000    0.000    0.000    0.000    0.000 
#
# Total GULP energy -155903.556303 kJ/mol
# GULP energy per Si atom -5567.984154 kJ/mol
# Density = 1.886435 g / cm^3
# Si number density = 18.907385 Si / 1000 Ang^3
#
#
#
# Elastic Constant Matrix: (Units=GPa)
#
#
# Indices 1 2 3 4 5 6 
#
# 1 128.8125 19.2488 32.5670 0.0000 -21.2788 0.0000
# 2 19.2488 21.8859 12.4252 0.0000 -8.5605 0.0000
# 3 32.5670 12.4252 74.8465 0.0000 -30.2638 0.0000
# 4 0.0000 0.0000 0.0000 13.0993 0.0000 -4.2701
# 5 -21.2788 -8.5605 -30.2638 0.0000 23.2753 0.0000
# 6 0.0000 0.0000 0.0000 -4.2701 0.0000 32.4802
#
#
#
# Elastic Compliance Matrix: (Units=1/GPa)
#
#
# Indices 1 2 3 4 5 6 
#
# 1 0.009812 -0.005903 -0.001139 0.000000 0.005318 0.000000
# 2 -0.005903 0.057055 -0.001266 0.000000 0.013942 0.000000
# 3 -0.001139 -0.001266 0.028376 0.000000 0.035389 0.000000
# 4 0.000000 0.000000 0.000000 0.079758 0.000000 0.010486
# 5 0.005318 0.013942 0.035389 0.000000 0.098969 0.000000
# 6 0.000000 0.000000 0.000000 0.010486 0.000000 0.032167
#
#
# Mechanical properties :
#
#
# Convention : Reuss Voigt Hill
#
# Bulk Modulus (GPa) = 12.71818 39.33633 26.02725
# Shear Modulus (GPa) = 14.32830 24.52455 19.42643
#
# Velocity S-wave (km/s) = 2.75583 3.60542 3.20887
# Velocity P-wave (km/s) = 4.10698 6.17916 5.24639
#
# Compressibility (1/GPa) = 0.07862760
#
# Stress axis : x y z
#
# Youngs Moduli (GPa) = 101.91834 17.52691 35.24140
#
# Poissons Ratio (x) = 0.10346 0.04014
# Poissons Ratio (y) = 0.60160 0.04461
# Poissons Ratio (z) = 0.11608 0.02219
#
# Static dielectric constant tensor:
#      x y z
#    x 1.685230 0.000000 -0.028880 
#    y 0.000000 1.652420 0.000000 
#    z -0.028880 0.000000 1.685020 
# 
# From -- ./inp_files/54695.got.cif
#   From: 2010.05.17/outbox.cif.g08.bks.cpg/sg10_28_cif.got.tgz:54695.got - 2010.06.03 11:33:40.
