data_PCOD9143142
_publ_section_title
;
Structure prediction by ZEFSAII (Michael W. Deem and Ramdas Pophale) SiO2 
 PCOD9143142
Probable space group: P 2/M
;
_chemical_formula_sum "Si O2"
_cell_formula_units_Z 32
_cell_length_a 19.451643
_cell_length_b 15.751552
_cell_length_c 7.872545
_cell_angle_alpha 90.000000
_cell_angle_beta 43.713432
_cell_angle_gamma 90.000000
_cell_volume 1666.884260
_symmetry_space_group_name_H-M "P 2/M"
_symmetry_group_IT_number 10
_symmetry_cell_setting 'monoclinic'
loop_
_space_group_symop_operation_xyz
x,y,z
-x,y,-z
-x,-y,-z
x,-y,z
loop_
_atom_site_type_symbol
_atom_site_label
_atom_site_fract_x
_atom_site_fract_y
_atom_site_fract_z
Si Si1 0.745832 0.332516 0.306639
Si Si2 0.387337 0.722279 0.759636
Si Si3 0.384120 0.283099 0.158093
Si Si4 0.028695 0.228155 0.640255
Si Si5 0.848140 0.853673 0.123440
Si Si6 0.225469 0.145742 0.397740
Si Si7 0.046134 0.407864 0.105375
Si Si8 0.706547 0.091365 0.078739
O O1 0.681836 0.326836 0.249709
O O2 0.675305 0.339527 0.597721
O O3 0.800410 0.240910 0.223563
O O4 0.835448 0.397724 0.128097
O O5 0.500000 0.712145 0.500000
O O6 0.374529 0.692834 0.977025
O O7 0.358721 0.822684 0.797544
O O8 0.328446 0.191844 0.264949
O O9 0.500000 0.277949 0.000000
O O10 0.143572 0.214965 0.481121
O O11 0.000000 0.204795 0.500000
O O12 0.996105 0.325464 0.724620
O O13 0.962033 0.166520 0.876922
O O14 0.821654 0.895369 0.350497
O O15 0.792122 0.897614 0.067464
O O16 0.246389 0.092249 0.193155
O O17 0.021842 0.500000 0.224423
O O18 0.000000 0.403984 0.000000
O O19 0.655783 0.000000 0.197104
#
# Coordination Sequence:
#
# PCOD9143142 Si02
#       8
#     4   4   4   4   4   4   4   4
#     4   9  18  34  55  81 109 144 186 229 268 322
#     4  10  19  33  57  83 107 145 191 238 282 322
#     4  10  18  30  54  83 104 134 185 241 269 318
#     4  11  19  34  59  84 110 142 188 229 271 323
#     4   9  18  34  54  76 105 144 187 229 270 323
#     4  10  20  34  55  78 109 145 187 235 273 327
#     4  10  21  37  57  85 122 153 179 220 279 335
#     4  10  21  35  51  79 114 147 184 231 287 342
#
# _framework density 19.197493999999999
#
# number of rings (size 3 to 8) (size 9 to 14) (size 15 to 20)
#    0.000    2.125    2.500    2.625    1.750    1.000 
#    0.000    1.250    0.000    3.750    0.000    0.000 
#    0.000    0.000    0.000    0.000    0.000    0.000 
#
# Total GULP energy -178359.308611 kJ/mol
# GULP energy per Si atom -5573.728394 kJ/mol
# Density = 1.915380 g / cm^3
# Si number density = 19.197494 Si / 1000 Ang^3
#
#
#
# Elastic Constant Matrix: (Units=GPa)
#
#
# Indices 1 2 3 4 5 6 
#
# 1 109.1982 13.8905 27.9345 0.0000 1.6522 0.0000
# 2 13.8905 30.3637 6.9047 0.0000 -2.0850 0.0000
# 3 27.9345 6.9047 60.9517 0.0000 -0.1416 0.0000
# 4 0.0000 0.0000 0.0000 14.2702 0.0000 14.4568
# 5 1.6522 -2.0850 -0.1416 0.0000 45.2124 0.0000
# 6 0.0000 0.0000 0.0000 14.4568 0.0000 30.5007
#
#
#
# Elastic Compliance Matrix: (Units=1/GPa)
#
#
# Indices 1 2 3 4 5 6 
#
# 1 0.010826 -0.003967 -0.004514 0.000000 -0.000593 0.000000
# 2 -0.003967 0.035367 -0.002184 0.000000 0.001769 0.000000
# 3 -0.004514 -0.002184 0.018723 0.000000 0.000123 0.000000
# 4 0.000000 0.000000 0.000000 0.134809 0.000000 -0.063897
# 5 -0.000593 0.001769 0.000123 0.000000 0.022221 0.000000
# 6 0.000000 0.000000 0.000000 -0.063897 0.000000 0.063072
#
#
# Mechanical properties :
#
#
# Convention : Reuss Voigt Hill
#
# Bulk Modulus (GPa) = 22.94302 33.10811 28.02557
# Shear Modulus (GPa) = 15.58232 28.11558 21.84895
#
# Velocity S-wave (km/s) = 2.85210 3.83109 3.37726
# Velocity P-wave (km/s) = 4.77734 6.07068 5.46242
#
# Compressibility (1/GPa) = 0.04358623
#
# Stress axis : x y z
#
# Youngs Moduli (GPa) = 92.37139 28.27495 53.41100
#
# Poissons Ratio (x) = 0.11216 0.24107
# Poissons Ratio (y) = 0.36642 0.11666
# Poissons Ratio (z) = 0.41692 0.06176
#
# Static dielectric constant tensor:
#      x y z
#    x 1.673570 0.000000 0.026390 
#    y 0.000000 1.647230 0.000000 
#    z 0.026390 0.000000 1.692990 
# 
# From -- ./inp_files/35117.got.cif
#   From: 2010.05.17/outbox.cif.g08.bks.cpg/sg10_18_cif.got.tgz:35117.got - 2010.06.03 11:33:40.
