data_PCOD9143330
_publ_section_title
;
Structure prediction by ZEFSAII (Michael W. Deem and Ramdas Pophale) SiO2 
 PCOD9143330
Probable space group: P 2/M
;
_chemical_formula_sum "Si O2"
_cell_formula_units_Z 28
_cell_length_a 7.687677
_cell_length_b 13.762157
_cell_length_c 16.175982
_cell_angle_alpha 90.000000
_cell_angle_beta 103.899088
_cell_angle_gamma 90.000000
_cell_volume 1661.293651
_symmetry_space_group_name_H-M "P 2/M"
_symmetry_group_IT_number 10
_symmetry_cell_setting 'monoclinic'
loop_
_space_group_symop_operation_xyz
x,y,z
-x,y,-z
-x,-y,-z
x,-y,z
loop_
_atom_site_type_symbol
_atom_site_label
_atom_site_fract_x
_atom_site_fract_y
_atom_site_fract_z
Si Si1 0.646441 0.387228 0.301242
Si Si2 0.116690 0.111409 0.716134
Si Si3 0.712659 0.385998 0.009493
Si Si4 0.362716 0.194437 0.602977
Si Si5 0.103326 0.300330 0.810450
Si Si6 0.746147 0.385068 0.822678
Si Si7 0.734299 0.115909 0.584436
O O1 0.661772 0.500000 0.328238
O O2 0.656903 0.307620 0.375054
O O3 0.795007 0.361447 0.249166
O O4 0.453454 0.373109 0.235220
O O5 0.267889 0.135598 0.665663
O O6 0.133136 0.188609 0.791025
O O7 0.924503 0.128071 0.650244
O O8 0.127745 0.000000 0.743502
O O9 0.760881 0.500000 0.023724
O O10 0.815365 0.328463 0.091862
O O11 0.500000 0.378055 0.000000
O O12 0.752130 0.356613 0.919943
O O13 0.569249 0.162686 0.615704
O O14 0.269967 0.165463 0.506109
O O15 0.894549 0.326970 0.789365
O O16 0.788795 0.500000 0.823165
O O17 0.702362 0.000000 0.571011
#
# Coordination Sequence:
#
# PCOD9143330 Si02
#       7
#     4   4   4   4   4   4   4
#     4  10  20  33  48  73 107 137 165 200 242 297
#     4  10  21  35  53  76 100 128 165 210 254 297
#     4  10  18  31  52  77 102 129 166 207 245 285
#     4  10  19  32  54  78 100 131 165 206 252 298
#     4  11  20  32  52  75 101 133 166 206 250 296
#     4  10  19  31  51  76 102 132 168 204 242 288
#     4  10  19  34  55  77  99 123 167 218 255 289
#
# _framework density 16.854334999999999
#
# number of rings (size 3 to 8) (size 9 to 14) (size 15 to 20)
#    0.000    1.857    1.429    4.714    0.000    2.286 
#    0.000    1.429    0.000   10.714    0.000    0.000 
#    0.000    0.000    0.000    0.000    0.000    0.000 
#
# Total GULP energy -156305.793403 kJ/mol
# GULP energy per Si atom -5582.349764 kJ/mol
# Density = 1.681597 g / cm^3
# Si number density = 16.854335 Si / 1000 Ang^3
#
#
#
# Elastic Constant Matrix: (Units=GPa)
#
#
# Indices 1 2 3 4 5 6 
#
# 1 81.1514 37.8627 25.0875 0.0000 -22.8857 0.0000
# 2 37.8627 112.2214 41.4429 0.0000 -6.3412 0.0000
# 3 25.0875 41.4429 41.1523 0.0000 -3.9643 0.0000
# 4 0.0000 0.0000 0.0000 -32.1156 0.0000 -25.3871
# 5 -22.8857 -6.3412 -3.9643 0.0000 17.7422 0.0000
# 6 0.0000 0.0000 0.0000 -25.3871 0.0000 4.5486
#
#
#
# Elastic Compliance Matrix: (Units=1/GPa)
#
#
# Indices 1 2 3 4 5 6 
#
# 1 0.024785 -0.003472 -0.008844 0.000000 0.028754 0.000000
# 2 -0.003472 0.014738 -0.012928 0.000000 -0.002099 0.000000
# 3 -0.008844 -0.012928 0.042072 0.000000 -0.006627 0.000000
# 4 0.000000 0.000000 0.000000 -0.005753 0.000000 -0.032112
# 5 0.028754 -0.002099 -0.006627 0.000000 0.091221 0.000000
# 6 0.000000 0.000000 0.000000 -0.032112 0.000000 0.040623
#
#
# Mechanical properties :
#
#
# Convention : Reuss Voigt Hill
#
# Bulk Modulus (GPa) = 32.14509 49.25682 40.70096
# Shear Modulus (GPa) = 18.61917 6.71052 12.66484
#
# Velocity S-wave (km/s) = 3.32733 1.99753 2.74420
# Velocity P-wave (km/s) = 5.82024 5.88291 5.85166
#
# Compressibility (1/GPa) = 0.03110895
#
# Stress axis : x y z
#
# Youngs Moduli (GPa) = 40.34650 67.85283 23.76895
#
# Poissons Ratio (x) = 0.23557 0.21020
# Poissons Ratio (y) = 0.14007 0.30728
# Poissons Ratio (z) = 0.35681 0.87718
#
# Static dielectric constant tensor:
#      x y z
#    x 1.582260 0.000000 0.006510 
#    y 0.000000 1.557700 0.000000 
#    z 0.006510 0.000000 1.548280 
# 
# From -- ./inp_files/61002.got.cif
#   From: 2010.05.17/outbox.cif.g08.bks.cpg/sg10_31_cif.got.tgz:61002.got - 2010.06.03 11:33:40.
