data_PCOD9143536
_publ_section_title
;
Structure prediction by ZEFSAII (Michael W. Deem and Ramdas Pophale) SiO2 
 PCOD9143536
Probable space group: P 2/M
;
_chemical_formula_sum "Si O2"
_cell_formula_units_Z 32
_cell_length_a 17.423393
_cell_length_b 8.696270
_cell_length_c 21.964432
_cell_angle_alpha 90.000000
_cell_angle_beta 32.545019
_cell_angle_gamma 90.000000
_cell_volume 1790.347859
_symmetry_space_group_name_H-M "P 2/M"
_symmetry_group_IT_number 10
_symmetry_cell_setting 'monoclinic'
loop_
_space_group_symop_operation_xyz
x,y,z
-x,y,-z
-x,-y,-z
x,-y,z
loop_
_atom_site_type_symbol
_atom_site_label
_atom_site_fract_x
_atom_site_fract_y
_atom_site_fract_z
Si Si1 0.599287 0.684142 0.560432
Si Si2 0.305676 0.817839 0.723786
Si Si3 0.046552 0.314464 0.828313
Si Si4 0.977554 0.685001 0.609385
Si Si5 0.477034 0.682271 0.247520
Si Si6 0.076286 0.687204 0.674803
Si Si7 0.216236 0.818093 0.359981
Si Si8 0.783422 0.314532 0.086194
O O1 0.589600 0.500000 0.558647
O O2 0.468532 0.760211 0.612381
O O3 0.575068 0.714652 0.648530
O O4 0.757910 0.735948 0.437752
O O5 0.201346 0.744864 0.743931
O O6 0.244384 0.762404 0.830273
O O7 0.301514 0.000000 0.722842
O O8 0.048552 0.500000 0.828630
O O9 0.011774 0.265881 0.782610
O O10 0.927253 0.264366 0.956551
O O11 0.971172 0.500000 0.611195
O O12 0.842440 0.754866 0.664745
O O13 0.998216 0.736253 0.665237
O O14 0.115295 0.739017 0.478520
O O15 0.458183 0.500000 0.249577
O O16 0.377527 0.773174 0.267899
O O17 0.645212 0.716925 0.136594
O O18 0.077499 0.500000 0.672182
O O19 0.195528 0.000000 0.376655
O O20 0.787809 0.500000 0.093097
#
# Coordination Sequence:
#
# PCOD9143536 Si02
#       8
#     4   4   4   4   4   4   4   4
#     4   9  17  33  53  74 100 132 169 207 251 300
#     4  11  22  34  50  75 104 133 167 210 255 300
#     4  10  20  36  56  76  97 129 171 213 254 299
#     4  10  18  32  51  73 102 135 165 200 244 295
#     4   9  16  30  51  74 100 130 164 205 252 297
#     4   9  18  33  55  77  99 130 170 209 249 300
#     4  11  20  29  46  77 107 132 164 201 244 294
#     4   9  19  35  56  77  98 127 169 216 257 294
#
# _framework density 17.873622000000001
#
# number of rings (size 3 to 8) (size 9 to 14) (size 15 to 20)
#    0.000    2.250    1.250    4.500    0.000    4.500 
#    0.000    4.375    0.000    0.750    0.000    5.250 
#    0.000    0.000    0.000    0.000    0.000    0.000 
#
# Total GULP energy -178558.041567 kJ/mol
# GULP energy per Si atom -5579.938799 kJ/mol
# Density = 1.783294 g / cm^3
# Si number density = 17.873622 Si / 1000 Ang^3
#
#
#
# Elastic Constant Matrix: (Units=GPa)
#
#
# Indices 1 2 3 4 5 6 
#
# 1 96.9827 18.3475 -1.6260 0.0000 -4.9302 0.0000
# 2 18.3475 29.9585 1.9946 0.0000 -3.7742 0.0000
# 3 -1.6260 1.9946 4.9054 0.0000 -2.6684 0.0000
# 4 0.0000 0.0000 0.0000 3.0388 0.0000 -0.9507
# 5 -4.9302 -3.7742 -2.6684 0.0000 21.0062 0.0000
# 6 0.0000 0.0000 0.0000 -0.9507 0.0000 -25.5877
#
#
#
# Elastic Compliance Matrix: (Units=1/GPa)
#
#
# Indices 1 2 3 4 5 6 
#
# 1 0.012020 -0.007606 0.008452 0.000000 0.002528 0.000000
# 2 -0.007606 0.039562 -0.016878 0.000000 0.003179 0.000000
# 3 0.008452 -0.016878 0.228758 0.000000 0.028011 0.000000
# 4 0.000000 0.000000 0.000000 0.325300 0.000000 -0.012086
# 5 0.002528 0.003179 0.028011 0.000000 0.052328 0.000000
# 6 0.000000 0.000000 0.000000 -0.012086 0.000000 -0.038632
#
#
# Mechanical properties :
#
#
# Convention : Reuss Voigt Hill
#
# Bulk Modulus (GPa) = 4.02776 18.80876 11.41826
# Shear Modulus (GPa) = 6.81053 7.23350 7.02201
#
# Velocity S-wave (km/s) = 1.95414 2.01390 1.98425
# Velocity P-wave (km/s) = 2.71107 3.99422 3.41348
#
# Compressibility (1/GPa) = 0.24827695
#
# Stress axis : x y z
#
# Youngs Moduli (GPa) = 83.19292 25.27694 4.37143
#
# Poissons Ratio (x) = 0.19225 -0.03695
# Poissons Ratio (y) = 0.63275 0.07378
# Poissons Ratio (z) = -0.70318 0.42663
#
# Static dielectric constant tensor:
#      x y z
#    x 1.621610 0.000000 -0.005250 
#    y 0.000000 1.599240 0.000000 
#    z -0.005250 0.000000 1.605730 
# 
# From -- ./inp_files/89940.got.cif
#   From: 2010.05.17/outbox.cif.g08.bks.cpg/sg10_45_cif.got.tgz:89940.got - 2010.06.03 11:33:40.
