data_PCOD9143533
_publ_section_title
;
Structure prediction by ZEFSAII (Michael W. Deem and Ramdas Pophale) SiO2 
 PCOD9143533
Probable space group: P 2/M
;
_chemical_formula_sum "Si O2"
_cell_formula_units_Z 32
_cell_length_a 26.892352
_cell_length_b 9.016325
_cell_length_c 14.720642
_cell_angle_alpha 90.000000
_cell_angle_beta 144.640806
_cell_angle_gamma 90.000000
_cell_volume 2065.565388
_symmetry_space_group_name_H-M "P 2/M"
_symmetry_group_IT_number 10
_symmetry_cell_setting 'monoclinic'
loop_
_space_group_symop_operation_xyz
x,y,z
-x,y,-z
-x,-y,-z
x,-y,z
loop_
_atom_site_type_symbol
_atom_site_label
_atom_site_fract_x
_atom_site_fract_y
_atom_site_fract_z
Si Si1 0.728281 0.175205 0.782629
Si Si2 0.260953 0.324819 0.566293
Si Si3 0.413573 0.320790 0.927149
Si Si4 0.901935 0.180226 0.957291
Si Si5 0.447268 0.827858 0.167595
Si Si6 0.416474 0.322289 0.314809
Si Si7 0.347048 0.167373 0.531166
Si Si8 0.903018 0.178633 0.747856
O O1 0.825900 0.228463 0.910791
O O2 0.669225 0.264347 0.763692
O O3 0.684995 0.187493 0.618799
O O4 0.728608 0.000000 0.807542
O O5 0.248926 0.500000 0.556046
O O6 0.328718 0.276954 0.744362
O O7 0.306913 0.283604 0.540059
O O8 0.169033 0.245767 0.424196
O O9 0.415518 0.500000 0.937013
O O10 0.500000 0.276680 0.000000
O O11 0.413544 0.250151 0.026496
O O12 0.885528 0.222793 0.827414
O O13 0.899753 0.000000 0.953984
O O14 0.998852 0.224975 0.126287
O O15 0.422745 0.746738 0.224149
O O16 0.550705 0.823131 0.315019
O O17 0.420939 0.000000 0.131813
O O18 0.500000 0.276923 0.500000
O O19 0.416753 0.500000 0.309931
O O20 0.320515 0.000000 0.520402
O O21 0.899639 0.000000 0.739395
#
# Coordination Sequence:
#
# PCOD9143533 Si02
#       8
#     4   4   4   4   4   4   4   4
#     4  10  18  32  51  72  98 131 171 207 242 283
#     4  11  21  31  47  71 100 135 169 199 242 294
#     4  10  21  36  50  68  99 136 166 199 247 298
#     4   8  15  28  49  72  96 130 164 201 246 292
#     4  11  22  35  52  73  96 127 170 215 247 278
#     4  11  23  35  49  71 101 136 167 198 244 298
#     4  10  19  30  48  71  98 130 165 207 245 279
#     4   9  16  30  49  70  98 130 166 201 243 292
#
# _framework density 15.492126000000001
#
# number of rings (size 3 to 8) (size 9 to 14) (size 15 to 20)
#    0.000    2.000    3.750    1.875    0.000    2.750 
#    0.000    1.875    0.000    0.000    0.000    0.875 
#    0.000    7.000    0.000    0.000    0.000    0.000 
#
# Total GULP energy -178456.310197 kJ/mol
# GULP energy per Si atom -5576.759694 kJ/mol
# Density = 1.545687 g / cm^3
# Si number density = 15.492126 Si / 1000 Ang^3
#
#
#
# Elastic Constant Matrix: (Units=GPa)
#
#
# Indices 1 2 3 4 5 6 
#
# 1 95.2008 34.5934 60.3579 0.0000 3.4168 0.0000
# 2 34.5934 35.4784 41.7585 0.0000 -2.0048 0.0000
# 3 60.3579 41.7585 125.0524 0.0000 6.9636 0.0000
# 4 0.0000 0.0000 0.0000 22.9820 0.0000 -2.5394
# 5 3.4168 -2.0048 6.9636 0.0000 24.0911 0.0000
# 6 0.0000 0.0000 0.0000 -2.5394 0.0000 21.4995
#
#
#
# Elastic Compliance Matrix: (Units=1/GPa)
#
#
# Indices 1 2 3 4 5 6 
#
# 1 0.017856 -0.012437 -0.004336 0.000000 -0.002314 0.000000
# 2 -0.012437 0.056872 -0.013568 0.000000 0.010419 0.000000
# 3 -0.004336 -0.013568 0.014889 0.000000 -0.004818 0.000000
# 4 0.000000 0.000000 0.000000 0.044088 0.000000 0.005207
# 5 -0.002314 0.010419 -0.004818 0.000000 0.044097 0.000000
# 6 0.000000 0.000000 0.000000 0.005207 0.000000 0.047128
#
#
# Mechanical properties :
#
#
# Convention : Reuss Voigt Hill
#
# Bulk Modulus (GPa) = 34.56291 58.79456 46.67874
# Shear Modulus (GPa) = 16.93440 21.64931 19.29185
#
# Velocity S-wave (km/s) = 3.30979 3.74229 3.53266
# Velocity P-wave (km/s) = 6.07986 7.53038 6.84366
#
# Compressibility (1/GPa) = 0.02893275
#
# Stress axis : x y z
#
# Youngs Moduli (GPa) = 56.00445 17.58334 67.16484
#
# Poissons Ratio (x) = 0.21869 0.29124
# Poissons Ratio (y) = 0.69654 0.91132
# Poissons Ratio (z) = 0.24285 0.23858
#
# Static dielectric constant tensor:
#      x y z
#    x 1.500220 0.000000 0.024440 
#    y 0.000000 1.525600 0.000000 
#    z 0.024440 0.000000 1.522130 
# 
# From -- ./inp_files/72569.got.cif
#   From: 2010.05.17/outbox.cif.g08.bks.cpg/sg10_37_cif.got.tgz:72569.got - 2010.06.03 11:33:40.
