data_PCOD9143847
_publ_section_title
;
Structure prediction by ZEFSAII (Michael W. Deem and Ramdas Pophale) SiO2 
 PCOD9143847
Probable space group: P 2/M
;
_chemical_formula_sum "Si O2"
_cell_formula_units_Z 32
_cell_length_a 20.862510
_cell_length_b 9.054974
_cell_length_c 18.991356
_cell_angle_alpha 90.000000
_cell_angle_beta 23.620529
_cell_angle_gamma 90.000000
_cell_volume 1437.488968
_symmetry_space_group_name_H-M "P 2/M"
_symmetry_group_IT_number 10
_symmetry_cell_setting 'monoclinic'
loop_
_space_group_symop_operation_xyz
x,y,z
-x,y,-z
-x,-y,-z
x,-y,z
loop_
_atom_site_type_symbol
_atom_site_label
_atom_site_fract_x
_atom_site_fract_y
_atom_site_fract_z
Si Si1 0.036274 0.329199 0.880646
Si Si2 0.277659 0.178341 0.866564
Si Si3 0.993493 0.339003 0.687331
Si Si4 0.579990 0.834052 0.821538
Si Si5 0.160038 0.335978 0.372372
Si Si6 0.758133 0.165356 0.494105
Si Si7 0.399261 0.677763 0.470279
Si Si8 0.305988 0.824919 0.002562
O O1 0.021640 0.500000 0.871041
O O2 0.224826 0.287137 0.680684
O O3 0.894059 0.233859 0.988621
O O4 0.000000 0.324863 0.000000
O O5 0.432329 0.253491 0.672659
O O6 0.293612 0.222181 0.933381
O O7 0.287763 0.000000 0.851342
O O8 0.921597 0.500000 0.774426
O O9 0.109071 0.355974 0.504738
O O10 0.093413 0.275805 0.651810
O O11 0.866580 0.216010 0.794876
O O12 0.676445 0.753721 0.786349
O O13 0.694816 0.848801 0.637163
O O14 0.429825 0.757789 0.934133
O O15 0.539475 0.000000 0.884436
O O16 0.181605 0.500000 0.318444
O O17 0.000000 0.266912 0.500000
O O18 0.626498 0.242782 0.579082
O O19 0.796818 0.000000 0.429755
O O20 0.413908 0.500000 0.452063
O O21 0.338421 0.000000 0.967796
#
# Coordination Sequence:
#
# PCOD9143847 Si02
#       8
#     4   4   4   4   4   4   4   4
#     4  10  24  45  63  84 119 161 204 248 293 346
#     4  11  23  40  63  91 123 158 195 242 300 359
#     4  10  20  32  51  80 108 142 186 231 281 338
#     4   9  18  33  53  77 106 139 177 219 270 330
#     4   9  19  36  54  74 104 142 185 229 274 328
#     4  10  18  33  54  79 111 144 178 226 284 339
#     4  11  22  37  62  91 118 154 199 245 295 352
#     4  10  20  36  54  80 115 146 176 222 286 345
#
# _framework density 22.261039
#
# number of rings (size 3 to 8) (size 9 to 14) (size 15 to 20)
#    0.000    2.000    1.250    2.250    0.000    6.500 
#    0.000    3.125    0.000    3.750    0.000    0.000 
#    0.000    0.000    0.000    0.000    0.000    0.000 
#
# Total GULP energy -178281.390108 kJ/mol
# GULP energy per Si atom -5571.293441 kJ/mol
# Density = 2.221037 g / cm^3
# Si number density = 22.261039 Si / 1000 Ang^3
#
#
#
# Elastic Constant Matrix: (Units=GPa)
#
#
# Indices 1 2 3 4 5 6 
#
# 1 48.1606 25.7557 29.6959 0.0000 -10.5053 0.0000
# 2 25.7557 49.9549 24.9499 0.0000 -4.0212 0.0000
# 3 29.6959 24.9499 85.8665 0.0000 -10.2227 0.0000
# 4 0.0000 0.0000 0.0000 22.1586 0.0000 8.8587
# 5 -10.5053 -4.0212 -10.2227 0.0000 32.0382 0.0000
# 6 0.0000 0.0000 0.0000 8.8587 0.0000 -83.5338
#
#
#
# Elastic Compliance Matrix: (Units=1/GPa)
#
#
# Indices 1 2 3 4 5 6 
#
# 1 0.033750 -0.013359 -0.006936 0.000000 0.007177 0.000000
# 2 -0.013359 0.028724 -0.003969 0.000000 -0.002042 0.000000
# 3 -0.006936 -0.003969 0.015455 0.000000 0.002159 0.000000
# 4 0.000000 0.000000 0.000000 0.043294 0.000000 0.004591
# 5 0.007177 -0.002042 0.002159 0.000000 0.033999 0.000000
# 6 0.000000 0.000000 0.000000 0.004591 0.000000 -0.011484
#
#
# Mechanical properties :
#
#
# Convention : Reuss Voigt Hill
#
# Bulk Modulus (GPa) = 34.01286 38.30947 36.16116
# Shear Modulus (GPa) = 24.74438 1.03797 12.89117
#
# Velocity S-wave (km/s) = 3.33762 0.68358 2.40904
# Velocity P-wave (km/s) = 5.49228 4.22725 4.90075
#
# Compressibility (1/GPa) = 0.02940064
#
# Stress axis : x y z
#
# Youngs Moduli (GPa) = 29.62926 34.81437 64.70372
#
# Poissons Ratio (x) = 0.46509 0.44879
# Poissons Ratio (y) = 0.39582 0.25682
# Poissons Ratio (z) = 0.20551 0.13818
#
# Static dielectric constant tensor:
#      x y z
#    x 1.864720 0.000000 0.024400 
#    y 0.000000 1.830940 0.000000 
#    z 0.024400 0.000000 1.900230 
# 
# From -- ./inp_files/90610.got.cif
#   From: 2010.05.17/outbox.cif.g08.bks.cpg/sg10_46_cif.got.tgz:90610.got - 2010.06.03 11:33:40.
