data_PCOD9143637
_publ_section_title
;
Structure prediction by ZEFSAII (Michael W. Deem and Ramdas Pophale) SiO2 
 PCOD9143637
Probable space group: P 2/M
;
_chemical_formula_sum "Si O2"
_cell_formula_units_Z 24
_cell_length_a 23.964126
_cell_length_b 7.602107
_cell_length_c 17.107619
_cell_angle_alpha 90.000000
_cell_angle_beta 23.027660
_cell_angle_gamma 90.000000
_cell_volume 1219.148893
_symmetry_space_group_name_H-M "P 2/M"
_symmetry_group_IT_number 10
_symmetry_cell_setting 'monoclinic'
loop_
_space_group_symop_operation_xyz
x,y,z
-x,y,-z
-x,-y,-z
x,-y,z
loop_
_atom_site_type_symbol
_atom_site_label
_atom_site_fract_x
_atom_site_fract_y
_atom_site_fract_z
Si Si1 0.611196 0.202508 0.120244
Si Si2 0.449158 0.783875 0.479914
Si Si3 0.843146 0.791379 0.219303
Si Si4 0.337571 0.211802 0.219465
Si Si5 0.163845 0.216025 0.292049
Si Si6 0.678715 0.705754 0.583899
O O1 0.555869 0.277858 0.273627
O O2 0.471841 0.204648 0.243894
O O3 0.649085 0.000000 0.087711
O O4 0.741872 0.279183 0.902916
O O5 0.500000 0.730825 0.500000
O O6 0.289920 0.724514 0.661072
O O7 0.448324 0.000000 0.478598
O O8 0.795008 0.766638 0.371031
O O9 0.849532 0.000000 0.195591
O O10 0.000000 0.717537 0.000000
O O11 0.240173 0.273147 0.273623
O O12 0.283856 0.260040 0.374747
O O13 0.341789 0.000000 0.210139
O O14 0.500000 0.276679 0.000000
O O15 0.000000 0.269777 0.500000
O O16 0.167579 0.000000 0.286302
O O17 0.656152 0.500000 0.601239
#
# Coordination Sequence:
#
# PCOD9143637 Si02
#       6
#     4   4   4   4   4   4
#     4   9  16  31  52  71  99 133 169 208 253 299
#     4   8  14  26  47  74  98 122 157 202 247 293
#     4   9  18  34  54  76 102 130 164 208 257 301
#     4  10  18  32  54  76 100 131 170 213 254 296
#     4   9  17  30  49  76 102 128 164 210 259 299
#     4  11  21  32  51  77 103 134 175 209 249 301
#
# _framework density 19.685863000000001
#
# number of rings (size 3 to 8) (size 9 to 14) (size 15 to 20)
#    0.000    2.667    1.667    2.500    0.000    0.667 
#    3.000    0.000    0.000   10.000    0.000    0.000 
#    0.000    0.000    0.000    0.000    0.000    0.000 
#
# Total GULP energy -133865.691246 kJ/mol
# GULP energy per Si atom -5577.737135 kJ/mol
# Density = 1.964106 g / cm^3
# Si number density = 19.685863 Si / 1000 Ang^3
#
#
#
# Elastic Constant Matrix: (Units=GPa)
#
#
# Indices 1 2 3 4 5 6 
#
# 1 172.8457 -5.8006 106.4909 0.0000 5.9189 0.0000
# 2 -5.8006 36.7934 -0.3092 0.0000 -7.2191 0.0000
# 3 106.4909 -0.3092 201.9163 0.0000 8.5831 0.0000
# 4 0.0000 0.0000 0.0000 -45.2187 0.0000 -16.2324
# 5 5.9189 -7.2191 8.5831 0.0000 18.8530 0.0000
# 6 0.0000 0.0000 0.0000 -16.2324 0.0000 -23.1853
#
#
#
# Elastic Compliance Matrix: (Units=1/GPa)
#
#
# Indices 1 2 3 4 5 6 
#
# 1 0.008635 0.001294 -0.004546 0.000000 -0.000146 0.000000
# 2 0.001294 0.029619 -0.001124 0.000000 0.011447 0.000000
# 3 -0.004546 -0.001124 0.007450 0.000000 -0.002395 0.000000
# 4 0.000000 0.000000 0.000000 -0.029539 0.000000 0.020680
# 5 -0.000146 0.011447 -0.002395 0.000000 0.058561 0.000000
# 6 0.000000 0.000000 0.000000 0.020680 0.000000 -0.057609
#
#
# Mechanical properties :
#
#
# Convention : Reuss Voigt Hill
#
# Bulk Modulus (GPa) = 27.06092 68.03529 47.54811
# Shear Modulus (GPa) = 130.93920 10.83474 70.88697
#
# Velocity S-wave (km/s) = 8.16448 2.34857 6.00727
# Velocity P-wave (km/s) = 10.13186 6.47996 8.50425
#
# Compressibility (1/GPa) = 0.03695366
#
# Stress axis : x y z
#
# Youngs Moduli (GPa) = 115.81362 33.76166 134.22740
#
# Poissons Ratio (x) = -0.04370 0.61016
# Poissons Ratio (y) = -0.14992 0.15087
# Poissons Ratio (z) = 0.52645 0.03795
#
# Static dielectric constant tensor:
#      x y z
#    x 1.667490 0.000000 0.009280 
#    y 0.000000 1.710090 0.000000 
#    z 0.009280 0.000000 1.684920 
# 
# From -- ./inp_files/52625.got.cif
#   From: 2010.05.17/outbox.cif.g08.bks.cpg/sg10_27_cif.got.tgz:52625.got - 2010.06.03 11:33:40.
