data_PCOD9143251
_publ_section_title
;
Structure prediction by ZEFSAII (Michael W. Deem and Ramdas Pophale) SiO2 
 PCOD9143251
Probable space group: P 2/M
;
_chemical_formula_sum "Si O2"
_cell_formula_units_Z 32
_cell_length_a 12.477010
_cell_length_b 8.901376
_cell_length_c 24.158096
_cell_angle_alpha 90.000000
_cell_angle_beta 46.472708
_cell_angle_gamma 90.000000
_cell_volume 1945.342941
_symmetry_space_group_name_H-M "P 2/M"
_symmetry_group_IT_number 10
_symmetry_cell_setting 'monoclinic'
loop_
_space_group_symop_operation_xyz
x,y,z
-x,y,-z
-x,-y,-z
x,-y,z
loop_
_atom_site_type_symbol
_atom_site_label
_atom_site_fract_x
_atom_site_fract_y
_atom_site_fract_z
Si Si1 0.553490 0.321259 0.589413
Si Si2 0.951461 0.321732 0.581133
Si Si3 0.362639 0.180553 0.322183
Si Si4 0.128338 0.326745 0.001381
Si Si5 0.083569 0.179067 0.840245
Si Si6 0.207211 0.678053 0.687518
Si Si7 0.667958 0.179445 0.156273
Si Si8 0.801435 0.820766 0.428255
O O1 0.581724 0.500000 0.582349
O O2 0.602465 0.245018 0.629321
O O3 0.379973 0.296932 0.640994
O O4 0.650954 0.250897 0.505917
O O5 0.952014 0.500000 0.592027
O O6 0.788568 0.253230 0.644995
O O7 0.000000 0.299863 0.500000
O O8 0.067946 0.239508 0.578992
O O9 0.502659 0.217828 0.233600
O O10 0.349410 0.000000 0.330062
O O11 0.149630 0.500000 0.009033
O O12 0.062803 0.233943 0.075838
O O13 0.270843 0.259612 0.920116
O O14 0.000000 0.319871 0.000000
O O15 0.111666 0.260431 0.772461
O O16 0.221399 0.217189 0.832145
O O17 0.082029 0.000000 0.833598
O O18 0.185387 0.500000 0.688116
O O19 0.174440 0.763557 0.642452
O O20 0.678376 0.000000 0.144687
O O21 0.793084 0.000000 0.433436
#
# Coordination Sequence:
#
# PCOD9143251 Si02
#       8
#     4   4   4   4   4   4   4   4
#     4  11  22  36  54  77 107 142 177 217 266 316
#     4  11  23  39  58  78 103 137 177 223 273 318
#     4  11  21  34  55  81 107 139 179 221 266 315
#     4   9  17  28  45  71 103 140 177 212 256 312
#     4  10  18  31  50  74 106 142 177 213 261 313
#     4  11  23  37  54  77 109 143 179 219 263 318
#     4   9  18  31  48  74 107 139 173 216 262 311
#     4  12  25  39  57  77 102 138 182 226 267 314
#
# _framework density 16.449542000000001
#
# number of rings (size 3 to 8) (size 9 to 14) (size 15 to 20)
#    0.000    1.500    2.500    3.750    0.000    6.500 
#    0.000    0.000    0.000    0.000    0.000    0.875 
#    0.000    7.000    0.000    0.000    0.000    0.000 
#
# Total GULP energy -178753.725180 kJ/mol
# GULP energy per Si atom -5586.053912 kJ/mol
# Density = 1.641210 g / cm^3
# Si number density = 16.449542 Si / 1000 Ang^3
#
#
#
# Elastic Constant Matrix: (Units=GPa)
#
#
# Indices 1 2 3 4 5 6 
#
# 1 33.7668 29.9862 28.6492 0.0000 6.4903 0.0000
# 2 29.9862 76.0162 54.3301 0.0000 3.7381 0.0000
# 3 28.6492 54.3301 126.0790 0.0000 0.4856 0.0000
# 4 0.0000 0.0000 0.0000 31.8649 0.0000 -0.4035
# 5 6.4903 3.7381 0.4856 0.0000 17.8059 0.0000
# 6 0.0000 0.0000 0.0000 -0.4035 0.0000 21.7629
#
#
#
# Elastic Compliance Matrix: (Units=1/GPa)
#
#
# Indices 1 2 3 4 5 6 
#
# 1 0.050495 -0.015931 -0.004551 0.000000 -0.014937 0.000000
# 2 -0.015931 0.024292 -0.006851 0.000000 0.000894 0.000000
# 3 -0.004551 -0.006851 0.011908 0.000000 0.002773 0.000000
# 4 0.000000 0.000000 0.000000 0.031390 0.000000 0.000582
# 5 -0.014937 0.000894 0.002773 0.000000 0.061342 0.000000
# 6 0.000000 0.000000 0.000000 0.000582 0.000000 0.045961
#
#
# Mechanical properties :
#
#
# Convention : Reuss Voigt Hill
#
# Bulk Modulus (GPa) = 31.22401 51.31034 41.26718
# Shear Modulus (GPa) = 17.19797 22.47983 19.83890
#
# Velocity S-wave (km/s) = 3.23692 3.70076 3.47658
# Velocity P-wave (km/s) = 5.74397 7.03712 6.42317
#
# Compressibility (1/GPa) = 0.03202663
#
# Stress axis : x y z
#
# Youngs Moduli (GPa) = 19.80390 41.16509 83.98052
#
# Poissons Ratio (x) = 0.65581 0.38223
# Poissons Ratio (y) = 0.31550 0.57539
# Poissons Ratio (z) = 0.09014 0.28204
#
# Static dielectric constant tensor:
#      x y z
#    x 1.527230 0.000000 -0.007090 
#    y 0.000000 1.546600 0.000000 
#    z -0.007090 0.000000 1.543670 
# 
# From -- ./inp_files/55244.got.cif
#   From: 2010.05.17/outbox.cif.g08.bks.cpg/sg10_28_cif.got.tgz:55244.got - 2010.06.03 11:33:40.
