data_PCOD9143474
_publ_section_title
;
Structure prediction by ZEFSAII (Michael W. Deem and Ramdas Pophale) SiO2 
 PCOD9143474
Probable space group: P 2/M
;
_chemical_formula_sum "Si O2"
_cell_formula_units_Z 28
_cell_length_a 9.504487
_cell_length_b 10.573344
_cell_length_c 19.824286
_cell_angle_alpha 90.000000
_cell_angle_beta 49.623692
_cell_angle_gamma 90.000000
_cell_volume 1517.690181
_symmetry_space_group_name_H-M "P 2/M"
_symmetry_group_IT_number 10
_symmetry_cell_setting 'monoclinic'
loop_
_space_group_symop_operation_xyz
x,y,z
-x,y,-z
-x,-y,-z
x,-y,z
loop_
_atom_site_type_symbol
_atom_site_label
_atom_site_fract_x
_atom_site_fract_y
_atom_site_fract_z
Si Si1 0.816678 0.500000 0.874643
Si Si2 0.047207 0.738924 0.248790
Si Si3 0.970655 0.854025 0.138540
Si Si4 0.415704 0.500000 0.928428
Si Si5 0.352231 0.651548 0.752262
Si Si6 0.369915 0.855845 0.981217
Si Si7 0.666750 0.350942 0.401558
Si Si8 0.557471 0.260891 0.807330
O O1 0.923357 0.619055 0.810804
O O2 0.610411 0.500000 0.908200
O O3 0.765928 0.500000 0.969031
O O4 0.229657 0.740876 0.237183
O O5 0.019982 0.850482 0.203416
O O6 0.862418 0.718283 0.348598
O O7 0.812500 0.749064 0.176781
O O8 0.923206 0.000000 0.133915
O O9 0.160449 0.808914 0.044286
O O10 0.439639 0.375711 0.876946
O O11 0.322443 0.500000 0.775464
O O12 0.378893 0.660970 0.663627
O O13 0.523983 0.711273 0.739805
O O14 0.467233 0.851280 0.878755
O O15 0.344339 0.000000 0.011142
O O16 0.500000 0.794237 0.000000
O O17 0.500000 0.304969 0.500000
O O18 0.694615 0.500000 0.407548
#
# Coordination Sequence:
#
# PCOD9143474 Si02
#       8
#     2   4   4   2   4   4   4   4
#     4   9  16  26  44  76 102 140 174 220 257 308
#     4  10  18  31  56  80 109 134 187 230 277 327
#     4  10  21  37  56  78 110 154 198 232 267 319
#     4   9  18  26  43  70 113 138 177 213 266 313
#     4  10  22  39  55  80 117 146 182 237 288 341
#     4  10  20  35  53  77 110 150 199 234 258 311
#     4   9  18  35  58  78 103 144 185 227 284 350
#     4  11  20  33  51  81 110 149 178 233 282 318
#
# _framework density 18.449088
#
# number of rings (size 3 to 8) (size 9 to 14) (size 15 to 20)
#    0.000    2.143    2.857    0.857    3.000    1.143 
#    1.286    2.857    0.000    9.429    0.000    0.000 
#    0.000   10.286    0.000    0.000    0.000    0.000 
#
# Total GULP energy -155886.283125 kJ/mol
# GULP energy per Si atom -5567.367254 kJ/mol
# Density = 1.840710 g / cm^3
# Si number density = 18.449088 Si / 1000 Ang^3
#
#
#
# Elastic Constant Matrix: (Units=GPa)
#
#
# Indices 1 2 3 4 5 6 
#
# 1 79.5080 10.5447 24.7891 0.0000 -9.6258 0.0000
# 2 10.5447 55.8614 13.8032 0.0000 -6.3239 0.0000
# 3 24.7891 13.8032 111.8468 0.0000 -28.3625 0.0000
# 4 0.0000 0.0000 0.0000 5.5705 0.0000 -4.4143
# 5 -9.6258 -6.3239 -28.3625 0.0000 19.6835 0.0000
# 6 0.0000 0.0000 0.0000 -4.4143 0.0000 -0.2693
#
#
#
# Elastic Compliance Matrix: (Units=1/GPa)
#
#
# Indices 1 2 3 4 5 6 
#
# 1 0.013836 -0.001740 -0.002014 0.000000 0.003306 0.000000
# 2 -0.001740 0.018904 -0.000982 0.000000 0.003808 0.000000
# 3 -0.002014 -0.000982 0.014463 0.000000 0.019541 0.000000
# 4 0.000000 0.000000 0.000000 0.012833 0.000000 -0.210343
# 5 0.003306 0.003808 0.019541 0.000000 0.081801 0.000000
# 6 0.000000 0.000000 0.000000 -0.210343 0.000000 -0.265439
#
#
# Mechanical properties :
#
#
# Convention : Reuss Voigt Hill
#
# Bulk Modulus (GPa) = 26.50214 38.38779 32.44497
# Shear Modulus (GPa) = -49.23436 18.20223 -15.51607
#
# Velocity S-wave (km/s) = -5.17151 3.14446 -2.90318
# Velocity P-wave (km/s) = 4.61120 5.83404 2.52714
#
# Compressibility (1/GPa) = 0.03773280
#
# Stress axis : x y z
#
# Youngs Moduli (GPa) = 72.27452 52.90013 69.14010
#
# Poissons Ratio (x) = 0.09205 0.13921
# Poissons Ratio (y) = 0.12576 0.06787
# Poissons Ratio (z) = 0.14553 0.05193
#
# Static dielectric constant tensor:
#      x y z
#    x 1.718950 0.000000 0.007710 
#    y 0.000000 1.734780 0.000000 
#    z 0.007710 0.000000 1.628890 
# 
# From -- ./inp_files/82474.got.cif
#   From: 2010.05.17/outbox.cif.g08.bks.cpg/sg10_42_cif.got.tgz:82474.got - 2010.06.03 11:33:40.
