data_PCOD9143077
_publ_section_title
;
Structure prediction by ZEFSAII (Michael W. Deem and Ramdas Pophale) SiO2 
 PCOD9143077
Probable space group: P 2/M
;
_chemical_formula_sum "Si O2"
_cell_formula_units_Z 24
_cell_length_a 25.916222
_cell_length_b 7.801984
_cell_length_c 11.585729
_cell_angle_alpha 90.000000
_cell_angle_beta 34.703215
_cell_angle_gamma 90.000000
_cell_volume 1333.708340
_symmetry_space_group_name_H-M "P 2/M"
_symmetry_group_IT_number 10
_symmetry_cell_setting 'monoclinic'
loop_
_space_group_symop_operation_xyz
x,y,z
-x,y,-z
-x,-y,-z
x,-y,z
loop_
_atom_site_type_symbol
_atom_site_label
_atom_site_fract_x
_atom_site_fract_y
_atom_site_fract_z
Si Si1 0.718137 0.195595 0.477811
Si Si2 0.555065 0.500000 0.520066
Si Si3 0.954928 0.708648 0.407922
Si Si4 0.308912 0.188825 0.735553
Si Si5 0.139760 0.292162 0.184944
Si Si6 0.090107 0.291883 0.764726
Si Si7 0.428144 0.500000 0.238620
O O1 0.736386 0.207407 0.307030
O O2 0.813524 0.232057 0.363958
O O3 0.639343 0.334859 0.647340
O O4 0.688707 0.000000 0.557287
O O5 0.500000 0.500000 0.500000
O O6 0.616126 0.332208 0.396693
O O7 0.528399 0.500000 0.709063
O O8 0.955607 0.500000 0.406054
O O9 0.889852 0.759655 0.632395
O O10 0.923090 0.766846 0.342346
O O11 0.056802 0.760138 0.254246
O O12 0.349014 0.000000 0.669874
O O13 0.232834 0.215786 0.970943
O O14 0.146357 0.500000 0.168895
O O15 0.091634 0.500000 0.764977
O O16 0.000000 0.237474 0.000000
O O17 0.500000 0.500000 0.000000
#
# Coordination Sequence:
#
# PCOD9143077 Si02
#       7
#     4   2   4   4   4   4   2
#     4  10  21  37  58  85 115 148 189 232 277 338
#     4  10  22  42  64  88 109 140 177 229 292 344
#     4   8  16  27  46  76 111 150 190 230 264 311
#     4  10  20  35  58  83 109 141 182 226 272 333
#     4   9  15  30  51  74 107 150 190 223 270 322
#     4  10  18  30  51  81 116 154 193 232 273 323
#     4  10  22  44  67  87 111 149 189 235 293 349
#
# _framework density 17.994938000000001
#
# number of rings (size 3 to 8) (size 9 to 14) (size 15 to 20)
#    0.000    2.500    1.667    2.000    0.000    2.333 
#    3.000    3.333    0.000    0.000    0.000    0.000 
#    0.000    0.000    0.000    0.000    0.000    0.000 
#
# Total GULP energy -133729.793217 kJ/mol
# GULP energy per Si atom -5572.074717 kJ/mol
# Density = 1.795398 g / cm^3
# Si number density = 17.994938 Si / 1000 Ang^3
#
#
#
# Elastic Constant Matrix: (Units=GPa)
#
#
# Indices 1 2 3 4 5 6 
#
# 1 149.1079 43.1968 48.9189 0.0000 0.8360 0.0000
# 2 43.1968 81.8311 36.3375 0.0000 3.7385 0.0000
# 3 48.9189 36.3375 91.6192 0.0000 12.3539 0.0000
# 4 0.0000 0.0000 0.0000 76.0062 0.0000 -26.2770
# 5 0.8360 3.7385 12.3539 0.0000 11.1704 0.0000
# 6 0.0000 0.0000 0.0000 -26.2770 0.0000 25.0539
#
#
#
# Elastic Compliance Matrix: (Units=1/GPa)
#
#
# Indices 1 2 3 4 5 6 
#
# 1 0.008963 -0.003076 -0.004247 0.000000 0.005056 0.000000
# 2 -0.003076 0.015920 -0.004682 0.000000 0.000081 0.000000
# 3 -0.004247 -0.004682 0.017377 0.000000 -0.017333 0.000000
# 4 0.000000 0.000000 0.000000 0.020641 0.000000 0.021649
# 5 0.005056 0.000081 -0.017333 0.000000 0.108286 0.000000
# 6 0.000000 0.000000 0.000000 0.021649 0.000000 0.062620
#
#
# Mechanical properties :
#
#
# Convention : Reuss Voigt Hill
#
# Bulk Modulus (GPa) = 54.80172 64.38498 59.59335
# Shear Modulus (GPa) = 18.94649 35.38644 27.16646
#
# Velocity S-wave (km/s) = 3.24833 4.43930 3.88967
# Velocity P-wave (km/s) = 6.67749 7.88249 7.30488
#
# Compressibility (1/GPa) = 0.01824760
#
# Stress axis : x y z
#
# Youngs Moduli (GPa) = 111.57193 62.81520 57.54817
#
# Poissons Ratio (x) = 0.19324 0.24442
# Poissons Ratio (y) = 0.34322 0.26946
# Poissons Ratio (z) = 0.47387 0.29412
#
# Static dielectric constant tensor:
#      x y z
#    x 1.640270 0.000000 0.016710 
#    y 0.000000 1.907680 0.000000 
#    z 0.016710 0.000000 1.579150 
# 
# From -- ./inp_files/56568.got.cif
#   From: 2010.05.17/outbox.cif.g08.bks.cpg/sg10_29_cif.got.tgz:56568.got - 2010.06.03 11:33:40.
