data_PCOD9143452
_publ_section_title
;
Structure prediction by ZEFSAII (Michael W. Deem and Ramdas Pophale) SiO2 
 PCOD9143452
Probable space group: P 2/M
;
_chemical_formula_sum "Si O2"
_cell_formula_units_Z 28
_cell_length_a 12.479836
_cell_length_b 13.364476
_cell_length_c 22.771933
_cell_angle_alpha 90.000000
_cell_angle_beta 23.440702
_cell_angle_gamma 90.000000
_cell_volume 1510.863450
_symmetry_space_group_name_H-M "P 2/M"
_symmetry_group_IT_number 10
_symmetry_cell_setting 'monoclinic'
loop_
_space_group_symop_operation_xyz
x,y,z
-x,y,-z
-x,-y,-z
x,-y,z
loop_
_atom_site_type_symbol
_atom_site_label
_atom_site_fract_x
_atom_site_fract_y
_atom_site_fract_z
Si Si1 0.725430 0.754518 0.102745
Si Si2 0.238298 0.383305 0.331748
Si Si3 0.058616 0.201601 0.825890
Si Si4 0.476480 0.116630 0.322639
Si Si5 0.892285 0.740006 0.425024
Si Si6 0.819462 0.115541 0.353813
Si Si7 0.580835 0.384467 0.390644
O O1 0.516398 0.664177 0.213783
O O2 0.590607 0.849174 0.202686
O O3 0.000000 0.731408 0.000000
O O4 0.811042 0.780267 0.993621
O O5 0.266625 0.500000 0.303366
O O6 0.147512 0.317278 0.321761
O O7 0.000000 0.374339 0.500000
O O8 0.291467 0.146120 0.746857
O O9 0.021282 0.137528 0.786094
O O10 0.179116 0.308339 0.744747
O O11 0.225637 0.185495 0.466382
O O12 0.418045 0.000000 0.355192
O O13 0.913626 0.808762 0.356683
O O14 0.669296 0.655996 0.521715
O O15 0.500000 0.133854 0.500000
O O16 0.841965 0.000000 0.360708
O O17 0.500000 0.377008 0.500000
O O18 0.641574 0.500000 0.347095
#
# Coordination Sequence:
#
# PCOD9143452 Si02
#       7
#     4   4   4   4   4   4   4
#     4  10  23  41  61  89 123 157 199 250 301 360
#     4  11  24  43  65  87 117 158 201 250 309 365
#     4  10  19  34  55  86 125 155 195 247 291 349
#     4  10  19  34  59  89 121 157 197 242 296 347
#     4  11  19  36  57  86 119 150 196 253 291 350
#     4  11  19  32  59  92 123 162 204 245 294 350
#     4  10  18  31  54  84 115 151 196 243 289 342
#
# _framework density 18.532450999999998
#
# number of rings (size 3 to 8) (size 9 to 14) (size 15 to 20)
#    0.000    1.571    5.714    1.286    0.000    4.000 
#    0.000    2.857    0.000    1.714    0.000    0.000 
#    0.000    0.000    0.000    0.000    0.000    0.000 
#
# Total GULP energy -156312.583521 kJ/mol
# GULP energy per Si atom -5582.592269 kJ/mol
# Density = 1.849027 g / cm^3
# Si number density = 18.532451 Si / 1000 Ang^3
#
#
#
# Elastic Constant Matrix: (Units=GPa)
#
#
# Indices 1 2 3 4 5 6 
#
# 1 47.1388 34.3139 20.6802 0.0000 10.6356 0.0000
# 2 34.3139 137.8798 18.0311 0.0000 0.5606 0.0000
# 3 20.6802 18.0311 62.7403 0.0000 18.3934 0.0000
# 4 0.0000 0.0000 0.0000 8.5363 0.0000 4.4071
# 5 10.6356 0.5606 18.3934 0.0000 31.1574 0.0000
# 6 0.0000 0.0000 0.0000 4.4071 0.0000 21.6215
#
#
#
# Elastic Compliance Matrix: (Units=1/GPa)
#
#
# Indices 1 2 3 4 5 6 
#
# 1 0.030267 -0.006706 -0.006114 0.000000 -0.006602 0.000000
# 2 -0.006706 0.009071 -0.001233 0.000000 0.002854 0.000000
# 3 -0.006114 -0.001233 0.021392 0.000000 -0.010520 0.000000
# 4 0.000000 0.000000 0.000000 0.130924 0.000000 -0.026687
# 5 -0.006602 0.002854 -0.010520 0.000000 0.040507 0.000000
# 6 0.000000 0.000000 0.000000 -0.026687 0.000000 0.051690
#
#
# Mechanical properties :
#
#
# Convention : Reuss Voigt Hill
#
# Bulk Modulus (GPa) = 30.65184 43.75660 37.20422
# Shear Modulus (GPa) = 15.48782 23.91195 19.69988
#
# Velocity S-wave (km/s) = 2.89401 3.59594 3.26390
# Velocity P-wave (km/s) = 5.26711 6.39555 5.85856
#
# Compressibility (1/GPa) = 0.03262447
#
# Stress axis : x y z
#
# Youngs Moduli (GPa) = 33.03887 110.23728 46.74566
#
# Poissons Ratio (x) = 0.73928 0.28579
# Poissons Ratio (y) = 0.22157 0.05765
# Poissons Ratio (z) = 0.20199 0.13595
#
# Static dielectric constant tensor:
#      x y z
#    x 1.662190 0.000000 0.018640 
#    y 0.000000 1.618940 0.000000 
#    z 0.018640 0.000000 1.646730 
# 
# From -- ./inp_files/83955.got.cif
#   From: 2010.05.17/outbox.cif.g08.bks.cpg/sg10_42_cif.got.tgz:83955.got - 2010.06.03 11:33:40.
