data_PCOD9143306
_publ_section_title
;
Structure prediction by ZEFSAII (Michael W. Deem and Ramdas Pophale) SiO2 
 PCOD9143306
Probable space group: P 2/M
;
_chemical_formula_sum "Si O2"
_cell_formula_units_Z 32
_cell_length_a 10.674996
_cell_length_b 7.490684
_cell_length_c 24.271615
_cell_angle_alpha 90.000000
_cell_angle_beta 124.481228
_cell_angle_gamma 90.000000
_cell_volume 1599.850294
_symmetry_space_group_name_H-M "P 2/M"
_symmetry_group_IT_number 10
_symmetry_cell_setting 'monoclinic'
loop_
_space_group_symop_operation_xyz
x,y,z
-x,y,-z
-x,-y,-z
x,-y,z
loop_
_atom_site_type_symbol
_atom_site_label
_atom_site_fract_x
_atom_site_fract_y
_atom_site_fract_z
Si Si1 0.333547 0.213224 0.472414
Si Si2 0.030747 0.717558 0.919649
Si Si3 0.885477 0.718518 0.181535
Si Si4 0.757057 0.718178 0.926392
Si Si5 0.584238 0.705726 0.165565
Si Si6 0.176387 0.781140 0.545292
Si Si7 0.256718 0.796015 0.683587
Si Si8 0.954318 0.712240 0.668897
O O1 0.500000 0.284513 0.500000
O O2 0.262075 0.279997 0.511843
O O3 0.212330 0.246214 0.394069
O O4 0.346812 0.000000 0.482244
O O5 0.029673 0.500000 0.918376
O O6 0.068567 0.778792 0.867671
O O7 0.868637 0.774158 0.904513
O O8 0.158948 0.769269 0.996035
O O9 0.881912 0.500000 0.179857
O O10 0.719937 0.781521 0.161588
O O11 0.004069 0.770422 0.258915
O O12 0.754791 0.500000 0.924172
O O13 0.584396 0.783503 0.879926
O O14 0.569388 0.500000 0.144409
O O15 0.646962 0.708451 0.243686
O O16 0.255195 0.720900 0.621622
O O17 0.000000 0.726258 0.500000
O O18 0.176302 0.000000 0.546433
O O19 0.081380 0.792953 0.660105
O O20 0.309203 0.000000 0.694267
O O21 0.977405 0.500000 0.672101
#
# Coordination Sequence:
#
# PCOD9143306 Si02
#       8
#     4   4   4   4   4   4   4   4
#     4  10  20  35  53  71  93 125 161 196 233 277
#     4   8  13  24  41  63  89 124 158 184 221 276
#     4   8  15  26  41  61  90 122 150 182 229 277
#     4   8  14  24  41  64  93 121 152 190 227 268
#     4   9  17  29  43  68  99 120 144 193 241 271
#     4   9  16  30  52  72  89 116 159 201 230 266
#     4  10  18  31  52  71  91 124 162 193 230 281
#     4  10  19  32  49  71 100 126 152 193 242 282
#
# _framework density 20.001871000000001
#
# number of rings (size 3 to 8) (size 9 to 14) (size 15 to 20)
#    0.000    3.000    1.250    2.250    0.000    0.750 
#    2.250    4.375    0.000    0.000    0.000    9.625 
#    0.000    0.000    0.000    0.000    0.000    0.000 
#
# Total GULP energy -178465.131130 kJ/mol
# GULP energy per Si atom -5577.035348 kJ/mol
# Density = 1.995635 g / cm^3
# Si number density = 20.001871 Si / 1000 Ang^3
#
#
#
# Elastic Constant Matrix: (Units=GPa)
#
#
# Indices 1 2 3 4 5 6 
#
# 1 175.7463 6.1327 130.4342 0.0000 -7.2887 0.0000
# 2 6.1327 51.2046 -5.7051 0.0000 -3.9031 0.0000
# 3 130.4342 -5.7051 142.7163 0.0000 -8.0111 0.0000
# 4 0.0000 0.0000 0.0000 23.8778 0.0000 0.3681
# 5 -7.2887 -3.9031 -8.0111 0.0000 37.1722 0.0000
# 6 0.0000 0.0000 0.0000 0.3681 0.0000 -2.2048
#
#
#
# Elastic Compliance Matrix: (Units=1/GPa)
#
#
# Indices 1 2 3 4 5 6 
#
# 1 0.018523 -0.004164 -0.017124 0.000000 -0.000496 0.000000
# 2 -0.004164 0.020742 0.004769 0.000000 0.002389 0.000000
# 3 -0.017124 0.004769 0.022965 0.000000 0.002092 0.000000
# 4 0.000000 0.000000 0.000000 0.041772 0.000000 0.006975
# 5 -0.000496 0.002389 0.002092 0.000000 0.027506 0.000000
# 6 0.000000 0.000000 0.000000 0.006975 0.000000 -0.452391
#
#
# Mechanical properties :
#
#
# Convention : Reuss Voigt Hill
#
# Bulk Modulus (GPa) = 34.25513 70.15454 52.20483
# Shear Modulus (GPa) = -17.97824 27.68940 4.85558
#
# Velocity S-wave (km/s) = -3.00130 3.72471 1.55975
# Velocity P-wave (km/s) = 2.26997 7.32448 5.42221
#
# Compressibility (1/GPa) = 0.02919271
#
# Stress axis : x y z
#
# Youngs Moduli (GPa) = 53.98551 48.21200 43.54455
#
# Poissons Ratio (x) = 0.20076 0.74564
# Poissons Ratio (y) = 0.22481 -0.20767
# Poissons Ratio (z) = 0.92443 -0.22993
#
# Static dielectric constant tensor:
#      x y z
#    x 1.690130 0.000000 -0.002680 
#    y 0.000000 1.771460 0.000000 
#    z -0.002680 0.000000 1.683820 
# 
# From -- ./inp_files/88565.got.cif
#   From: 2010.05.17/outbox.cif.g08.bks.cpg/sg10_45_cif.got.tgz:88565.got - 2010.06.03 11:33:40.
