data_PCOD9143045
_publ_section_title
;
Structure prediction by ZEFSAII (Michael W. Deem and Ramdas Pophale) SiO2 
 PCOD9143045
Probable space group: P 2/M
;
_chemical_formula_sum "Si O2"
_cell_formula_units_Z 24
_cell_length_a 18.292562
_cell_length_b 11.942678
_cell_length_c 14.282270
_cell_angle_alpha 90.000000
_cell_angle_beta 21.653870
_cell_angle_gamma 90.000000
_cell_volume 1151.325664
_symmetry_space_group_name_H-M "P 2/M"
_symmetry_group_IT_number 10
_symmetry_cell_setting 'monoclinic'
loop_
_space_group_symop_operation_xyz
x,y,z
-x,y,-z
-x,-y,-z
x,-y,z
loop_
_atom_site_type_symbol
_atom_site_label
_atom_site_fract_x
_atom_site_fract_y
_atom_site_fract_z
Si Si1 0.364794 0.000000 0.032589
Si Si2 0.586262 0.370932 0.545324
Si Si3 0.210441 0.370879 0.306792
Si Si4 0.372622 0.757119 0.947687
Si Si5 0.171753 0.370528 0.920878
Si Si6 0.029744 0.756626 0.684302
Si Si7 0.180061 0.000000 0.448596
O O1 0.354237 0.888378 0.985322
O O2 0.588784 0.000000 0.802426
O O3 0.199877 0.000000 0.311442
O O4 0.605434 0.500000 0.554645
O O5 0.553211 0.287193 0.670582
O O6 0.382151 0.366850 0.726996
O O7 0.763644 0.344999 0.262412
O O8 0.264698 0.500000 0.250430
O O9 0.000000 0.366400 0.500000
O O10 0.184319 0.313863 0.438485
O O11 0.358309 0.302370 0.064848
O O12 0.175238 0.728901 0.125077
O O13 0.103146 0.500000 0.007674
O O14 0.017620 0.288846 0.155748
O O15 0.082940 0.887062 0.605551
#
# Coordination Sequence:
#
# PCOD9143045 Si02
#       7
#     2   4   4   4   4   4   2
#     4  11  23  37  50  65  94 134 169 204 249 292
#     4   8  14  26  47  77 108 131 153 190 242 292
#     4   9  16  25  43  74 102 119 146 195 246 285
#     4  10  18  30  51  75  98 126 163 201 237 284
#     4   8  14  26  47  77 108 131 153 190 242 292
#     4  10  18  30  51  75  98 126 163 201 237 284
#     4  11  23  37  50  65  94 134 169 204 249 292
#
# _framework density 20.845535999999999
#
# number of rings (size 3 to 8) (size 9 to 14) (size 15 to 20)
#    0.000    2.667    1.667    2.500    0.000    4.667 
#    0.000    0.833    0.000   11.000    0.000    2.333 
#    0.000    0.000    0.000    0.000    0.000    0.000 
#
# Total GULP energy -133958.963922 kJ/mol
# GULP energy per Si atom -5581.623497 kJ/mol
# Density = 2.079809 g / cm^3
# Si number density = 20.845536 Si / 1000 Ang^3
#
#
#
# Elastic Constant Matrix: (Units=GPa)
#
#
# Indices 1 2 3 4 5 6 
#
# 1 38.9611 23.3894 48.4042 0.0000 18.0902 0.0000
# 2 23.3894 156.6231 90.2082 0.0000 64.6398 0.0000
# 3 48.4042 90.2082 152.1121 0.0000 43.4987 0.0000
# 4 0.0000 0.0000 0.0000 -388.5683 0.0000 278.2926
# 5 18.0902 64.6398 43.4987 0.0000 57.5834 0.0000
# 6 0.0000 0.0000 0.0000 278.2926 0.0000 -182.7552
#
#
#
# Elastic Compliance Matrix: (Units=1/GPa)
#
#
# Indices 1 2 3 4 5 6 
#
# 1 0.045447 0.005849 -0.015268 0.000000 -0.009310 0.000000
# 2 0.005849 0.015099 -0.006943 0.000000 -0.013542 0.000000
# 3 -0.015268 -0.006943 0.015242 0.000000 0.001076 0.000000
# 4 0.000000 0.000000 0.000000 0.028405 0.000000 0.043254
# 5 -0.009310 -0.013542 0.001076 0.000000 0.034679 0.000000
# 6 0.000000 0.000000 0.000000 0.043254 0.000000 0.060394
#
#
# Mechanical properties :
#
#
# Convention : Reuss Voigt Hill
#
# Bulk Modulus (GPa) = 23.22123 74.63330 48.92727
# Shear Modulus (GPa) = 20.29666 -90.36838 -35.03586
#
# Velocity S-wave (km/s) = 3.12375 -6.59132 -4.10413
# Velocity P-wave (km/s) = 4.91674 4.69539 1.03142
#
# Compressibility (1/GPa) = 0.04306404
#
# Stress axis : x y z
#
# Youngs Moduli (GPa) = 22.00371 66.22882 65.60629
#
# Poissons Ratio (x) = -0.38740 1.00171
# Poissons Ratio (y) = -0.12871 0.45551
# Poissons Ratio (z) = 0.33596 0.45983
#
# Static dielectric constant tensor:
#      x y z
#    x 1.834730 0.000000 -0.038210 
#    y 0.000000 1.717870 0.000000 
#    z -0.038210 0.000000 1.773070 
# 
# From -- ./inp_files/24078.got.cif
#   From: 2010.05.17/outbox.cif.g08.bks.cpg/sg10_13_cif.got.tgz:24078.got - 2010.06.03 11:33:40.
