data_PCOD9143236
_publ_section_title
;
Structure prediction by ZEFSAII (Michael W. Deem and Ramdas Pophale) SiO2 
 PCOD9143236
Probable space group: P 2/M
;
_chemical_formula_sum "Si O2"
_cell_formula_units_Z 28
_cell_length_a 17.522650
_cell_length_b 7.582669
_cell_length_c 20.757272
_cell_angle_alpha 90.000000
_cell_angle_beta 28.084419
_cell_angle_gamma 90.000000
_cell_volume 1298.382836
_symmetry_space_group_name_H-M "P 2/M"
_symmetry_group_IT_number 10
_symmetry_cell_setting 'monoclinic'
loop_
_space_group_symop_operation_xyz
x,y,z
-x,y,-z
-x,-y,-z
x,-y,z
loop_
_atom_site_type_symbol
_atom_site_label
_atom_site_fract_x
_atom_site_fract_y
_atom_site_fract_z
Si Si1 0.395586 0.797273 0.020279
Si Si2 0.501366 0.215169 0.573138
Si Si3 0.143029 0.214914 0.847661
Si Si4 0.677578 0.788895 0.566576
Si Si5 0.400628 0.215455 0.870186
Si Si6 0.963628 0.213504 0.857186
Si Si7 0.037227 0.301480 0.290265
O O1 0.414664 0.721771 0.933923
O O2 0.450663 0.000000 0.973124
O O3 0.500000 0.715277 0.000000
O O4 0.204571 0.798149 0.179436
O O5 0.500000 0.275864 0.500000
O O6 0.323742 0.263522 0.732138
O O7 0.632099 0.275609 0.528290
O O8 0.514325 0.000000 0.560252
O O9 0.139285 0.000000 0.851483
O O10 0.000000 0.277653 0.000000
O O11 0.097037 0.268080 0.809410
O O12 0.544178 0.723084 0.716916
O O13 0.863041 0.753548 0.447031
O O14 0.659976 0.000000 0.577370
O O15 0.217919 0.259711 0.983927
O O16 0.404926 0.000000 0.867596
O O17 0.971605 0.000000 0.845105
O O18 0.983832 0.287634 0.771214
O O19 0.069191 0.500000 0.286136
#
# Coordination Sequence:
#
# PCOD9143236 Si02
#       7
#     4   4   4   4   4   4   4
#     4   9  18  36  61  84 103 124 155 197 247 304
#     4   9  16  24  38  64  94 125 162 203 247 288
#     4   9  15  23  41  71  99 121 156 213 269 305
#     4  10  18  31  50  71 100 134 168 208 250 294
#     4   8  15  28  50  78 100 124 161 202 246 296
#     4   9  16  30  51  73  99 131 170 214 259 307
#     4  11  22  34  50  73 101 134 171 204 239 291
#
# _framework density 21.565287000000001
#
# number of rings (size 3 to 8) (size 9 to 14) (size 15 to 20)
#    0.000    2.714    0.000    3.857    0.000    6.000 
#    0.000    3.571    0.000    8.571    0.000    0.000 
#    0.000    0.000    0.000    0.000    0.000    0.000 
#
# Total GULP energy -156209.086289 kJ/mol
# GULP energy per Si atom -5578.895939 kJ/mol
# Density = 2.151620 g / cm^3
# Si number density = 21.565287 Si / 1000 Ang^3
#
#
#
# Elastic Constant Matrix: (Units=GPa)
#
#
# Indices 1 2 3 4 5 6 
#
# 1 84.7212 2.2830 21.6667 0.0000 -21.0372 0.0000
# 2 2.2830 43.5939 -3.4618 0.0000 4.0526 0.0000
# 3 21.6667 -3.4618 110.4978 0.0000 -8.7800 0.0000
# 4 0.0000 0.0000 0.0000 -55.0668 0.0000 29.9930
# 5 -21.0372 4.0526 -8.7800 0.0000 24.5558 0.0000
# 6 0.0000 0.0000 0.0000 29.9930 0.0000 4.5583
#
#
#
# Elastic Compliance Matrix: (Units=1/GPa)
#
#
# Indices 1 2 3 4 5 6 
#
# 1 0.015628 -0.002194 -0.002100 0.000000 0.012999 0.000000
# 2 -0.002194 0.023625 0.000732 0.000000 -0.005517 0.000000
# 3 -0.002100 0.000732 0.009605 0.000000 0.001514 0.000000
# 4 0.000000 0.000000 0.000000 -0.003962 0.000000 0.026068
# 5 0.012999 -0.005517 0.001514 0.000000 0.053312 0.000000
# 6 0.000000 0.000000 0.000000 0.026068 0.000000 0.047860
#
#
# Mechanical properties :
#
#
# Convention : Reuss Voigt Hill
#
# Bulk Modulus (GPa) = 23.96140 31.08763 27.52451
# Shear Modulus (GPa) = 29.92175 9.36444 19.64310
#
# Velocity S-wave (km/s) = 3.72895 2.08610 3.02133
# Velocity P-wave (km/s) = 5.44751 4.49992 4.99623
#
# Compressibility (1/GPa) = 0.04173378
#
# Stress axis : x y z
#
# Youngs Moduli (GPa) = 63.98970 42.32836 104.11238
#
# Poissons Ratio (x) = 0.09285 0.21865
# Poissons Ratio (y) = 0.14037 -0.07620
# Poissons Ratio (z) = 0.13438 -0.03098
#
# Static dielectric constant tensor:
#      x y z
#    x 1.770370 0.000000 0.010700 
#    y 0.000000 1.835200 0.000000 
#    z 0.010700 0.000000 1.797750 
# 
# From -- ./inp_files/79288.got.cif
#   From: 2010.05.17/outbox.cif.g08.bks.cpg/sg10_40_cif.got.tgz:79288.got - 2010.06.03 11:33:40.
