data_PCOD9143312
_publ_section_title
;
Structure prediction by ZEFSAII (Michael W. Deem and Ramdas Pophale) SiO2 
 PCOD9143312
Probable space group: P 2/M
;
_chemical_formula_sum "Si O2"
_cell_formula_units_Z 32
_cell_length_a 21.614032
_cell_length_b 7.497440
_cell_length_c 12.534490
_cell_angle_alpha 90.000000
_cell_angle_beta 131.167529
_cell_angle_gamma 90.000000
_cell_volume 1529.072907
_symmetry_space_group_name_H-M "P 2/M"
_symmetry_group_IT_number 10
_symmetry_cell_setting 'monoclinic'
loop_
_space_group_symop_operation_xyz
x,y,z
-x,y,-z
-x,-y,-z
x,-y,z
loop_
_atom_site_type_symbol
_atom_site_label
_atom_site_fract_x
_atom_site_fract_y
_atom_site_fract_z
Si Si1 0.642685 0.285018 0.550945
Si Si2 0.522751 0.701665 0.715831
Si Si3 0.306498 0.292647 0.005002
Si Si4 0.785172 0.719372 0.550694
Si Si5 0.775079 0.209031 0.877441
Si Si6 0.564559 0.789190 0.168542
Si Si7 0.087044 0.293853 0.132059
Si Si8 0.261203 0.702592 0.724656
O O1 0.637905 0.500000 0.539274
O O2 0.548965 0.217679 0.439778
O O3 0.702016 0.225934 0.520242
O O4 0.692877 0.239355 0.713935
O O5 0.540811 0.500000 0.696675
O O6 0.609709 0.786555 0.848593
O O7 0.473263 0.698257 0.771139
O O8 0.327315 0.500000 0.004500
O O9 0.239835 0.284612 0.022407
O O10 0.273846 0.214642 0.856300
O O11 0.783847 0.500000 0.548641
O O12 0.861134 0.780952 0.709718
O O13 0.788788 0.780941 0.432316
O O14 0.849810 0.289247 0.895041
O O15 0.789623 0.000000 0.902574
O O16 0.647974 0.702895 0.222914
O O17 0.577362 0.000000 0.204313
O O18 0.500000 0.774281 0.000000
O O19 0.070797 0.500000 0.142365
O O20 0.000000 0.212470 0.000000
O O21 0.230910 0.500000 0.706540
#
# Coordination Sequence:
#
# PCOD9143312 Si02
#       8
#     4   4   4   4   4   4   4   4
#     4   9  17  32  53  73  99 133 176 228 267 300
#     4  10  19  32  51  71  94 134 187 233 262 297
#     4  10  21  34  51  72  98 139 187 224 255 299
#     4   8  14  27  51  82 106 124 158 211 262 301
#     4  11  23  37  53  74 107 140 168 208 257 320
#     4  11  21  29  41  67 104 140 176 224 268 306
#     4   9  18  36  63  88 108 129 158 203 256 311
#     4  10  18  31  52  73  98 135 180 222 256 300
#
# _framework density 20.927714999999999
#
# number of rings (size 3 to 8) (size 9 to 14) (size 15 to 20)
#    0.000    2.250    2.500    2.250    0.000    2.750 
#    0.000    2.500    0.000    0.750    0.000    5.250 
#    0.000    0.000    0.000    0.000    0.000    0.000 
#
# Total GULP energy -178493.513196 kJ/mol
# GULP energy per Si atom -5577.922287 kJ/mol
# Density = 2.088008 g / cm^3
# Si number density = 20.927715 Si / 1000 Ang^3
#
#
#
# Elastic Constant Matrix: (Units=GPa)
#
#
# Indices 1 2 3 4 5 6 
#
# 1 68.2682 -11.9049 75.3045 0.0000 -13.8766 0.0000
# 2 -11.9049 65.5089 0.0523 0.0000 6.6184 0.0000
# 3 75.3045 0.0523 155.8451 0.0000 4.7571 0.0000
# 4 0.0000 0.0000 0.0000 156.1971 0.0000 -127.9658
# 5 -13.8766 6.6184 4.7571 0.0000 28.6345 0.0000
# 6 0.0000 0.0000 0.0000 -127.9658 0.0000 119.7275
#
#
#
# Elastic Compliance Matrix: (Units=1/GPa)
#
#
# Indices 1 2 3 4 5 6 
#
# 1 0.046183 0.005901 -0.023076 0.000000 0.024851 0.000000
# 2 0.005901 0.016386 -0.002843 0.000000 -0.000456 0.000000
# 3 -0.023076 -0.002843 0.017981 0.000000 -0.013513 0.000000
# 4 0.000000 0.000000 0.000000 0.051477 0.000000 0.055019
# 5 0.024851 -0.000456 -0.013513 0.000000 0.049316 0.000000
# 6 0.000000 0.000000 0.000000 0.055019 0.000000 0.067157
#
#
# Mechanical properties :
#
#
# Convention : Reuss Voigt Hill
#
# Bulk Modulus (GPa) = 24.68381 46.28068 35.48224
# Shear Modulus (GPa) = 16.55406 75.98983 46.27194
#
# Velocity S-wave (km/s) = 2.81554 6.03237 4.70727
# Velocity P-wave (km/s) = 4.73182 8.40725 6.82173
#
# Compressibility (1/GPa) = 0.04051238
#
# Stress axis : x y z
#
# Youngs Moduli (GPa) = 21.65295 61.02887 55.61573
#
# Poissons Ratio (x) = -0.36010 1.28340
# Poissons Ratio (y) = -0.12776 0.15810
# Poissons Ratio (z) = 0.49967 0.17349
#
# Static dielectric constant tensor:
#      x y z
#    x 1.710890 0.000000 -0.010350 
#    y 0.000000 1.797290 0.000000 
#    z -0.010350 0.000000 1.827960 
# 
# From -- ./inp_files/55229.got.cif
#   From: 2010.05.17/outbox.cif.g08.bks.cpg/sg10_28_cif.got.tgz:55229.got - 2010.06.03 11:33:40.
