data_PCOD9143193
_publ_section_title
;
Structure prediction by ZEFSAII (Michael W. Deem and Ramdas Pophale) SiO2 
 PCOD9143193
Probable space group: P 2/M
;
_chemical_formula_sum "Si O2"
_cell_formula_units_Z 32
_cell_length_a 18.077716
_cell_length_b 8.847655
_cell_length_c 24.452689
_cell_angle_alpha 90.000000
_cell_angle_beta 30.774779
_cell_angle_gamma 90.000000
_cell_volume 2001.169282
_symmetry_space_group_name_H-M "P 2/M"
_symmetry_group_IT_number 10
_symmetry_cell_setting 'monoclinic'
loop_
_space_group_symop_operation_xyz
x,y,z
-x,y,-z
-x,-y,-z
x,-y,z
loop_
_atom_site_type_symbol
_atom_site_label
_atom_site_fract_x
_atom_site_fract_y
_atom_site_fract_z
Si Si1 0.410237 0.681480 0.431937
Si Si2 0.688264 0.181603 0.737405
Si Si3 0.836538 0.319779 0.322198
Si Si4 0.886956 0.818340 0.801212
Si Si5 0.945789 0.318663 0.644152
Si Si6 0.723372 0.318193 0.597817
Si Si7 0.373196 0.825485 0.626474
Si Si8 0.440640 0.183622 0.978632
O O1 0.425153 0.500000 0.424849
O O2 0.274081 0.720045 0.557828
O O3 0.370272 0.725676 0.395774
O O4 0.552496 0.755782 0.367238
O O5 0.830092 0.252683 0.675285
O O6 0.677240 0.237704 0.682533
O O7 0.550353 0.230176 0.861416
O O8 0.699079 0.000000 0.732616
O O9 0.852815 0.500000 0.311801
O O10 0.759409 0.264579 0.315838
O O11 0.988002 0.241604 0.238685
O O12 0.915800 0.751556 0.722633
O O13 0.891870 0.000000 0.795071
O O14 0.725936 0.770984 0.921741
O O15 0.932675 0.500000 0.655536
O O16 0.108988 0.283103 0.521879
O O17 0.713133 0.500000 0.610826
O O18 0.500000 0.818049 0.500000
O O19 0.334860 0.000000 0.658905
O O20 0.442538 0.000000 0.978371
O O21 0.500000 0.234868 0.000000
#
# Coordination Sequence:
#
# PCOD9143193 Si02
#       8
#     4   4   4   4   4   4   4   4
#     4   9  17  31  48  67  98 139 166 190 243 301
#     4  11  22  36  53  73  95 129 174 214 250 295
#     4  10  18  31  48  71 102 134 165 199 245 301
#     4  11  20  32  53  75  98 131 169 210 251 294
#     4  11  21  35  51  71 101 135 166 203 252 301
#     4  10  21  36  50  70 103 138 167 201 249 300
#     4   9  17  28  44  71 101 130 165 204 239 283
#     4   9  18  35  53  70  97 129 163 209 263 299
#
# _framework density 15.990652000000001
#
# number of rings (size 3 to 8) (size 9 to 14) (size 15 to 20)
#    0.000    2.000    2.500    2.250    0.000    5.000 
#    0.000    3.125    0.000    0.000    0.000    0.875 
#    0.000    7.000    0.000    0.000    0.000    0.000 
#
# Total GULP energy -178554.670499 kJ/mol
# GULP energy per Si atom -5579.833453 kJ/mol
# Density = 1.595426 g / cm^3
# Si number density = 15.990652 Si / 1000 Ang^3
#
#
#
# Elastic Constant Matrix: (Units=GPa)
#
#
# Indices 1 2 3 4 5 6 
#
# 1 152.5947 48.7407 74.9867 0.0000 -9.7841 0.0000
# 2 48.7407 43.8234 35.1221 0.0000 -1.5852 0.0000
# 3 74.9867 35.1221 74.2254 0.0000 5.1816 0.0000
# 4 0.0000 0.0000 0.0000 7.0100 0.0000 -2.4270
# 5 -9.7841 -1.5852 5.1816 0.0000 18.8110 0.0000
# 6 0.0000 0.0000 0.0000 -2.4270 0.0000 32.7110
#
#
#
# Elastic Compliance Matrix: (Units=1/GPa)
#
#
# Indices 1 2 3 4 5 6 
#
# 1 0.016438 -0.006228 -0.014499 0.000000 0.012019 0.000000
# 2 -0.006228 0.040352 -0.013065 0.000000 0.003760 0.000000
# 3 -0.014499 -0.013065 0.035590 0.000000 -0.018446 0.000000
# 4 0.000000 0.000000 0.000000 0.146414 0.000000 0.010863
# 5 0.012019 0.003760 -0.018446 0.000000 0.064809 0.000000
# 6 0.000000 0.000000 0.000000 0.010863 0.000000 0.031377
#
#
# Mechanical properties :
#
#
# Convention : Reuss Voigt Hill
#
# Bulk Modulus (GPa) = 40.32715 65.37140 52.84928
# Shear Modulus (GPa) = 12.17055 19.15934 15.66495
#
# Velocity S-wave (km/s) = 2.76180 3.46520 3.13330
# Velocity P-wave (km/s) = 5.95349 7.54850 6.79794
#
# Compressibility (1/GPa) = 0.02479719
#
# Stress axis : x y z
#
# Youngs Moduli (GPa) = 60.83474 24.78186 28.09805
#
# Poissons Ratio (x) = 0.15433 0.40739
# Poissons Ratio (y) = 0.37886 0.36710
# Poissons Ratio (z) = 0.88203 0.32377
#
# Static dielectric constant tensor:
#      x y z
#    x 1.528390 0.000000 -0.006390 
#    y 0.000000 1.538220 0.000000 
#    z -0.006390 0.000000 1.514980 
# 
# From -- ./inp_files/52739.got.cif
#   From: 2010.05.17/outbox.cif.g08.bks.cpg/sg10_27_cif.got.tgz:52739.got - 2010.06.03 11:33:40.
