data_PCOD9143842
_publ_section_title
;
Structure prediction by ZEFSAII (Michael W. Deem and Ramdas Pophale) SiO2 
 PCOD9143842
Probable space group: P 2/M
;
_chemical_formula_sum "Si O2"
_cell_formula_units_Z 32
_cell_length_a 12.318406
_cell_length_b 14.422234
_cell_length_c 14.822092
_cell_angle_alpha 90.000000
_cell_angle_beta 42.802097
_cell_angle_gamma 90.000000
_cell_volume 1789.227915
_symmetry_space_group_name_H-M "P 2/M"
_symmetry_group_IT_number 10
_symmetry_cell_setting 'monoclinic'
loop_
_space_group_symop_operation_xyz
x,y,z
-x,y,-z
-x,-y,-z
x,-y,z
loop_
_atom_site_type_symbol
_atom_site_label
_atom_site_fract_x
_atom_site_fract_y
_atom_site_fract_z
Si Si1 0.754598 0.388874 0.153471
Si Si2 0.389293 0.389709 0.432865
Si Si3 0.855110 0.610115 0.762402
Si Si4 0.661401 0.298967 0.028652
Si Si5 0.317479 0.895379 0.074340
Si Si6 0.296028 0.297246 0.311397
Si Si7 0.860605 0.387454 0.276139
Si Si8 0.180130 0.897450 0.353637
O O1 0.773766 0.500000 0.125357
O O2 0.575382 0.372157 0.301847
O O3 0.756215 0.335928 0.058097
O O4 0.868103 0.358954 0.166936
O O5 0.372777 0.500000 0.441648
O O6 0.291631 0.349752 0.408228
O O7 0.306177 0.358182 0.575685
O O8 0.863948 0.500000 0.741057
O O9 0.830570 0.663665 0.683636
O O10 0.002982 0.639770 0.735987
O O11 0.706290 0.637748 0.916213
O O12 0.473948 0.309304 0.163438
O O13 0.701336 0.192552 0.979090
O O14 0.202663 0.885658 0.231828
O O15 0.295937 0.000000 0.050327
O O16 0.500000 0.889839 0.000000
O O17 0.270851 0.188446 0.341025
O O18 0.864642 0.500000 0.269410
O O19 0.000000 0.894498 0.500000
O O20 0.246182 0.000000 0.333963
#
# Coordination Sequence:
#
# PCOD9143842 Si02
#       8
#     4   4   4   4   4   4   4   4
#     4   9  18  33  52  72 100 135 181 229 260 302
#     4   9  18  31  50  74 102 138 176 215 265 317
#     4  11  22  32  46  71 107 141 173 213 261 314
#     4  11  20  33  50  77 101 137 177 213 264 314
#     4  10  18  33  54  76 105 137 171 213 259 314
#     4  11  21  32  50  76 107 138 170 212 265 328
#     4   9  19  34  49  69  97 139 185 223 262 304
#     4  10  21  35  53  77 107 140 173 214 262 315
#
# _framework density 17.884810000000002
#
# number of rings (size 3 to 8) (size 9 to 14) (size 15 to 20)
#    0.000    2.000    2.500    1.500    1.750    4.000 
#    0.000    3.750    0.000    0.000    0.000    3.500 
#    0.000    4.000    0.000    0.000    0.000    0.000 
#
# Total GULP energy -178456.153645 kJ/mol
# GULP energy per Si atom -5576.754801 kJ/mol
# Density = 1.784410 g / cm^3
# Si number density = 17.884810 Si / 1000 Ang^3
#
#
#
# Elastic Constant Matrix: (Units=GPa)
#
#
# Indices 1 2 3 4 5 6 
#
# 1 100.8577 27.8691 24.9381 0.0000 11.9794 0.0000
# 2 27.8691 16.0205 14.6383 0.0000 -7.8616 0.0000
# 3 24.9381 14.6383 61.1960 0.0000 12.4509 0.0000
# 4 0.0000 0.0000 0.0000 18.9028 0.0000 -1.8757
# 5 11.9794 -7.8616 12.4509 0.0000 21.7496 0.0000
# 6 0.0000 0.0000 0.0000 -1.8757 0.0000 -5.8994
#
#
#
# Elastic Compliance Matrix: (Units=1/GPa)
#
#
# Indices 1 2 3 4 5 6 
#
# 1 -0.063627 0.256316 -0.069452 0.000000 0.167451 0.000000
# 2 0.256316 -0.876406 0.224513 0.000000 -0.586486 0.000000
# 3 -0.069452 0.224513 -0.037752 0.000000 0.141017 0.000000
# 4 0.000000 0.000000 0.000000 0.051284 0.000000 -0.016305
# 5 0.167451 -0.586486 0.141017 0.000000 -0.338970 0.000000
# 6 0.000000 0.000000 0.000000 -0.016305 0.000000 -0.164325
#
#
# Mechanical properties :
#
#
# Convention : Reuss Voigt Hill
#
# Bulk Modulus (GPa) = -6.45029 34.77392 14.16182
# Shear Modulus (GPa) = -2.16993 14.32584 6.07796
#
# Velocity S-wave (km/s) = -1.10268 2.83328 1.84547
# Velocity P-wave (km/s) = 2.28815 5.49443 3.53222
#
# Compressibility (1/GPa) = -0.15503179
#
# Stress axis : x y z
#
# Youngs Moduli (GPa) = -15.71665 -1.14102 -26.48898
#
# Poissons Ratio (x) = 0.29246 -1.83972
# Poissons Ratio (y) = 4.02843 5.94711
# Poissons Ratio (z) = -1.09156 0.25617
#
# Static dielectric constant tensor:
#      x y z
#    x 1.640030 0.000000 -0.014630 
#    y 0.000000 1.597980 0.000000 
#    z -0.014630 0.000000 1.690670 
# 
# From -- ./inp_files/65074.got.cif
#   From: 2010.05.17/outbox.cif.g08.bks.cpg/sg10_33_cif.got.tgz:65074.got - 2010.06.03 11:33:40.
