data_PCOD9143488
_publ_section_title
;
Structure prediction by ZEFSAII (Michael W. Deem and Ramdas Pophale) SiO2 
 PCOD9143488
Probable space group: P 2/M
;
_chemical_formula_sum "Si O2"
_cell_formula_units_Z 20
_cell_length_a 8.792725
_cell_length_b 14.112987
_cell_length_c 7.719110
_cell_angle_alpha 90.000000
_cell_angle_beta 101.025283
_cell_angle_gamma 90.000000
_cell_volume 940.197177
_symmetry_space_group_name_H-M "P 2/M"
_symmetry_group_IT_number 10
_symmetry_cell_setting 'monoclinic'
loop_
_space_group_symop_operation_xyz
x,y,z
-x,y,-z
-x,-y,-z
x,-y,z
loop_
_atom_site_type_symbol
_atom_site_label
_atom_site_fract_x
_atom_site_fract_y
_atom_site_fract_z
Si Si1 0.320205 0.500000 0.388712
Si Si2 0.293830 0.897718 0.747415
Si Si3 0.312021 0.703065 0.957188
Si Si4 0.500000 0.833040 0.500000
Si Si5 0.213234 0.296818 0.330966
Si Si6 0.000000 0.826447 0.500000
Si Si7 0.315513 0.500000 0.968030
O O1 0.500000 0.500000 0.500000
O O2 0.238304 0.401132 0.416683
O O3 0.299510 0.500000 0.173737
O O4 0.444006 0.890134 0.655678
O O5 0.141685 0.889767 0.595004
O O6 0.295967 0.000000 0.839068
O O7 0.283646 0.802327 0.857500
O O8 0.234948 0.704132 0.129464
O O9 0.259453 0.599393 0.874371
O O10 0.500000 0.697565 0.000000
O O11 0.643006 0.765446 0.572294
O O12 0.061568 0.243134 0.362721
O O13 0.500000 0.500000 0.000000
#
# Coordination Sequence:
#
# PCOD9143488 Si02
#       7
#     2   4   4   2   4   2   2
#     4  10  18  31  62  92 121 156 210 250 297 351
#     4  11  23  41  63  87 119 160 205 260 309 362
#     4  10  19  37  61  92 121 154 206 251 308 357
#     4  10  19  37  60  88 118 151 202 258 305 348
#     4  10  20  37  58  91 125 160 199 250 297 364
#     4  10  25  41  58  82 126 163 200 246 313 374
#     4   8  18  30  54  87 123 154 182 245 306 354
#
# _framework density 21.272133
#
# number of rings (size 3 to 8) (size 9 to 14) (size 15 to 20)
#    0.000    2.000    3.000    0.600    0.000    1.600 
#    0.000    4.000    0.000    3.600    0.000    0.000 
#    0.000    0.000    0.000    0.000    0.000    0.000 
#
# Total GULP energy -111438.194115 kJ/mol
# GULP energy per Si atom -5571.909706 kJ/mol
# Density = 2.122372 g / cm^3
# Si number density = 21.272133 Si / 1000 Ang^3
#
#
#
# Elastic Constant Matrix: (Units=GPa)
#
#
# Indices 1 2 3 4 5 6 
#
# 1 62.5873 23.5408 4.6189 0.0000 -20.7515 0.0000
# 2 23.5408 220.8567 44.0300 0.0000 -3.8511 0.0000
# 3 4.6189 44.0300 47.3120 0.0000 -17.8873 0.0000
# 4 0.0000 0.0000 0.0000 31.9412 0.0000 10.2931
# 5 -20.7515 -3.8511 -17.8873 0.0000 28.6810 0.0000
# 6 0.0000 0.0000 0.0000 10.2931 0.0000 25.2503
#
#
#
# Elastic Compliance Matrix: (Units=1/GPa)
#
#
# Indices 1 2 3 4 5 6 
#
# 1 0.024802 -0.004364 0.010734 0.000000 0.024054 0.000000
# 2 -0.004364 0.006568 -0.008567 0.000000 -0.007618 0.000000
# 3 0.010734 -0.008567 0.039992 0.000000 0.031558 0.000000
# 4 0.000000 0.000000 0.000000 0.036042 0.000000 -0.014692
# 5 0.024054 -0.007618 0.031558 0.000000 0.070928 0.000000
# 6 0.000000 0.000000 0.000000 -0.014692 0.000000 0.045593
#
#
# Mechanical properties :
#
#
# Convention : Reuss Voigt Hill
#
# Bulk Modulus (GPa) = 14.93239 52.79284 33.86262
# Shear Modulus (GPa) = 19.94882 34.41224 27.18053
#
# Velocity S-wave (km/s) = 3.06566 4.02645 3.57845
# Velocity P-wave (km/s) = 4.42334 6.81822 5.74691
#
# Compressibility (1/GPa) = 0.06696850
#
# Stress axis : x y z
#
# Youngs Moduli (GPa) = 40.31895 152.25356 25.00518
#
# Poissons Ratio (x) = 0.66446 -0.26841
# Poissons Ratio (y) = 0.17596 0.21421
# Poissons Ratio (z) = -0.43279 1.30430
#
# Static dielectric constant tensor:
#      x y z
#    x 1.730430 0.000000 -0.005620 
#    y 0.000000 1.834160 0.000000 
#    z -0.005620 0.000000 1.775460 
# 
# From -- ./inp_files/18721.got.cif
#   From: 2010.05.17/outbox.cif.g08.bks.cpg/sg10_10_cif.got.tgz:18721.got - 2010.06.03 11:33:40.
