data_PCOD9143901
_publ_section_title
;
Structure prediction by ZEFSAII (Michael W. Deem and Ramdas Pophale) SiO2 
 PCOD9143901
Probable space group: P 2/M
;
_chemical_formula_sum "Si O2"
_cell_formula_units_Z 24
_cell_length_a 9.847701
_cell_length_b 8.694025
_cell_length_c 20.181104
_cell_angle_alpha 90.000000
_cell_angle_beta 50.377334
_cell_angle_gamma 90.000000
_cell_volume 1330.879022
_symmetry_space_group_name_H-M "P 2/M"
_symmetry_group_IT_number 10
_symmetry_cell_setting 'monoclinic'
loop_
_space_group_symop_operation_xyz
x,y,z
-x,y,-z
-x,-y,-z
x,-y,z
loop_
_atom_site_type_symbol
_atom_site_label
_atom_site_fract_x
_atom_site_fract_y
_atom_site_fract_z
Si Si1 0.529570 0.684361 0.786939
Si Si2 0.152987 0.184037 0.900497
Si Si3 0.885454 0.181983 0.726948
Si Si4 0.136802 0.684650 0.758561
Si Si5 0.467256 0.313567 0.368470
Si Si6 0.897781 0.683321 0.462101
O O1 0.516107 0.500000 0.792981
O O2 0.344037 0.757961 0.864955
O O3 0.695072 0.740389 0.777322
O O4 0.560698 0.729901 0.699910
O O5 0.120371 0.262627 0.839622
O O6 0.157000 0.000000 0.890756
O O7 0.000000 0.223185 0.000000
O O8 0.989481 0.242026 0.758457
O O9 0.001384 0.230615 0.627235
O O10 0.864965 0.000000 0.735746
O O11 0.127929 0.500000 0.757625
O O12 0.334818 0.733071 0.674011
O O13 0.462465 0.500000 0.371576
O O14 0.302872 0.262199 0.463698
O O15 0.897881 0.500000 0.446502
O O16 0.000000 0.700866 0.500000
#
# Coordination Sequence:
#
# PCOD9143901 Si02
#       6
#     4   4   4   4   4   4
#     4  10  19  36  60  84 110 148 195 232 273 333
#     4  10  21  39  63  91 120 146 174 220 284 344
#     4  12  24  36  52  81 119 153 188 238 297 335
#     4  10  21  38  59  82 112 151 195 235 278 333
#     4   8  16  32  55  80 104 142 191 239 278 320
#     4  10  18  33  56  79 109 148 196 241 279 331
#
# _framework density 18.033194000000002
#
# number of rings (size 3 to 8) (size 9 to 14) (size 15 to 20)
#    0.000    2.000    1.667    4.000    0.000    2.333 
#    0.000    5.833    0.000    5.000    0.000    0.000 
#    0.000    0.000    0.000    0.000    0.000    0.000 
#
# Total GULP energy -134001.620915 kJ/mol
# GULP energy per Si atom -5583.400871 kJ/mol
# Density = 1.799215 g / cm^3
# Si number density = 18.033194 Si / 1000 Ang^3
#
#
#
# Elastic Constant Matrix: (Units=GPa)
#
#
# Indices 1 2 3 4 5 6 
#
# 1 101.9509 8.0276 29.7213 0.0000 -22.2875 0.0000
# 2 8.0276 38.3129 16.8083 0.0000 -5.1272 0.0000
# 3 29.7213 16.8083 94.1699 0.0000 -26.5343 0.0000
# 4 0.0000 0.0000 0.0000 28.2188 0.0000 -0.1060
# 5 -22.2875 -5.1272 -26.5343 0.0000 21.5180 0.0000
# 6 0.0000 0.0000 0.0000 -0.1060 0.0000 23.2226
#
#
#
# Elastic Compliance Matrix: (Units=1/GPa)
#
#
# Indices 1 2 3 4 5 6 
#
# 1 0.012718 -0.000841 -0.000320 0.000000 0.012578 0.000000
# 2 -0.000841 0.028383 -0.004813 0.000000 -0.000043 0.000000
# 3 -0.000320 -0.004813 0.017106 0.000000 0.019616 0.000000
# 4 0.000000 0.000000 0.000000 0.035438 0.000000 0.000162
# 5 0.012578 -0.000043 0.019616 0.000000 0.083680 0.000000
# 6 0.000000 0.000000 0.000000 0.000162 0.000000 0.043062
#
#
# Mechanical properties :
#
#
# Convention : Reuss Voigt Hill
#
# Bulk Modulus (GPa) = 21.61709 38.17201 29.89455
# Shear Modulus (GPa) = 20.18136 26.58364 23.38250
#
# Velocity S-wave (km/s) = 3.34896 3.84363 3.60479
# Velocity P-wave (km/s) = 5.19302 6.39622 5.82576
#
# Compressibility (1/GPa) = 0.04625970
#
# Stress axis : x y z
#
# Youngs Moduli (GPa) = 78.63045 35.23269 58.45802
#
# Poissons Ratio (x) = 0.02964 0.01869
# Poissons Ratio (y) = 0.06615 0.28134
# Poissons Ratio (z) = 0.02513 0.16956
#
# Static dielectric constant tensor:
#      x y z
#    x 1.610850 0.000000 -0.017440 
#    y 0.000000 1.604840 0.000000 
#    z -0.017440 0.000000 1.607210 
# 
# From -- ./inp_files/33754.got.cif
#   From: 2010.05.17/outbox.cif.g08.bks.cpg/sg10_17_cif.got.tgz:33754.got - 2010.06.03 11:33:40.
