data_PCOD9143877
_publ_section_title
;
Structure prediction by ZEFSAII (Michael W. Deem and Ramdas Pophale) SiO2 
 PCOD9143877
Probable space group: P 2/M
;
_chemical_formula_sum "Si O2"
_cell_formula_units_Z 32
_cell_length_a 15.980609
_cell_length_b 7.486890
_cell_length_c 14.711317
_cell_angle_alpha 90.000000
_cell_angle_beta 126.798901
_cell_angle_gamma 90.000000
_cell_volume 1409.416681
_symmetry_space_group_name_H-M "P 2/M"
_symmetry_group_IT_number 10
_symmetry_cell_setting 'monoclinic'
loop_
_space_group_symop_operation_xyz
x,y,z
-x,y,-z
-x,-y,-z
x,-y,z
loop_
_atom_site_type_symbol
_atom_site_label
_atom_site_fract_x
_atom_site_fract_y
_atom_site_fract_z
Si Si1 0.407081 0.200410 0.997308
Si Si2 0.731392 0.215545 0.414885
Si Si3 0.898055 0.217810 0.378565
Si Si4 0.488043 0.297550 0.237256
Si Si5 0.597566 0.215010 0.623351
Si Si6 0.173232 0.781408 0.862438
Si Si7 0.192350 0.218230 0.339293
Si Si8 0.012339 0.218340 0.904001
O O1 0.448166 0.186890 0.126408
O O2 0.392811 0.000000 0.947869
O O3 0.500000 0.287435 0.000000
O O4 0.291827 0.281265 0.926007
O O5 0.795521 0.274047 0.368126
O O6 0.610615 0.269085 0.336237
O O7 0.789139 0.275016 0.544754
O O8 0.732482 0.000000 0.416184
O O9 0.891630 0.271157 0.269432
O O10 0.000000 0.277001 0.500000
O O11 0.899973 0.000000 0.379886
O O12 0.471894 0.500000 0.198713
O O13 0.424096 0.261091 0.286945
O O14 0.500000 0.281182 0.500000
O O15 0.707043 0.276368 0.653447
O O16 0.597883 0.000000 0.616590
O O17 0.116335 0.724756 0.917869
O O18 0.175887 0.000000 0.866996
O O19 0.086340 0.274197 0.221439
O O20 0.190860 0.000000 0.339347
O O21 0.012753 0.000000 0.906222
O O22 0.000000 0.277715 0.000000
#
# Coordination Sequence:
#
# PCOD9143877 Si02
#       8
#     4   4   4   4   4   4   4   4
#     4  10  21  38  60  83 109 146 190 232 275 327
#     4  10  18  33  55  79 108 143 183 225 274 332
#     4   9  16  27  50  82 113 138 167 221 283 329
#     4  12  25  37  53  80 113 147 186 230 283 335
#     4  10  19  35  57  81 108 142 186 231 278 333
#     4   9  17  29  46  75 110 141 177 220 270 328
#     4   9  17  29  49  76 107 141 177 220 270 327
#     4   9  17  27  42  72 112 144 170 214 276 330
#
# _framework density 22.704426999999999
#
# number of rings (size 3 to 8) (size 9 to 14) (size 15 to 20)
#    0.000    2.250    1.250    2.625    1.750    5.500 
#    0.000    0.000    0.000    0.375    0.000    4.375 
#    0.000    0.000    0.000    0.000    0.000    0.000 
#
# Total GULP energy -178851.323456 kJ/mol
# GULP energy per Si atom -5589.103858 kJ/mol
# Density = 2.265275 g / cm^3
# Si number density = 22.704427 Si / 1000 Ang^3
#
#
#
# Elastic Constant Matrix: (Units=GPa)
#
#
# Indices 1 2 3 4 5 6 
#
# 1 162.3430 4.2111 51.0822 0.0000 -13.4723 0.0000
# 2 4.2111 65.3258 -2.0352 0.0000 -0.1369 0.0000
# 3 51.0822 -2.0352 116.5138 0.0000 -9.5772 0.0000
# 4 0.0000 0.0000 0.0000 -403.9428 0.0000 -140.4019
# 5 -13.4723 -0.1369 -9.5772 0.0000 44.2655 0.0000
# 6 0.0000 0.0000 0.0000 -140.4019 0.0000 -56.3322
#
#
#
# Elastic Compliance Matrix: (Units=1/GPa)
#
#
# Indices 1 2 3 4 5 6 
#
# 1 0.007268 -0.000561 -0.003069 0.000000 0.001546 0.000000
# 2 -0.000561 0.015360 0.000513 0.000000 -0.000012 0.000000
# 3 -0.003069 0.000513 0.010039 0.000000 0.001239 0.000000
# 4 0.000000 0.000000 0.000000 -0.018516 0.000000 0.046150
# 5 0.001546 -0.000012 0.001239 0.000000 0.023330 0.000000
# 6 0.000000 0.000000 0.000000 0.046150 0.000000 -0.132776
#
#
# Mechanical properties :
#
#
# Convention : Reuss Voigt Hill
#
# Bulk Modulus (GPa) = 37.83069 50.07765 43.95417
# Shear Modulus (GPa) = -62.30595 -63.80693 -63.05644
#
# Velocity S-wave (km/s) = -5.24421 -5.30701 -5.27570
# Velocity P-wave (km/s) = 4.46885 3.93042 4.20825
#
# Compressibility (1/GPa) = 0.02643356
#
# Stress axis : x y z
#
# Youngs Moduli (GPa) = 137.58070 65.10414 99.60964
#
# Poissons Ratio (x) = 0.03652 0.30574
# Poissons Ratio (y) = 0.07717 -0.05112
# Poissons Ratio (z) = 0.42228 -0.03341
#
# Static dielectric constant tensor:
#      x y z
#    x 1.820150 0.000000 -0.002400 
#    y 0.000000 1.871760 0.000000 
#    z -0.002400 0.000000 1.798970 
# 
# From -- ./inp_files/66608.got.cif
#   From: 2010.05.17/outbox.cif.g08.bks.cpg/sg10_34_cif.got.tgz:66608.got - 2010.06.03 11:33:40.
