data_PCOD9143307
_publ_section_title
;
Structure prediction by ZEFSAII (Michael W. Deem and Ramdas Pophale) SiO2 
 PCOD9143307
Probable space group: P 2/M
;
_chemical_formula_sum "Si O2"
_cell_formula_units_Z 20
_cell_length_a 12.970668
_cell_length_b 10.730360
_cell_length_c 12.452192
_cell_angle_alpha 90.000000
_cell_angle_beta 32.332646
_cell_angle_gamma 90.000000
_cell_volume 926.918076
_symmetry_space_group_name_H-M "P 2/M"
_symmetry_group_IT_number 10
_symmetry_cell_setting 'monoclinic'
loop_
_space_group_symop_operation_xyz
x,y,z
-x,y,-z
-x,-y,-z
x,-y,z
loop_
_atom_site_type_symbol
_atom_site_label
_atom_site_fract_x
_atom_site_fract_y
_atom_site_fract_z
Si Si1 0.624543 0.142212 0.669383
Si Si2 0.211670 0.146799 0.259347
Si Si3 0.174156 0.634191 0.762147
Si Si4 0.977592 0.209305 0.781417
Si Si5 0.694007 0.144816 0.214748
O O1 0.647873 0.194533 0.769658
O O2 0.476029 0.194474 0.713685
O O3 0.837149 0.139489 0.429842
O O4 0.558844 0.000000 0.741813
O O5 0.182462 0.212648 0.170995
O O6 0.000000 0.152709 0.500000
O O7 0.252020 0.000000 0.204295
O O8 0.275525 0.500000 0.671300
O O9 0.282494 0.757904 0.708926
O O10 0.071771 0.662594 0.739107
O O11 0.000000 0.624438 0.000000
O O12 0.881387 0.149420 0.971656
O O13 0.664645 0.000000 0.272813
#
# Coordination Sequence:
#
# PCOD9143307 Si02
#       5
#     4   4   4   4   4
#     4   9  18  31  47  75 109 132 159 204 252 295
#     4   8  14  26  46  72 102 132 160 196 246 297
#     4   9  20  37  54  73 101 135 168 207 254 299
#     4  10  18  31  52  71  98 137 169 200 246 296
#     4  10  20  32  51  78 102 129 169 209 244 292
#
# _framework density 21.576879999999999
#
# number of rings (size 3 to 8) (size 9 to 14) (size 15 to 20)
#    0.000    2.800    0.000    3.000    0.000    6.800 
#    0.000    7.000    0.000    6.600    0.000    5.600 
#    0.000    0.000    0.000    0.000    0.000    0.000 
#
# Total GULP energy -111435.742598 kJ/mol
# GULP energy per Si atom -5571.787130 kJ/mol
# Density = 2.152777 g / cm^3
# Si number density = 21.576880 Si / 1000 Ang^3
#
#
#
# Elastic Constant Matrix: (Units=GPa)
#
#
# Indices 1 2 3 4 5 6 
#
# 1 178.9368 72.6033 15.3779 0.0000 2.4311 0.0000
# 2 72.6033 99.8486 5.2370 0.0000 9.4833 0.0000
# 3 15.3779 5.2370 69.6323 0.0000 6.6576 0.0000
# 4 0.0000 0.0000 0.0000 -22.4246 0.0000 26.2076
# 5 2.4311 9.4833 6.6576 0.0000 37.8599 0.0000
# 6 0.0000 0.0000 0.0000 26.2076 0.0000 55.1488
#
#
#
# Elastic Compliance Matrix: (Units=1/GPa)
#
#
# Indices 1 2 3 4 5 6 
#
# 1 0.008105 -0.005933 -0.001461 0.000000 0.001222 0.000000
# 2 -0.005933 0.014622 0.000533 0.000000 -0.003375 0.000000
# 3 -0.001461 0.000533 0.014898 0.000000 -0.002660 0.000000
# 4 0.000000 0.000000 0.000000 -0.028671 0.000000 0.013625
# 5 0.001222 -0.003375 -0.002660 0.000000 0.027648 0.000000
# 6 0.000000 0.000000 0.000000 0.013625 0.000000 0.011658
#
#
# Mechanical properties :
#
#
# Convention : Reuss Voigt Hill
#
# Bulk Modulus (GPa) = 41.83371 59.42823 50.63097
# Shear Modulus (GPa) = 71.48231 31.13011 51.30621
#
# Velocity S-wave (km/s) = 5.76203 3.80248 4.88159
# Velocity P-wave (km/s) = 7.98113 6.84696 7.43570
#
# Compressibility (1/GPa) = 0.02390416
#
# Stress axis : x y z
#
# Youngs Moduli (GPa) = 123.38613 68.39200 67.12362
#
# Poissons Ratio (x) = 0.40575 0.09804
# Poissons Ratio (y) = 0.73201 -0.03579
# Poissons Ratio (z) = 0.18021 -0.03647
#
# Static dielectric constant tensor:
#      x y z
#    x 1.886550 0.000000 -0.017330 
#    y 0.000000 1.761050 0.000000 
#    z -0.017330 0.000000 1.855540 
# 
# From -- ./inp_files/23488.got.cif
#   From: 2010.05.17/outbox.cif.g08.bks.cpg/sg10_12_cif.got.tgz:23488.got - 2010.06.03 11:33:40.
