data_PCOD9143950
_publ_section_title
;
Structure prediction by ZEFSAII (Michael W. Deem and Ramdas Pophale) SiO2 
 PCOD9143950
Probable space group: P 2/M
;
_chemical_formula_sum "Si O2"
_cell_formula_units_Z 24
_cell_length_a 11.833683
_cell_length_b 8.409434
_cell_length_c 14.188186
_cell_angle_alpha 90.000000
_cell_angle_beta 43.587979
_cell_angle_gamma 90.000000
_cell_volume 973.480886
_symmetry_space_group_name_H-M "P 2/M"
_symmetry_group_IT_number 10
_symmetry_cell_setting 'monoclinic'
loop_
_space_group_symop_operation_xyz
x,y,z
-x,y,-z
-x,-y,-z
x,-y,z
loop_
_atom_site_type_symbol
_atom_site_label
_atom_site_fract_x
_atom_site_fract_y
_atom_site_fract_z
Si Si1 0.131665 0.808971 0.302636
Si Si2 0.765779 0.184822 0.081266
Si Si3 0.993400 0.316619 0.204623
Si Si4 0.448587 0.685556 0.632526
Si Si5 0.524394 0.310483 0.874029
Si Si6 0.225672 0.183457 0.513660
O O1 0.131392 0.718973 0.201460
O O2 0.290883 0.747547 0.259755
O O3 0.939894 0.780860 0.445262
O O4 0.144955 0.000000 0.283299
O O5 0.700815 0.236419 0.222367
O O6 0.611824 0.223200 0.105785
O O7 0.803192 0.000000 0.056459
O O8 0.921804 0.274865 0.944178
O O9 0.944654 0.500000 0.238230
O O10 0.847456 0.211147 0.336038
O O11 0.500000 0.753326 0.500000
O O12 0.412429 0.500000 0.643960
O O13 0.615674 0.708853 0.591289
O O14 0.508340 0.500000 0.869350
O O15 0.500000 0.275397 0.000000
O O16 0.271106 0.000000 0.471631
#
# Coordination Sequence:
#
# PCOD9143950 Si02
#       6
#     4   4   4   4   4   4
#     4   9  18  31  53  84 119 157 195 234 288 349
#     4  12  24  38  60  90 125 161 203 255 300 353
#     4  10  18  33  58  87 121 158 198 243 293 350
#     4  11  25  45  67  89 117 155 200 252 308 364
#     4  11  20  31  54  87 124 164 201 243 296 354
#     4   9  19  37  62  89 120 158 198 244 300 361
#
# _framework density 24.653797000000001
#
# number of rings (size 3 to 8) (size 9 to 14) (size 15 to 20)
#    1.000    0.667    1.667    4.500    0.000    2.000 
#    0.000    1.667    0.000   10.000    0.000    0.000 
#    0.000    0.000    0.000    0.000    0.000    0.000 
#
# Total GULP energy -134183.290318 kJ/mol
# GULP energy per Si atom -5590.970430 kJ/mol
# Density = 2.459768 g / cm^3
# Si number density = 24.653797 Si / 1000 Ang^3
#
#
#
# Elastic Constant Matrix: (Units=GPa)
#
#
# Indices 1 2 3 4 5 6 
#
# 1 102.8624 2.2424 25.8790 0.0000 -5.7151 0.0000
# 2 2.2424 54.2919 -1.6774 0.0000 2.4770 0.0000
# 3 25.8790 -1.6774 104.5046 0.0000 -4.8808 0.0000
# 4 0.0000 0.0000 0.0000 23.6460 0.0000 15.2576
# 5 -5.7151 2.4770 -4.8808 0.0000 40.5958 0.0000
# 6 0.0000 0.0000 0.0000 15.2576 0.0000 -44.0278
#
#
#
# Elastic Compliance Matrix: (Units=1/GPa)
#
#
# Indices 1 2 3 4 5 6 
#
# 1 0.010439 -0.000564 -0.002538 0.000000 0.001199 0.000000
# 2 -0.000564 0.018507 0.000383 0.000000 -0.001163 0.000000
# 3 -0.002538 0.000383 0.010243 0.000000 0.000851 0.000000
# 4 0.000000 0.000000 0.000000 0.034562 0.000000 0.011977
# 5 0.001199 -0.001163 0.000851 0.000000 0.024975 0.000000
# 6 0.000000 0.000000 0.000000 0.011977 0.000000 -0.018562
#
#
# Mechanical properties :
#
#
# Convention : Reuss Voigt Hill
#
# Bulk Modulus (GPa) = 29.62982 34.94965 32.28974
# Shear Modulus (GPa) = 51.62381 19.72380 35.67380
#
# Velocity S-wave (km/s) = 4.58093 2.83155 3.80806
# Velocity P-wave (km/s) = 6.32648 4.98971 5.69744
#
# Compressibility (1/GPa) = 0.03374978
#
# Stress axis : x y z
#
# Youngs Moduli (GPa) = 95.79264 54.03325 97.62405
#
# Poissons Ratio (x) = 0.03049 0.24779
# Poissons Ratio (y) = 0.05405 -0.03734
# Poissons Ratio (z) = 0.24314 -0.02067
#
# Static dielectric constant tensor:
#      x y z
#    x 2.133460 0.000000 0.141290 
#    y 0.000000 1.811570 0.000000 
#    z 0.141290 0.000000 2.094310 
# 
# From -- ./inp_files/66315.got.cif
#   From: 2010.05.17/outbox.cif.g08.bks.cpg/sg10_34_cif.got.tgz:66315.got - 2010.06.03 11:33:40.
