data_PCOD9143298
_publ_section_title
;
Structure prediction by ZEFSAII (Michael W. Deem and Ramdas Pophale) SiO2 
 PCOD9143298
Probable space group: P 2/M
;
_chemical_formula_sum "Si O2"
_cell_formula_units_Z 30
_cell_length_a 10.543972
_cell_length_b 19.034723
_cell_length_c 9.255138
_cell_angle_alpha 90.000000
_cell_angle_beta 66.458557
_cell_angle_gamma 90.000000
_cell_volume 1702.922040
_symmetry_space_group_name_H-M "P 2/M"
_symmetry_group_IT_number 10
_symmetry_cell_setting 'monoclinic'
loop_
_space_group_symop_operation_xyz
x,y,z
-x,y,-z
-x,-y,-z
x,-y,z
loop_
_atom_site_type_symbol
_atom_site_label
_atom_site_fract_x
_atom_site_fract_y
_atom_site_fract_z
Si Si1 0.945757 0.707111 0.265965
Si Si2 0.500000 0.288365 0.500000
Si Si3 0.907759 0.420760 0.687825
Si Si4 0.232059 0.790982 0.160810
Si Si5 0.871365 0.920987 0.158281
Si Si6 0.925357 0.080375 0.672157
Si Si7 0.717096 0.218708 0.189188
Si Si8 0.274798 0.687310 0.383557
O O1 0.847929 0.733045 0.180739
O O2 0.852326 0.710092 0.453924
O O3 0.008281 0.628268 0.238098
O O4 0.078147 0.757123 0.218872
O O5 0.593624 0.242875 0.348514
O O6 0.602606 0.329693 0.560747
O O7 0.880345 0.500000 0.749693
O O8 0.774545 0.377044 0.694230
O O9 0.000000 0.424901 0.500000
O O10 0.198290 0.872023 0.211196
O O11 0.304754 0.751380 0.260746
O O12 0.302698 0.777482 0.974108
O O13 0.757282 0.861731 0.203373
O O14 0.947031 0.923837 0.276017
O O15 0.827915 0.000000 0.135026
O O16 0.000000 0.898576 0.000000
O O17 0.000000 0.113416 0.500000
O O18 0.880183 0.000000 0.662580
#
# Coordination Sequence:
#
# PCOD9143298 Si02
#       8
#     4   2   4   4   4   4   4   4
#     4   9  16  29  50  80 105 129 157 203 257 307
#     4  10  24  38  48  68  96 138 184 216 244 290
#     4   8  14  27  51  82 109 132 159 199 256 308
#     4  11  18  29  53  76  99 129 165 214 267 302
#     4  10  18  31  51  77 105 131 163 210 266 311
#     4  10  19  28  45  79 110 128 155 200 264 320
#     4  11  20  33  50  72 104 137 175 210 249 299
#     4   9  19  33  51  72 104 135 169 208 245 298
#
# _framework density 17.616779000000001
#
# number of rings (size 3 to 8) (size 9 to 14) (size 15 to 20)
#    0.000    2.267    2.667    2.400    1.867    0.533 
#    0.000    0.667    0.000    8.000    0.000    5.600 
#    0.000    0.000    0.000    0.000    0.000    0.000 
#
# Total GULP energy -167057.864812 kJ/mol
# GULP energy per Si atom -5568.595494 kJ/mol
# Density = 1.757668 g / cm^3
# Si number density = 17.616779 Si / 1000 Ang^3
#
#
#
# Elastic Constant Matrix: (Units=GPa)
#
#
# Indices 1 2 3 4 5 6 
#
# 1 55.1497 16.3985 15.4288 0.0000 4.8486 0.0000
# 2 16.3985 97.2144 10.5260 0.0000 0.5468 0.0000
# 3 15.4288 10.5260 76.5182 0.0000 7.9409 0.0000
# 4 0.0000 0.0000 0.0000 10.2441 0.0000 3.1176
# 5 4.8486 0.5468 7.9409 0.0000 22.6301 0.0000
# 6 0.0000 0.0000 0.0000 3.1176 0.0000 10.2951
#
#
#
# Elastic Compliance Matrix: (Units=1/GPa)
#
#
# Indices 1 2 3 4 5 6 
#
# 1 0.020242 -0.003035 -0.003343 0.000000 -0.003090 0.000000
# 2 -0.003035 0.010899 -0.000962 0.000000 0.000725 0.000000
# 3 -0.003343 -0.000962 0.014320 0.000000 -0.004285 0.000000
# 4 0.000000 0.000000 0.000000 0.107527 0.000000 -0.032562
# 5 -0.003090 0.000725 -0.004285 0.000000 0.046337 0.000000
# 6 0.000000 0.000000 0.000000 -0.032562 0.000000 0.106994
#
#
# Mechanical properties :
#
#
# Convention : Reuss Voigt Hill
#
# Bulk Modulus (GPa) = 32.48972 34.84321 33.66646
# Shear Modulus (GPa) = 15.09385 21.06911 18.08148
#
# Velocity S-wave (km/s) = 2.93027 3.46203 3.20719
# Velocity P-wave (km/s) = 5.47094 5.98350 5.73295
#
# Compressibility (1/GPa) = 0.03077897
#
# Stress axis : x y z
#
# Youngs Moduli (GPa) = 49.40233 91.75445 69.83229
#
# Poissons Ratio (x) = 0.27848 0.23347
# Poissons Ratio (y) = 0.14994 0.06721
# Poissons Ratio (z) = 0.16517 0.08831
#
# Static dielectric constant tensor:
#      x y z
#    x 1.554460 0.000000 -0.059590 
#    y 0.000000 1.627510 0.000000 
#    z -0.059590 0.000000 1.538410 
# 
# From -- ./inp_files/25676.got.cif
#   From: 2010.05.17/outbox.cif.g08.bks.cpg/sg10_13_cif.got.tgz:25676.got - 2010.06.03 11:33:40.
