data_PCOD9143809
_publ_section_title
;
Structure prediction by ZEFSAII (Michael W. Deem and Ramdas Pophale) SiO2 
 PCOD9143809
Probable space group: P 2/M
;
_chemical_formula_sum "Si O2"
_cell_formula_units_Z 26
_cell_length_a 10.018416
_cell_length_b 11.925740
_cell_length_c 12.470216
_cell_angle_alpha 90.000000
_cell_angle_beta 68.996937
_cell_angle_gamma 90.000000
_cell_volume 1390.916948
_symmetry_space_group_name_H-M "P 2/M"
_symmetry_group_IT_number 10
_symmetry_cell_setting 'monoclinic'
loop_
_space_group_symop_operation_xyz
x,y,z
-x,y,-z
-x,-y,-z
x,-y,z
loop_
_atom_site_type_symbol
_atom_site_label
_atom_site_fract_x
_atom_site_fract_y
_atom_site_fract_z
Si Si1 0.908212 0.255724 0.138307
Si Si2 0.975334 0.500000 0.134233
Si Si3 0.272985 0.500000 0.176047
Si Si4 0.333710 0.129871 0.911394
Si Si5 0.831829 0.500000 0.546452
Si Si6 0.392494 0.728416 0.198009
Si Si7 0.580489 0.629015 0.579718
Si Si8 0.151193 0.129028 0.184602
O O1 0.762879 0.194414 0.148000
O O2 0.895457 0.383755 0.181662
O O3 0.001979 0.185640 0.195409
O O4 0.000000 0.258627 0.000000
O O5 0.131945 0.500000 0.143710
O O6 0.000000 0.500000 0.000000
O O7 0.219213 0.500000 0.314984
O O8 0.363377 0.614026 0.140030
O O9 0.481934 0.194040 0.881688
O O10 0.356444 0.000000 0.875686
O O11 0.245002 0.131269 0.047782
O O12 0.750825 0.605740 0.515935
O O13 0.000000 0.500000 0.500000
O O14 0.435869 0.694863 0.305907
O O15 0.243658 0.796187 0.238645
O O16 0.500000 0.676145 0.500000
O O17 0.524809 0.500000 0.611345
O O18 0.135323 0.000000 0.221975
#
# Coordination Sequence:
#
# PCOD9143809 Si02
#       8
#     4   2   2   4   2   4   4   4
#     4   9  18  32  51  69 101 140 178 216 261 304
#     4  10  18  33  49  72 110 144 167 200 260 330
#     4  10  20  34  51  78 111 133 170 209 265 329
#     4  10  21  35  50  76 105 140 192 226 247 298
#     4   8  15  31  55  76  96 125 161 213 250 302
#     4  11  19  33  53  74 108 136 169 222 260 308
#     4   8  17  35  53  72 104 136 162 204 264 336
#     4  10  19  33  53  72 100 146 187 224 258 292
#
# _framework density 18.692705
#
# number of rings (size 3 to 8) (size 9 to 14) (size 15 to 20)
#    0.462    2.000    2.308    1.385    0.000    3.692 
#    2.769    2.308    0.000    1.846    0.000    0.000 
#    0.000   14.769    0.000    0.000    0.000    0.000 
#
# Total GULP energy -144892.944100 kJ/mol
# GULP energy per Si atom -5572.805542 kJ/mol
# Density = 1.865016 g / cm^3
# Si number density = 18.692705 Si / 1000 Ang^3
#
#
#
# Elastic Constant Matrix: (Units=GPa)
#
#
# Indices 1 2 3 4 5 6 
#
# 1 120.8930 50.7281 23.5752 0.0000 24.5969 0.0000
# 2 50.7281 146.4401 11.8969 0.0000 13.6372 0.0000
# 3 23.5752 11.8969 27.5388 0.0000 21.6763 0.0000
# 4 0.0000 0.0000 0.0000 3.7136 0.0000 -0.1679
# 5 24.5969 13.6372 21.6763 0.0000 35.9302 0.0000
# 6 0.0000 0.0000 0.0000 -0.1679 0.0000 29.9788
#
#
#
# Elastic Compliance Matrix: (Units=1/GPa)
#
#
# Indices 1 2 3 4 5 6 
#
# 1 0.011384 -0.003178 -0.006071 0.000000 -0.002925 0.000000
# 2 -0.003178 0.008013 -0.000114 0.000000 -0.000797 0.000000
# 3 -0.006071 -0.000114 0.072844 0.000000 -0.039747 0.000000
# 4 0.000000 0.000000 0.000000 0.269350 0.000000 0.001508
# 5 -0.002925 -0.000797 -0.039747 0.000000 0.054115 0.000000
# 6 0.000000 0.000000 0.000000 0.001508 0.000000 0.033365
#
#
# Mechanical properties :
#
#
# Convention : Reuss Voigt Hill
#
# Bulk Modulus (GPa) = 13.60231 51.91914 32.76073
# Shear Modulus (GPa) = 10.15636 27.83595 18.99615
#
# Velocity S-wave (km/s) = 2.33348 3.86312 3.19130
# Velocity P-wave (km/s) = 3.81481 6.90895 5.58061
#
# Compressibility (1/GPa) = 0.07351690
#
# Stress axis : x y z
#
# Youngs Moduli (GPa) = 87.84078 124.79564 13.72795
#
# Poissons Ratio (x) = 0.39661 0.08334
# Poissons Ratio (y) = 0.27916 0.00156
# Poissons Ratio (z) = 0.53325 0.01417
#
# Static dielectric constant tensor:
#      x y z
#    x 1.669010 0.000000 -0.003250 
#    y 0.000000 1.667600 0.000000 
#    z -0.003250 0.000000 1.638020 
# 
# From -- ./inp_files/60710.got.cif
#   From: 2010.05.17/outbox.cif.g08.bks.cpg/sg10_31_cif.got.tgz:60710.got - 2010.06.03 11:33:40.
