data_PCOD9143563
_publ_section_title
;
Structure prediction by ZEFSAII (Michael W. Deem and Ramdas Pophale) SiO2 
 PCOD9143563
Probable space group: P 2/M
;
_chemical_formula_sum "Si O2"
_cell_formula_units_Z 28
_cell_length_a 17.457742
_cell_length_b 7.667628
_cell_length_c 15.430458
_cell_angle_alpha 90.000000
_cell_angle_beta 46.383979
_cell_angle_gamma 90.000000
_cell_volume 1495.388005
_symmetry_space_group_name_H-M "P 2/M"
_symmetry_group_IT_number 10
_symmetry_cell_setting 'monoclinic'
loop_
_space_group_symop_operation_xyz
x,y,z
-x,y,-z
-x,-y,-z
x,-y,z
loop_
_atom_site_type_symbol
_atom_site_label
_atom_site_fract_x
_atom_site_fract_y
_atom_site_fract_z
Si Si1 0.898681 0.711612 0.396525
Si Si2 0.240560 0.801984 0.333556
Si Si3 0.134335 0.300487 0.244895
Si Si4 0.480533 0.710758 0.114156
Si Si5 0.920851 0.712330 0.185433
Si Si6 0.153615 0.287610 0.940408
Si Si7 0.303369 0.713895 0.972450
O O1 0.896106 0.500000 0.401336
O O2 0.812689 0.772761 0.532310
O O3 0.882696 0.768287 0.309590
O O4 0.016364 0.774000 0.332288
O O5 0.180717 0.697033 0.305073
O O6 0.364905 0.763570 0.235871
O O7 0.224360 0.000000 0.319264
O O8 0.120895 0.500000 0.224798
O O9 0.222469 0.226414 0.111115
O O10 0.482294 0.500000 0.111235
O O11 0.578546 0.771395 0.096365
O O12 0.500000 0.769893 0.000000
O O13 0.919815 0.500000 0.186168
O O14 0.855158 0.770234 0.152426
O O15 0.043247 0.762941 0.073143
O O16 0.154484 0.500000 0.938835
O O17 0.252273 0.230949 0.921356
O O18 0.305677 0.500000 0.971795
#
# Coordination Sequence:
#
# PCOD9143563 Si02
#       7
#     4   4   4   4   4   4   4
#     4  10  19  32  52  75 101 134 168 198 236 294
#     4  12  25  36  47  67 100 136 170 207 247 289
#     4  10  18  32  52  75 100 130 165 199 239 293
#     4  10  19  34  55  73  93 126 169 210 244 287
#     4   8  13  22  42  74 108 130 148 188 243 296
#     4   8  12  21  41  75 109 127 146 189 250 295
#     4   9  15  26  48  75 102 127 155 196 246 293
#
# _framework density 18.724236999999999
#
# number of rings (size 3 to 8) (size 9 to 14) (size 15 to 20)
#    0.000    2.429    2.857    2.571    0.000    2.571 
#    0.000    0.000    0.000    0.857    0.000   10.000 
#    0.000    0.000    0.000    0.000    0.000    0.000 
#
# Total GULP energy -156189.160500 kJ/mol
# GULP energy per Si atom -5578.184304 kJ/mol
# Density = 1.868162 g / cm^3
# Si number density = 18.724237 Si / 1000 Ang^3
#
#
#
# Elastic Constant Matrix: (Units=GPa)
#
#
# Indices 1 2 3 4 5 6 
#
# 1 149.5657 -0.2914 82.5951 0.0000 6.3010 0.0000
# 2 -0.2914 35.1199 -1.6658 0.0000 -5.0315 0.0000
# 3 82.5951 -1.6658 137.5374 0.0000 -4.1208 0.0000
# 4 0.0000 0.0000 0.0000-3151.4509 0.0000 649.3568
# 5 6.3010 -5.0315 -4.1208 0.0000 22.0088 0.0000
# 6 0.0000 0.0000 0.0000 649.3568 0.0000 -152.0276
#
#
#
# Elastic Compliance Matrix: (Units=1/GPa)
#
#
# Indices 1 2 3 4 5 6 
#
# 1 0.010392 -0.000841 -0.006382 0.000000 -0.004363 0.000000
# 2 -0.000841 0.029549 0.001079 0.000000 0.007198 0.000000
# 3 -0.006382 0.001079 0.011242 0.000000 0.004179 0.000000
# 4 0.000000 0.000000 0.000000 -0.002647 0.000000 -0.011304
# 5 -0.004363 0.007198 0.004179 0.000000 0.049113 0.000000
# 6 0.000000 0.000000 0.000000 -0.011304 0.000000 -0.054862
#
#
# Mechanical properties :
#
#
# Convention : Reuss Voigt Hill
#
# Bulk Modulus (GPa) = 25.71063 53.72210 39.71636
# Shear Modulus (GPa) = 73.48428 -640.18827 -283.35199
#
# Velocity S-wave (km/s) = 6.27142 -18.51069 -12.31493
# Velocity P-wave (km/s) = 8.13646 20.69076 13.45187
#
# Compressibility (1/GPa) = 0.03889442
#
# Stress axis : x y z
#
# Youngs Moduli (GPa) = 96.22369 33.84166 88.95606
#
# Poissons Ratio (x) = 0.02848 0.56771
# Poissons Ratio (y) = 0.08097 -0.09597
# Poissons Ratio (z) = 0.61409 -0.03651
#
# Static dielectric constant tensor:
#      x y z
#    x 1.654290 0.000000 0.010570 
#    y 0.000000 1.692650 0.000000 
#    z 0.010570 0.000000 1.613090 
# 
# From -- ./inp_files/68600.got.cif
#   From: 2010.05.17/outbox.cif.g08.bks.cpg/sg10_35_cif.got.tgz:68600.got - 2010.06.03 11:33:40.
