data_PCOD9143199
_publ_section_title
;
Structure prediction by ZEFSAII (Michael W. Deem and Ramdas Pophale) SiO2 
 PCOD9143199
Probable space group: P 2/M
;
_chemical_formula_sum "Si O2"
_cell_formula_units_Z 32
_cell_length_a 21.488664
_cell_length_b 8.241554
_cell_length_c 15.460920
_cell_angle_alpha 90.000000
_cell_angle_beta 137.643042
_cell_angle_gamma 90.000000
_cell_volume 1844.807231
_symmetry_space_group_name_H-M "P 2/M"
_symmetry_group_IT_number 10
_symmetry_cell_setting 'monoclinic'
loop_
_space_group_symop_operation_xyz
x,y,z
-x,y,-z
-x,-y,-z
x,-y,z
loop_
_atom_site_type_symbol
_atom_site_label
_atom_site_fract_x
_atom_site_fract_y
_atom_site_fract_z
Si Si1 0.515380 0.302959 0.918955
Si Si2 0.692793 0.197828 0.714206
Si Si3 0.991411 0.307723 0.891133
Si Si4 0.790206 0.192832 0.639629
Si Si5 0.825526 0.807050 0.007163
Si Si6 0.469114 0.188514 0.342836
Si Si7 0.665835 0.692129 0.942194
Si Si8 0.378677 0.691639 0.626814
O O1 0.508477 0.500000 0.914223
O O2 0.437962 0.247518 0.770159
O O3 0.500000 0.241801 0.000000
O O4 0.616068 0.267409 0.981434
O O5 0.733957 0.252442 0.666255
O O6 0.589957 0.250595 0.635804
O O7 0.689965 0.000000 0.711185
O O8 0.765183 0.248986 0.862167
O O9 0.005157 0.500000 0.909236
O O10 0.890978 0.269491 0.749341
O O11 0.070530 0.236865 0.910535
O O12 0.000000 0.244647 0.000000
O O13 0.721640 0.231817 0.490511
O O14 0.801673 0.000000 0.658120
O O15 0.772956 0.729842 0.035202
O O16 0.817611 0.000000 0.006475
O O17 0.556858 0.273873 0.390819
O O18 0.493646 0.000000 0.381656
O O19 0.391665 0.205760 0.187674
O O20 0.649466 0.500000 0.909127
O O21 0.367540 0.500000 0.624033
#
# Coordination Sequence:
#
# PCOD9143199 Si02
#       8
#     4   4   4   4   4   4   4   4
#     4   8  15  30  53  77 101 130 160 192 238 299
#     4   8  16  28  44  64  86 122 167 203 229 274
#     4  11  22  34  49  72  97 125 167 220 259 279
#     4  11  21  34  49  65  92 131 171 204 243 294
#     4  10  18  31  49  68  95 132 170 204 244 292
#     4   9  16  29  46  64  89 126 166 198 236 286
#     4   9  16  27  46  74 102 125 157 203 247 285
#     4  10  20  33  47  69  98 125 159 205 248 287
#
# _framework density 17.345984999999999
#
# number of rings (size 3 to 8) (size 9 to 14) (size 15 to 20)
#    0.000    2.500    1.250    3.750    0.000    1.000 
#    0.000    4.375    0.000   13.500    0.000    0.875 
#    0.000    7.000    0.000    0.000    0.000    0.000 
#
# Total GULP energy -178335.605408 kJ/mol
# GULP energy per Si atom -5572.987669 kJ/mol
# Density = 1.730650 g / cm^3
# Si number density = 17.345985 Si / 1000 Ang^3
#
#
#
# Elastic Constant Matrix: (Units=GPa)
#
#
# Indices 1 2 3 4 5 6 
#
# 1 124.7590 10.1568 57.3388 0.0000 8.7250 0.0000
# 2 10.1568 25.7007 0.9079 0.0000 -2.9362 0.0000
# 3 57.3388 0.9079 67.4947 0.0000 13.8184 0.0000
# 4 0.0000 0.0000 0.0000 19.9057 0.0000 10.9047
# 5 8.7250 -2.9362 13.8184 0.0000 23.7652 0.0000
# 6 0.0000 0.0000 0.0000 10.9047 0.0000 22.4694
#
#
#
# Elastic Compliance Matrix: (Units=1/GPa)
#
#
# Indices 1 2 3 4 5 6 
#
# 1 0.013803 -0.004890 -0.011918 0.000000 0.001258 0.000000
# 2 -0.004890 0.041379 0.002479 0.000000 0.005467 0.000000
# 3 -0.011918 0.002479 0.027185 0.000000 -0.011125 0.000000
# 4 0.000000 0.000000 0.000000 0.068430 0.000000 -0.033210
# 5 0.001258 0.005467 -0.011125 0.000000 0.048761 0.000000
# 6 0.000000 0.000000 0.000000 -0.033210 0.000000 0.060622
#
#
# Mechanical properties :
#
#
# Convention : Reuss Voigt Hill
#
# Bulk Modulus (GPa) = 18.61920 39.41794 29.01857
# Shear Modulus (GPa) = 16.30039 23.19811 19.74925
#
# Velocity S-wave (km/s) = 3.06881 3.66098 3.37790
# Velocity P-wave (km/s) = 4.82847 6.37529 5.65502
#
# Compressibility (1/GPa) = 0.05370799
#
# Stress axis : x y z
#
# Youngs Moduli (GPa) = 72.44818 24.16682 36.78518
#
# Poissons Ratio (x) = 0.11818 0.43840
# Poissons Ratio (y) = 0.35428 -0.09117
# Poissons Ratio (z) = 0.86342 -0.05990
#
# Static dielectric constant tensor:
#      x y z
#    x 1.619390 0.000000 0.005020 
#    y 0.000000 1.596710 0.000000 
#    z 0.005020 0.000000 1.609300 
# 
# From -- ./inp_files/70012.got.cif
#   From: 2010.05.17/outbox.cif.g08.bks.cpg/sg10_36_cif.got.tgz:70012.got - 2010.06.03 11:33:40.
