data_PCOD9143071
_publ_section_title
;
Structure prediction by ZEFSAII (Michael W. Deem and Ramdas Pophale) SiO2 
 PCOD9143071
Probable space group: P 2/M
;
_chemical_formula_sum "Si O2"
_cell_formula_units_Z 28
_cell_length_a 12.354831
_cell_length_b 13.980947
_cell_length_c 8.790493
_cell_angle_alpha 90.000000
_cell_angle_beta 105.257398
_cell_angle_gamma 90.000000
_cell_volume 1464.882962
_symmetry_space_group_name_H-M "P 2/M"
_symmetry_group_IT_number 10
_symmetry_cell_setting 'monoclinic'
loop_
_space_group_symop_operation_xyz
x,y,z
-x,y,-z
-x,-y,-z
x,-y,z
loop_
_atom_site_type_symbol
_atom_site_label
_atom_site_fract_x
_atom_site_fract_y
_atom_site_fract_z
Si Si1 0.106802 0.248114 0.956883
Si Si2 0.481179 0.313444 0.323484
Si Si3 0.502657 0.107401 0.759144
Si Si4 0.753446 0.613129 0.772565
Si Si5 0.302994 0.108394 0.911890
Si Si6 0.705141 0.390870 0.404976
Si Si7 0.065248 0.608777 0.679057
O O1 0.202791 0.180059 0.919475
O O2 0.054071 0.314952 0.806427
O O3 0.166672 0.319503 0.099412
O O4 0.000000 0.198797 0.000000
O O5 0.500000 0.352691 0.500000
O O6 0.466318 0.199815 0.326586
O O7 0.373089 0.364573 0.216747
O O8 0.600968 0.334749 0.295611
O O9 0.379487 0.122998 0.789140
O O10 0.504126 0.000000 0.693503
O O11 0.599749 0.109701 0.923542
O O12 0.778947 0.500000 0.794992
O O13 0.748703 0.640288 0.589783
O O14 0.257722 0.000000 0.887869
O O15 0.668210 0.500000 0.414311
O O16 0.805979 0.390431 0.324715
O O17 0.032838 0.500000 0.712662
O O18 0.000000 0.631561 0.500000
#
# Coordination Sequence:
#
# PCOD9143071 Si02
#       7
#     4   4   4   4   4   4   4
#     4  12  23  35  56  82 106 137 180 226 266 310
#     4  10  18  30  51  79 111 140 174 214 267 316
#     4   9  17  33  56  78 104 136 172 216 264 319
#     4  10  20  34  51  77 112 145 179 220 260 306
#     4   9  19  36  57  78 102 136 173 214 270 323
#     4   9  18  33  52  73 105 149 183 210 259 318
#     4  10  21  37  54  75 105 143 182 219 260 313
#
# _framework density 19.114156000000001
#
# number of rings (size 3 to 8) (size 9 to 14) (size 15 to 20)
#    0.000    2.143    1.429    3.429    0.000    4.571 
#    0.000    0.000    0.000    3.857    0.000    0.000 
#    0.000    0.000    0.000    0.000    0.000    0.000 
#
# Total GULP energy -155968.546165 kJ/mol
# GULP energy per Si atom -5570.305220 kJ/mol
# Density = 1.907065 g / cm^3
# Si number density = 19.114156 Si / 1000 Ang^3
#
#
#
# Elastic Constant Matrix: (Units=GPa)
#
#
# Indices 1 2 3 4 5 6 
#
# 1 86.4237 31.6172 10.1196 0.0000 11.9291 0.0000
# 2 31.6172 64.6305 11.0613 0.0000 0.1717 0.0000
# 3 10.1196 11.0613 22.8990 0.0000 2.5547 0.0000
# 4 0.0000 0.0000 0.0000 20.4480 0.0000 -3.5979
# 5 11.9291 0.1717 2.5547 0.0000 17.4812 0.0000
# 6 0.0000 0.0000 0.0000 -3.5979 0.0000 19.9425
#
#
#
# Elastic Compliance Matrix: (Units=1/GPa)
#
#
# Indices 1 2 3 4 5 6 
#
# 1 0.016001 -0.007402 -0.002323 0.000000 -0.010507 0.000000
# 2 -0.007402 0.020310 -0.007198 0.000000 0.005904 0.000000
# 3 -0.002323 -0.007198 0.048784 0.000000 -0.005473 0.000000
# 4 0.000000 0.000000 0.000000 0.050508 0.000000 0.009112
# 5 -0.010507 0.005904 -0.005473 0.000000 0.065116 0.000000
# 6 0.000000 0.000000 0.000000 0.009112 0.000000 0.051788
#
#
# Mechanical properties :
#
#
# Convention : Reuss Voigt Hill
#
# Bulk Modulus (GPa) = 19.51295 31.06105 25.28700
# Shear Modulus (GPa) = 16.47784 19.65136 18.06460
#
# Velocity S-wave (km/s) = 2.93930 3.20989 3.07757
# Velocity P-wave (km/s) = 4.66370 5.47936 5.08790
#
# Compressibility (1/GPa) = 0.05124803
#
# Stress axis : x y z
#
# Youngs Moduli (GPa) = 62.49503 49.23687 20.49832
#
# Poissons Ratio (x) = 0.36446 0.04763
# Poissons Ratio (y) = 0.46260 0.14755
# Poissons Ratio (z) = 0.14521 0.35441
#
# Static dielectric constant tensor:
#      x y z
#    x 1.755620 0.000000 -0.022000 
#    y 0.000000 1.666010 0.000000 
#    z -0.022000 0.000000 1.678960 
# 
# From -- ./inp_files/25059.got.cif
#   From: 2010.05.17/outbox.cif.g08.bks.cpg/sg10_13_cif.got.tgz:25059.got - 2010.06.03 11:33:40.
