data_PCOD9143084
_publ_section_title
;
Structure prediction by ZEFSAII (Michael W. Deem and Ramdas Pophale) SiO2 
 PCOD9143084
Probable space group: P 2/M
;
_chemical_formula_sum "Si O2"
_cell_formula_units_Z 32
_cell_length_a 18.046206
_cell_length_b 8.860700
_cell_length_c 24.368997
_cell_angle_alpha 90.000000
_cell_angle_beta 149.152092
_cell_angle_gamma 90.000000
_cell_volume 1998.050704
_symmetry_space_group_name_H-M "P 2/M"
_symmetry_group_IT_number 10
_symmetry_cell_setting 'monoclinic'
loop_
_space_group_symop_operation_xyz
x,y,z
-x,y,-z
-x,-y,-z
x,-y,z
loop_
_atom_site_type_symbol
_atom_site_label
_atom_site_fract_x
_atom_site_fract_y
_atom_site_fract_z
Si Si1 0.774310 0.179319 0.091969
Si Si2 0.673065 0.178584 0.832216
Si Si3 0.387557 0.319128 0.693144
Si Si4 0.103365 0.318300 0.938258
Si Si5 0.058559 0.316105 0.477824
Si Si6 0.130687 0.673833 0.127607
Si Si7 0.465210 0.320179 0.869740
Si Si8 0.816453 0.318050 0.236935
O O1 0.869479 0.253914 0.104466
O O2 0.818270 0.239771 0.179464
O O3 0.784831 0.000000 0.095753
O O4 0.609433 0.231056 0.976008
O O5 0.511291 0.237522 0.737459
O O6 0.743908 0.228095 0.819578
O O7 0.680881 0.000000 0.843738
O O8 0.770519 0.255602 0.941802
O O9 0.399084 0.500000 0.692423
O O10 0.224592 0.270360 0.575880
O O11 0.417130 0.290965 0.776584
O O12 0.112614 0.500000 0.944430
O O13 0.949647 0.275855 0.868012
O O14 0.057607 0.500000 0.478569
O O15 0.000000 0.265869 0.500000
O O16 0.948902 0.270988 0.360266
O O17 0.178568 0.500000 0.163460
O O18 0.000000 0.675021 0.000000
O O19 0.495526 0.500000 0.893614
O O20 0.332999 0.284418 0.826191
O O21 0.822230 0.500000 0.233736
#
# Coordination Sequence:
#
# PCOD9143084 Si02
#       8
#     4   4   4   4   4   4   4   4
#     4  12  24  34  47  71 104 138 171 205 247 301
#     4  11  20  29  45  73 106 135 163 197 242 299
#     4  10  18  30  52  76 100 131 167 209 252 294
#     4  10  19  33  51  70  96 131 169 206 247 293
#     4   9  16  31  55  79  95 119 168 221 258 289
#     4   8  16  30  48  69  95 129 164 200 243 293
#     4  10  19  32  52  73  97 133 170 207 252 297
#     4  10  20  35  54  74  97 129 173 216 254 296
#
# _framework density 16.015609000000001
#
# number of rings (size 3 to 8) (size 9 to 14) (size 15 to 20)
#    0.000    2.000    2.500    3.750    0.000    4.750 
#    0.000    0.625    0.000    0.750    0.000    0.875 
#    0.000    7.000    0.000    0.000    0.000    0.000 
#
# Total GULP energy -178554.943221 kJ/mol
# GULP energy per Si atom -5579.841976 kJ/mol
# Density = 1.597916 g / cm^3
# Si number density = 16.015609 Si / 1000 Ang^3
#
#
#
# Elastic Constant Matrix: (Units=GPa)
#
#
# Indices 1 2 3 4 5 6 
#
# 1 159.5374 64.8506 70.3662 0.0000 13.0210 0.0000
# 2 64.8506 57.1789 38.3146 0.0000 3.6879 0.0000
# 3 70.3662 38.3146 65.6902 0.0000 -2.4599 0.0000
# 4 0.0000 0.0000 0.0000 -10.2820 0.0000 -7.9070
# 5 13.0210 3.6879 -2.4599 0.0000 19.9281 0.0000
# 6 0.0000 0.0000 0.0000 -7.9070 0.0000 1.9376
#
#
#
# Elastic Compliance Matrix: (Units=1/GPa)
#
#
# Indices 1 2 3 4 5 6 
#
# 1 0.016626 -0.009807 -0.012486 0.000000 -0.010590 0.000000
# 2 -0.009807 0.035628 -0.010330 0.000000 -0.001460 0.000000
# 3 -0.012486 -0.010330 0.035162 0.000000 0.014410 0.000000
# 4 0.000000 0.000000 0.000000 -0.023502 0.000000 -0.095908
# 5 -0.010590 -0.001460 0.014410 0.000000 0.059149 0.000000
# 6 0.000000 0.000000 0.000000 -0.095908 0.000000 0.124716
#
#
# Mechanical properties :
#
#
# Convention : Reuss Voigt Hill
#
# Bulk Modulus (GPa) = 45.10511 69.94103 57.52307
# Shear Modulus (GPa) = 15.60476 9.57508 12.58992
#
# Velocity S-wave (km/s) = 3.12484 2.44777 2.80679
# Velocity P-wave (km/s) = 6.42214 7.19403 6.81902
#
# Compressibility (1/GPa) = 0.02217044
#
# Stress axis : x y z
#
# Youngs Moduli (GPa) = 60.14646 28.06780 28.43949
#
# Poissons Ratio (x) = 0.27527 0.35509
# Poissons Ratio (y) = 0.58987 0.29378
# Poissons Ratio (z) = 0.75099 0.28994
#
# Static dielectric constant tensor:
#      x y z
#    x 1.547580 0.000000 0.008490 
#    y 0.000000 1.530320 0.000000 
#    z 0.008490 0.000000 1.511860 
# 
# From -- ./inp_files/89964.got.cif
#   From: 2010.05.17/outbox.cif.g08.bks.cpg/sg10_45_cif.got.tgz:89964.got - 2010.06.03 11:33:40.
