data_PCOD9143787
_publ_section_title
;
Structure prediction by ZEFSAII (Michael W. Deem and Ramdas Pophale) SiO2 
 PCOD9143787
Probable space group: P 2/M
;
_chemical_formula_sum "Si O2"
_cell_formula_units_Z 32
_cell_length_a 9.256749
_cell_length_b 14.574173
_cell_length_c 24.475964
_cell_angle_alpha 90.000000
_cell_angle_beta 151.490273
_cell_angle_gamma 90.000000
_cell_volume 1576.089518
_symmetry_space_group_name_H-M "P 2/M"
_symmetry_group_IT_number 10
_symmetry_cell_setting 'monoclinic'
loop_
_space_group_symop_operation_xyz
x,y,z
-x,y,-z
-x,-y,-z
x,-y,z
loop_
_atom_site_type_symbol
_atom_site_label
_atom_site_fract_x
_atom_site_fract_y
_atom_site_fract_z
Si Si1 0.505715 0.605193 0.634543
Si Si2 0.793195 0.762960 0.795227
Si Si3 0.968575 0.892657 0.214763
Si Si4 0.997320 0.099077 0.349922
Si Si5 0.108909 0.603959 0.759969
Si Si6 0.198911 0.293139 0.437884
Si Si7 0.316444 0.848120 0.123565
Si Si8 0.441256 0.749547 0.056375
O O1 0.438782 0.500000 0.628405
O O2 0.591115 0.676662 0.710468
O O3 0.255936 0.649342 0.511502
O O4 0.804395 0.603063 0.694999
O O5 0.700012 0.809348 0.820946
O O6 0.811988 0.837838 0.752958
O O7 0.143560 0.736419 0.921990
O O8 0.090478 0.887374 0.317381
O O9 0.648929 0.837400 0.109292
O O10 0.931063 0.000000 0.188086
O O11 0.631785 0.098378 0.225800
O O12 0.104334 0.188573 0.417323
O O13 0.107355 0.000000 0.406151
O O14 0.197462 0.500000 0.778088
O O15 0.353515 0.660485 0.874644
O O16 0.042449 0.658040 0.681872
O O17 0.500000 0.291924 0.500000
O O18 0.343802 0.769734 0.086422
O O19 0.000000 0.895221 0.000000
#
# Coordination Sequence:
#
# PCOD9143787 Si02
#       8
#     4   4   4   4   4   4   4   4
#     4  10  21  35  55  86 116 147 185 238 301 346
#     4  11  21  35  56  81 120 154 188 240 287 342
#     4  10  19  33  55  85 116 148 187 234 289 342
#     4  10  20  37  62  87 115 152 195 239 283 335
#     4  10  18  32  58  86 109 143 192 241 289 344
#     4  10  18  35  59  84 117 149 189 240 284 335
#     4   9  20  37  58  81 117 159 193 229 280 342
#     4  10  19  36  55  83 114 152 192 238 287 339
#
# _framework density 20.303415000000001
#
# number of rings (size 3 to 8) (size 9 to 14) (size 15 to 20)
#    0.000    2.000    3.750    1.500    0.000    4.000 
#    0.000    5.625    0.000    3.750    0.000    0.000 
#    0.000    0.000    0.000    0.000    0.000    0.000 
#
# Total GULP energy -178566.158589 kJ/mol
# GULP energy per Si atom -5580.192456 kJ/mol
# Density = 2.025720 g / cm^3
# Si number density = 20.303415 Si / 1000 Ang^3
#
#
#
# Elastic Constant Matrix: (Units=GPa)
#
#
# Indices 1 2 3 4 5 6 
#
# 1 74.8207 35.2081 7.0020 0.0000 -16.3692 0.0000
# 2 35.2081 155.3616 38.0938 0.0000 -15.8641 0.0000
# 3 7.0020 38.0938 35.1794 0.0000 -8.3213 0.0000
# 4 0.0000 0.0000 0.0000 0.0955 0.0000 -7.4545
# 5 -16.3692 -15.8641 -8.3213 0.0000 19.4611 0.0000
# 6 0.0000 0.0000 0.0000 -7.4545 0.0000 -12.1062
#
#
#
# Elastic Compliance Matrix: (Units=1/GPa)
#
#
# Indices 1 2 3 4 5 6 
#
# 1 0.017617 -0.003456 0.003421 0.000000 0.013463 0.000000
# 2 -0.003456 0.009653 -0.009557 0.000000 0.000875 0.000000
# 3 0.003421 -0.009557 0.041087 0.000000 0.012655 0.000000
# 4 0.000000 0.000000 0.000000 0.213419 0.000000 -0.131414
# 5 0.013463 0.000875 0.012655 0.000000 0.068833 0.000000
# 6 0.000000 0.000000 0.000000 -0.131414 0.000000 -0.001683
#
#
# Mechanical properties :
#
#
# Convention : Reuss Voigt Hill
#
# Bulk Modulus (GPa) = 20.33712 47.32994 33.83353
# Shear Modulus (GPa) = 13.00382 13.82727 13.41555
#
# Velocity S-wave (km/s) = 2.53351 2.61249 2.57330
# Velocity P-wave (km/s) = 4.31237 5.69755 5.05265
#
# Compressibility (1/GPa) = 0.04917118
#
# Stress axis : x y z
#
# Youngs Moduli (GPa) = 56.76302 103.59869 24.33839
#
# Poissons Ratio (x) = 0.35808 -0.08326
# Poissons Ratio (y) = 0.19620 0.23261
# Poissons Ratio (z) = -0.19418 0.99014
#
# Static dielectric constant tensor:
#      x y z
#    x 1.751130 0.000000 0.025270 
#    y 0.000000 1.707420 0.000000 
#    z 0.025270 0.000000 1.737830 
# 
# From -- ./inp_files/88265.got.cif
#   From: 2010.05.17/outbox.cif.g08.bks.cpg/sg10_45_cif.got.tgz:88265.got - 2010.06.03 11:33:40.
