data_PCOD9143629
_publ_section_title
;
Structure prediction by ZEFSAII (Michael W. Deem and Ramdas Pophale) SiO2 
 PCOD9143629
Probable space group: P 2/M
;
_chemical_formula_sum "Si O2"
_cell_formula_units_Z 32
_cell_length_a 11.602986
_cell_length_b 19.599876
_cell_length_c 9.360962
_cell_angle_alpha 90.000000
_cell_angle_beta 44.514686
_cell_angle_gamma 90.000000
_cell_volume 1492.514722
_symmetry_space_group_name_H-M "P 2/M"
_symmetry_group_IT_number 10
_symmetry_cell_setting 'monoclinic'
loop_
_space_group_symop_operation_xyz
x,y,z
-x,y,-z
-x,-y,-z
x,-y,z
loop_
_atom_site_type_symbol
_atom_site_label
_atom_site_fract_x
_atom_site_fract_y
_atom_site_fract_z
Si Si1 0.893826 0.632339 0.902060
Si Si2 0.467648 0.165901 0.695359
Si Si3 0.654490 0.922950 0.752634
Si Si4 0.949866 0.779043 0.189222
Si Si5 0.644920 0.704279 0.553733
Si Si6 0.187664 0.840063 0.162797
Si Si7 0.243952 0.421524 0.684676
Si Si8 0.304273 0.306683 0.173063
O O1 0.940829 0.710037 0.901298
O O2 0.796990 0.641537 0.838558
O O3 0.068337 0.592638 0.758648
O O4 0.787759 0.599580 0.122973
O O5 0.500000 0.150428 0.500000
O O6 0.605858 0.128045 0.668696
O O7 0.486742 0.247886 0.703675
O O8 0.297978 0.144593 0.923507
O O9 0.796980 0.896082 0.729494
O O10 0.677721 0.000000 0.681125
O O11 0.500000 0.921602 0.000000
O O12 0.004671 0.823350 0.274311
O O13 0.766663 0.751529 0.353543
O O14 0.000000 0.815345 0.000000
O O15 0.629770 0.631062 0.497201
O O16 0.736137 0.692617 0.623524
O O17 0.265772 0.770435 0.157893
O O18 0.288694 0.500000 0.632870
O O19 0.500000 0.320317 0.000000
#
# Coordination Sequence:
#
# PCOD9143629 Si02
#       8
#     4   4   4   4   4   4   4   4
#     4   9  18  33  57  81 108 145 186 237 290 337
#     4  11  21  33  57  88 116 149 192 236 287 336
#     4   9  18  36  57  82 116 153 193 230 279 344
#     4  10  18  32  53  87 117 138 190 249 285 330
#     4  11  21  35  57  88 112 147 191 241 287 335
#     4  10  19  35  56  83 115 154 188 230 291 339
#     4  10  20  38  59  81 109 147 195 239 291 346
#     4  11  20  35  55  85 116 146 188 240 287 342
#
# _framework density 21.440322999999999
#
# number of rings (size 3 to 8) (size 9 to 14) (size 15 to 20)
#    0.000    1.875    5.000    1.875    1.750    4.750 
#    0.000    1.875    0.000    7.875    0.000    0.000 
#    0.000    0.000    0.000    0.000    0.000    0.000 
#
# Total GULP energy -178646.358356 kJ/mol
# GULP energy per Si atom -5582.698699 kJ/mol
# Density = 2.139152 g / cm^3
# Si number density = 21.440323 Si / 1000 Ang^3
#
#
#
# Elastic Constant Matrix: (Units=GPa)
#
#
# Indices 1 2 3 4 5 6 
#
# 1 98.3803 19.6445 13.5563 0.0000 18.1720 0.0000
# 2 19.6445 94.3042 13.3547 0.0000 10.8419 0.0000
# 3 13.5563 13.3547 68.5482 0.0000 20.3491 0.0000
# 4 0.0000 0.0000 0.0000 13.6968 0.0000 1.3599
# 5 18.1720 10.8419 20.3491 0.0000 33.0107 0.0000
# 6 0.0000 0.0000 0.0000 1.3599 0.0000 10.3340
#
#
#
# Elastic Compliance Matrix: (Units=1/GPa)
#
#
# Indices 1 2 3 4 5 6 
#
# 1 0.011590 -0.001726 -0.000282 0.000000 -0.005640 0.000000
# 2 -0.001726 0.011375 -0.001282 0.000000 -0.001995 0.000000
# 3 -0.000282 -0.001282 0.018020 0.000000 -0.010532 0.000000
# 4 0.000000 0.000000 0.000000 0.073976 0.000000 -0.009735
# 5 -0.005640 -0.001995 -0.010532 0.000000 0.040545 0.000000
# 6 0.000000 0.000000 0.000000 -0.009735 0.000000 0.098049
#
#
# Mechanical properties :
#
#
# Convention : Reuss Voigt Hill
#
# Bulk Modulus (GPa) = 29.06585 39.37154 34.21870
# Shear Modulus (GPa) = 18.40916 25.72011 22.06463
#
# Velocity S-wave (km/s) = 2.93341 3.46730 3.21147
# Velocity P-wave (km/s) = 5.00592 5.86794 5.45399
#
# Compressibility (1/GPa) = 0.03440463
#
# Stress axis : x y z
#
# Youngs Moduli (GPa) = 86.28292 87.91584 55.49261
#
# Poissons Ratio (x) = 0.15175 0.01563
# Poissons Ratio (y) = 0.14893 0.07116
# Poissons Ratio (z) = 0.02430 0.11274
#
# Static dielectric constant tensor:
#      x y z
#    x 1.837520 0.000000 -0.019180 
#    y 0.000000 1.735490 0.000000 
#    z -0.019180 0.000000 1.868230 
# 
# From -- ./inp_files/25975.got.cif
#   From: 2010.05.17/outbox.cif.g08.bks.cpg/sg10_13_cif.got.tgz:25975.got - 2010.06.03 11:33:40.
