data_PCOD9143368
_publ_section_title
;
Structure prediction by ZEFSAII (Michael W. Deem and Ramdas Pophale) SiO2 
 PCOD9143368
Probable space group: P 2/M
;
_chemical_formula_sum "Si O2"
_cell_formula_units_Z 24
_cell_length_a 25.045236
_cell_length_b 12.133541
_cell_length_c 8.603008
_cell_angle_alpha 90.000000
_cell_angle_beta 30.593923
_cell_angle_gamma 90.000000
_cell_volume 1330.571564
_symmetry_space_group_name_H-M "P 2/M"
_symmetry_group_IT_number 10
_symmetry_cell_setting 'monoclinic'
loop_
_space_group_symop_operation_xyz
x,y,z
-x,y,-z
-x,-y,-z
x,-y,z
loop_
_atom_site_type_symbol
_atom_site_label
_atom_site_fract_x
_atom_site_fract_y
_atom_site_fract_z
Si Si1 0.312829 0.000000 0.284929
Si Si2 0.554354 0.371689 0.620304
Si Si3 0.465544 0.000000 0.267020
Si Si4 0.337919 0.628344 0.305491
Si Si5 0.799885 0.000000 0.741861
Si Si6 0.688911 0.817517 0.217849
Si Si7 0.795393 0.815675 0.268245
Si Si8 0.033070 0.000000 0.097299
O O1 0.222496 0.000000 0.384277
O O2 0.295843 0.894911 0.435461
O O3 0.423465 0.000000 0.924104
O O4 0.555483 0.500000 0.571164
O O5 0.609797 0.364432 0.652483
O O6 0.625712 0.293131 0.335196
O O7 0.433123 0.336979 0.951924
O O8 0.399271 0.105131 0.482592
O O9 0.500000 0.000000 0.000000
O O10 0.315602 0.500000 0.332131
O O11 0.233231 0.702333 0.572345
O O12 0.923507 0.000000 0.464606
O O13 0.744337 0.891362 0.949645
O O14 0.775062 0.797660 0.136903
O O15 0.898387 0.890158 0.037132
O O16 0.000000 0.000000 0.000000
#
# Coordination Sequence:
#
# PCOD9143368 Si02
#       8
#     2   4   2   4   2   4   4   2
#     4  11  19  30  49  71  98 134 164 199 249 308
#     4   8  14  26  46  74 109 138 157 188 240 296
#     4  11  17  27  47  71 105 133 160 195 241 302
#     4   8  14  25  47  79 105 126 161 204 238 287
#     4  11  23  36  46  70 103 130 173 212 253 295
#     4  10  20  30  48  79 105 130 162 203 245 297
#     4  10  18  31  53  75  92 130 168 205 255 294
#     4  11  21  37  54  68  90 131 176 217 261 302
#
# _framework density 18.037362000000002
#
# number of rings (size 3 to 8) (size 9 to 14) (size 15 to 20)
#    0.000    2.333    3.333    3.500    2.333    2.667 
#    0.000    0.000    0.000    2.500    0.000    8.167 
#    0.000    0.000    0.000    0.000    0.000    0.000 
#
# Total GULP energy -133619.733994 kJ/mol
# GULP energy per Si atom -5567.488916 kJ/mol
# Density = 1.799631 g / cm^3
# Si number density = 18.037362 Si / 1000 Ang^3
#
#
#
# Elastic Constant Matrix: (Units=GPa)
#
#
# Indices 1 2 3 4 5 6 
#
# 1 20.1777 -0.5277 4.2610 0.0000 -7.5496 0.0000
# 2 -0.5277 79.0443 33.3489 0.0000 -3.5357 0.0000
# 3 4.2610 33.3489 89.1429 0.0000 -15.4432 0.0000
# 4 0.0000 0.0000 0.0000 19.2712 0.0000 24.7048
# 5 -7.5496 -3.5357 -15.4432 0.0000 23.5567 0.0000
# 6 0.0000 0.0000 0.0000 24.7048 0.0000 -86.5293
#
#
#
# Elastic Compliance Matrix: (Units=1/GPa)
#
#
# Indices 1 2 3 4 5 6 
#
# 1 0.056424 0.001183 0.000027 0.000000 0.018278 0.000000
# 2 0.001183 0.015101 -0.005920 0.000000 -0.001235 0.000000
# 3 0.000027 -0.005920 0.014980 0.000000 0.008941 0.000000
# 4 0.000000 0.000000 0.000000 0.037987 0.000000 0.010846
# 5 0.018278 -0.001235 0.008941 0.000000 0.053985 0.000000
# 6 0.000000 0.000000 0.000000 0.010846 0.000000 -0.008460
#
#
# Mechanical properties :
#
#
# Convention : Reuss Voigt Hill
#
# Bulk Modulus (GPa) = 12.97264 29.16992 21.07128
# Shear Modulus (GPa) = 24.37442 1.34523 12.85982
#
# Velocity S-wave (km/s) = 3.68003 0.86453 2.67302
# Velocity P-wave (km/s) = 5.02639 4.14772 4.60804
#
# Compressibility (1/GPa) = 0.07708531
#
# Stress axis : x y z
#
# Youngs Moduli (GPa) = 17.72297 66.21871 66.75418
#
# Poissons Ratio (x) = -0.07833 -0.00180
# Poissons Ratio (y) = -0.02096 0.39519
# Poissons Ratio (z) = -0.00048 0.39202
#
# Static dielectric constant tensor:
#      x y z
#    x 1.653570 0.000000 -0.004340 
#    y 0.000000 1.677010 0.000000 
#    z -0.004340 0.000000 1.643250 
# 
# From -- ./inp_files/36124.got.cif
#   From: 2010.05.17/outbox.cif.g08.bks.cpg/sg10_19_cif.got.tgz:36124.got - 2010.06.03 11:33:40.
