data_PCOD9143866
_publ_section_title
;
Structure prediction by ZEFSAII (Michael W. Deem and Ramdas Pophale) SiO2 
 PCOD9143866
Probable space group: P 2/M
;
_chemical_formula_sum "Si O2"
_cell_formula_units_Z 32
_cell_length_a 17.784101
_cell_length_b 8.909048
_cell_length_c 11.907072
_cell_angle_alpha 90.000000
_cell_angle_beta 70.708431
_cell_angle_gamma 90.000000
_cell_volume 1780.618904
_symmetry_space_group_name_H-M "P 2/M"
_symmetry_group_IT_number 10
_symmetry_cell_setting 'monoclinic'
loop_
_space_group_symop_operation_xyz
x,y,z
-x,y,-z
-x,-y,-z
x,-y,z
loop_
_atom_site_type_symbol
_atom_site_label
_atom_site_fract_x
_atom_site_fract_y
_atom_site_fract_z
Si Si1 0.469525 0.327830 0.885581
Si Si2 0.312361 0.821858 0.036460
Si Si3 0.847326 0.819971 0.255103
Si Si4 0.827852 0.321043 0.030374
Si Si5 0.921413 0.176482 0.616442
Si Si6 0.223356 0.182583 0.473306
Si Si7 0.021484 0.678441 0.185745
Si Si8 0.628119 0.180259 0.740805
O O1 0.453702 0.500000 0.862225
O O2 0.388838 0.232438 0.927416
O O3 0.542341 0.258153 0.780206
O O4 0.500000 0.325901 0.000000
O O5 0.234865 0.739129 0.029201
O O6 0.302104 0.000000 0.031781
O O7 0.331826 0.787534 0.157263
O O8 0.812613 0.753506 0.157862
O O9 0.800649 0.769204 0.390076
O O10 0.938211 0.764084 0.219730
O O11 0.846130 0.000000 0.252016
O O12 0.822064 0.500000 0.041522
O O13 0.917007 0.283927 0.944049
O O14 0.845819 0.226414 0.580340
O O15 0.936085 0.272997 0.719634
O O16 0.000000 0.185372 0.500000
O O17 0.910656 0.000000 0.652520
O O18 0.309216 0.229519 0.384638
O O19 0.222820 0.000000 0.473479
O O20 0.006960 0.500000 0.190757
O O21 0.617426 0.000000 0.740692
#
# Coordination Sequence:
#
# PCOD9143866 Si02
#       8
#     4   4   4   4   4   4   4   4
#     4   9  17  30  50  78 113 144 168 203 257 312
#     4  10  19  33  56  83 107 137 176 213 256 313
#     4  11  22  38  57  75  99 138 186 226 265 312
#     4  11  24  39  53  74 106 140 176 223 272 313
#     4  10  18  33  55  77 104 137 175 217 262 311
#     4   9  18  33  53  78 106 137 173 220 266 305
#     4  11  23  37  53  76 107 139 175 221 272 320
#     4   9  17  31  53  81 111 138 171 211 255 312
#
# _framework density 17.971278999999999
#
# number of rings (size 3 to 8) (size 9 to 14) (size 15 to 20)
#    0.000    2.000    1.250    3.000    0.000    6.750 
#    0.000    1.875    0.000    0.750    0.000    5.250 
#    0.000    0.000    0.000    0.000    0.000    0.000 
#
# Total GULP energy -178663.296605 kJ/mol
# GULP energy per Si atom -5583.228019 kJ/mol
# Density = 1.793038 g / cm^3
# Si number density = 17.971279 Si / 1000 Ang^3
#
#
#
# Elastic Constant Matrix: (Units=GPa)
#
#
# Indices 1 2 3 4 5 6 
#
# 1 36.1978 19.2594 31.4617 0.0000 -19.4501 0.0000
# 2 19.2594 38.9489 34.0987 0.0000 -7.5506 0.0000
# 3 31.4617 34.0987 88.9228 0.0000 -18.3119 0.0000
# 4 0.0000 0.0000 0.0000 17.0415 0.0000 -0.7614
# 5 -19.4501 -7.5506 -18.3119 0.0000 30.3271 0.0000
# 6 0.0000 0.0000 0.0000 -0.7614 0.0000 17.3023
#
#
#
# Elastic Compliance Matrix: (Units=1/GPa)
#
#
# Indices 1 2 3 4 5 6 
#
# 1 0.059277 -0.015899 -0.008979 0.000000 0.028637 0.000000
# 2 -0.015899 0.042930 -0.012260 0.000000 -0.006911 0.000000
# 3 -0.008979 -0.012260 0.019767 0.000000 0.003125 0.000000
# 4 0.000000 0.000000 0.000000 0.058796 0.000000 0.002587
# 5 0.028637 -0.006911 0.003125 0.000000 0.051506 0.000000
# 6 0.000000 0.000000 0.000000 0.002587 0.000000 0.057910
#
#
# Mechanical properties :
#
#
# Convention : Reuss Voigt Hill
#
# Bulk Modulus (GPa) = 20.96511 37.07880 29.02195
# Shear Modulus (GPa) = 13.14544 18.21750 15.68147
#
# Velocity S-wave (km/s) = 2.70750 3.18732 2.95716
# Velocity P-wave (km/s) = 4.63307 5.84999 5.27673
#
# Compressibility (1/GPa) = 0.04769830
#
# Stress axis : x y z
#
# Youngs Moduli (GPa) = 16.87009 23.29376 50.58863
#
# Poissons Ratio (x) = 0.37034 0.45422
# Poissons Ratio (y) = 0.26821 0.62022
# Poissons Ratio (z) = 0.15147 0.28558
#
# Static dielectric constant tensor:
#      x y z
#    x 1.601180 0.000000 -0.008370 
#    y 0.000000 1.600520 0.000000 
#    z -0.008370 0.000000 1.619420 
# 
# From -- ./inp_files/54816.got.cif
#   From: 2010.05.17/outbox.cif.g08.bks.cpg/sg10_28_cif.got.tgz:54816.got - 2010.06.03 11:33:40.
