data_PCOD9143527
_publ_section_title
;
Structure prediction by ZEFSAII (Michael W. Deem and Ramdas Pophale) SiO2 
 PCOD9143527
Probable space group: P 2/M
;
_chemical_formula_sum "Si O2"
_cell_formula_units_Z 28
_cell_length_a 19.068420
_cell_length_b 19.928235
_cell_length_c 12.422930
_cell_angle_alpha 90.000000
_cell_angle_beta 160.786993
_cell_angle_gamma 90.000000
_cell_volume 1553.497024
_symmetry_space_group_name_H-M "P 2/M"
_symmetry_group_IT_number 10
_symmetry_cell_setting 'monoclinic'
loop_
_space_group_symop_operation_xyz
x,y,z
-x,y,-z
-x,-y,-z
x,-y,z
loop_
_atom_site_type_symbol
_atom_site_label
_atom_site_fract_x
_atom_site_fract_y
_atom_site_fract_z
Si Si1 0.157998 0.426115 0.555229
Si Si2 0.609797 0.826152 0.547611
Si Si3 0.232116 0.076080 0.394910
Si Si4 0.876951 0.280761 0.428814
Si Si5 0.430184 0.284643 0.668658
Si Si6 0.609691 0.572758 0.334930
Si Si7 0.904739 0.198988 0.684344
O O1 0.052757 0.500000 0.416647
O O2 0.048589 0.356449 0.430451
O O3 0.233941 0.419648 0.541380
O O4 0.374048 0.428725 0.939850
O O5 0.500000 0.844233 0.500000
O O6 0.614342 0.886309 0.467495
O O7 0.510607 0.760292 0.348035
O O8 0.854705 0.807603 0.926370
O O9 0.202738 0.126104 0.453110
O O10 0.294572 0.000000 0.510427
O O11 0.000000 0.073717 0.000000
O O12 0.905177 0.229363 0.566597
O O13 0.000000 0.260516 0.500000
O O14 0.626798 0.283510 0.036751
O O15 0.377309 0.362257 0.571843
O O16 0.230542 0.248921 0.436281
O O17 0.649130 0.500000 0.442780
#
# Coordination Sequence:
#
# PCOD9143527 Si02
#       7
#     4   4   4   4   4   4   4
#     4   8  14  25  41  65  95 124 160 205 247 281
#     4  10  20  33  51  76 103 127 154 199 249 288
#     4   8  16  32  54  76  96 125 164 197 229 279
#     4  11  20  29  47  75 103 130 161 203 250 289
#     4  10  18  32  51  70  96 132 169 201 239 291
#     4   8  13  24  45  67  87 120 168 210 236 273
#     4  10  19  33  52  73  99 129 164 199 237 285
#
# _framework density 18.023852000000002
#
# number of rings (size 3 to 8) (size 9 to 14) (size 15 to 20)
#    0.000    2.714    1.429    3.429    0.000    0.571 
#    0.000    0.000    0.000   10.286    0.000    0.000 
#    0.000    0.000    0.000    0.000    0.000    0.000 
#
# Total GULP energy -155961.815655 kJ/mol
# GULP energy per Si atom -5570.064845 kJ/mol
# Density = 1.798283 g / cm^3
# Si number density = 18.023852 Si / 1000 Ang^3
#
#
#
# Elastic Constant Matrix: (Units=GPa)
#
#
# Indices 1 2 3 4 5 6 
#
# 1 79.2586 62.4714 -5.2068 0.0000 -5.7378 0.0000
# 2 62.4714 169.5147 13.2701 0.0000 -9.2446 0.0000
# 3 -5.2068 13.2701 25.7336 0.0000 1.3877 0.0000
# 4 0.0000 0.0000 0.0000 17.0072 0.0000 -6.3904
# 5 -5.7378 -9.2446 1.3877 0.0000 12.9253 0.0000
# 6 0.0000 0.0000 0.0000 -6.3904 0.0000 20.0685
#
#
#
# Elastic Compliance Matrix: (Units=1/GPa)
#
#
# Indices 1 2 3 4 5 6 
#
# 1 0.019256 -0.007571 0.007676 0.000000 0.002309 0.000000
# 2 -0.007571 0.009431 -0.006616 0.000000 0.004094 0.000000
# 3 0.007676 -0.006616 0.044151 0.000000 -0.006064 0.000000
# 4 0.000000 0.000000 0.000000 0.066790 0.000000 0.021268
# 5 0.002309 0.004094 -0.006064 0.000000 0.081972 0.000000
# 6 0.000000 0.000000 0.000000 0.021268 0.000000 0.056602
#
#
# Mechanical properties :
#
#
# Convention : Reuss Voigt Hill
#
# Bulk Modulus (GPa) = 16.71800 46.17513 31.44657
# Shear Modulus (GPa) = 16.06876 23.59836 19.83356
#
# Velocity S-wave (km/s) = 2.98909 3.62233 3.32084
# Velocity P-wave (km/s) = 4.60526 6.57035 5.67354
#
# Compressibility (1/GPa) = 0.05981576
#
# Stress axis : x y z
#
# Youngs Moduli (GPa) = 51.93147 106.03651 22.64930
#
# Poissons Ratio (x) = 0.80285 -0.17386
# Poissons Ratio (y) = 0.39320 0.14985
# Poissons Ratio (z) = -0.39863 0.70153
#
# Static dielectric constant tensor:
#      x y z
#    x 1.610780 0.000000 0.006040 
#    y 0.000000 1.659830 0.000000 
#    z 0.006040 0.000000 1.632710 
# 
# From -- ./inp_files/54248.got.cif
#   From: 2010.05.17/outbox.cif.g08.bks.cpg/sg10_28_cif.got.tgz:54248.got - 2010.06.03 11:33:40.
