data_PCOD9143334
_publ_section_title
;
Structure prediction by ZEFSAII (Michael W. Deem and Ramdas Pophale) SiO2 
 PCOD9143334
Probable space group: P 2/M
;
_chemical_formula_sum "Si O2"
_cell_formula_units_Z 28
_cell_length_a 14.166212
_cell_length_b 15.669884
_cell_length_c 10.362127
_cell_angle_alpha 90.000000
_cell_angle_beta 148.416763
_cell_angle_gamma 90.000000
_cell_volume 1204.706994
_symmetry_space_group_name_H-M "P 2/M"
_symmetry_group_IT_number 10
_symmetry_cell_setting 'monoclinic'
loop_
_space_group_symop_operation_xyz
x,y,z
-x,y,-z
-x,-y,-z
x,-y,z
loop_
_atom_site_type_symbol
_atom_site_label
_atom_site_fract_x
_atom_site_fract_y
_atom_site_fract_z
Si Si1 0.733665 0.217747 0.906482
Si Si2 0.903225 0.595442 0.745766
Si Si3 0.221534 0.903232 0.262645
Si Si4 0.300786 0.772794 0.831057
Si Si5 0.295557 0.407350 0.131316
Si Si6 0.317714 0.411970 0.867772
Si Si7 0.162722 0.775735 0.410171
O O1 0.694880 0.202945 0.013618
O O2 0.949371 0.225668 0.141200
O O3 0.695629 0.138427 0.769666
O O4 0.662173 0.310834 0.774829
O O5 0.820256 0.500000 0.649460
O O6 0.786213 0.676882 0.566083
O O7 0.000000 0.608450 0.000000
O O8 0.079075 0.592513 0.860204
O O9 0.260116 0.837674 0.423258
O O10 0.281394 0.000000 0.353406
O O11 0.000000 0.905634 0.000000
O O12 0.221161 0.676743 0.735708
O O13 0.188966 0.813543 0.584522
O O14 0.500000 0.772090 0.000000
O O15 0.331006 0.500000 0.238876
O O16 0.376810 0.411893 0.084819
O O17 0.218837 0.500000 0.722404
O O18 0.500000 0.410784 0.000000
#
# Coordination Sequence:
#
# PCOD9143334 Si02
#       7
#     4   4   4   4   4   4   4
#     4   9  17  32  53  75 100 133 168 205 251 299
#     4   9  16  26  43  71 104 133 164 206 252 294
#     4   9  18  34  57  81 100 122 162 214 260 304
#     4  10  20  32  48  73 106 139 168 205 251 297
#     4   8  13  22  39  65  95 125 157 193 233 279
#     4   8  14  25  40  59  88 129 170 199 227 271
#     4  10  18  31  52  77 103 132 169 209 251 298
#
# _framework density 23.242167999999999
#
# number of rings (size 3 to 8) (size 9 to 14) (size 15 to 20)
#    0.000    3.000    0.000    2.571    0.000    0.571 
#    0.000    1.429    0.000   14.571    0.000    0.000 
#    0.000   33.143    0.000    0.000    0.000    0.000 
#
# Total GULP energy -155898.136176 kJ/mol
# GULP energy per Si atom -5567.790578 kJ/mol
# Density = 2.318927 g / cm^3
# Si number density = 23.242168 Si / 1000 Ang^3
#
#
#
# Elastic Constant Matrix: (Units=GPa)
#
#
# Indices 1 2 3 4 5 6 
#
# 1 125.4740 63.9352 24.9953 0.0000 -32.6672 0.0000
# 2 63.9352 156.1855 38.9862 0.0000 -28.8658 0.0000
# 3 24.9953 38.9862 66.1392 0.0000 -13.2387 0.0000
# 4 0.0000 0.0000 0.0000 2.5282 0.0000 -1.1137
# 5 -32.6672 -28.8658 -13.2387 0.0000 25.6312 0.0000
# 6 0.0000 0.0000 0.0000 -1.1137 0.0000 36.4192
#
#
#
# Elastic Compliance Matrix: (Units=1/GPa)
#
#
# Indices 1 2 3 4 5 6 
#
# 1 0.012864 -0.002693 -0.000668 0.000000 0.013017 0.000000
# 2 -0.002693 0.009343 -0.003425 0.000000 0.005321 0.000000
# 3 -0.000668 -0.003425 0.018345 0.000000 0.004767 0.000000
# 4 0.000000 0.000000 0.000000 0.400943 0.000000 0.012261
# 5 0.013017 0.005321 0.004767 0.000000 0.064060 0.000000
# 6 0.000000 0.000000 0.000000 0.012261 0.000000 0.027833
#
#
# Mechanical properties :
#
#
# Convention : Reuss Voigt Hill
#
# Bulk Modulus (GPa) = 37.06463 67.07023 52.06743
# Shear Modulus (GPa) = 8.99353 27.57451 18.28402
#
# Velocity S-wave (km/s) = 1.96924 3.44815 2.80781
# Velocity P-wave (km/s) = 4.59916 6.69125 5.74130
#
# Compressibility (1/GPa) = 0.02697990
#
# Stress axis : x y z
#
# Youngs Moduli (GPa) = 77.73366 107.02696 54.51073
#
# Poissons Ratio (x) = 0.28827 0.03644
# Poissons Ratio (y) = 0.20937 0.18668
# Poissons Ratio (z) = 0.05196 0.36652
#
# Static dielectric constant tensor:
#      x y z
#    x 1.934780 0.000000 0.002280 
#    y 0.000000 1.928370 0.000000 
#    z 0.002280 0.000000 1.933920 
# 
# From -- ./inp_files/30150.got.cif
#   From: 2010.05.17/outbox.cif.g08.bks.cpg/sg10_16_cif.got.tgz:30150.got - 2010.06.03 11:33:40.
