data_PCOD9143292
_publ_section_title
;
Structure prediction by ZEFSAII (Michael W. Deem and Ramdas Pophale) SiO2 
 PCOD9143292
Probable space group: P 2/M
;
_chemical_formula_sum "Si O2"
_cell_formula_units_Z 30
_cell_length_a 14.842209
_cell_length_b 7.793608
_cell_length_c 22.092765
_cell_angle_alpha 90.000000
_cell_angle_beta 151.809121
_cell_angle_gamma 90.000000
_cell_volume 1207.276318
_symmetry_space_group_name_H-M "P 2/M"
_symmetry_group_IT_number 10
_symmetry_cell_setting 'monoclinic'
loop_
_space_group_symop_operation_xyz
x,y,z
-x,y,-z
-x,-y,-z
x,-y,z
loop_
_atom_site_type_symbol
_atom_site_label
_atom_site_fract_x
_atom_site_fract_y
_atom_site_fract_z
Si Si1 0.770382 0.798971 0.257317
Si Si2 0.691053 0.697996 0.085722
Si Si3 0.741842 0.812440 0.756622
Si Si4 0.830787 0.706365 0.477817
Si Si5 0.720411 0.000000 0.870751
Si Si6 0.521669 0.701774 0.819330
Si Si7 0.686004 0.704837 0.520641
Si Si8 0.023415 0.297378 0.205832
O O1 0.815579 0.704032 0.221163
O O2 0.581147 0.724244 0.176636
O O3 0.957006 0.770591 0.408821
O O4 0.747409 0.000000 0.234237
O O5 0.646311 0.500000 0.044577
O O6 0.823498 0.775494 0.112056
O O7 0.500000 0.782554 0.000000
O O8 0.539405 0.738063 0.616627
O O9 0.915270 0.717907 0.827289
O O10 0.755540 0.000000 0.736080
O O11 0.750426 0.851917 0.833264
O O12 0.840722 0.500000 0.483658
O O13 0.655072 0.749079 0.330356
O O14 0.770285 0.775880 0.507956
O O15 0.673330 0.153926 0.891701
O O16 0.575074 0.500000 0.843229
O O17 0.706451 0.500000 0.531258
O O18 0.803759 0.766404 0.648568
O O19 0.005483 0.500000 0.207232
#
# Coordination Sequence:
#
# PCOD9143292 Si02
#       8
#     4   4   4   4   2   4   4   4
#     4  12  24  35  57  87 119 158 202 250 305 369
#     4  10  22  43  66  88 118 155 202 258 311 368
#     4  10  21  33  49  77 117 155 194 246 282 355
#     4  10  19  33  52  79 117 163 205 244 294 351
#     4  10  22  38  52  86 117 152 209 244 290 356
#     4  11  22  38  59  82 122 167 206 251 297 356
#     4  10  18  31  51  75 115 159 201 243 289 350
#     4  10  20  35  56  82 111 154 203 247 303 364
#
# _framework density 24.849325
#
# number of rings (size 3 to 8) (size 9 to 14) (size 15 to 20)
#    0.400    1.200    3.333    2.400    0.933    5.600 
#    0.000    0.000    0.000    0.000    0.000    1.867 
#    0.000    4.267    0.000    0.000    0.000    0.000 
#
# Total GULP energy -167051.499365 kJ/mol
# GULP energy per Si atom -5568.383312 kJ/mol
# Density = 2.479277 g / cm^3
# Si number density = 24.849325 Si / 1000 Ang^3
#
#
#
# Elastic Constant Matrix: (Units=GPa)
#
#
# Indices 1 2 3 4 5 6 
#
# 1 181.1139 21.7214 43.1203 0.0000 16.2610 0.0000
# 2 21.7214 78.0688 15.6055 0.0000 -5.1021 0.0000
# 3 43.1203 15.6055 88.7450 0.0000 15.0351 0.0000
# 4 0.0000 0.0000 0.0000 -163.2768 0.0000 -42.1748
# 5 16.2610 -5.1021 15.0351 0.0000 37.9268 0.0000
# 6 0.0000 0.0000 0.0000 -42.1748 0.0000 22.1049
#
#
#
# Elastic Compliance Matrix: (Units=1/GPa)
#
#
# Indices 1 2 3 4 5 6 
#
# 1 0.006478 -0.001416 -0.002568 0.000000 -0.001950 0.000000
# 2 -0.001416 0.013891 -0.002331 0.000000 0.003400 0.000000
# 3 -0.002568 -0.002331 0.013713 0.000000 -0.004649 0.000000
# 4 0.000000 0.000000 0.000000 -0.004103 0.000000 -0.007828
# 5 -0.001950 0.003400 -0.004649 0.000000 0.029503 0.000000
# 6 0.000000 0.000000 0.000000 -0.007828 0.000000 0.030304
#
#
# Mechanical properties :
#
#
# Convention : Reuss Voigt Hill
#
# Bulk Modulus (GPa) = 46.61454 56.53579 51.57517
# Shear Modulus (GPa) = 45.63389 -2.81696 21.40846
#
# Velocity S-wave (km/s) = 4.29000 -1.06587 2.93837
# Velocity P-wave (km/s) = 6.58319 4.61368 5.68438
#
# Compressibility (1/GPa) = 0.02145253
#
# Stress axis : x y z
#
# Youngs Moduli (GPa) = 154.37499 71.98721 72.92110
#
# Poissons Ratio (x) = 0.10196 0.18727
# Poissons Ratio (y) = 0.21866 0.16994
# Poissons Ratio (z) = 0.39644 0.16777
#
# Static dielectric constant tensor:
#      x y z
#    x 1.396160 0.000000 -0.241340 
#    y 0.000000 1.909570 0.000000 
#    z -0.241340 0.000000 2.028070 
# 
# From -- ./inp_files/89411.got.cif
#   From: 2010.05.17/outbox.cif.g08.bks.cpg/sg10_45_cif.got.tgz:89411.got - 2010.06.03 11:33:40.
