data_PCOD9143818
_publ_section_title
;
Structure prediction by ZEFSAII (Michael W. Deem and Ramdas Pophale) SiO2 
 PCOD9143818
Probable space group: P 2/M
;
_chemical_formula_sum "Si O2"
_cell_formula_units_Z 32
_cell_length_a 12.076687
_cell_length_b 17.479602
_cell_length_c 8.230445
_cell_angle_alpha 90.000000
_cell_angle_beta 82.588362
_cell_angle_gamma 90.000000
_cell_volume 1722.895297
_symmetry_space_group_name_H-M "P 2/M"
_symmetry_group_IT_number 10
_symmetry_cell_setting 'monoclinic'
loop_
_space_group_symop_operation_xyz
x,y,z
-x,y,-z
-x,-y,-z
x,-y,z
loop_
_atom_site_type_symbol
_atom_site_label
_atom_site_fract_x
_atom_site_fract_y
_atom_site_fract_z
Si Si1 0.874467 0.151249 0.670309
Si Si2 0.342454 0.587584 0.202663
Si Si3 0.431704 0.410636 0.677260
Si Si4 0.955095 0.588963 0.280334
Si Si5 0.872497 0.910146 0.338229
Si Si6 0.232664 0.643888 0.897621
Si Si7 0.136782 0.188350 0.972013
Si Si8 0.851079 0.669941 0.614523
O O1 0.820708 0.109404 0.524927
O O2 0.876243 0.240591 0.619597
O O3 0.997974 0.115711 0.667667
O O4 0.828043 0.150734 0.862652
O O5 0.316000 0.500000 0.256966
O O6 0.474040 0.597035 0.201767
O O7 0.275162 0.646444 0.328289
O O8 0.296429 0.603089 0.032641
O O9 0.500000 0.394312 0.500000
O O10 0.395407 0.500000 0.676449
O O11 0.324306 0.360219 0.736040
O O12 0.967861 0.500000 0.314382
O O13 0.878138 0.600317 0.139462
O O14 0.892418 0.632894 0.439249
O O15 0.075044 0.629354 0.258493
O O16 0.831979 0.861837 0.191154
O O17 0.866196 0.000000 0.308010
O O18 0.194501 0.729402 0.946031
O O19 0.000000 0.197146 0.000000
#
# Coordination Sequence:
#
# PCOD9143818 Si02
#       8
#     4   4   4   4   4   4   4   4
#     4  10  18  33  51  75 108 149 188 227 276 330
#     4  11  22  35  54  77 107 145 191 244 290 331
#     4  10  22  40  59  78 102 143 197 252 304 337
#     4  11  21  31  48  71 103 147 195 240 282 329
#     4  10  20  33  55  83 113 152 193 226 271 345
#     4  12  22  36  55  77 111 147 189 240 295 348
#     4  10  21  36  54  83 120 157 187 227 287 344
#     4  11  20  35  50  74 109 150 193 233 283 339
#
# _framework density 18.573384999999998
#
# number of rings (size 3 to 8) (size 9 to 14) (size 15 to 20)
#    0.000    1.375    1.250    8.250    0.000    4.750 
#    0.000    1.250    0.000    0.000    0.000    0.000 
#    0.000    7.500    0.000    0.000    0.000    0.000 
#
# Total GULP energy -178665.263979 kJ/mol
# GULP energy per Si atom -5583.289499 kJ/mol
# Density = 1.853111 g / cm^3
# Si number density = 18.573385 Si / 1000 Ang^3
#
#
#
# Elastic Constant Matrix: (Units=GPa)
#
#
# Indices 1 2 3 4 5 6 
#
# 1 56.0501 16.3406 17.0637 0.0000 2.8091 0.0000
# 2 16.3406 71.5612 22.8929 0.0000 12.1171 0.0000
# 3 17.0637 22.8929 93.1085 0.0000 6.3785 0.0000
# 4 0.0000 0.0000 0.0000 3.1391 0.0000 8.7752
# 5 2.8091 12.1171 6.3785 0.0000 28.0640 0.0000
# 6 0.0000 0.0000 0.0000 8.7752 0.0000 -2.2710
#
#
#
# Elastic Compliance Matrix: (Units=1/GPa)
#
#
# Indices 1 2 3 4 5 6 
#
# 1 0.019731 -0.003671 -0.002729 0.000000 0.000230 0.000000
# 2 -0.003671 0.016837 -0.003041 0.000000 -0.006211 0.000000
# 3 -0.002729 -0.003041 0.012067 0.000000 -0.001156 0.000000
# 4 0.000000 0.000000 0.000000 0.026993 0.000000 0.104301
# 5 0.000230 -0.006211 -0.001156 0.000000 0.038554 0.000000
# 6 0.000000 0.000000 0.000000 0.104301 0.000000 -0.037311
#
#
# Mechanical properties :
#
#
# Convention : Reuss Voigt Hill
#
# Bulk Modulus (GPa) = 33.61195 37.03490 35.32342
# Shear Modulus (GPa) = 47.31625 16.74793 32.03209
#
# Velocity S-wave (km/s) = 5.05278 3.00612 4.15736
# Velocity P-wave (km/s) = 7.22336 5.65969 6.48880
#
# Compressibility (1/GPa) = 0.02975133
#
# Stress axis : x y z
#
# Youngs Moduli (GPa) = 50.68215 59.39292 82.86828
#
# Poissons Ratio (x) = 0.21805 0.22616
# Poissons Ratio (y) = 0.18607 0.25204
# Poissons Ratio (z) = 0.13832 0.18064
#
# Static dielectric constant tensor:
#      x y z
#    x 1.662240 0.000000 -0.011910 
#    y 0.000000 1.594000 0.000000 
#    z -0.011910 0.000000 1.781430 
# 
# From -- ./inp_files/25300.got.cif
#   From: 2010.05.17/outbox.cif.g08.bks.cpg/sg10_13_cif.got.tgz:25300.got - 2010.06.03 11:33:40.
