data_PCOD9143946
_publ_section_title
;
Structure prediction by ZEFSAII (Michael W. Deem and Ramdas Pophale) SiO2 
 PCOD9143946
Probable space group: P 2/M
;
_chemical_formula_sum "Si O2"
_cell_formula_units_Z 30
_cell_length_a 19.263414
_cell_length_b 16.380532
_cell_length_c 13.784691
_cell_angle_alpha 90.000000
_cell_angle_beta 20.634362
_cell_angle_gamma 90.000000
_cell_volume 1532.843631
_symmetry_space_group_name_H-M "P 2/M"
_symmetry_group_IT_number 10
_symmetry_cell_setting 'monoclinic'
loop_
_space_group_symop_operation_xyz
x,y,z
-x,y,-z
-x,-y,-z
x,-y,z
loop_
_atom_site_type_symbol
_atom_site_label
_atom_site_fract_x
_atom_site_fract_y
_atom_site_fract_z
Si Si1 0.500000 0.658699 0.000000
Si Si2 0.804080 0.664055 0.307867
Si Si3 0.854238 0.245415 0.444471
Si Si4 0.976482 0.091473 0.835479
Si Si5 0.431615 0.410377 0.880486
Si Si6 0.658561 0.179275 0.378928
Si Si7 0.349139 0.090867 0.911106
Si Si8 0.164444 0.253597 0.202372
O O1 0.682174 0.717450 0.735175
O O2 0.467580 0.603437 0.948018
O O3 0.859780 0.704356 0.338120
O O4 0.633892 0.600246 0.556522
O O5 0.715609 0.737277 0.357852
O O6 0.000000 0.631811 0.000000
O O7 0.844519 0.150008 0.429558
O O8 0.054820 0.252865 0.242628
O O9 0.033684 0.000000 0.787833
O O10 0.851829 0.136986 0.081788
O O11 0.821879 0.085938 0.947817
O O12 0.345347 0.500000 0.976110
O O13 0.299330 0.332913 0.027009
O O14 0.500000 0.194486 0.500000
O O15 0.548503 0.117616 0.596026
O O16 0.362910 0.000000 0.936999
O O17 0.285142 0.169294 0.058051
O O18 0.000000 0.258973 0.500000
#
# Coordination Sequence:
#
# PCOD9143946 Si02
#       8
#     2   4   4   4   4   4   4   4
#     4  10  21  42  63  84 120 158 199 244 314 366
#     4  11  22  38  62  90 123 163 195 238 316 372
#     4  10  21  37  60  85 122 163 199 246 300 363
#     4   9  17  31  54  86 119 156 206 252 293 348
#     4  11  24  42  66  92 119 152 203 257 307 365
#     4  10  18  33  58  84 117 160 209 249 293 349
#     4   9  18  32  55  87 119 157 206 250 297 351
#     4  11  21  39  62  89 117 160 206 258 299 347
#
# _framework density 19.571469
#
# number of rings (size 3 to 8) (size 9 to 14) (size 15 to 20)
#    0.000    1.867    4.000    0.600    0.000    2.400 
#    0.000    3.000    0.000    2.800    0.000    0.000 
#    0.000    0.000    0.000    0.000    0.000    0.000 
#
# Total GULP energy -167420.114961 kJ/mol
# GULP energy per Si atom -5580.670499 kJ/mol
# Density = 1.952692 g / cm^3
# Si number density = 19.571469 Si / 1000 Ang^3
#
#
#
# Elastic Constant Matrix: (Units=GPa)
#
#
# Indices 1 2 3 4 5 6 
#
# 1 53.3171 24.1704 5.4429 0.0000 2.2662 0.0000
# 2 24.1704 133.3592 61.8765 0.0000 6.4051 0.0000
# 3 5.4429 61.8765 89.4835 0.0000 21.7826 0.0000
# 4 0.0000 0.0000 0.0000 21.1880 0.0000 -5.4099
# 5 2.2662 6.4051 21.7826 0.0000 18.0318 0.0000
# 6 0.0000 0.0000 0.0000 -5.4099 0.0000 14.7845
#
#
#
# Elastic Compliance Matrix: (Units=1/GPa)
#
#
# Indices 1 2 3 4 5 6 
#
# 1 0.020971 -0.005212 0.003569 0.000000 -0.005095 0.000000
# 2 -0.005212 0.013104 -0.011007 0.000000 0.009297 0.000000
# 3 0.003569 -0.011007 0.025111 0.000000 -0.026873 0.000000
# 4 0.000000 0.000000 0.000000 0.052061 0.000000 0.019050
# 5 -0.005095 0.009297 -0.026873 0.000000 0.085259 0.000000
# 6 0.000000 0.000000 0.000000 0.019050 0.000000 0.074609
#
#
# Mechanical properties :
#
#
# Convention : Reuss Voigt Hill
#
# Bulk Modulus (GPa) = 29.51176 51.01549 40.26362
# Shear Modulus (GPa) = 16.24904 23.11218 19.68061
#
# Velocity S-wave (km/s) = 2.88452 3.44017 3.17452
# Velocity P-wave (km/s) = 5.11914 6.47322 5.83559
#
# Compressibility (1/GPa) = 0.03388480
#
# Stress axis : x y z
#
# Youngs Moduli (GPa) = 47.68558 76.31353 39.82281
#
# Poissons Ratio (x) = 0.39774 -0.14212
# Poissons Ratio (y) = 0.24853 0.43834
# Poissons Ratio (z) = -0.17018 0.84001
#
# Static dielectric constant tensor:
#      x y z
#    x 1.711350 0.000000 -0.011690 
#    y 0.000000 1.685430 0.000000 
#    z -0.011690 0.000000 1.693410 
# 
# From -- ./inp_files/70712.got.cif
#   From: 2010.05.17/outbox.cif.g08.bks.cpg/sg10_36_cif.got.tgz:70712.got - 2010.06.03 11:33:40.
