data_PCOD9143339
_publ_section_title
;
Structure prediction by ZEFSAII (Michael W. Deem and Ramdas Pophale) SiO2 
 PCOD9143339
Probable space group: P 2/M
;
_chemical_formula_sum "Si O2"
_cell_formula_units_Z 32
_cell_length_a 11.075782
_cell_length_b 14.850592
_cell_length_c 9.198483
_cell_angle_alpha 90.000000
_cell_angle_beta 85.698154
_cell_angle_gamma 90.000000
_cell_volume 1508.721637
_symmetry_space_group_name_H-M "P 2/M"
_symmetry_group_IT_number 10
_symmetry_cell_setting 'monoclinic'
loop_
_space_group_symop_operation_xyz
x,y,z
-x,y,-z
-x,-y,-z
x,-y,z
loop_
_atom_site_type_symbol
_atom_site_label
_atom_site_fract_x
_atom_site_fract_y
_atom_site_fract_z
Si Si1 0.195776 0.398884 0.052829
Si Si2 0.683419 0.700171 0.207443
Si Si3 0.058922 0.645196 0.352816
Si Si4 0.741645 0.898356 0.210982
Si Si5 0.986743 0.840163 0.338469
Si Si6 0.551051 0.398178 0.794659
Si Si7 0.116158 0.105551 0.075757
Si Si8 0.707141 0.606823 0.513421
O O1 0.184587 0.500000 0.991641
O O2 0.091623 0.388972 0.186991
O O3 0.323270 0.394252 0.128946
O O4 0.213590 0.326427 0.921617
O O5 0.677694 0.804843 0.253735
O O6 0.554007 0.670047 0.155583
O O7 0.700779 0.640622 0.350323
O O8 0.191436 0.662779 0.408377
O O9 0.000000 0.595860 0.500000
O O10 0.974842 0.732560 0.341263
O O11 0.873522 0.889208 0.275095
O O12 0.694865 0.000000 0.243149
O O13 0.768405 0.888280 0.036015
O O14 0.000000 0.872903 0.500000
O O15 0.108835 0.853658 0.234634
O O16 0.502741 0.500000 0.817026
O O17 0.587900 0.384482 0.623098
O O18 0.092129 0.000000 0.097352
O O19 0.000000 0.145403 0.000000
O O20 0.737837 0.500000 0.516872
#
# Coordination Sequence:
#
# PCOD9143339 Si02
#       8
#     4   4   4   4   4   4   4   4
#     4  10  21  35  55  85 114 141 179 224 267 316
#     4  12  20  33  58  83 108 139 185 235 270 313
#     4  10  20  35  52  74 112 154 182 208 258 325
#     4  10  22  37  52  75 107 142 180 225 278 326
#     4  10  18  31  52  78 103 133 182 230 264 308
#     4   9  19  36  58  84 113 144 176 216 272 328
#     4   8  15  29  47  66  93 129 166 212 271 319
#     4  10  21  36  55  82 114 147 181 216 264 329
#
# _framework density 21.210008999999999
#
# number of rings (size 3 to 8) (size 9 to 14) (size 15 to 20)
#    0.000    2.125    0.000    6.375    0.000    4.000 
#    0.000    1.875    0.000    6.750    0.000    3.500 
#    0.000    0.000    0.000    0.000    0.000    0.000 
#
# Total GULP energy -178224.525119 kJ/mol
# GULP energy per Si atom -5569.516410 kJ/mol
# Density = 2.116173 g / cm^3
# Si number density = 21.210009 Si / 1000 Ang^3
#
#
#
# Elastic Constant Matrix: (Units=GPa)
#
#
# Indices 1 2 3 4 5 6 
#
# 1 35.4221 10.4960 2.8104 0.0000 -11.9493 0.0000
# 2 10.4960 96.9336 14.4619 0.0000 -9.2173 0.0000
# 3 2.8104 14.4619 112.2383 0.0000 -17.6361 0.0000
# 4 0.0000 0.0000 0.0000 -3.6473 0.0000 -92.4381
# 5 -11.9493 -9.2173 -17.6361 0.0000 26.6529 0.0000
# 6 0.0000 0.0000 0.0000 -92.4381 0.0000 -278.9574
#
#
#
# Elastic Compliance Matrix: (Units=1/GPa)
#
#
# Indices 1 2 3 4 5 6 
#
# 1 0.034116 -0.002489 0.001936 0.000000 0.015716 0.000000
# 2 -0.002489 0.010928 -0.001035 0.000000 0.001979 0.000000
# 3 0.001936 -0.001035 0.010128 0.000000 0.007211 0.000000
# 4 0.000000 0.000000 0.000000 0.037059 0.000000 -0.012280
# 5 0.015716 0.001979 0.007211 0.000000 0.050021 0.000000
# 6 0.000000 0.000000 0.000000 -0.012280 0.000000 0.000485
#
#
# Mechanical properties :
#
#
# Convention : Reuss Voigt Hill
#
# Bulk Modulus (GPa) = 19.23188 33.34784 26.28986
# Shear Modulus (GPa) = 30.62889 -36.73530 -3.05320
#
# Velocity S-wave (km/s) = 3.80422 -4.16622 -1.20110
# Velocity P-wave (km/s) = 5.32759 2.71779 3.24013
#
# Compressibility (1/GPa) = 0.05199700
#
# Stress axis : x y z
#
# Youngs Moduli (GPa) = 29.31153 91.50503 98.73999
#
# Poissons Ratio (x) = 0.22771 -0.19114
# Poissons Ratio (y) = 0.07294 0.10218
# Poissons Ratio (z) = -0.05674 0.09470
#
# Static dielectric constant tensor:
#      x y z
#    x 1.804900 0.000000 -0.028850 
#    y 0.000000 1.780730 0.000000 
#    z -0.028850 0.000000 1.844720 
# 
# From -- ./inp_files/25321.got.cif
#   From: 2010.05.17/outbox.cif.g08.bks.cpg/sg10_13_cif.got.tgz:25321.got - 2010.06.03 11:33:40.
