data_PCOD9143817
_publ_section_title
;
Structure prediction by ZEFSAII (Michael W. Deem and Ramdas Pophale) SiO2 
 PCOD9143817
Probable space group: P 2/M
;
_chemical_formula_sum "Si O2"
_cell_formula_units_Z 24
_cell_length_a 16.422658
_cell_length_b 16.611177
_cell_length_c 11.766423
_cell_angle_alpha 90.000000
_cell_angle_beta 157.939635
_cell_angle_gamma 90.000000
_cell_volume 1205.575773
_symmetry_space_group_name_H-M "P 2/M"
_symmetry_group_IT_number 10
_symmetry_cell_setting 'monoclinic'
loop_
_space_group_symop_operation_xyz
x,y,z
-x,y,-z
-x,-y,-z
x,-y,z
loop_
_atom_site_type_symbol
_atom_site_label
_atom_site_fract_x
_atom_site_fract_y
_atom_site_fract_z
Si Si1 0.652171 0.147244 0.789979
Si Si2 0.741643 0.086706 0.150154
Si Si3 0.550139 0.298627 0.351314
Si Si4 0.693423 0.736178 0.171485
Si Si5 0.020089 0.269282 0.246299
Si Si6 0.199771 0.409630 0.168755
O O1 0.500000 0.106532 0.500000
O O2 0.510117 0.223319 0.648845
O O3 0.695198 0.094785 0.956499
O O4 0.878548 0.188550 0.043752
O O5 0.659587 0.168876 0.101037
O O6 0.000000 0.088477 0.500000
O O7 0.659879 0.000000 0.086702
O O8 0.765219 0.275350 0.555475
O O9 0.606624 0.372930 0.505266
O O10 0.351956 0.307892 0.006275
O O11 0.903372 0.729064 0.522879
O O12 0.500000 0.705857 0.000000
O O13 0.874014 0.345278 0.020982
O O14 0.237712 0.500000 0.176427
O O15 0.000000 0.412645 0.000000
#
# Coordination Sequence:
#
# PCOD9143817 Si02
#       6
#     4   4   4   4   4   4
#     4  11  20  32  54  77  97 138 172 202 256 299
#     4  10  20  34  51  75 104 131 165 212 258 301
#     4   9  19  32  50  77 101 130 174 211 246 299
#     4   9  18  33  54  76  97 135 174 209 252 297
#     4  10  18  33  51  75 105 130 170 217 240 301
#     4   9  17  31  51  75 106 138 165 208 258 295
#
# _framework density 19.907499999999999
#
# number of rings (size 3 to 8) (size 9 to 14) (size 15 to 20)
#    0.000    2.333    3.333    0.000    0.000    0.667 
#    0.000    2.500    0.000    5.000    0.000    8.167 
#    0.000    0.000    0.000    0.000    0.000    0.000 
#
# Total GULP energy -133761.666862 kJ/mol
# GULP energy per Si atom -5573.402786 kJ/mol
# Density = 1.986219 g / cm^3
# Si number density = 19.907500 Si / 1000 Ang^3
#
#
#
# Elastic Constant Matrix: (Units=GPa)
#
#
# Indices 1 2 3 4 5 6 
#
# 1 53.4190 7.6934 36.4206 0.0000 -9.4279 0.0000
# 2 7.6934 78.4795 14.7390 0.0000 -17.9757 0.0000
# 3 36.4206 14.7390 126.0170 0.0000 -33.7493 0.0000
# 4 0.0000 0.0000 0.0000 32.3278 0.0000 -1.2248
# 5 -9.4279 -17.9757 -33.7493 0.0000 50.4971 0.0000
# 6 0.0000 0.0000 0.0000 -1.2248 0.0000 17.7524
#
#
#
# Elastic Compliance Matrix: (Units=1/GPa)
#
#
# Indices 1 2 3 4 5 6 
#
# 1 0.023410 -0.001152 -0.006785 0.000000 -0.000574 0.000000
# 2 -0.001152 0.013944 -0.000032 0.000000 0.004727 0.000000
# 3 -0.006785 -0.000032 0.011642 0.000000 0.006502 0.000000
# 4 0.000000 0.000000 0.000000 0.031014 0.000000 0.002140
# 5 -0.000574 0.004727 0.006502 0.000000 0.025725 0.000000
# 6 0.000000 0.000000 0.000000 0.002140 0.000000 0.056478
#
#
# Mechanical properties :
#
#
# Convention : Reuss Voigt Hill
#
# Bulk Modulus (GPa) = 30.24984 41.73571 35.99278
# Shear Modulus (GPa) = 26.43129 33.38631 29.90880
#
# Velocity S-wave (km/s) = 3.64772 4.09965 3.88027
# Velocity P-wave (km/s) = 5.74189 6.58937 6.18018
#
# Compressibility (1/GPa) = 0.03305803
#
# Stress axis : x y z
#
# Youngs Moduli (GPa) = 42.71597 71.71605 85.89923
#
# Poissons Ratio (x) = 0.08263 0.58282
# Poissons Ratio (y) = 0.04922 0.00274
# Poissons Ratio (z) = 0.28982 0.00228
#
# Static dielectric constant tensor:
#      x y z
#    x 1.748000 0.000000 0.005180 
#    y 0.000000 1.669410 0.000000 
#    z 0.005180 0.000000 1.765710 
# 
# From -- ./inp_files/25639.got.cif
#   From: 2010.05.17/outbox.cif.g08.bks.cpg/sg10_13_cif.got.tgz:25639.got - 2010.06.03 11:33:40.
