data_PCOD9143733
_publ_section_title
;
Structure prediction by ZEFSAII (Michael W. Deem and Ramdas Pophale) SiO2 
 PCOD9143733
Probable space group: P 2/M
;
_chemical_formula_sum "Si O2"
_cell_formula_units_Z 28
_cell_length_a 5.395678
_cell_length_b 19.117612
_cell_length_c 13.263195
_cell_angle_alpha 90.000000
_cell_angle_beta 107.199881
_cell_angle_gamma 90.000000
_cell_volume 1306.947198
_symmetry_space_group_name_H-M "P 2/M"
_symmetry_group_IT_number 10
_symmetry_cell_setting 'monoclinic'
loop_
_space_group_symop_operation_xyz
x,y,z
-x,y,-z
-x,-y,-z
x,-y,z
loop_
_atom_site_type_symbol
_atom_site_label
_atom_site_fract_x
_atom_site_fract_y
_atom_site_fract_z
Si Si1 0.735934 0.888852 0.479126
Si Si2 0.457325 0.187012 0.741642
Si Si3 0.700494 0.080467 0.930714
Si Si4 0.893712 0.236446 0.655188
Si Si5 0.345494 0.584360 0.878975
Si Si6 0.212458 0.579547 0.208461
Si Si7 0.196821 0.611220 0.436671
O O1 0.500000 0.926952 0.500000
O O2 0.637594 0.862649 0.360393
O O3 0.808898 0.823274 0.563234
O O4 0.000000 0.928129 0.500000
O O5 0.595007 0.138880 0.841233
O O6 0.674911 0.235810 0.715759
O O7 0.181941 0.223365 0.734379
O O8 0.694335 0.000000 0.889004
O O9 0.500000 0.081898 0.000000
O O10 0.000000 0.093476 0.000000
O O11 0.883679 0.308940 0.594986
O O12 0.308704 0.500000 0.862680
O O13 0.522136 0.609520 0.806365
O O14 0.057522 0.615104 0.854870
O O15 0.500000 0.596644 0.000000
O O16 0.211720 0.500000 0.167279
O O17 0.188699 0.576505 0.325806
O O18 0.500000 0.607791 0.500000
O O19 0.000000 0.584570 0.500000
#
# Coordination Sequence:
#
# PCOD9143733 Si02
#       7
#     4   4   4   4   4   4   4
#     4   8  14  25  44  70  95 119 158 205 251 299
#     4  10  18  32  56  78 104 139 175 223 271 304
#     4  10  21  37  57  83 113 147 189 224 255 316
#     4  10  19  33  54  80 103 134 183 227 269 326
#     4   9  17  33  57  79  99 131 179 230 278 332
#     4  10  21  35  53  81 112 144 186 232 284 346
#     4  12  23  36  55  80 112 150 190 229 275 338
#
# _framework density 21.423971999999999
#
# number of rings (size 3 to 8) (size 9 to 14) (size 15 to 20)
#    0.000    2.143    0.000    5.571    0.000    2.286 
#    0.000    0.000    0.000   16.286    0.000    0.000 
#    0.000    0.000    0.000    0.000    0.000    0.000 
#
# Total GULP energy -156066.669317 kJ/mol
# GULP energy per Si atom -5573.809618 kJ/mol
# Density = 2.137521 g / cm^3
# Si number density = 21.423972 Si / 1000 Ang^3
#
#
#
# Elastic Constant Matrix: (Units=GPa)
#
#
# Indices 1 2 3 4 5 6 
#
# 1 165.4233 9.5592 25.1724 0.0000 11.4454 0.0000
# 2 9.5592 48.7078 8.3874 0.0000 -0.0144 0.0000
# 3 25.1724 8.3874 51.9947 0.0000 10.2563 0.0000
# 4 0.0000 0.0000 0.0000 -162.6568 0.0000 185.1450
# 5 11.4454 -0.0144 10.2563 0.0000 42.2447 0.0000
# 6 0.0000 0.0000 0.0000 185.1450 0.0000 -207.1248
#
#
#
# Elastic Compliance Matrix: (Units=1/GPa)
#
#
# Indices 1 2 3 4 5 6 
#
# 1 0.006601 -0.000805 -0.002850 0.000000 -0.001097 0.000000
# 2 -0.000805 0.021246 -0.003237 0.000000 0.001011 0.000000
# 3 -0.002850 -0.003237 0.022038 0.000000 -0.004580 0.000000
# 4 0.000000 0.000000 0.000000 0.352015 0.000000 0.314660
# 5 -0.001097 0.001011 -0.004580 0.000000 0.025081 0.000000
# 6 0.000000 0.000000 0.000000 0.314660 0.000000 0.276441
#
#
# Mechanical properties :
#
#
# Convention : Reuss Voigt Hill
#
# Bulk Modulus (GPa) = 27.69941 39.15151 33.42546
# Shear Modulus (GPa) = 6.85646 -50.64026 -21.89190
#
# Velocity S-wave (km/s) = 1.79090 -4.86708 -3.20009
# Velocity P-wave (km/s) = 4.15134 3.64285 1.40771
#
# Compressibility (1/GPa) = 0.03610186
#
# Stress axis : x y z
#
# Youngs Moduli (GPa) = 151.48906 47.06702 45.37657
#
# Poissons Ratio (x) = 0.03790 0.12930
# Poissons Ratio (y) = 0.12197 0.14688
# Poissons Ratio (z) = 0.43168 0.15235
#
# Static dielectric constant tensor:
#      x y z
#    x 1.863910 0.000000 -0.002390 
#    y 0.000000 1.760390 0.000000 
#    z -0.002390 0.000000 1.766330 
# 
# From -- ./inp_files/39764.got.cif
#   From: 2010.05.17/outbox.cif.g08.bks.cpg/sg10_20_cif.got.tgz:39764.got - 2010.06.03 11:33:40.
