data_PCOD9143018
_publ_section_title
;
Structure prediction by ZEFSAII (Michael W. Deem and Ramdas Pophale) SiO2 
 PCOD9143018
Probable space group: P 2/M
;
_chemical_formula_sum "Si O2"
_cell_formula_units_Z 28
_cell_length_a 21.067851
_cell_length_b 13.314397
_cell_length_c 10.416444
_cell_angle_alpha 90.000000
_cell_angle_beta 34.085725
_cell_angle_gamma 90.000000
_cell_volume 1637.512665
_symmetry_space_group_name_H-M "P 2/M"
_symmetry_group_IT_number 10
_symmetry_cell_setting 'monoclinic'
loop_
_space_group_symop_operation_xyz
x,y,z
-x,y,-z
-x,-y,-z
x,-y,z
loop_
_atom_site_type_symbol
_atom_site_label
_atom_site_fract_x
_atom_site_fract_y
_atom_site_fract_z
Si Si1 0.374647 0.381211 0.773869
Si Si2 0.329172 0.765884 0.065679
Si Si3 0.749051 0.790662 0.156548
Si Si4 0.465114 0.114392 0.356314
Si Si5 0.865338 0.116381 0.718670
Si Si6 0.129767 0.114720 0.819777
Si Si7 0.659835 0.886230 0.708080
O O1 0.500000 0.363317 0.500000
O O2 0.355998 0.500000 0.801181
O O3 0.280861 0.318133 0.851074
O O4 0.358513 0.339013 0.947239
O O5 0.201655 0.805823 0.259747
O O6 0.358451 0.795681 0.162393
O O7 0.412036 0.837979 0.845046
O O8 0.627396 0.832909 0.401623
O O9 0.826576 0.803442 0.152364
O O10 0.810591 0.858627 0.947700
O O11 0.417259 0.121024 0.290041
O O12 0.470908 0.000000 0.383364
O O13 0.000000 0.131902 0.500000
O O14 0.844897 0.000000 0.715856
O O15 0.212297 0.118661 0.559215
O O16 0.145259 0.000000 0.847004
O O17 0.000000 0.127032 0.000000
O O18 0.642063 0.000000 0.793352
#
# Coordination Sequence:
#
# PCOD9143018 Si02
#       7
#     4   4   4   4   4   4   4
#     4  10  21  39  58  75  97 131 180 233 282 318
#     4  11  20  32  52  75 101 137 175 213 263 316
#     4  10  19  34  53  76 103 138 179 218 260 310
#     4  10  18  30  50  79 111 140 166 204 253 318
#     4  10  21  31  44  71 108 144 174 208 245 300
#     4   9  18  31  52  80 112 149 178 202 239 305
#     4   9  18  30  47  76 111 143 170 199 247 311
#
# _framework density 17.099105000000002
#
# number of rings (size 3 to 8) (size 9 to 14) (size 15 to 20)
#    0.000    2.143    1.429    3.857    2.000    1.143 
#    0.000    2.143    0.000   12.429    0.000    0.000 
#    0.000    0.000    0.000    0.000    0.000    0.000 
#
# Total GULP energy -156010.011979 kJ/mol
# GULP energy per Si atom -5571.786142 kJ/mol
# Density = 1.706019 g / cm^3
# Si number density = 17.099105 Si / 1000 Ang^3
#
#
#
# Elastic Constant Matrix: (Units=GPa)
#
#
# Indices 1 2 3 4 5 6 
#
# 1 36.1716 23.6867 27.4006 0.0000 4.8696 0.0000
# 2 23.6867 84.2576 21.3608 0.0000 -1.9219 0.0000
# 3 27.4006 21.3608 68.7572 0.0000 -15.9121 0.0000
# 4 0.0000 0.0000 0.0000 21.1362 0.0000 5.4565
# 5 4.8696 -1.9219 -15.9121 0.0000 29.2131 0.0000
# 6 0.0000 0.0000 0.0000 5.4565 0.0000 15.6030
#
#
#
# Elastic Compliance Matrix: (Units=1/GPa)
#
#
# Indices 1 2 3 4 5 6 
#
# 1 0.056030 -0.010042 -0.024628 0.000000 -0.023415 0.000000
# 2 -0.010042 0.014742 0.000038 0.000000 0.002665 0.000000
# 3 -0.024628 0.000038 0.028946 0.000000 0.019874 0.000000
# 4 0.000000 0.000000 0.000000 0.052007 0.000000 -0.018187
# 5 -0.023415 0.002665 0.019874 0.000000 0.049135 0.000000
# 6 0.000000 0.000000 0.000000 -0.018187 0.000000 0.070450
#
#
# Mechanical properties :
#
#
# Convention : Reuss Voigt Hill
#
# Bulk Modulus (GPa) = 32.83424 37.12029 34.97727
# Shear Modulus (GPa) = 14.25619 20.97302 17.61460
#
# Velocity S-wave (km/s) = 2.89059 3.50602 3.21307
# Velocity P-wave (km/s) = 5.51223 6.17621 5.85364
#
# Compressibility (1/GPa) = 0.03045601
#
# Stress axis : x y z
#
# Youngs Moduli (GPa) = 17.84763 67.83170 34.54732
#
# Poissons Ratio (x) = 0.68115 0.85082
# Poissons Ratio (y) = 0.17922 -0.00133
# Poissons Ratio (z) = 0.43955 -0.00261
#
# Static dielectric constant tensor:
#      x y z
#    x 1.643050 0.000000 0.018850 
#    y 0.000000 1.554200 0.000000 
#    z 0.018850 0.000000 1.598200 
# 
# From -- ./inp_files/56838.got.cif
#   From: 2010.05.17/outbox.cif.g08.bks.cpg/sg10_29_cif.got.tgz:56838.got - 2010.06.03 11:33:40.
