data_PCOD9143324
_publ_section_title
;
Structure prediction by ZEFSAII (Michael W. Deem and Ramdas Pophale) SiO2 
 PCOD9143324
Probable space group: P 2/M
;
_chemical_formula_sum "Si O2"
_cell_formula_units_Z 28
_cell_length_a 33.512514
_cell_length_b 7.711344
_cell_length_c 10.246668
_cell_angle_alpha 90.000000
_cell_angle_beta 148.246049
_cell_angle_gamma 90.000000
_cell_volume 1393.575421
_symmetry_space_group_name_H-M "P 2/M"
_symmetry_group_IT_number 10
_symmetry_cell_setting 'monoclinic'
loop_
_space_group_symop_operation_xyz
x,y,z
-x,y,-z
-x,-y,-z
x,-y,z
loop_
_atom_site_type_symbol
_atom_site_label
_atom_site_fract_x
_atom_site_fract_y
_atom_site_fract_z
Si Si1 0.798490 0.704911 0.946995
Si Si2 0.952293 0.790844 0.491378
Si Si3 0.203650 0.200873 0.349806
Si Si4 0.046053 0.787092 0.001963
Si Si5 0.374323 0.207570 0.808549
Si Si6 0.627259 0.708832 0.495169
Si Si7 0.492346 0.295365 0.626612
O O1 0.793237 0.500000 0.907342
O O2 0.818977 0.791898 0.865941
O O3 0.714630 0.767151 0.753249
O O4 0.865221 0.737226 0.234246
O O5 0.000000 0.728139 0.500000
O O6 0.996669 0.730809 0.741430
O O7 0.953386 0.000000 0.493856
O O8 0.288422 0.276360 0.591842
O O9 0.210992 0.000000 0.409171
O O10 0.132686 0.275751 0.231072
O O11 0.049309 0.000000 0.009118
O O12 0.000000 0.733716 0.000000
O O13 0.396499 0.247833 0.719859
O O14 0.373512 0.000000 0.816800
O O15 0.431585 0.276836 0.076123
O O16 0.625762 0.500000 0.498798
O O17 0.573185 0.777542 0.459592
O O18 0.500000 0.223939 0.500000
O O19 0.475849 0.500000 0.565228
#
# Coordination Sequence:
#
# PCOD9143324 Si02
#       7
#     4   4   4   4   4   4   4
#     4  10  19  31  51  78 104 129 166 213 256 292
#     4  10  18  31  52  75  99 132 171 208 248 295
#     4   9  17  33  53  74 103 134 168 207 252 301
#     4   9  17  31  51  72  97 133 174 207 239 295
#     4  10  20  33  55  83 107 132 167 216 265 303
#     4   9  19  36  56  77 102 136 176 212 249 306
#     4  10  21  38  57  75 102 141 177 206 249 312
#
# _framework density 20.092202
#
# number of rings (size 3 to 8) (size 9 to 14) (size 15 to 20)
#    0.000    2.429    1.429    1.286    0.000    4.000 
#    2.571    0.000    0.000    1.714    0.000    0.000 
#    0.000    0.000    0.000    0.000    0.000    0.000 
#
# Total GULP energy -156177.153817 kJ/mol
# GULP energy per Si atom -5577.755493 kJ/mol
# Density = 2.004647 g / cm^3
# Si number density = 20.092202 Si / 1000 Ang^3
#
#
#
# Elastic Constant Matrix: (Units=GPa)
#
#
# Indices 1 2 3 4 5 6 
#
# 1 184.5421 4.1492 83.5176 0.0000 1.3242 0.0000
# 2 4.1492 34.5047 -7.0973 0.0000 -1.2003 0.0000
# 3 83.5176 -7.0973 106.2300 0.0000 1.2542 0.0000
# 4 0.0000 0.0000 0.0000 18.5363 0.0000 -7.6159
# 5 1.3242 -1.2003 1.2542 0.0000 28.2538 0.0000
# 6 0.0000 0.0000 0.0000 -7.6159 0.0000 46.7523
#
#
#
# Elastic Compliance Matrix: (Units=1/GPa)
#
#
# Indices 1 2 3 4 5 6 
#
# 1 0.008614 -0.002469 -0.006935 0.000000 -0.000201 0.000000
# 2 -0.002469 0.030131 0.003940 0.000000 0.001221 0.000000
# 3 -0.006935 0.003940 0.015131 0.000000 -0.000179 0.000000
# 4 0.000000 0.000000 0.000000 0.057818 0.000000 0.009418
# 5 -0.000201 0.001221 -0.000179 0.000000 0.035463 0.000000
# 6 0.000000 0.000000 0.000000 0.009418 0.000000 0.022924
#
#
# Mechanical properties :
#
#
# Convention : Reuss Voigt Hill
#
# Bulk Modulus (GPa) = 23.28389 54.04621 38.66505
# Shear Modulus (GPa) = 25.59816 35.02230 30.31023
#
# Velocity S-wave (km/s) = 3.57323 4.17955 3.88823
# Velocity P-wave (km/s) = 5.35142 7.08865 6.28039
#
# Compressibility (1/GPa) = 0.04294815
#
# Stress axis : x y z
#
# Youngs Moduli (GPa) = 116.08421 33.18796 66.08799
#
# Poissons Ratio (x) = 0.08195 0.45834
# Poissons Ratio (y) = 0.28666 -0.26039
# Poissons Ratio (z) = 0.80507 -0.13076
#
# Static dielectric constant tensor:
#      x y z
#    x 1.721270 0.000000 0.032930 
#    y 0.000000 1.745610 0.000000 
#    z 0.032930 0.000000 1.698740 
# 
# From -- ./inp_files/37239.got.cif
#   From: 2010.05.17/outbox.cif.g08.bks.cpg/sg10_19_cif.got.tgz:37239.got - 2010.06.03 11:33:40.
