data_PCOD9143160
_publ_section_title
;
Structure prediction by ZEFSAII (Michael W. Deem and Ramdas Pophale) SiO2 
 PCOD9143160
Probable space group: P 2/M
;
_chemical_formula_sum "Si O2"
_cell_formula_units_Z 21
_cell_length_a 5.413612
_cell_length_b 7.250254
_cell_length_c 23.013249
_cell_angle_alpha 90.000000
_cell_angle_beta 76.439882
_cell_angle_gamma 90.000000
_cell_volume 878.092255
_symmetry_space_group_name_H-M "P 2/M"
_symmetry_group_IT_number 10
_symmetry_cell_setting 'monoclinic'
loop_
_space_group_symop_operation_xyz
x,y,z
-x,y,-z
-x,-y,-z
x,-y,z
loop_
_atom_site_type_symbol
_atom_site_label
_atom_site_fract_x
_atom_site_fract_y
_atom_site_fract_z
Si Si1 0.507478 0.223983 0.261124
Si Si2 0.095890 0.292003 0.083643
Si Si3 0.216743 0.224774 0.533527
Si Si4 0.555741 0.290508 0.124712
Si Si5 0.939707 0.224114 0.328586
Si Si6 0.500000 0.500000 0.000000
O O1 0.548947 0.296882 0.194118
O O2 0.227924 0.279696 0.298547
O O3 0.732836 0.281078 0.292035
O O4 0.512009 0.000000 0.257694
O O5 0.026115 0.500000 0.111153
O O6 0.292668 0.205195 0.117955
O O7 0.273224 0.338777 0.019621
O O8 0.823038 0.203897 0.093067
O O9 0.500000 0.282951 0.500000
O O10 0.000000 0.282334 0.500000
O O11 0.145530 0.282377 0.602547
O O12 0.217772 0.000000 0.533057
O O13 0.541663 0.500000 0.095672
O O14 0.939031 0.000000 0.328530
#
# Coordination Sequence:
#
# PCOD9143160 Si02
#       6
#     4   4   4   4   4   1
#     4  10  19  30  45  63  91 126 153 178 218 271
#     4   8  17  27  46  68  95 111 143 182 228 256
#     4   9  15  23  37  57  83 112 142 183 231 267
#     4  10  18  31  45  69  94 116 148 190 222 254
#     4   9  17  28  41  61  88 120 154 183 220 275
#     4   8  16  30  48  74  98 114 148 182 230 266
#
# _framework density 23.915483999999999
#
# number of rings (size 3 to 8) (size 9 to 14) (size 15 to 20)
#    0.571    2.286    0.000    2.286    0.000    6.095 
#    0.000    0.000    0.000    0.000    0.000    4.000 
#    0.000   15.238    0.000    0.000    0.000    0.000 
#
# Total GULP energy -117026.033366 kJ/mol
# GULP energy per Si atom -5572.668256 kJ/mol
# Density = 2.386105 g / cm^3
# Si number density = 23.915484 Si / 1000 Ang^3
#
#
#
# Elastic Constant Matrix: (Units=GPa)
#
#
# Indices 1 2 3 4 5 6 
#
# 1 215.9922 11.8264 64.9186 0.0000 -5.6473 0.0000
# 2 11.8264 109.5242 1.6949 0.0000 -0.0787 0.0000
# 3 64.9186 1.6949 138.6606 0.0000 -4.4272 0.0000
# 4 0.0000 0.0000 0.0000 12.4655 0.0000 7.8830
# 5 -5.6473 -0.0787 -4.4272 0.0000 53.6354 0.0000
# 6 0.0000 0.0000 0.0000 7.8830 0.0000 -21.1151
#
#
#
# Elastic Compliance Matrix: (Units=1/GPa)
#
#
# Indices 1 2 3 4 5 6 
#
# 1 0.005427 -0.000547 -0.002523 0.000000 0.000362 0.000000
# 2 -0.000547 0.009187 0.000143 0.000000 -0.000032 0.000000
# 3 -0.002523 0.000143 0.008405 0.000000 0.000428 0.000000
# 4 0.000000 0.000000 0.000000 0.064899 0.000000 0.024229
# 5 0.000362 -0.000032 0.000428 0.000000 0.018718 0.000000
# 6 0.000000 0.000000 0.000000 0.024229 0.000000 -0.038314
#
#
# Mechanical properties :
#
#
# Convention : Reuss Voigt Hill
#
# Bulk Modulus (GPa) = 58.25539 69.00632 63.63085
# Shear Modulus (GPa) = 62.57947 34.71296 48.64622
#
# Velocity S-wave (km/s) = 5.12091 3.81397 4.51498
# Velocity P-wave (km/s) = 7.70563 6.95069 7.33787
#
# Compressibility (1/GPa) = 0.01716579
#
# Stress axis : x y z
#
# Youngs Moduli (GPa) = 184.24823 108.84698 118.97793
#
# Poissons Ratio (x) = 0.05951 0.30016
# Poissons Ratio (y) = 0.10074 -0.01697
# Poissons Ratio (z) = 0.46482 -0.01553
#
# Static dielectric constant tensor:
#      x y z
#    x 1.890470 0.000000 -0.001690 
#    y 0.000000 3.306330 0.000000 
#    z -0.001690 0.000000 1.673920 
# 
# From -- ./inp_files/87308.got.cif
#   From: 2010.05.17/outbox.cif.g08.bks.cpg/sg10_44_cif.got.tgz:87308.got - 2010.06.03 11:33:40.
