data_PCOD9143997
_publ_section_title
;
Structure prediction by ZEFSAII (Michael W. Deem and Ramdas Pophale) SiO2 
 PCOD9143997
Probable space group: P 2/M
;
_chemical_formula_sum "Si O2"
_cell_formula_units_Z 32
_cell_length_a 23.634478
_cell_length_b 17.602903
_cell_length_c 12.078542
_cell_angle_alpha 90.000000
_cell_angle_beta 21.264675
_cell_angle_gamma 90.000000
_cell_volume 1822.487366
_symmetry_space_group_name_H-M "P 2/M"
_symmetry_group_IT_number 10
_symmetry_cell_setting 'monoclinic'
loop_
_space_group_symop_operation_xyz
x,y,z
-x,y,-z
-x,-y,-z
x,-y,z
loop_
_atom_site_type_symbol
_atom_site_label
_atom_site_fract_x
_atom_site_fract_y
_atom_site_fract_z
Si Si1 0.329137 0.166837 0.793872
Si Si2 0.049645 0.914706 0.205620
Si Si3 0.176217 0.291398 0.218048
Si Si4 0.168370 0.085404 0.741018
Si Si5 0.100130 0.239120 0.586946
Si Si6 0.664805 0.229351 0.640324
Si Si7 0.317301 0.587612 0.803363
Si Si8 0.741278 0.714173 0.266310
O O1 0.500000 0.132461 0.500000
O O2 0.330048 0.219255 0.681414
O O3 0.182126 0.110701 0.050892
O O4 0.288739 0.226707 0.963998
O O5 0.924311 0.847084 0.416535
O O6 0.988976 0.000000 0.337127
O O7 0.141454 0.916749 0.921049
O O8 0.174199 0.288392 0.353350
O O9 0.000000 0.273253 0.500000
O O10 0.225934 0.369031 0.068001
O O11 0.299447 0.144107 0.467717
O O12 0.197340 0.000000 0.646927
O O13 0.000000 0.110437 0.000000
O O14 0.203281 0.243312 0.507935
O O15 0.925932 0.268201 0.929283
O O16 0.680234 0.280509 0.502342
O O17 0.500000 0.236184 0.000000
O O18 0.500000 0.591098 0.500000
O O19 0.270803 0.500000 0.877001
O O20 0.289116 0.636417 0.743754
#
# Coordination Sequence:
#
# PCOD9143997 Si02
#       8
#     4   4   4   4   4   4   4   4
#     4  10  20  33  56  77 112 147 189 243 292 338
#     4  10  19  33  56  76 104 153 199 236 290 346
#     4  11  19  35  58  91 111 150 187 237 277 323
#     4  10  18  34  56  75 104 147 195 244 290 338
#     4  11  21  36  56  83 116 150 197 237 280 336
#     4  12  24  33  56  87 113 147 192 245 286 335
#     4  10  22  39  65  93 122 150 177 223 280 339
#     4  10  19  39  57  82 114 151 189 227 279 339
#
# _framework density 17.558420999999999
#
# number of rings (size 3 to 8) (size 9 to 14) (size 15 to 20)
#    0.000    1.500    7.500    1.875    3.500    0.750 
#    0.000    1.250    0.000    2.625    0.000    0.000 
#    0.000    0.000    0.000    0.000    0.000    0.000 
#
# Total GULP energy -178499.049746 kJ/mol
# GULP energy per Si atom -5578.095305 kJ/mol
# Density = 1.751846 g / cm^3
# Si number density = 17.558421 Si / 1000 Ang^3
#
#
#
# Elastic Constant Matrix: (Units=GPa)
#
#
# Indices 1 2 3 4 5 6 
#
# 1 71.3548 29.3851 37.6497 0.0000 12.6736 0.0000
# 2 29.3851 102.8863 36.1699 0.0000 12.4060 0.0000
# 3 37.6497 36.1699 72.1715 0.0000 6.9153 0.0000
# 4 0.0000 0.0000 0.0000 16.9796 0.0000 -0.1343
# 5 12.6736 12.4060 6.9153 0.0000 27.7750 0.0000
# 6 0.0000 0.0000 0.0000 -0.1343 0.0000 14.3497
#
#
#
# Elastic Compliance Matrix: (Units=1/GPa)
#
#
# Indices 1 2 3 4 5 6 
#
# 1 0.020838 -0.001917 -0.009302 0.000000 -0.006336 0.000000
# 2 -0.001917 0.012400 -0.004884 0.000000 -0.003448 0.000000
# 3 -0.009302 -0.004884 0.021043 0.000000 0.001187 0.000000
# 4 0.000000 0.000000 0.000000 0.058899 0.000000 0.000551
# 5 -0.006336 -0.003448 0.001187 0.000000 0.040139 0.000000
# 6 0.000000 0.000000 0.000000 0.000551 0.000000 0.069693
#
#
# Mechanical properties :
#
#
# Convention : Reuss Voigt Hill
#
# Bulk Modulus (GPa) = 45.30421 50.31356 47.80888
# Shear Modulus (GPa) = 19.04216 21.36805 20.20510
#
# Velocity S-wave (km/s) = 3.29675 3.49229 3.39593
# Velocity P-wave (km/s) = 6.35212 6.70661 6.53177
#
# Compressibility (1/GPa) = 0.02207300
#
# Stress axis : x y z
#
# Youngs Moduli (GPa) = 47.99003 80.64736 47.52267
#
# Poissons Ratio (x) = 0.15461 0.44208
# Poissons Ratio (y) = 0.09200 0.23209
# Poissons Ratio (z) = 0.44643 0.39387
#
# Static dielectric constant tensor:
#      x y z
#    x 1.629690 0.000000 0.003840 
#    y 0.000000 1.611030 0.000000 
#    z 0.003840 0.000000 1.602670 
# 
# From -- ./inp_files/57089.got.cif
#   From: 2010.05.17/outbox.cif.g08.bks.cpg/sg10_29_cif.got.tgz:57089.got - 2010.06.03 11:33:40.
