data_PCOD9143936
_publ_section_title
;
Structure prediction by ZEFSAII (Michael W. Deem and Ramdas Pophale) SiO2 
 PCOD9143936
Probable space group: P 2/M
;
_chemical_formula_sum "Si O2"
_cell_formula_units_Z 28
_cell_length_a 14.997842
_cell_length_b 7.699690
_cell_length_c 11.795769
_cell_angle_alpha 90.000000
_cell_angle_beta 68.279115
_cell_angle_gamma 90.000000
_cell_volume 1265.443990
_symmetry_space_group_name_H-M "P 2/M"
_symmetry_group_IT_number 10
_symmetry_cell_setting 'monoclinic'
loop_
_space_group_symop_operation_xyz
x,y,z
-x,y,-z
-x,-y,-z
x,-y,z
loop_
_atom_site_type_symbol
_atom_site_label
_atom_site_fract_x
_atom_site_fract_y
_atom_site_fract_z
Si Si1 0.387540 0.710165 0.067068
Si Si2 0.484419 0.704000 0.383502
Si Si3 0.090382 0.213139 0.381704
Si Si4 0.057501 0.799869 0.140977
Si Si5 0.861999 0.699389 0.136202
Si Si6 0.661932 0.712888 0.155718
Si Si7 0.297331 0.199612 0.347121
O O1 0.382180 0.500000 0.081002
O O2 0.341229 0.788748 0.200244
O O3 0.500000 0.753098 0.000000
O O4 0.334624 0.765700 0.977035
O O5 0.500000 0.781654 0.500000
O O6 0.507482 0.500000 0.380039
O O7 0.561973 0.772949 0.257176
O O8 0.376325 0.718130 0.391148
O O9 0.081528 0.268638 0.254508
O O10 0.190383 0.273688 0.388961
O O11 0.000000 0.265923 0.500000
O O12 0.091617 0.000000 0.378604
O O13 0.943141 0.792958 0.171090
O O14 0.088833 0.000000 0.119265
O O15 0.104196 0.704798 0.011534
O O16 0.860536 0.500000 0.174914
O O17 0.754053 0.770122 0.184030
O O18 0.664220 0.500000 0.152530
O O19 0.289176 0.000000 0.385696
#
# Coordination Sequence:
#
# PCOD9143936 Si02
#       7
#     4   4   4   4   4   4   4
#     4  10  18  33  58  80 109 147 183 217 265 335
#     4  10  21  39  59  77 106 148 187 218 262 329
#     4   9  20  38  57  77 107 149 186 222 273 329
#     4  10  19  34  55  78 105 137 181 224 265 322
#     4  10  19  32  53  78 110 141 171 218 275 323
#     4   9  18  33  53  80 107 140 180 217 263 323
#     4  11  22  36  57  85 113 139 180 235 280 319
#
# _framework density 22.126619999999999
#
# number of rings (size 3 to 8) (size 9 to 14) (size 15 to 20)
#    0.000    2.143    1.429    3.000    0.000    1.714 
#    0.000    4.286    0.000    6.000    0.000    0.000 
#    0.000    0.000    0.000    0.000    0.000    0.000 
#
# Total GULP energy -156419.090044 kJ/mol
# GULP energy per Si atom -5586.396073 kJ/mol
# Density = 2.207626 g / cm^3
# Si number density = 22.126620 Si / 1000 Ang^3
#
#
#
# Elastic Constant Matrix: (Units=GPa)
#
#
# Indices 1 2 3 4 5 6 
#
# 1 138.1393 -11.6187 35.4729 0.0000 -4.4786 0.0000
# 2 -11.6187 35.3685 -7.5441 0.0000 -0.6256 0.0000
# 3 35.4729 -7.5441 63.7225 0.0000 11.7346 0.0000
# 4 0.0000 0.0000 0.0000 8.1356 0.0000 1.7630
# 5 -4.4786 -0.6256 11.7346 0.0000 33.2031 0.0000
# 6 0.0000 0.0000 0.0000 1.7630 0.0000 22.7257
#
#
#
# Elastic Compliance Matrix: (Units=1/GPa)
#
#
# Indices 1 2 3 4 5 6 
#
# 1 0.008849 0.001836 -0.005279 0.000000 0.003094 0.000000
# 2 0.001836 0.029403 0.002472 0.000000 -0.000072 0.000000
# 3 -0.005279 0.002472 0.020373 0.000000 -0.007865 0.000000
# 4 0.000000 0.000000 0.000000 0.125018 0.000000 -0.009699
# 5 0.003094 -0.000072 -0.007865 0.000000 0.033313 0.000000
# 6 0.000000 0.000000 0.000000 -0.009699 0.000000 0.044755
#
#
# Mechanical properties :
#
#
# Convention : Reuss Voigt Hill
#
# Bulk Modulus (GPa) = 17.64169 29.98340 23.81254
# Shear Modulus (GPa) = 17.69614 27.54089 22.61852
#
# Velocity S-wave (km/s) = 2.83108 3.53185 3.20070
# Velocity P-wave (km/s) = 4.32170 5.49656 4.94415
#
# Compressibility (1/GPa) = 0.05668392
#
# Stress axis : x y z
#
# Youngs Moduli (GPa) = 113.00374 34.01027 49.08545
#
# Poissons Ratio (x) = -0.06244 0.25910
# Poissons Ratio (y) = -0.20745 -0.12135
# Poissons Ratio (z) = 0.59650 -0.08408
#
# Static dielectric constant tensor:
#      x y z
#    x 1.817840 0.000000 -0.010640 
#    y 0.000000 1.815900 0.000000 
#    z -0.010640 0.000000 1.782320 
# 
# From -- ./inp_files/49139.got.cif
#   From: 2010.05.17/outbox.cif.g08.bks.cpg/sg10_25_cif.got.tgz:49139.got - 2010.06.03 11:33:40.
