data_PCOD9143975
_publ_section_title
;
Structure prediction by ZEFSAII (Michael W. Deem and Ramdas Pophale) SiO2 
 PCOD9143975
Probable space group: P 2/M
;
_chemical_formula_sum "Si O2"
_cell_formula_units_Z 32
_cell_length_a 11.815407
_cell_length_b 16.217332
_cell_length_c 14.503318
_cell_angle_alpha 90.000000
_cell_angle_beta 136.437983
_cell_angle_gamma 90.000000
_cell_volume 1915.148665
_symmetry_space_group_name_H-M "P 2/M"
_symmetry_group_IT_number 10
_symmetry_cell_setting 'monoclinic'
loop_
_space_group_symop_operation_xyz
x,y,z
-x,y,-z
-x,-y,-z
x,-y,z
loop_
_atom_site_type_symbol
_atom_site_label
_atom_site_fract_x
_atom_site_fract_y
_atom_site_fract_z
Si Si1 0.279756 0.761696 0.175839
Si Si2 0.091898 0.197388 0.255165
Si Si3 0.881328 0.090274 0.018929
Si Si4 0.887123 0.350809 0.206501
Si Si5 0.296375 0.593547 0.078625
Si Si6 0.207086 0.592455 0.498212
Si Si7 0.397505 0.747256 0.532105
Si Si8 0.668744 0.595070 0.227447
O O1 0.167460 0.772149 0.201206
O O2 0.229110 0.830485 0.071257
O O3 0.262328 0.668772 0.127950
O O4 0.468199 0.777091 0.315936
O O5 0.246664 0.193420 0.415496
O O6 0.967224 0.265042 0.221802
O O7 0.994031 0.115088 0.172167
O O8 0.802780 0.000000 0.983686
O O9 0.000000 0.084611 0.000000
O O10 0.732718 0.346639 0.184390
O O11 0.028256 0.396978 0.348188
O O12 0.827918 0.397410 0.080169
O O13 0.287971 0.500000 0.111589
O O14 0.481362 0.606549 0.148973
O O15 0.268497 0.500000 0.516423
O O16 0.319967 0.661981 0.520029
O O17 0.218832 0.604285 0.615138
O O18 0.500000 0.732091 0.500000
O O19 0.682465 0.500000 0.202377
#
# Coordination Sequence:
#
# PCOD9143975 Si02
#       8
#     4   4   4   4   4   4   4   4
#     4  10  18  34  51  72 104 130 164 201 243 300
#     4   9  19  33  51  73 100 127 161 205 248 292
#     4   9  17  32  56  78  99 127 157 195 251 306
#     4  11  20  32  47  68  97 130 167 213 248 283
#     4  11  21  32  48  69  99 137 168 206 247 287
#     4  10  19  31  46  66  94 131 176 214 243 277
#     4   9  18  31  48  68  99 134 159 201 246 288
#     4  10  20  33  47  65  94 133 176 213 244 282
#
# _framework density 16.708887000000001
#
# number of rings (size 3 to 8) (size 9 to 14) (size 15 to 20)
#    0.000    2.125    2.500    1.875    0.000    2.250 
#    0.000    7.500    0.000    3.750    0.000    1.750 
#    0.000    2.250    0.000    0.000    0.000    0.000 
#
# Total GULP energy -178284.860625 kJ/mol
# GULP energy per Si atom -5571.401895 kJ/mol
# Density = 1.667086 g / cm^3
# Si number density = 16.708887 Si / 1000 Ang^3
#
#
#
# Elastic Constant Matrix: (Units=GPa)
#
#
# Indices 1 2 3 4 5 6 
#
# 1 17.7387 13.8568 10.2611 0.0000 7.0560 0.0000
# 2 13.8568 82.2664 33.3337 0.0000 1.4837 0.0000
# 3 10.2611 33.3337 89.0611 0.0000 -3.2311 0.0000
# 4 0.0000 0.0000 0.0000 10.6262 0.0000 -2.2599
# 5 7.0560 1.4837 -3.2311 0.0000 14.6007 0.0000
# 6 0.0000 0.0000 0.0000 -2.2599 0.0000 2.4632
#
#
#
# Elastic Compliance Matrix: (Units=1/GPa)
#
#
# Indices 1 2 3 4 5 6 
#
# 1 0.085686 -0.010678 -0.007398 0.000000 -0.041961 0.000000
# 2 -0.010678 0.015763 -0.004577 0.000000 0.002546 0.000000
# 3 -0.007398 -0.004577 0.014053 0.000000 0.007150 0.000000
# 4 0.000000 0.000000 0.000000 0.116921 0.000000 0.107271
# 5 -0.041961 0.002546 0.007150 0.000000 0.090092 0.000000
# 6 0.000000 0.000000 0.000000 0.107271 0.000000 0.504389
#
#
# Mechanical properties :
#
#
# Convention : Reuss Voigt Hill
#
# Bulk Modulus (GPa) = 14.24599 33.77438 24.01019
# Shear Modulus (GPa) = 5.58279 14.31232 9.94756
#
# Velocity S-wave (km/s) = 1.82988 2.92990 2.44262
# Velocity P-wave (km/s) = 3.60682 5.63054 4.72822
#
# Compressibility (1/GPa) = 0.07019519
#
# Stress axis : x y z
#
# Youngs Moduli (GPa) = 11.67053 63.43984 71.15860
#
# Poissons Ratio (x) = 0.67744 0.52642
# Poissons Ratio (y) = 0.12462 0.32570
# Poissons Ratio (z) = 0.08634 0.29037
#
# Static dielectric constant tensor:
#      x y z
#    x 1.558360 0.000000 0.011900 
#    y 0.000000 1.548150 0.000000 
#    z 0.011900 0.000000 1.621760 
# 
# From -- ./inp_files/61822.got.cif
#   From: 2010.05.17/outbox.cif.g08.bks.cpg/sg10_31_cif.got.tgz:61822.got - 2010.06.03 11:33:40.
