data_PCOD9143433
_publ_section_title
;
Structure prediction by ZEFSAII (Michael W. Deem and Ramdas Pophale) SiO2 
 PCOD9143433
Probable space group: P 2/M
;
_chemical_formula_sum "Si O2"
_cell_formula_units_Z 32
_cell_length_a 23.008315
_cell_length_b 7.494821
_cell_length_c 13.756604
_cell_angle_alpha 90.000000
_cell_angle_beta 147.109875
_cell_angle_gamma 90.000000
_cell_volume 1288.192969
_symmetry_space_group_name_H-M "P 2/M"
_symmetry_group_IT_number 10
_symmetry_cell_setting 'monoclinic'
loop_
_space_group_symop_operation_xyz
x,y,z
-x,y,-z
-x,-y,-z
x,-y,z
loop_
_atom_site_type_symbol
_atom_site_label
_atom_site_fract_x
_atom_site_fract_y
_atom_site_fract_z
Si Si1 0.732160 0.281968 0.516990
Si Si2 0.491791 0.698608 0.386485
Si Si3 0.748339 0.791226 0.173490
Si Si4 0.038045 0.703509 0.452326
Si Si5 0.745340 0.213550 0.951074
Si Si6 0.957771 0.719070 0.752310
Si Si7 0.835161 0.711628 0.862503
Si Si8 0.502152 0.715512 0.188875
O O1 0.728684 0.500000 0.513616
O O2 0.837222 0.226398 0.605642
O O3 0.762216 0.223021 0.670596
O O4 0.617718 0.228391 0.308113
O O5 0.500000 0.795919 0.500000
O O6 0.543009 0.500000 0.466024
O O7 0.365989 0.684740 0.200309
O O8 0.523076 0.780261 0.328921
O O9 0.832397 0.699459 0.362565
O O10 0.766523 0.000000 0.209627
O O11 0.786884 0.739687 0.117673
O O12 0.620149 0.764909 0.009251
O O13 0.998245 0.500000 0.396040
O O14 0.006263 0.783677 0.304091
O O15 0.000000 0.788873 0.500000
O O16 0.790522 0.259003 0.908621
O O17 0.729599 0.000000 0.931374
O O18 0.959094 0.500000 0.752221
O O19 0.042944 0.777265 0.953071
O O20 0.842275 0.500000 0.856068
O O21 0.499305 0.500000 0.184770
#
# Coordination Sequence:
#
# PCOD9143433 Si02
#       8
#     4   4   4   4   4   4   4   4
#     4   9  17  31  53  81 108 137 176 216 257 308
#     4   9  16  27  44  68  97 129 168 211 253 301
#     4  10  21  36  53  75 105 141 180 221 265 312
#     4  10  20  35  57  84 110 136 169 213 266 317
#     4  10  20  31  45  70 103 136 170 209 255 306
#     4   9  18  32  53  82 110 134 169 219 266 311
#     4  10  18  31  54  80 107 140 175 213 258 311
#     4   9  17  30  50  74 102 137 176 218 260 306
#
# _framework density 24.841000000000001
#
# number of rings (size 3 to 8) (size 9 to 14) (size 15 to 20)
#    0.000    2.500    0.000    2.625    0.000    6.500 
#    0.000    4.375    0.000    7.500    0.000    0.000 
#    0.000    0.000    0.000    0.000    0.000    0.000 
#
# Total GULP energy -178273.133847 kJ/mol
# GULP energy per Si atom -5571.035433 kJ/mol
# Density = 2.478446 g / cm^3
# Si number density = 24.841000 Si / 1000 Ang^3
#
#
#
# Elastic Constant Matrix: (Units=GPa)
#
#
# Indices 1 2 3 4 5 6 
#
# 1 72.0344 -9.5769 29.4868 0.0000 16.2041 0.0000
# 2 -9.5769 64.9570 14.3063 0.0000 -3.3931 0.0000
# 3 29.4868 14.3063 110.4946 0.0000 11.3153 0.0000
# 4 0.0000 0.0000 0.000015657.3816 0.000013207.4143
# 5 16.2041 -3.3931 11.3153 0.0000 39.2786 0.0000
# 6 0.0000 0.0000 0.000013207.4143 0.000011135.2898
#
#
#
# Elastic Compliance Matrix: (Units=1/GPa)
#
#
# Indices 1 2 3 4 5 6 
#
# 1 0.017419 0.003266 -0.004497 0.000000 -0.005608 0.000000
# 2 0.003266 0.016616 -0.003124 0.000000 0.000988 0.000000
# 3 -0.004497 -0.003124 0.010811 0.000000 -0.001529 0.000000
# 4 0.000000 0.000000 0.000000 -0.129017 0.000000 0.153025
# 5 -0.005608 0.000988 -0.001529 0.000000 0.028299 0.000000
# 6 0.000000 0.000000 0.000000 0.153025 0.000000 -0.181411
#
#
# Mechanical properties :
#
#
# Convention : Reuss Voigt Hill
#
# Bulk Modulus (GPa) = 27.67364 35.10203 31.38784
# Shear Modulus (GPa) = -23.09178 5380.60800 2678.75811
#
# Velocity S-wave (km/s) = -3.05221 46.59100 32.87404
# Velocity P-wave (km/s) = 1.12110 53.93011 38.12610
#
# Compressibility (1/GPa) = 0.03613547
#
# Stress axis : x y z
#
# Youngs Moduli (GPa) = 57.40924 60.18325 92.49544
#
# Poissons Ratio (x) = -0.19653 0.41594
# Poissons Ratio (y) = -0.18747 0.28896
# Poissons Ratio (z) = 0.25816 0.18801
#
# Static dielectric constant tensor:
#      x y z
#    x 2.070910 0.000000 -0.055740 
#    y 0.000000 1.978380 0.000000 
#    z -0.055740 0.000000 2.128520 
# 
# From -- ./inp_files/66551.got.cif
#   From: 2010.05.17/outbox.cif.g08.bks.cpg/sg10_34_cif.got.tgz:66551.got - 2010.06.03 11:33:40.
