data_PCOD9143927
_publ_section_title
;
Structure prediction by ZEFSAII (Michael W. Deem and Ramdas Pophale) SiO2 
 PCOD9143927
Probable space group: P 2/M
;
_chemical_formula_sum "Si O2"
_cell_formula_units_Z 32
_cell_length_a 10.343110
_cell_length_b 18.636829
_cell_length_c 14.408586
_cell_angle_alpha 90.000000
_cell_angle_beta 28.486921
_cell_angle_gamma 90.000000
_cell_volume 1324.722128
_symmetry_space_group_name_H-M "P 2/M"
_symmetry_group_IT_number 10
_symmetry_cell_setting 'monoclinic'
loop_
_space_group_symop_operation_xyz
x,y,z
-x,y,-z
-x,-y,-z
x,-y,z
loop_
_atom_site_type_symbol
_atom_site_label
_atom_site_fract_x
_atom_site_fract_y
_atom_site_fract_z
Si Si1 0.497835 0.820319 0.257416
Si Si2 0.242775 0.582986 0.730935
Si Si3 0.662603 0.413882 0.617053
Si Si4 0.041335 0.920085 0.583475
Si Si5 0.270614 0.919825 0.039987
Si Si6 0.258098 0.413329 0.215434
Si Si7 0.218150 0.155928 0.731804
Si Si8 0.122631 0.291979 0.025213
O O1 0.219981 0.847796 0.476904
O O2 0.707985 0.843208 0.205796
O O3 0.548088 0.865667 0.132912
O O4 0.572814 0.739252 0.180185
O O5 0.500000 0.588398 0.500000
O O6 0.154926 0.500000 0.790161
O O7 0.389346 0.605456 0.735037
O O8 0.990458 0.633145 0.864207
O O9 0.674149 0.500000 0.596103
O O10 0.667055 0.402667 0.724085
O O11 0.950203 0.385486 0.396300
O O12 0.000000 0.925570 0.500000
O O13 0.792245 0.910618 0.811347
O O14 0.158675 0.000000 0.536223
O O15 0.972711 0.908210 0.181372
O O16 0.370846 0.000000 0.960292
O O17 0.246823 0.500000 0.207255
O O18 0.500000 0.383436 0.000000
O O19 0.500000 0.156677 0.500000
O O20 0.045418 0.227983 0.818429
O O21 0.000000 0.290633 0.000000
#
# Coordination Sequence:
#
# PCOD9143927 Si02
#       8
#     4   4   4   4   4   4   4   4
#     4  10  20  36  57  84 119 157 208 251 299 360
#     4  10  20  36  56  85 124 156 189 242 316 388
#     4   8  15  28  47  76 110 143 178 222 279 347
#     4  10  21  36  56  88 128 169 209 248 299 358
#     4  10  20  32  52  86 125 164 200 245 297 345
#     4   8  13  25  48  75 104 142 185 220 261 326
#     4  10  18  33  57  83 113 153 203 247 295 351
#     4   9  20  36  56  83 110 150 202 247 302 368
#
# _framework density 24.156009000000001
#
# number of rings (size 3 to 8) (size 9 to 14) (size 15 to 20)
#    0.000    2.625    1.250    2.625    0.000    2.500 
#    2.250    1.875    0.000    0.000   13.000    7.000 
#    0.000    0.500    0.000    0.500    0.000    0.000 
#
# Total GULP energy -178520.787414 kJ/mol
# GULP energy per Si atom -5578.774607 kJ/mol
# Density = 2.410103 g / cm^3
# Si number density = 24.156009 Si / 1000 Ang^3
#
#
#
# Elastic Constant Matrix: (Units=GPa)
#
#
# Indices 1 2 3 4 5 6 
#
# 1 66.5929 19.5385 7.9714 0.0000 9.9564 0.0000
# 2 19.5385 116.8574 43.1247 0.0000 -6.7544 0.0000
# 3 7.9714 43.1247 133.6088 0.0000 -1.3703 0.0000
# 4 0.0000 0.0000 0.0000 24.7560 0.0000 -3.6551
# 5 9.9564 -6.7544 -1.3703 0.0000 37.9801 0.0000
# 6 0.0000 0.0000 0.0000 -3.6551 0.0000 6.3119
#
#
#
# Elastic Compliance Matrix: (Units=1/GPa)
#
#
# Indices 1 2 3 4 5 6 
#
# 1 0.016651 -0.003045 -0.000061 0.000000 -0.004909 0.000000
# 2 -0.003045 0.010372 -0.003140 0.000000 0.002530 0.000000
# 3 -0.000061 -0.003140 0.008499 0.000000 -0.000236 0.000000
# 4 0.000000 0.000000 0.000000 0.044171 0.000000 0.025578
# 5 -0.004909 0.002530 -0.000236 0.000000 0.028058 0.000000
# 6 0.000000 0.000000 0.000000 0.025578 0.000000 0.173243
#
#
# Mechanical properties :
#
#
# Convention : Reuss Voigt Hill
#
# Bulk Modulus (GPa) = 43.42209 50.92538 47.17374
# Shear Modulus (GPa) = 16.60232 30.23790 23.42011
#
# Velocity S-wave (km/s) = 2.62448 3.54188 3.11711
# Velocity P-wave (km/s) = 5.21522 6.15258 5.70319
#
# Compressibility (1/GPa) = 0.02302975
#
# Stress axis : x y z
#
# Youngs Moduli (GPa) = 60.05521 96.41709 117.65760
#
# Poissons Ratio (x) = 0.29363 0.00716
# Poissons Ratio (y) = 0.18289 0.36944
# Poissons Ratio (z) = 0.00365 0.30275
#
# Static dielectric constant tensor:
#      x y z
#    x 1.976430 0.000000 -0.033300 
#    y 0.000000 1.921930 0.000000 
#    z -0.033300 0.000000 2.002040 
# 
# From -- ./inp_files/65376.got.cif
#   From: 2010.05.17/outbox.cif.g08.bks.cpg/sg10_33_cif.got.tgz:65376.got - 2010.06.03 11:33:40.
