data_PCOD9143913
_publ_section_title
;
Structure prediction by ZEFSAII (Michael W. Deem and Ramdas Pophale) SiO2 
 PCOD9143913
Probable space group: P 2/M
;
_chemical_formula_sum "Si O2"
_cell_formula_units_Z 32
_cell_length_a 17.070594
_cell_length_b 7.661613
_cell_length_c 25.161742
_cell_angle_alpha 90.000000
_cell_angle_beta 151.147296
_cell_angle_gamma 90.000000
_cell_volume 1588.036437
_symmetry_space_group_name_H-M "P 2/M"
_symmetry_group_IT_number 10
_symmetry_cell_setting 'monoclinic'
loop_
_space_group_symop_operation_xyz
x,y,z
-x,y,-z
-x,-y,-z
x,-y,z
loop_
_atom_site_type_symbol
_atom_site_label
_atom_site_fract_x
_atom_site_fract_y
_atom_site_fract_z
Si Si1 0.421616 0.795084 0.824805
Si Si2 0.671405 0.700726 0.118376
Si Si3 0.021520 0.714605 0.294599
Si Si4 0.546076 0.204161 0.586078
Si Si5 0.093203 0.711512 0.217003
Si Si6 0.252842 0.289755 0.027877
Si Si7 0.468477 0.707527 0.737534
Si Si8 0.692272 0.297872 0.463436
O O1 0.331789 0.703668 0.819606
O O2 0.616145 0.754559 0.940433
O O3 0.373758 0.737062 0.736757
O O4 0.398217 0.000000 0.816124
O O5 0.667610 0.500000 0.096769
O O6 0.838737 0.776168 0.196267
O O7 0.500000 0.784426 0.000000
O O8 0.021526 0.500000 0.295713
O O9 0.082797 0.764953 0.272625
O O10 0.146118 0.777332 0.413636
O O11 0.500000 0.273827 0.500000
O O12 0.738514 0.224909 0.707213
O O13 0.444243 0.292361 0.572012
O O14 0.502721 0.000000 0.561395
O O15 0.094845 0.500000 0.216361
O O16 0.927566 0.773437 0.090379
O O17 0.245089 0.500000 0.025440
O O18 0.351003 0.226241 0.138563
O O19 0.485907 0.500000 0.739729
O O20 0.381434 0.781899 0.634163
O O21 0.730544 0.500000 0.473957
#
# Coordination Sequence:
#
# PCOD9143913 Si02
#       8
#     4   4   4   4   4   4   4   4
#     4  10  19  32  52  77 107 142 176 211 256 316
#     4  10  19  33  53  78 110 142 173 219 268 311
#     4   9  18  30  52  82 103 128 177 225 265 306
#     4  11  23  36  51  77 114 147 172 207 265 327
#     4  10  18  33  57  80 103 135 176 224 265 307
#     4   8  16  32  54  78 102 134 176 217 260 308
#     4   8  17  34  56  77 101 138 179 221 264 309
#     4  10  19  36  59  79 101 134 181 230 264 302
#
# _framework density 20.150672
#
# number of rings (size 3 to 8) (size 9 to 14) (size 15 to 20)
#    0.750    1.750    1.250    1.875    0.000    3.750 
#    0.000    2.500    0.000    7.500    0.000    0.000 
#    0.000    0.000    0.000    0.000    0.000    0.000 
#
# Total GULP energy -178266.462479 kJ/mol
# GULP energy per Si atom -5570.826952 kJ/mol
# Density = 2.010481 g / cm^3
# Si number density = 20.150672 Si / 1000 Ang^3
#
#
#
# Elastic Constant Matrix: (Units=GPa)
#
#
# Indices 1 2 3 4 5 6 
#
# 1 54.8010 -15.5415 29.0522 0.0000 -2.7950 0.0000
# 2 -15.5415 37.2502 4.5430 0.0000 -5.5291 0.0000
# 3 29.0522 4.5430 104.9919 0.0000 -3.6212 0.0000
# 4 0.0000 0.0000 0.0000 -27.6405 0.0000 -67.1448
# 5 -2.7950 -5.5291 -3.6212 0.0000 38.0821 0.0000
# 6 0.0000 0.0000 0.0000 -67.1448 0.0000 -152.4582
#
#
#
# Elastic Compliance Matrix: (Units=1/GPa)
#
#
# Indices 1 2 3 4 5 6 
#
# 1 0.025863 0.012152 -0.007581 0.000000 0.002942 0.000000
# 2 0.012152 0.033263 -0.004620 0.000000 0.005282 0.000000
# 3 -0.007581 -0.004620 0.011819 0.000000 -0.000103 0.000000
# 4 0.000000 0.000000 0.000000 0.517868 0.000000 -0.228076
# 5 0.002942 0.005282 -0.000103 0.000000 0.027232 0.000000
# 6 0.000000 0.000000 0.000000 -0.228076 0.000000 0.093889
#
#
# Mechanical properties :
#
#
# Convention : Reuss Voigt Hill
#
# Bulk Modulus (GPa) = 14.11494 25.90561 20.01027
# Shear Modulus (GPa) = 6.81527 -16.47070 -4.82771
#
# Velocity S-wave (km/s) = 1.84106 -2.86208 -1.54952
# Velocity P-wave (km/s) = 3.39695 1.40066 2.59818
#
# Compressibility (1/GPa) = 0.07084691
#
# Stress axis : x y z
#
# Youngs Moduli (GPa) = 38.66530 30.06357 84.61273
#
# Poissons Ratio (x) = -0.36532 0.64144
# Poissons Ratio (y) = -0.46985 0.39088
# Poissons Ratio (z) = 0.29312 0.13888
#
# Static dielectric constant tensor:
#      x y z
#    x 1.693010 0.000000 -0.028360 
#    y 0.000000 1.736180 0.000000 
#    z -0.028360 0.000000 1.755770 
# 
# From -- ./inp_files/89583.got.cif
#   From: 2010.05.17/outbox.cif.g08.bks.cpg/sg10_45_cif.got.tgz:89583.got - 2010.06.03 11:33:40.
