data_PCOD9143033
_publ_section_title
;
Structure prediction by ZEFSAII (Michael W. Deem and Ramdas Pophale) SiO2 
 PCOD9143033
Probable space group: P 2/M
;
_chemical_formula_sum "Si O2"
_cell_formula_units_Z 32
_cell_length_a 24.971918
_cell_length_b 7.838151
_cell_length_c 18.557262
_cell_angle_alpha 90.000000
_cell_angle_beta 29.722508
_cell_angle_gamma 90.000000
_cell_volume 1800.884363
_symmetry_space_group_name_H-M "P 2/M"
_symmetry_group_IT_number 10
_symmetry_cell_setting 'monoclinic'
loop_
_space_group_symop_operation_xyz
x,y,z
-x,y,-z
-x,-y,-z
x,-y,z
loop_
_atom_site_type_symbol
_atom_site_label
_atom_site_fract_x
_atom_site_fract_y
_atom_site_fract_z
Si Si1 0.684627 0.706895 0.134654
Si Si2 0.139363 0.291666 0.952109
Si Si3 0.827413 0.296555 0.836672
Si Si4 0.465443 0.799426 0.461693
Si Si5 0.879330 0.202681 0.624549
Si Si6 0.902878 0.291186 0.284667
Si Si7 0.772504 0.298423 0.301844
Si Si8 0.929094 0.294837 0.413951
O O1 0.680326 0.500000 0.139793
O O2 0.766285 0.760175 0.103164
O O3 0.565875 0.771631 0.291395
O O4 0.738020 0.766009 0.997318
O O5 0.140039 0.500000 0.950500
O O6 0.166131 0.229271 0.840575
O O7 0.022342 0.241342 0.117962
O O8 0.832321 0.500000 0.840556
O O9 0.807907 0.261944 0.775199
O O10 0.947666 0.229876 0.716686
O O11 0.500000 0.728628 0.500000
O O12 0.354472 0.722527 0.562578
O O13 0.445212 0.000000 0.494314
O O14 0.858247 0.250130 0.566643
O O15 0.000000 0.274753 0.500000
O O16 0.883921 0.000000 0.623313
O O17 0.900304 0.500000 0.289609
O O18 0.817360 0.230585 0.325087
O O19 0.888339 0.233433 0.384009
O O20 0.796559 0.500000 0.274579
O O21 0.935281 0.500000 0.404023
#
# Coordination Sequence:
#
# PCOD9143033 Si02
#       8
#     4   4   4   4   4   4   4   4
#     4  10  18  30  51  74  94 121 160 200 238 282
#     4   9  15  26  46  73  99 121 152 196 239 279
#     4   9  16  27  45  69  95 122 153 191 235 281
#     4  11  23  36  48  64  92 128 165 204 243 279
#     4   9  17  27  40  62  94 128 160 189 222 272
#     4   9  16  27  46  75 101 123 155 196 239 283
#     4  10  19  31  51  72  93 124 163 202 238 279
#     4   9  15  26  44  66  96 127 154 185 229 281
#
# _framework density 17.769048000000002
#
# number of rings (size 3 to 8) (size 9 to 14) (size 15 to 20)
#    0.000    2.500    2.500    1.125    0.000    4.000 
#    0.000    0.625    0.000    3.000    0.000    0.875 
#    0.000    7.000    0.000    0.000    0.000    0.000 
#
# Total GULP energy -178392.279460 kJ/mol
# GULP energy per Si atom -5574.758733 kJ/mol
# Density = 1.772860 g / cm^3
# Si number density = 17.769048 Si / 1000 Ang^3
#
#
#
# Elastic Constant Matrix: (Units=GPa)
#
#
# Indices 1 2 3 4 5 6 
#
# 1 117.6798 -4.7732 51.6298 0.0000 29.2763 0.0000
# 2 -4.7732 15.0528 -9.1746 0.0000 4.2791 0.0000
# 3 51.6298 -9.1746 60.1517 0.0000 30.4246 0.0000
# 4 0.0000 0.0000 0.0000 -8.9074 0.0000 -0.2430
# 5 29.2763 4.2791 30.4246 0.0000 33.4363 0.0000
# 6 0.0000 0.0000 0.0000 -0.2430 0.0000 2.4537
#
#
#
# Elastic Compliance Matrix: (Units=1/GPa)
#
#
# Indices 1 2 3 4 5 6 
#
# 1 0.013783 -0.002294 -0.011532 0.000000 -0.001281 0.000000
# 2 -0.002294 0.108546 0.045456 0.000000 -0.053244 0.000000
# 3 -0.011532 0.045456 0.057972 0.000000 -0.048471 0.000000
# 4 0.000000 0.000000 0.000000 -0.111964 0.000000 -0.011086
# 5 -0.001281 -0.053244 -0.048471 0.000000 0.081948 0.000000
# 6 0.000000 0.000000 0.000000 -0.011086 0.000000 0.406444
#
#
# Mechanical properties :
#
#
# Convention : Reuss Voigt Hill
#
# Bulk Modulus (GPa) = 4.10574 29.80537 16.95556
# Shear Modulus (GPa) = 8.70084 15.74335 12.22210
#
# Velocity S-wave (km/s) = 2.21523 2.97980 2.62550
# Velocity P-wave (km/s) = 2.97635 5.35249 4.33058
#
# Compressibility (1/GPa) = 0.24356121
#
# Stress axis : x y z
#
# Youngs Moduli (GPa) = 72.55445 9.21264 17.24960
#
# Poissons Ratio (x) = 0.02113 0.19892
# Poissons Ratio (y) = 0.16644 -0.78410
# Poissons Ratio (z) = 0.83670 -0.41877
#
# Static dielectric constant tensor:
#      x y z
#    x 1.625420 0.000000 0.036200 
#    y 0.000000 1.646210 0.000000 
#    z 0.036200 0.000000 1.593430 
# 
# From -- ./inp_files/56477.got.cif
#   From: 2010.05.17/outbox.cif.g08.bks.cpg/sg10_29_cif.got.tgz:56477.got - 2010.06.03 11:33:40.
