data_PCOD9143685
_publ_section_title
;
Structure prediction by ZEFSAII (Michael W. Deem and Ramdas Pophale) SiO2 
 PCOD9143685
Probable space group: P 2/M
;
_chemical_formula_sum "Si O2"
_cell_formula_units_Z 30
_cell_length_a 15.546451
_cell_length_b 7.648964
_cell_length_c 12.985017
_cell_angle_alpha 90.000000
_cell_angle_beta 106.925044
_cell_angle_gamma 90.000000
_cell_volume 1477.222841
_symmetry_space_group_name_H-M "P 2/M"
_symmetry_group_IT_number 10
_symmetry_cell_setting 'monoclinic'
loop_
_space_group_symop_operation_xyz
x,y,z
-x,y,-z
-x,-y,-z
x,-y,z
loop_
_atom_site_type_symbol
_atom_site_label
_atom_site_fract_x
_atom_site_fract_y
_atom_site_fract_z
Si Si1 0.684321 0.289157 0.287498
Si Si2 0.202705 0.704880 0.863459
Si Si3 0.512438 0.793385 0.731530
Si Si4 0.826870 0.209133 0.751883
Si Si5 0.500000 0.250034 0.500000
Si Si6 0.306541 0.707291 0.475348
Si Si7 0.299945 0.211379 0.104445
Si Si8 0.980769 0.293669 0.107345
O O1 0.682291 0.500000 0.280495
O O2 0.749273 0.220397 0.220948
O O3 0.581313 0.227620 0.242073
O O4 0.714570 0.244415 0.414287
O O5 0.186955 0.500000 0.835306
O O6 0.107351 0.781361 0.867786
O O7 0.269127 0.719604 0.983758
O O8 0.505585 0.689482 0.621550
O O9 0.599693 0.739748 0.825815
O O10 0.521958 0.000000 0.706668
O O11 0.774063 0.263632 0.631332
O O12 0.769706 0.270835 0.831379
O O13 0.928438 0.274024 0.796350
O O14 0.828422 0.000000 0.756070
O O15 0.604267 0.188879 0.528485
O O16 0.330790 0.500000 0.479888
O O17 0.296713 0.000000 0.098985
O O18 0.962239 0.500000 0.085915
O O19 0.000000 0.218499 0.000000
#
# Coordination Sequence:
#
# PCOD9143685 Si02
#       8
#     4   4   4   4   2   4   4   4
#     4   9  21  39  56  79 110 147 188 226 270 323
#     4  10  21  39  60  80 108 144 183 229 277 328
#     4  10  20  34  53  79 112 150 187 223 267 323
#     4  11  22  36  55  84 117 145 176 224 279 330
#     4  10  18  32  54  82 110 144 186 228 274 314
#     4  10  20  35  56  81 111 145 184 228 270 320
#     4  10  21  35  52  81 115 145 179 221 274 329
#     4  10  20  36  59  86 108 137 183 231 279 330
#
# _framework density 20.308377
#
# number of rings (size 3 to 8) (size 9 to 14) (size 15 to 20)
#    0.000    2.000    2.667    0.800    0.000    5.600 
#    0.000    3.333    0.000    4.000    0.000    0.000 
#    0.000    0.000    0.000    0.000    0.000    0.000 
#
# Total GULP energy -167254.416520 kJ/mol
# GULP energy per Si atom -5575.147217 kJ/mol
# Density = 2.026215 g / cm^3
# Si number density = 20.308377 Si / 1000 Ang^3
#
#
#
# Elastic Constant Matrix: (Units=GPa)
#
#
# Indices 1 2 3 4 5 6 
#
# 1 178.3526 7.7606 100.4328 0.0000 -18.8539 0.0000
# 2 7.7606 51.1966 -4.7823 0.0000 -12.4394 0.0000
# 3 100.4328 -4.7823 111.5366 0.0000 -6.3357 0.0000
# 4 0.0000 0.0000 0.0000 34.4442 0.0000 15.6194
# 5 -18.8539 -12.4394 -6.3357 0.0000 37.9735 0.0000
# 6 0.0000 0.0000 0.0000 15.6194 0.0000 18.5742
#
#
#
# Elastic Compliance Matrix: (Units=1/GPa)
#
#
# Indices 1 2 3 4 5 6 
#
# 1 0.012184 -0.001989 -0.010852 0.000000 0.003587 0.000000
# 2 -0.001989 0.021740 0.003101 0.000000 0.006651 0.000000
# 3 -0.010852 0.003101 0.018800 0.000000 -0.001236 0.000000
# 4 0.000000 0.000000 0.000000 0.046927 0.000000 -0.039462
# 5 0.003587 0.006651 -0.001236 0.000000 0.030088 0.000000
# 6 0.000000 0.000000 0.000000 -0.039462 0.000000 0.087022
#
#
# Mechanical properties :
#
#
# Convention : Reuss Voigt Hill
#
# Bulk Modulus (GPa) = 30.08139 60.87866 45.48003
# Shear Modulus (GPa) = 20.21648 34.04336 27.12992
#
# Velocity S-wave (km/s) = 3.15854 4.09873 3.65896
# Velocity P-wave (km/s) = 5.30531 7.24166 6.34775
#
# Compressibility (1/GPa) = 0.03324314
#
# Stress axis : x y z
#
# Youngs Moduli (GPa) = 82.07712 45.99854 53.19056
#
# Poissons Ratio (x) = 0.09149 0.57724
# Poissons Ratio (y) = 0.16325 -0.16494
# Poissons Ratio (z) = 0.89072 -0.14264
#
# Static dielectric constant tensor:
#      x y z
#    x 1.714560 0.000000 -0.016230 
#    y 0.000000 1.839100 0.000000 
#    z -0.016230 0.000000 1.686180 
# 
# From -- ./inp_files/49757.got.cif
#   From: 2010.05.17/outbox.cif.g08.bks.cpg/sg10_25_cif.got.tgz:49757.got - 2010.06.03 11:33:40.
