data_PCOD9143246
_publ_section_title
;
Structure prediction by ZEFSAII (Michael W. Deem and Ramdas Pophale) SiO2 
 PCOD9143246
Probable space group: P 2/M
;
_chemical_formula_sum "Si O2"
_cell_formula_units_Z 32
_cell_length_a 11.922349
_cell_length_b 9.218282
_cell_length_c 21.831709
_cell_angle_alpha 90.000000
_cell_angle_beta 50.467706
_cell_angle_gamma 90.000000
_cell_volume 1850.562295
_symmetry_space_group_name_H-M "P 2/M"
_symmetry_group_IT_number 10
_symmetry_cell_setting 'monoclinic'
loop_
_space_group_symop_operation_xyz
x,y,z
-x,y,-z
-x,-y,-z
x,-y,z
loop_
_atom_site_type_symbol
_atom_site_label
_atom_site_fract_x
_atom_site_fract_y
_atom_site_fract_z
Si Si1 0.173139 0.328817 0.451208
Si Si2 0.942920 0.671938 0.088391
Si Si3 0.668314 0.828299 0.714248
Si Si4 0.815980 0.327203 0.412991
Si Si5 0.646829 0.173505 0.226142
Si Si6 0.856747 0.673198 0.748575
Si Si7 0.047174 0.832085 0.167570
Si Si8 0.286340 0.833805 0.665940
O O1 0.210541 0.500000 0.430838
O O2 0.252909 0.233134 0.373383
O O3 0.208903 0.282603 0.508259
O O4 0.000000 0.318030 0.500000
O O5 0.939148 0.500000 0.102560
O O6 0.782968 0.739844 0.152319
O O7 0.041938 0.752246 0.104388
O O8 0.000000 0.694531 0.000000
O O9 0.497421 0.804514 0.762833
O O10 0.734860 0.743384 0.748372
O O11 0.694834 0.000000 0.711536
O O12 0.798743 0.500000 0.415715
O O13 0.716360 0.255414 0.395665
O O14 0.985197 0.296209 0.337446
O O15 0.624130 0.217452 0.305614
O O16 0.680192 0.000000 0.215929
O O17 0.841534 0.500000 0.757735
O O18 0.861573 0.746233 0.813497
O O19 0.880214 0.829573 0.250705
O O20 0.090321 0.000000 0.147455
O O21 0.324783 0.000000 0.639170
#
# Coordination Sequence:
#
# PCOD9143246 Si02
#       8
#     4   4   4   4   4   4   4   4
#     4  10  19  34  49  67  98 135 174 217 266 315
#     4  10  20  34  56  86 112 134 166 207 251 302
#     4  11  22  34  50  74 102 135 177 219 262 310
#     4   9  17  29  47  69  94 125 167 215 260 306
#     4   9  20  37  53  73 104 139 173 209 253 313
#     4  10  18  31  50  73 102 137 174 214 261 305
#     4   9  17  30  50  78 107 135 170 209 250 299
#     4   8  15  29  48  68  93 126 165 208 252 297
#
# _framework density 17.292041999999999
#
# number of rings (size 3 to 8) (size 9 to 14) (size 15 to 20)
#    0.000    2.500    1.250    2.250    0.000    6.250 
#    0.000    0.625    0.000    4.500    0.000    5.250 
#    0.000    0.000    0.000    0.000    0.000    0.000 
#
# Total GULP energy -178455.171728 kJ/mol
# GULP energy per Si atom -5576.724116 kJ/mol
# Density = 1.725268 g / cm^3
# Si number density = 17.292042 Si / 1000 Ang^3
#
#
#
# Elastic Constant Matrix: (Units=GPa)
#
#
# Indices 1 2 3 4 5 6 
#
# 1 110.8753 71.2126 48.1215 0.0000 32.4769 0.0000
# 2 71.2126 85.8407 51.6954 0.0000 22.8186 0.0000
# 3 48.1215 51.6954 66.2037 0.0000 28.5313 0.0000
# 4 0.0000 0.0000 0.0000 17.6757 0.0000 14.5116
# 5 32.4769 22.8186 28.5313 0.0000 27.2012 0.0000
# 6 0.0000 0.0000 0.0000 14.5116 0.0000 26.0803
#
#
#
# Elastic Compliance Matrix: (Units=1/GPa)
#
#
# Indices 1 2 3 4 5 6 
#
# 1 0.023592 -0.017238 0.004050 0.000000 -0.017955 0.000000
# 2 -0.017238 0.034595 -0.019794 0.000000 0.012323 0.000000
# 3 0.004050 -0.019794 0.041144 0.000000 -0.031386 0.000000
# 4 0.000000 0.000000 0.000000 0.104154 0.000000 -0.057953
# 5 -0.017955 0.012323 -0.031386 0.000000 0.080785 0.000000
# 6 0.000000 0.000000 0.000000 -0.057953 0.000000 0.070589
#
#
# Mechanical properties :
#
#
# Convention : Reuss Voigt Hill
#
# Bulk Modulus (GPa) = 29.97043 67.21984 48.59513
# Shear Modulus (GPa) = 11.57552 20.31745 15.94649
#
# Velocity S-wave (km/s) = 2.59011 3.43149 3.04005
# Velocity P-wave (km/s) = 5.12976 7.39309 6.36287
#
# Compressibility (1/GPa) = 0.03336622
#
# Stress axis : x y z
#
# Youngs Moduli (GPa) = 42.38667 28.90596 24.30489
#
# Poissons Ratio (x) = 0.49828 -0.09843
# Poissons Ratio (y) = 0.73066 0.48110
# Poissons Ratio (z) = -0.17166 0.57218
#
# Static dielectric constant tensor:
#      x y z
#    x 1.599240 0.000000 0.011110 
#    y 0.000000 1.578020 0.000000 
#    z 0.011110 0.000000 1.569590 
# 
# From -- ./inp_files/83354.got.cif
#   From: 2010.05.17/outbox.cif.g08.bks.cpg/sg10_42_cif.got.tgz:83354.got - 2010.06.03 11:33:40.
