data_PCOD9143830
_publ_section_title
;
Structure prediction by ZEFSAII (Michael W. Deem and Ramdas Pophale) SiO2 
 PCOD9143830
Probable space group: P 2/M
;
_chemical_formula_sum "Si O2"
_cell_formula_units_Z 32
_cell_length_a 9.416815
_cell_length_b 13.746797
_cell_length_c 11.736212
_cell_angle_alpha 90.000000
_cell_angle_beta 86.629521
_cell_angle_gamma 90.000000
_cell_volume 1516.636953
_symmetry_space_group_name_H-M "P 2/M"
_symmetry_group_IT_number 10
_symmetry_cell_setting 'monoclinic'
loop_
_space_group_symop_operation_xyz
x,y,z
-x,y,-z
-x,-y,-z
x,-y,z
loop_
_atom_site_type_symbol
_atom_site_label
_atom_site_fract_x
_atom_site_fract_y
_atom_site_fract_z
Si Si1 0.107580 0.106231 0.864802
Si Si2 0.839499 0.882342 0.534397
Si Si3 0.218389 0.108688 0.200404
Si Si4 0.350957 0.887655 0.661729
Si Si5 0.221184 0.387609 0.186967
Si Si6 0.936779 0.323103 0.117363
Si Si7 0.340763 0.607340 0.921208
Si Si8 0.445882 0.750055 0.203966
O O1 0.214104 0.108330 0.752869
O O2 0.118672 0.214860 0.913920
O O3 0.941042 0.105985 0.840178
O O4 0.137234 0.000000 0.920498
O O5 0.799306 0.864061 0.666237
O O6 0.716813 0.850481 0.453022
O O7 0.000000 0.846755 0.500000
O O8 0.844921 0.000000 0.519724
O O9 0.333803 0.180743 0.142939
O O10 0.276590 0.000000 0.190256
O O11 0.467848 0.817812 0.712355
O O12 0.403249 0.000000 0.647281
O O13 0.197892 0.500000 0.216716
O O14 0.340493 0.333735 0.255817
O O15 0.070481 0.330189 0.194968
O O16 0.285188 0.385162 0.054069
O O17 0.796955 0.381967 0.153489
O O18 0.000000 0.369466 0.000000
O O19 0.404964 0.500000 0.902570
O O20 0.443108 0.693701 0.880000
#
# Coordination Sequence:
#
# PCOD9143830 Si02
#       8
#     4   4   4   4   4   4   4   4
#     4  10  18  33  53  76 110 145 180 214 250 307
#     4   9  16  31  55  79 103 136 179 224 266 303
#     4  10  20  33  53  79 108 143 178 215 258 312
#     4  10  20  33  53  79 108 143 178 215 258 312
#     4  10  21  37  57  79 103 134 176 229 278 312
#     4  10  19  35  57  80 106 135 179 227 264 308
#     4  10  21  37  57  79 103 134 176 229 278 312
#     4  12  21  32  51  75 115 142 168 207 267 330
#
# _framework density 21.099315000000001
#
# number of rings (size 3 to 8) (size 9 to 14) (size 15 to 20)
#    0.000    1.875    3.750    1.500    0.000    3.250 
#    0.000    1.875    0.000    6.000    0.000    7.000 
#    0.000    6.000    0.000    0.000    0.000    0.000 
#
# Total GULP energy -178405.616606 kJ/mol
# GULP energy per Si atom -5575.175519 kJ/mol
# Density = 2.105129 g / cm^3
# Si number density = 21.099315 Si / 1000 Ang^3
#
#
#
# Elastic Constant Matrix: (Units=GPa)
#
#
# Indices 1 2 3 4 5 6 
#
# 1 123.1938 51.4957 11.9227 0.0000 17.0000 0.0000
# 2 51.4957 127.5354 14.9758 0.0000 3.7545 0.0000
# 3 11.9227 14.9758 31.0131 0.0000 10.4650 0.0000
# 4 0.0000 0.0000 0.0000 9.4971 0.0000 2.4025
# 5 17.0000 3.7545 10.4650 0.0000 25.7050 0.0000
# 6 0.0000 0.0000 0.0000 2.4025 0.0000 30.7340
#
#
#
# Elastic Compliance Matrix: (Units=1/GPa)
#
#
# Indices 1 2 3 4 5 6 
#
# 1 0.010749 -0.004157 0.000080 0.000000 -0.006534 0.000000
# 2 -0.004157 0.009925 -0.004212 0.000000 0.003014 0.000000
# 3 0.000080 -0.004212 0.039482 0.000000 -0.015511 0.000000
# 4 0.000000 0.000000 0.000000 0.107419 0.000000 -0.008397
# 5 -0.006534 0.003014 -0.015511 0.000000 0.049099 0.000000
# 6 0.000000 0.000000 0.000000 -0.008397 0.000000 0.033194
#
#
# Mechanical properties :
#
#
# Convention : Reuss Voigt Hill
#
# Bulk Modulus (GPa) = 22.94735 48.72563 35.83649
# Shear Modulus (GPa) = 17.79539 26.74377 22.26958
#
# Velocity S-wave (km/s) = 2.90730 3.56408 3.25232
# Velocity P-wave (km/s) = 4.70844 6.33092 5.57897
#
# Compressibility (1/GPa) = 0.04357801
#
# Stress axis : x y z
#
# Youngs Moduli (GPa) = 93.03231 100.75205 25.32822
#
# Poissons Ratio (x) = 0.41885 -0.00203
# Poissons Ratio (y) = 0.38675 0.10668
# Poissons Ratio (z) = -0.00744 0.42434
#
# Static dielectric constant tensor:
#      x y z
#    x 1.835230 0.000000 0.027670 
#    y 0.000000 1.819230 0.000000 
#    z 0.027670 0.000000 1.777710 
# 
# From -- ./inp_files/29576.got.cif
#   From: 2010.05.17/outbox.cif.g08.bks.cpg/sg10_15_cif.got.tgz:29576.got - 2010.06.03 11:33:40.
