data_PCOD9143295
_publ_section_title
;
Structure prediction by ZEFSAII (Michael W. Deem and Ramdas Pophale) SiO2 
 PCOD9143295
Probable space group: P 2/M
;
_chemical_formula_sum "Si O2"
_cell_formula_units_Z 28
_cell_length_a 10.357676
_cell_length_b 9.291719
_cell_length_c 31.159610
_cell_angle_alpha 90.000000
_cell_angle_beta 146.930087
_cell_angle_gamma 90.000000
_cell_volume 1636.342089
_symmetry_space_group_name_H-M "P 2/M"
_symmetry_group_IT_number 10
_symmetry_cell_setting 'monoclinic'
loop_
_space_group_symop_operation_xyz
x,y,z
-x,y,-z
-x,-y,-z
x,-y,z
loop_
_atom_site_type_symbol
_atom_site_label
_atom_site_fract_x
_atom_site_fract_y
_atom_site_fract_z
Si Si1 0.451426 0.828528 0.688068
Si Si2 0.454310 0.330024 0.841712
Si Si3 0.917787 0.672340 0.668993
Si Si4 0.161224 0.834369 0.001635
Si Si5 0.500698 0.171288 0.399130
Si Si6 0.232218 0.329572 0.156573
Si Si7 0.063545 0.828452 0.416329
O O1 0.455713 0.797594 0.638700
O O2 0.648698 0.741889 0.769010
O O3 0.193710 0.794496 0.635843
O O4 0.489655 0.000000 0.704492
O O5 0.475931 0.500000 0.857361
O O6 0.594860 0.239614 0.916302
O O7 0.585942 0.306512 0.832693
O O8 0.180032 0.292641 0.759732
O O9 0.897554 0.500000 0.660940
O O10 0.716853 0.739437 0.642843
O O11 0.895020 0.740796 0.615470
O O12 0.192296 0.000000 0.997608
O O13 0.000000 0.831862 0.000000
O O14 0.011813 0.745732 0.925270
O O15 0.733354 0.201654 0.492272
O O16 0.452227 0.000000 0.389696
O O17 0.200868 0.500000 0.153020
O O18 0.070308 0.000000 0.408831
#
# Coordination Sequence:
#
# PCOD9143295 Si02
#       7
#     4   4   4   4   4   4   4
#     4  10  20  35  56  79 106 139 180 226 267 314
#     4   9  18  32  49  73 106 140 173 212 261 314
#     4  11  22  36  54  79 110 143 179 220 265 317
#     4   9  17  28  47  77 107 134 171 216 260 308
#     4  10  22  38  54  77 107 142 181 222 271 320
#     4  10  18  31  51  76 108 141 173 212 264 318
#     4  10  20  36  58  79 103 138 181 227 272 316
#
# _framework density 17.111336999999999
#
# number of rings (size 3 to 8) (size 9 to 14) (size 15 to 20)
#    0.000    2.143    1.429    2.143    0.000    8.000 
#    0.000    0.000    0.000    3.429    0.000    6.000 
#    0.000    0.000    0.000    0.000    0.000    0.000 
#
# Total GULP energy -156284.226662 kJ/mol
# GULP energy per Si atom -5581.579524 kJ/mol
# Density = 1.707239 g / cm^3
# Si number density = 17.111337 Si / 1000 Ang^3
#
#
#
# Elastic Constant Matrix: (Units=GPa)
#
#
# Indices 1 2 3 4 5 6 
#
# 1 33.9662 17.5346 -0.5404 0.0000 2.6932 0.0000
# 2 17.5346 44.5584 44.0645 0.0000 3.7745 0.0000
# 3 -0.5404 44.0645 97.5713 0.0000 8.8656 0.0000
# 4 0.0000 0.0000 0.0000 24.9584 0.0000 14.3000
# 5 2.6932 3.7745 8.8656 0.0000 -2.9918 0.0000
# 6 0.0000 0.0000 0.0000 14.3000 0.0000 3.8375
#
#
#
# Elastic Compliance Matrix: (Units=1/GPa)
#
#
# Indices 1 2 3 4 5 6 
#
# 1 0.042790 -0.030547 0.011057 0.000000 0.032746 0.000000
# 2 -0.030547 0.062338 -0.025976 0.000000 -0.025824 0.000000
# 3 0.011057 -0.025976 0.018999 0.000000 0.033481 0.000000
# 4 0.000000 0.000000 0.000000 -0.035299 0.000000 0.131539
# 5 0.032746 -0.025824 0.033481 0.000000 -0.238131 0.000000
# 6 0.000000 0.000000 0.000000 0.131539 0.000000 -0.229580
#
#
# Mechanical properties :
#
#
# Convention : Reuss Voigt Hill
#
# Bulk Modulus (GPa) = 30.12395 33.13480 31.62937
# Shear Modulus (GPa) = -18.05792 12.82996 -2.61398
#
# Velocity S-wave (km/s) = -3.25209 2.74121 -1.23731
# Velocity P-wave (km/s) = 1.88187 5.42450 4.05997
#
# Compressibility (1/GPa) = 0.03319618
#
# Stress axis : x y z
#
# Youngs Moduli (GPa) = 23.36995 16.04148 52.63468
#
# Poissons Ratio (x) = 0.49002 -0.58198
# Poissons Ratio (y) = 0.71388 1.36722
# Poissons Ratio (z) = -0.25840 0.41669
#
# Static dielectric constant tensor:
#      x y z
#    x 1.549170 0.000000 0.004110 
#    y 0.000000 1.569540 0.000000 
#    z 0.004110 0.000000 1.562540 
# 
# From -- ./inp_files/37038.got.cif
#   From: 2010.05.17/outbox.cif.g08.bks.cpg/sg10_19_cif.got.tgz:37038.got - 2010.06.03 11:33:40.
