data_PCOD9143396
_publ_section_title
;
Structure prediction by ZEFSAII (Michael W. Deem and Ramdas Pophale) SiO2 
 PCOD9143396
Probable space group: P 2/M
;
_chemical_formula_sum "Si O2"
_cell_formula_units_Z 32
_cell_length_a 20.453617
_cell_length_b 9.230144
_cell_length_c 25.368575
_cell_angle_alpha 90.000000
_cell_angle_beta 157.003807
_cell_angle_gamma 90.000000
_cell_volume 1871.046980
_symmetry_space_group_name_H-M "P 2/M"
_symmetry_group_IT_number 10
_symmetry_cell_setting 'monoclinic'
loop_
_space_group_symop_operation_xyz
x,y,z
-x,y,-z
-x,-y,-z
x,-y,z
loop_
_atom_site_type_symbol
_atom_site_label
_atom_site_fract_x
_atom_site_fract_y
_atom_site_fract_z
Si Si1 0.167462 0.327699 0.657394
Si Si2 0.459690 0.671976 0.594547
Si Si3 0.188475 0.326737 0.898948
Si Si4 0.858250 0.328288 0.718329
Si Si5 0.335415 0.827422 0.604320
Si Si6 0.337708 0.833466 0.340888
Si Si7 0.022003 0.672378 0.663356
Si Si8 0.465417 0.172252 0.818714
O O1 0.197820 0.500000 0.673504
O O2 0.127490 0.299096 0.688863
O O3 0.323249 0.240904 0.750281
O O4 0.000000 0.291899 0.500000
O O5 0.482206 0.500000 0.617087
O O6 0.286338 0.695067 0.433104
O O7 0.438259 0.750049 0.634320
O O8 0.605916 0.741730 0.667819
O O9 0.216220 0.500000 0.923202
O O10 0.124562 0.295803 0.792356
O O11 0.036056 0.289315 0.825136
O O12 0.356588 0.243067 0.036924
O O13 0.856372 0.500000 0.728759
O O14 0.807355 0.239458 0.732199
O O15 0.413011 0.798737 0.719311
O O16 0.148904 0.761890 0.464764
O O17 0.330682 0.000000 0.592091
O O18 0.500000 0.832115 0.500000
O O19 0.301395 0.000000 0.300596
O O20 0.980035 0.500000 0.632836
O O21 0.471630 0.000000 0.830792
#
# Coordination Sequence:
#
# PCOD9143396 Si02
#       8
#     4   4   4   4   4   4   4   4
#     4  10  20  36  62  86 108 142 185 231 278 329
#     4  10  18  31  53  80 110 142 184 233 274 321
#     4  10  21  38  58  81 112 147 187 231 274 326
#     4   9  17  31  52  78 108 144 182 225 274 323
#     4  11  22  35  54  81 112 146 183 228 279 331
#     4   9  17  28  45  76 114 147 180 220 271 328
#     4  10  20  37  60  86 109 139 186 232 277 328
#     4  11  25  40  55  80 115 150 185 225 278 338
#
# _framework density 17.102723999999998
#
# number of rings (size 3 to 8) (size 9 to 14) (size 15 to 20)
#    0.000    2.000    2.500    1.500    0.000    5.750 
#    0.000    2.500    0.000    0.750    0.000    5.250 
#    0.000    0.000    0.000    0.000    0.000    0.000 
#
# Total GULP energy -178641.006691 kJ/mol
# GULP energy per Si atom -5582.531459 kJ/mol
# Density = 1.706380 g / cm^3
# Si number density = 17.102724 Si / 1000 Ang^3
#
#
#
# Elastic Constant Matrix: (Units=GPa)
#
#
# Indices 1 2 3 4 5 6 
#
# 1 166.3989 94.9306 80.6856 0.0000 18.3441 0.0000
# 2 94.9306 86.6775 69.9482 0.0000 5.7434 0.0000
# 3 80.6856 69.9482 107.1048 0.0000 12.1312 0.0000
# 4 0.0000 0.0000 0.0000 6.2720 0.0000 -11.0482
# 5 18.3441 5.7434 12.1312 0.0000 19.6850 0.0000
# 6 0.0000 0.0000 0.0000 -11.0482 0.0000 21.7225
#
#
#
# Elastic Compliance Matrix: (Units=1/GPa)
#
#
# Indices 1 2 3 4 5 6 
#
# 1 0.018217 -0.019377 0.000230 0.000000 -0.011464 0.000000
# 2 -0.019377 0.045160 -0.016608 0.000000 0.015116 0.000000
# 3 0.000230 -0.016608 0.020947 0.000000 -0.008278 0.000000
# 4 0.000000 0.000000 0.000000 1.531787 0.000000 0.779078
# 5 -0.011464 0.015116 -0.008278 0.000000 0.062174 0.000000
# 6 0.000000 0.000000 0.000000 0.779078 0.000000 0.442280
#
#
# Mechanical properties :
#
#
# Convention : Reuss Voigt Hill
#
# Bulk Modulus (GPa) = 78.03922 94.59000 86.31461
# Shear Modulus (GPa) = 2.27651 17.17703 9.72677
#
# Velocity S-wave (km/s) = 1.15498 3.17258 2.38739
# Velocity P-wave (km/s) = 6.89256 8.29743 7.62741
#
# Compressibility (1/GPa) = 0.01281407
#
# Stress axis : x y z
#
# Youngs Moduli (GPa) = 54.89527 22.14349 47.73937
#
# Poissons Ratio (x) = 0.42908 -0.01099
# Poissons Ratio (y) = 1.06372 0.79285
# Poissons Ratio (z) = -0.01264 0.36776
#
# Static dielectric constant tensor:
#      x y z
#    x 1.570650 0.000000 -0.002320 
#    y 0.000000 1.568000 0.000000 
#    z -0.002320 0.000000 1.546090 
# 
# From -- ./inp_files/86106.got.cif
#   From: 2010.05.17/outbox.cif.g08.bks.cpg/sg10_44_cif.got.tgz:86106.got - 2010.06.03 11:33:40.
