data_PCOD9143708
_publ_section_title
;
Structure prediction by ZEFSAII (Michael W. Deem and Ramdas Pophale) SiO2 
 PCOD9143708
Probable space group: P 2/M
;
_chemical_formula_sum "Si O2"
_cell_formula_units_Z 32
_cell_length_a 10.936101
_cell_length_b 18.559031
_cell_length_c 10.902489
_cell_angle_alpha 90.000000
_cell_angle_beta 54.042580
_cell_angle_gamma 90.000000
_cell_volume 1791.164283
_symmetry_space_group_name_H-M "P 2/M"
_symmetry_group_IT_number 10
_symmetry_cell_setting 'monoclinic'
loop_
_space_group_symop_operation_xyz
x,y,z
-x,y,-z
-x,-y,-z
x,-y,z
loop_
_atom_site_type_symbol
_atom_site_label
_atom_site_fract_x
_atom_site_fract_y
_atom_site_fract_z
Si Si1 0.669111 0.712936 0.584696
Si Si2 0.895857 0.580973 0.441038
Si Si3 0.852516 0.810076 0.652584
Si Si4 0.921344 0.311196 0.803415
Si Si5 0.819594 0.080963 0.129138
Si Si6 0.358399 0.278113 0.891507
Si Si7 0.350139 0.126303 0.021598
Si Si8 0.795013 0.228687 0.263624
O O1 0.768904 0.641142 0.534809
O O2 0.736461 0.780614 0.620493
O O3 0.510654 0.694238 0.740712
O O4 0.686653 0.740258 0.434170
O O5 0.841361 0.500000 0.448516
O O6 0.000000 0.579026 0.500000
O O7 0.997247 0.614165 0.272632
O O8 0.903220 0.736545 0.691434
O O9 0.775221 0.860707 0.799076
O O10 0.000000 0.841601 0.500000
O O11 0.036955 0.259490 0.809924
O O12 0.755513 0.322600 0.956292
O O13 0.785089 0.142792 0.249415
O O14 0.788111 0.000000 0.191244
O O15 0.727106 0.091985 0.054790
O O16 0.000000 0.087443 0.000000
O O17 0.256093 0.257562 0.836651
O O18 0.394908 0.206095 0.946989
O O19 0.500000 0.094512 0.000000
#
# Coordination Sequence:
#
# PCOD9143708 Si02
#       8
#     4   4   4   4   4   4   4   4
#     4  11  19  32  54  81 112 138 179 231 275 322
#     4  10  19  34  53  78 113 148 181 218 274 336
#     4  11  17  30  51  84 101 135 176 232 275 318
#     4  10  18  32  55  79 109 136 187 226 271 317
#     4  10  21  37  56  81 113 152 189 225 279 341
#     4  10  20  31  52  82 110 134 179 237 275 313
#     4  10  20  33  55  84 110 138 181 239 288 322
#     4  10  19  34  56  81 104 142 184 230 265 324
#
# _framework density 17.865475
#
# number of rings (size 3 to 8) (size 9 to 14) (size 15 to 20)
#    0.000    1.750    5.000    3.000    0.000    0.250 
#    0.000    0.625    0.000   20.625    0.000    0.000 
#    0.000    0.000    0.000    0.000    0.000    0.000 
#
# Total GULP energy -178178.398586 kJ/mol
# GULP energy per Si atom -5568.074956 kJ/mol
# Density = 1.782481 g / cm^3
# Si number density = 17.865475 Si / 1000 Ang^3
#
#
#
# Elastic Constant Matrix: (Units=GPa)
#
#
# Indices 1 2 3 4 5 6 
#
# 1 64.1109 10.4155 22.8093 0.0000 3.4341 0.0000
# 2 10.4155 86.8815 36.9115 0.0000 -5.5551 0.0000
# 3 22.8093 36.9115 121.3779 0.0000 -23.9737 0.0000
# 4 0.0000 0.0000 0.0000 13.8920 0.0000 5.2296
# 5 3.4341 -5.5551 -23.9737 0.0000 33.8072 0.0000
# 6 0.0000 0.0000 0.0000 5.2296 0.0000 10.6257
#
#
#
# Elastic Compliance Matrix: (Units=1/GPa)
#
#
# Indices 1 2 3 4 5 6 
#
# 1 0.017380 -0.000691 -0.003985 0.000000 -0.004705 0.000000
# 2 -0.000691 0.013263 -0.004023 0.000000 -0.000603 0.000000
# 3 -0.003985 -0.004023 0.011815 0.000000 0.008122 0.000000
# 4 0.000000 0.000000 0.000000 0.088353 0.000000 -0.043484
# 5 -0.004705 -0.000603 0.008122 0.000000 0.035718 0.000000
# 6 0.000000 0.000000 0.000000 -0.043484 0.000000 0.115513
#
#
# Mechanical properties :
#
#
# Convention : Reuss Voigt Hill
#
# Bulk Modulus (GPa) = 39.90349 45.84922 42.87636
# Shear Modulus (GPa) = 16.24463 25.14727 20.69595
#
# Velocity S-wave (km/s) = 3.01869 3.75586 3.40727
# Velocity P-wave (km/s) = 5.87656 6.67292 6.28737
#
# Compressibility (1/GPa) = 0.02506046
#
# Stress axis : x y z
#
# Youngs Moduli (GPa) = 57.53697 75.39639 84.63708
#
# Poissons Ratio (x) = 0.05212 0.33729
# Poissons Ratio (y) = 0.03978 0.34046
# Poissons Ratio (z) = 0.22929 0.30329
#
# Static dielectric constant tensor:
#      x y z
#    x 1.661270 0.000000 -0.013190 
#    y 0.000000 1.595760 0.000000 
#    z -0.013190 0.000000 1.636560 
# 
# From -- ./inp_files/47809.got.cif
#   From: 2010.05.17/outbox.cif.g08.bks.cpg/sg10_24_cif.got.tgz:47809.got - 2010.06.03 11:33:40.
