data_PCOD9143272
_publ_section_title
;
Structure prediction by ZEFSAII (Michael W. Deem and Ramdas Pophale) SiO2 
 PCOD9143272
Probable space group: P 2/M
;
_chemical_formula_sum "Si O2"
_cell_formula_units_Z 28
_cell_length_a 15.225341
_cell_length_b 7.458987
_cell_length_c 17.746963
_cell_angle_alpha 90.000000
_cell_angle_beta 45.370956
_cell_angle_gamma 90.000000
_cell_volume 1434.331696
_symmetry_space_group_name_H-M "P 2/M"
_symmetry_group_IT_number 10
_symmetry_cell_setting 'monoclinic'
loop_
_space_group_symop_operation_xyz
x,y,z
-x,y,-z
-x,-y,-z
x,-y,z
loop_
_atom_site_type_symbol
_atom_site_label
_atom_site_fract_x
_atom_site_fract_y
_atom_site_fract_z
Si Si1 0.062224 0.706452 0.185056
Si Si2 0.674650 0.783097 0.243033
Si Si3 0.396650 0.209634 0.415303
Si Si4 0.186221 0.283941 0.428649
Si Si5 0.898330 0.290563 0.003359
Si Si6 0.223626 0.782072 0.654316
Si Si7 0.927317 0.719347 0.657234
O O1 0.105453 0.500000 0.158949
O O2 0.103579 0.784420 0.240483
O O3 0.913405 0.711361 0.276660
O O4 0.099222 0.788053 0.082247
O O5 0.533996 0.717497 0.321773
O O6 0.766553 0.720681 0.122573
O O7 0.729467 0.730539 0.291220
O O8 0.675687 0.000000 0.239468
O O9 0.310456 0.224611 0.394191
O O10 0.317984 0.282360 0.533137
O O11 0.414079 0.000000 0.422535
O O12 0.185686 0.500000 0.429523
O O13 0.161853 0.226274 0.357408
O O14 0.065977 0.225652 0.549164
O O15 0.932943 0.500000 0.972843
O O16 0.000000 0.212742 0.000000
O O17 0.217126 0.000000 0.655267
O O18 0.928445 0.500000 0.658087
#
# Coordination Sequence:
#
# PCOD9143272 Si02
#       7
#     4   4   4   4   4   4   4
#     4  10  18  31  51  72 100 129 154 194 245 286
#     4  10  21  35  50  67  96 136 168 194 233 287
#     4  10  20  33  48  71 101 130 160 198 241 283
#     4   9  16  29  50  73  96 125 160 195 236 291
#     4  10  20  33  50  73  98 124 160 207 244 273
#     4  10  19  31  48  71  98 129 162 194 232 286
#     4   8  15  28  48  73  98 125 157 192 238 291
#
# _framework density 19.521287000000001
#
# number of rings (size 3 to 8) (size 9 to 14) (size 15 to 20)
#    0.000    2.429    2.857    1.286    0.000    3.143 
#    0.000    2.143    0.000    3.429    0.000    6.000 
#    0.000    0.000    0.000    0.000    0.000    0.000 
#
# Total GULP energy -156246.572328 kJ/mol
# GULP energy per Si atom -5580.234726 kJ/mol
# Density = 1.947686 g / cm^3
# Si number density = 19.521287 Si / 1000 Ang^3
#
#
#
# Elastic Constant Matrix: (Units=GPa)
#
#
# Indices 1 2 3 4 5 6 
#
# 1 83.5656 -10.3807 60.9714 0.0000 37.9943 0.0000
# 2 -10.3807 56.7960 -6.6216 0.0000 6.4285 0.0000
# 3 60.9714 -6.6216 131.0549 0.0000 27.8136 0.0000
# 4 0.0000 0.0000 0.0000 15.3136 0.0000 -4.0981
# 5 37.9943 6.4285 27.8136 0.0000 38.3901 0.0000
# 6 0.0000 0.0000 0.0000 -4.0981 0.0000 15.3529
#
#
#
# Elastic Compliance Matrix: (Units=1/GPa)
#
#
# Indices 1 2 3 4 5 6 
#
# 1 0.030660 0.007496 -0.008484 0.000000 -0.025453 0.000000
# 2 0.007496 0.020157 -0.000210 0.000000 -0.010641 0.000000
# 3 -0.008484 -0.000210 0.011554 0.000000 0.000061 0.000000
# 4 0.000000 0.000000 0.000000 0.070325 0.000000 0.018771
# 5 -0.025453 -0.010641 0.000061 0.000000 0.052977 0.000000
# 6 0.000000 0.000000 0.000000 0.018771 0.000000 0.070145
#
#
# Mechanical properties :
#
#
# Convention : Reuss Voigt Hill
#
# Bulk Modulus (GPa) = 16.67399 39.92829 28.30114
# Shear Modulus (GPa) = 17.97236 28.97449 23.47343
#
# Velocity S-wave (km/s) = 3.03752 3.85678 3.47140
# Velocity P-wave (km/s) = 4.56750 6.35068 5.53142
#
# Compressibility (1/GPa) = 0.05997363
#
# Stress axis : x y z
#
# Youngs Moduli (GPa) = 32.61576 49.61116 86.55190
#
# Poissons Ratio (x) = -0.37187 0.73427
# Poissons Ratio (y) = -0.24447 0.01821
# Poissons Ratio (z) = 0.27670 0.01044
#
# Static dielectric constant tensor:
#      x y z
#    x 1.682060 0.000000 0.034520 
#    y 0.000000 1.776420 0.000000 
#    z 0.034520 0.000000 1.666090 
# 
# From -- ./inp_files/55013.got.cif
#   From: 2010.05.17/outbox.cif.g08.bks.cpg/sg10_28_cif.got.tgz:55013.got - 2010.06.03 11:33:40.
