data_PCOD9143651
_publ_section_title
;
Structure prediction by ZEFSAII (Michael W. Deem and Ramdas Pophale) SiO2 
 PCOD9143651
Probable space group: P 2/M
;
_chemical_formula_sum "Si O2"
_cell_formula_units_Z 28
_cell_length_a 28.693552
_cell_length_b 9.036155
_cell_length_c 10.166247
_cell_angle_alpha 90.000000
_cell_angle_beta 144.630307
_cell_angle_gamma 90.000000
_cell_volume 1525.789503
_symmetry_space_group_name_H-M "P 2/M"
_symmetry_group_IT_number 10
_symmetry_cell_setting 'monoclinic'
loop_
_space_group_symop_operation_xyz
x,y,z
-x,y,-z
-x,-y,-z
x,-y,z
loop_
_atom_site_type_symbol
_atom_site_label
_atom_site_fract_x
_atom_site_fract_y
_atom_site_fract_z
Si Si1 0.704698 0.180157 0.461147
Si Si2 0.419384 0.176422 0.597172
Si Si3 0.975197 0.669798 0.597696
Si Si4 0.135347 0.175404 0.031152
Si Si5 0.645510 0.324019 0.814662
Si Si6 0.601169 0.176408 0.981238
Si Si7 0.184485 0.174027 0.837628
O O1 0.640662 0.225013 0.425682
O O2 0.793877 0.227287 0.708878
O O3 0.705151 0.000000 0.462639
O O4 0.670540 0.226017 0.241554
O O5 0.397658 0.258394 0.413019
O O6 0.513433 0.197843 0.844235
O O7 0.406691 0.000000 0.548047
O O8 0.960564 0.500000 0.601605
O O9 0.894502 0.766357 0.418336
O O10 0.000000 0.671373 0.500000
O O11 0.051494 0.738759 0.847634
O O12 0.121296 0.000000 0.017667
O O13 0.168470 0.192393 0.957661
O O14 0.643039 0.500000 0.807092
O O15 0.605791 0.260746 0.855048
O O16 0.737011 0.264896 0.020324
O O17 0.610012 0.000000 0.977474
O O18 0.196768 0.000000 0.841208
#
# Coordination Sequence:
#
# PCOD9143651 Si02
#       7
#     4   4   4   4   4   4   4
#     4   9  17  33  57  84 108 135 177 228 271 313
#     4  10  19  36  59  82 104 135 182 230 271 315
#     4   9  17  28  45  75 112 141 170 209 260 317
#     4   9  16  29  51  78 107 136 172 217 264 313
#     4  12  24  36  52  76 111 147 180 220 269 321
#     4  10  21  36  57  80 106 141 181 224 271 319
#     4  10  18  32  54  78 104 136 179 223 266 311
#
# _framework density 18.351154000000001
#
# number of rings (size 3 to 8) (size 9 to 14) (size 15 to 20)
#    0.000    2.143    1.429    3.000    0.000    6.286 
#    0.000    1.429    0.000    2.571    0.000    6.000 
#    0.000    0.000    0.000    0.000    0.000    0.000 
#
# Total GULP energy -156282.233153 kJ/mol
# GULP energy per Si atom -5581.508327 kJ/mol
# Density = 1.830939 g / cm^3
# Si number density = 18.351154 Si / 1000 Ang^3
#
#
#
# Elastic Constant Matrix: (Units=GPa)
#
#
# Indices 1 2 3 4 5 6 
#
# 1 8.9877 5.1930 4.7380 0.0000 -1.0693 0.0000
# 2 5.1930 43.7582 16.9931 0.0000 4.2319 0.0000
# 3 4.7380 16.9931 59.7829 0.0000 12.0301 0.0000
# 4 0.0000 0.0000 0.0000 3.4593 0.0000 6.2830
# 5 -1.0693 4.2319 12.0301 0.0000 25.8017 0.0000
# 6 0.0000 0.0000 0.0000 6.2830 0.0000 8.8945
#
#
#
# Elastic Compliance Matrix: (Units=1/GPa)
#
#
# Indices 1 2 3 4 5 6 
#
# 1 0.124334 -0.012518 -0.008548 0.000000 0.011191 0.000000
# 2 -0.012518 0.026967 -0.006267 0.000000 -0.002020 0.000000
# 3 -0.008548 -0.006267 0.021023 0.000000 -0.009128 0.000000
# 4 0.000000 0.000000 0.000000 -1.021427 0.000000 0.721532
# 5 0.011191 -0.002020 -0.009128 0.000000 0.043808 0.000000
# 6 0.000000 0.000000 0.000000 0.721532 0.000000 -0.397258
#
#
# Mechanical properties :
#
#
# Convention : Reuss Voigt Hill
#
# Bulk Modulus (GPa) = 8.49915 18.48633 13.49274
# Shear Modulus (GPa) = -4.50992 13.33807 4.41407
#
# Velocity S-wave (km/s) = -1.56936 2.69889 1.55260
# Velocity P-wave (km/s) = 1.16515 4.45057 3.25309
#
# Compressibility (1/GPa) = 0.11765883
#
# Stress axis : x y z
#
# Youngs Moduli (GPa) = 8.04284 37.08167 47.56734
#
# Poissons Ratio (x) = 0.46420 0.40659
# Poissons Ratio (y) = 0.10068 0.29810
# Poissons Ratio (z) = 0.06875 0.23238
#
# Static dielectric constant tensor:
#      x y z
#    x 1.615000 0.000000 0.009230 
#    y 0.000000 1.609530 0.000000 
#    z 0.009230 0.000000 1.637400 
# 
# From -- ./inp_files/37259.got.cif
#   From: 2010.05.17/outbox.cif.g08.bks.cpg/sg10_19_cif.got.tgz:37259.got - 2010.06.03 11:33:40.
