data_PCOD9143740
_publ_section_title
;
Structure prediction by ZEFSAII (Michael W. Deem and Ramdas Pophale) SiO2 
 PCOD9143740
Probable space group: P 2/M
;
_chemical_formula_sum "Si O2"
_cell_formula_units_Z 32
_cell_length_a 31.122139
_cell_length_b 8.350972
_cell_length_c 24.499512
_cell_angle_alpha 90.000000
_cell_angle_beta 16.532801
_cell_angle_gamma 90.000000
_cell_volume 1811.941511
_symmetry_space_group_name_H-M "P 2/M"
_symmetry_group_IT_number 10
_symmetry_cell_setting 'monoclinic'
loop_
_space_group_symop_operation_xyz
x,y,z
-x,y,-z
-x,-y,-z
x,-y,z
loop_
_atom_site_type_symbol
_atom_site_label
_atom_site_fract_x
_atom_site_fract_y
_atom_site_fract_z
Si Si1 0.137964 0.815437 0.174704
Si Si2 0.419453 0.193166 0.540761
Si Si3 0.015947 0.806676 0.153566
Si Si4 0.920581 0.690087 0.042277
Si Si5 0.310798 0.195706 0.862507
Si Si6 0.831289 0.184821 0.475520
Si Si7 0.954241 0.689571 0.495885
Si Si8 0.666024 0.193969 0.780062
O O1 0.988386 0.817739 0.318408
O O2 0.087699 0.724689 0.290020
O O3 0.171311 0.000000 0.148507
O O4 0.267548 0.751422 0.976383
O O5 0.500000 0.231127 0.500000
O O6 0.255640 0.268833 0.739504
O O7 0.530699 0.244671 0.356438
O O8 0.403529 0.000000 0.557946
O O9 0.880450 0.744692 0.357422
O O10 0.014021 0.000000 0.159576
O O11 0.012713 0.759151 0.094909
O O12 0.175356 0.754524 0.986573
O O13 0.940371 0.500000 0.016240
O O14 0.000000 0.754302 0.000000
O O15 0.308154 0.000000 0.866834
O O16 0.713193 0.256760 0.662296
O O17 0.785337 0.000000 0.521944
O O18 0.931655 0.500000 0.527212
O O19 0.800078 0.761340 0.658549
O O20 0.000000 0.751875 0.500000
O O21 0.664759 0.000000 0.778653
O O22 0.500000 0.248286 0.000000
#
# Coordination Sequence:
#
# PCOD9143740 Si02
#       8
#     4   4   4   4   4   4   4   4
#     4   8  14  27  48  72  98 126 157 198 245 287
#     4  10  18  32  56  80  98 121 158 202 248 295
#     4   9  15  29  52  73  94 124 160 200 244 289
#     4  11  24  37  47  66 101 137 167 201 239 284
#     4   8  14  27  50  79 102 117 147 205 256 286
#     4   7  12  24  46  74  98 118 149 198 246 285
#     4  10  20  32  47  70 102 137 170 200 233 282
#     4   9  17  31  53  78 100 125 159 203 251 293
#
# _framework density 17.660613999999999
#
# number of rings (size 3 to 8) (size 9 to 14) (size 15 to 20)
#    0.000    3.000    1.250    3.000    0.000    2.500 
#    0.000    6.250    2.750    0.000    0.000    0.000 
#    0.000    0.000    0.000    0.000    0.000    0.000 
#
# Total GULP energy -178145.118891 kJ/mol
# GULP energy per Si atom -5567.034965 kJ/mol
# Density = 1.762042 g / cm^3
# Si number density = 17.660614 Si / 1000 Ang^3
#
#
#
# Elastic Constant Matrix: (Units=GPa)
#
#
# Indices 1 2 3 4 5 6 
#
# 1 110.8705 10.1187 61.6813 0.0000 30.4242 0.0000
# 2 10.1187 5.3722 11.1896 0.0000 3.2052 0.0000
# 3 61.6813 11.1896 120.2794 0.0000 40.6860 0.0000
# 4 0.0000 0.0000 0.0000 -18.1225 0.0000 -14.5328
# 5 30.4242 3.2052 40.6860 0.0000 30.1755 0.0000
# 6 0.0000 0.0000 0.0000 -14.5328 0.0000 12.2316
#
#
#
# Elastic Compliance Matrix: (Units=1/GPa)
#
#
# Indices 1 2 3 4 5 6 
#
# 1 0.014597 -0.015977 -0.002932 0.000000 -0.009067 0.000000
# 2 -0.015977 0.249465 -0.021144 0.000000 0.018119 0.000000
# 3 -0.002932 -0.021144 0.018431 0.000000 -0.019649 0.000000
# 4 0.000000 0.000000 0.000000 -0.028257 0.000000 -0.033573
# 5 -0.009067 0.018119 -0.019649 0.000000 0.066849 0.000000
# 6 0.000000 0.000000 0.000000 -0.033573 0.000000 0.041866
#
#
# Mechanical properties :
#
#
# Convention : Reuss Voigt Hill
#
# Bulk Modulus (GPa) = 4.94102 44.72236 24.83169
# Shear Modulus (GPa) = 9.79395 15.09240 12.44318
#
# Velocity S-wave (km/s) = 2.35747 2.92649 2.65726
# Velocity P-wave (km/s) = 3.19595 6.06608 4.84827
#
# Compressibility (1/GPa) = 0.20238749
#
# Stress axis : x y z
#
# Youngs Moduli (GPa) = 68.50704 4.00858 54.25601
#
# Poissons Ratio (x) = 0.06404 0.15910
# Poissons Ratio (y) = 1.09452 1.14717
# Poissons Ratio (z) = 0.20089 0.08476
#
# Static dielectric constant tensor:
#      x y z
#    x 1.605370 0.000000 0.041260 
#    y 0.000000 1.611570 0.000000 
#    z 0.041260 0.000000 1.624990 
# 
# From -- ./inp_files/86856.got.cif
#   From: 2010.05.17/outbox.cif.g08.bks.cpg/sg10_44_cif.got.tgz:86856.got - 2010.06.03 11:33:40.
