data_PCOD9143925
_publ_section_title
;
Structure prediction by ZEFSAII (Michael W. Deem and Ramdas Pophale) SiO2 
 PCOD9143925
Probable space group: P 2/M
;
_chemical_formula_sum "Si O2"
_cell_formula_units_Z 28
_cell_length_a 18.137158
_cell_length_b 8.275889
_cell_length_c 23.816490
_cell_angle_alpha 90.000000
_cell_angle_beta 155.140148
_cell_angle_gamma 90.000000
_cell_volume 1502.880650
_symmetry_space_group_name_H-M "P 2/M"
_symmetry_group_IT_number 10
_symmetry_cell_setting 'monoclinic'
loop_
_space_group_symop_operation_xyz
x,y,z
-x,y,-z
-x,-y,-z
x,-y,z
loop_
_atom_site_type_symbol
_atom_site_label
_atom_site_fract_x
_atom_site_fract_y
_atom_site_fract_z
Si Si1 0.734841 0.188429 0.830089
Si Si2 0.994155 0.695062 0.667731
Si Si3 0.497170 0.304956 0.155780
Si Si4 0.654043 0.193171 0.148376
Si Si5 0.618152 0.695854 0.362659
Si Si6 0.051110 0.690233 0.122400
Si Si7 0.905854 0.302493 0.138698
O O1 0.537841 0.242676 0.705592
O O2 0.804146 0.222395 0.815347
O O3 0.756027 0.000000 0.857367
O O4 0.866285 0.284810 0.962188
O O5 0.990527 0.500000 0.666341
O O6 0.808940 0.750887 0.514824
O O7 0.159557 0.746262 0.744871
O O8 0.025423 0.751113 0.753304
O O9 0.495599 0.500000 0.154801
O O10 0.608314 0.248463 0.179388
O O11 0.573787 0.251138 0.268487
O O12 0.295620 0.250037 0.009144
O O13 0.653268 0.000000 0.145947
O O14 0.500000 0.253568 0.000000
O O15 0.615266 0.500000 0.361482
O O16 0.091358 0.500000 0.150796
O O17 0.021322 0.748949 0.165187
O O18 0.905234 0.500000 0.137569
#
# Coordination Sequence:
#
# PCOD9143925 Si02
#       7
#     4   4   4   4   4   4   4
#     4  11  21  33  52  82 116 147 181 221 274 328
#     4  10  21  38  60  82 107 142 183 227 273 322
#     4  10  19  35  59  82 106 139 185 228 266 317
#     4  11  23  37  54  82 114 144 180 222 274 326
#     4  10  21  38  58  82 110 143 182 225 275 324
#     4  10  18  33  57  83 111 142 185 232 270 311
#     4   9  17  32  57  85 106 135 183 230 269 313
#
# _framework density 18.630887999999999
#
# number of rings (size 3 to 8) (size 9 to 14) (size 15 to 20)
#    0.000    1.857    2.857    3.000    0.000    2.286 
#    0.000    5.000    0.000    4.286    0.000    0.000 
#    0.000    0.000    0.000    0.000    0.000    0.000 
#
# Total GULP energy -156355.996676 kJ/mol
# GULP energy per Si atom -5584.142738 kJ/mol
# Density = 1.858848 g / cm^3
# Si number density = 18.630888 Si / 1000 Ang^3
#
#
#
# Elastic Constant Matrix: (Units=GPa)
#
#
# Indices 1 2 3 4 5 6 
#
# 1 173.6958 6.6383 91.6709 0.0000 4.5978 0.0000
# 2 6.6383 12.8671 12.9701 0.0000 -2.4899 0.0000
# 3 91.6709 12.9701 151.2351 0.0000 4.3426 0.0000
# 4 0.0000 0.0000 0.0000 -2.4189 0.0000 -31.7317
# 5 4.5978 -2.4899 4.3426 0.0000 29.7336 0.0000
# 6 0.0000 0.0000 0.0000 -31.7317 0.0000 -102.6044
#
#
#
# Elastic Compliance Matrix: (Units=1/GPa)
#
#
# Indices 1 2 3 4 5 6 
#
# 1 0.008481 0.000764 -0.005192 0.000000 -0.000489 0.000000
# 2 0.000764 0.087191 -0.008181 0.000000 0.008378 0.000000
# 3 -0.005192 -0.008181 0.010502 0.000000 -0.001416 0.000000
# 4 0.000000 0.000000 0.000000 0.135235 0.000000 -0.041823
# 5 -0.000489 0.008378 -0.001416 0.000000 0.034616 0.000000
# 6 0.000000 0.000000 0.000000 -0.041823 0.000000 0.003188
#
#
# Mechanical properties :
#
#
# Convention : Reuss Voigt Hill
#
# Bulk Modulus (GPa) = 12.35258 62.26186 37.30722
# Shear Modulus (GPa) = 15.08667 0.04330 7.56498
#
# Velocity S-wave (km/s) = 2.84873 0.15261 2.01724
# Velocity P-wave (km/s) = 4.17910 5.78984 5.04911
#
# Compressibility (1/GPa) = 0.08095478
#
# Stress axis : x y z
#
# Youngs Moduli (GPa) = 117.90609 11.46904 95.22121
#
# Poissons Ratio (x) = -0.00876 0.49443
# Poissons Ratio (y) = -0.09004 0.77901
# Poissons Ratio (z) = 0.61221 0.09383
#
# Static dielectric constant tensor:
#      x y z
#    x 1.632450 0.000000 -0.012820 
#    y 0.000000 1.631300 0.000000 
#    z -0.012820 0.000000 1.624730 
# 
# From -- ./inp_files/84990.got.cif
#   From: 2010.05.17/outbox.cif.g08.bks.cpg/sg10_43_cif.got.tgz:84990.got - 2010.06.03 11:33:40.
