data_PCOD9143139
_publ_section_title
;
Structure prediction by ZEFSAII (Michael W. Deem and Ramdas Pophale) SiO2 
 PCOD9143139
Probable space group: P 2/M
;
_chemical_formula_sum "Si O2"
_cell_formula_units_Z 32
_cell_length_a 16.325201
_cell_length_b 11.253966
_cell_length_c 18.380491
_cell_angle_alpha 90.000000
_cell_angle_beta 23.802598
_cell_angle_gamma 90.000000
_cell_volume 1362.881763
_symmetry_space_group_name_H-M "P 2/M"
_symmetry_group_IT_number 10
_symmetry_cell_setting 'monoclinic'
loop_
_space_group_symop_operation_xyz
x,y,z
-x,y,-z
-x,-y,-z
x,-y,z
loop_
_atom_site_type_symbol
_atom_site_label
_atom_site_fract_x
_atom_site_fract_y
_atom_site_fract_z
Si Si1 0.753177 0.131715 0.706407
Si Si2 0.207726 0.364045 0.235076
Si Si3 0.745713 0.126726 0.303935
Si Si4 0.746901 0.371114 0.970055
Si Si5 0.970056 0.873757 0.793025
Si Si6 0.703337 0.629780 0.284141
Si Si7 0.833610 0.780158 0.495729
Si Si8 0.539073 0.627461 0.663668
O O1 0.708122 0.250284 0.789160
O O2 0.699737 0.158680 0.666033
O O3 0.000000 0.126633 0.500000
O O4 0.683013 0.000000 0.786724
O O5 0.229146 0.500000 0.246378
O O6 0.294977 0.364981 0.082122
O O7 0.969497 0.326879 0.418745
O O8 0.500000 0.129578 0.500000
O O9 0.835780 0.123162 0.311704
O O10 0.819608 0.251023 0.210619
O O11 0.806596 0.000000 0.219665
O O12 0.854583 0.500000 0.893372
O O13 0.859976 0.250043 0.897872
O O14 0.558171 0.375531 0.177456
O O15 0.017569 0.867874 0.668026
O O16 0.860169 0.000000 0.896394
O O17 0.500000 0.626144 0.500000
O O18 0.803049 0.500000 0.212096
O O19 0.626526 0.643590 0.263964
O O20 0.703912 0.727487 0.535635
O O21 0.636951 0.500000 0.568508
#
# Coordination Sequence:
#
# PCOD9143139 Si02
#       8
#     4   4   4   4   4   4   4   4
#     4   9  18  31  49  75 106 137 170 214 266 316
#     4   9  18  32  52  76 101 135 177 217 261 315
#     4   9  17  30  49  74 102 131 166 210 258 306
#     4   9  20  38  56  76 106 144 183 220 263 317
#     4  10  20  35  56  80 107 142 182 221 265 318
#     4   9  17  30  50  76 103 131 165 207 259 313
#     4  10  18  30  54  81 107 133 173 224 271 314
#     4  10  20  35  55  81 111 140 175 223 271 315
#
# _framework density 23.479659000000002
#
# number of rings (size 3 to 8) (size 9 to 14) (size 15 to 20)
#    0.000    2.625    0.000    2.250    0.000    6.750 
#    0.000    3.750    0.000    6.750    0.000    0.000 
#    0.000    0.000    0.000    0.000    0.000    0.000 
#
# Total GULP energy -178289.421249 kJ/mol
# GULP energy per Si atom -5571.544414 kJ/mol
# Density = 2.342622 g / cm^3
# Si number density = 23.479659 Si / 1000 Ang^3
#
#
#
# Elastic Constant Matrix: (Units=GPa)
#
#
# Indices 1 2 3 4 5 6 
#
# 1 29.1912 53.8084 -6.1107 0.0000 0.2190 0.0000
# 2 53.8084 264.1875 19.1303 0.0000 -0.3256 0.0000
# 3 -6.1107 19.1303 44.4567 0.0000 7.9518 0.0000
# 4 0.0000 0.0000 0.0000 1.0172 0.0000 0.9763
# 5 0.2190 -0.3256 7.9518 0.0000 17.4192 0.0000
# 6 0.0000 0.0000 0.0000 0.9763 0.0000 45.1906
#
#
#
# Elastic Compliance Matrix: (Units=1/GPa)
#
#
# Indices 1 2 3 4 5 6 
#
# 1 0.064021 -0.014242 0.016464 0.000000 -0.008587 0.000000
# 2 -0.014242 0.007089 -0.005514 0.000000 0.002829 0.000000
# 3 0.016464 -0.005514 0.029602 0.000000 -0.013823 0.000000
# 4 0.000000 0.000000 0.000000 1.003954 0.000000 -0.021689
# 5 -0.008587 0.002829 -0.013823 0.000000 0.063879 0.000000
# 6 0.000000 0.000000 0.000000 -0.021689 0.000000 0.022597
#
#
# Mechanical properties :
#
#
# Convention : Reuss Voigt Hill
#
# Bulk Modulus (GPa) = 10.62381 52.38791 31.50586
# Shear Modulus (GPa) = 4.06801 30.79256 17.43029
#
# Velocity S-wave (km/s) = 1.31770 3.62533 2.72758
# Velocity P-wave (km/s) = 2.61718 6.31542 4.83395
#
# Compressibility (1/GPa) = 0.09412815
#
# Stress axis : x y z
#
# Youngs Moduli (GPa) = 15.61992 141.06868 33.78132
#
# Poissons Ratio (x) = 2.00914 -0.55619
# Poissons Ratio (y) = 0.22246 0.18627
# Poissons Ratio (z) = -0.25717 0.77785
#
# Static dielectric constant tensor:
#      x y z
#    x 1.914320 0.000000 0.000520 
#    y 0.000000 1.965810 0.000000 
#    z 0.000520 0.000000 1.899660 
# 
# From -- ./inp_files/78942.got.cif
#   From: 2010.05.17/outbox.cif.g08.bks.cpg/sg10_40_cif.got.tgz:78942.got - 2010.06.03 11:33:40.
