data_PCOD9143916
_publ_section_title
;
Structure prediction by ZEFSAII (Michael W. Deem and Ramdas Pophale) SiO2 
 PCOD9143916
Probable space group: P 2/M
;
_chemical_formula_sum "Si O2"
_cell_formula_units_Z 24
_cell_length_a 15.000193
_cell_length_b 18.552211
_cell_length_c 8.490095
_cell_angle_alpha 90.000000
_cell_angle_beta 28.902531
_cell_angle_gamma 90.000000
_cell_volume 1141.933431
_symmetry_space_group_name_H-M "P 2/M"
_symmetry_group_IT_number 10
_symmetry_cell_setting 'monoclinic'
loop_
_space_group_symop_operation_xyz
x,y,z
-x,y,-z
-x,-y,-z
x,-y,z
loop_
_atom_site_type_symbol
_atom_site_label
_atom_site_fract_x
_atom_site_fract_y
_atom_site_fract_z
Si Si1 0.311844 0.312243 0.218673
Si Si2 0.434963 0.314310 0.443047
Si Si3 0.774691 0.916641 0.852819
Si Si4 0.811582 0.419405 0.384764
Si Si5 0.235197 0.162310 0.808084
Si Si6 0.788149 0.156627 0.505054
O O1 0.165680 0.372865 0.489270
O O2 0.272952 0.238887 0.371621
O O3 0.500000 0.343860 0.000000
O O4 0.376815 0.294928 0.943249
O O5 0.500000 0.351524 0.500000
O O6 0.309468 0.369344 0.542285
O O7 0.321693 0.242022 0.661836
O O8 0.720539 0.885626 0.764864
O O9 0.000000 0.912917 0.500000
O O10 0.721577 0.000000 0.948317
O O11 0.708865 0.875214 0.113017
O O12 0.738968 0.500000 0.526307
O O13 0.000000 0.425392 0.000000
O O14 0.276399 0.130011 0.568379
O O15 0.011450 0.160300 0.159896
#
# Coordination Sequence:
#
# PCOD9143916 Si02
#       6
#     4   4   4   4   4   4
#     4  10  19  33  56  83 110 147 188 231 280 338
#     4  11  22  35  56  87 116 149 189 238 286 337
#     4   9  19  33  51  82 116 145 188 245 296 339
#     4  10  21  39  61  83 114 152 188 231 282 342
#     4  10  19  33  56  81 112 149 193 240 289 342
#     4  10  18  33  57  80 107 151 196 240 284 345
#
# _framework density 21.016984999999998
#
# number of rings (size 3 to 8) (size 9 to 14) (size 15 to 20)
#    0.000    2.000    3.333    2.000    0.000    4.000 
#    0.000    5.833    0.000    7.000    0.000    0.000 
#    0.000    0.000    0.000    0.000    0.000    0.000 
#
# Total GULP energy -133618.977806 kJ/mol
# GULP energy per Si atom -5567.457409 kJ/mol
# Density = 2.096915 g / cm^3
# Si number density = 21.016985 Si / 1000 Ang^3
#
#
#
# Elastic Constant Matrix: (Units=GPa)
#
#
# Indices 1 2 3 4 5 6 
#
# 1 86.6277 42.7269 43.8597 0.0000 42.8923 0.0000
# 2 42.7269 141.7653 51.5333 0.0000 37.9558 0.0000
# 3 43.8597 51.5333 110.0737 0.0000 41.5502 0.0000
# 4 0.0000 0.0000 0.0000 393.3793 0.0000 17.9313
# 5 42.8923 37.9558 41.5502 0.0000 37.4646 0.0000
# 6 0.0000 0.0000 0.0000 17.9313 0.0000 12.9058
#
#
#
# Elastic Compliance Matrix: (Units=1/GPa)
#
#
# Indices 1 2 3 4 5 6 
#
# 1 0.026805 0.000047 0.001547 0.000000 -0.032453 0.000000
# 2 0.000047 0.009812 -0.001444 0.000000 -0.008393 0.000000
# 3 0.001547 -0.001444 0.015930 0.000000 -0.017975 0.000000
# 4 0.000000 0.000000 0.000000 0.002714 0.000000 -0.003771
# 5 -0.032453 -0.008393 -0.017975 0.000000 0.092284 0.000000
# 6 0.000000 0.000000 0.000000 -0.003771 0.000000 0.082724
#
#
# Mechanical properties :
#
#
# Convention : Reuss Voigt Hill
#
# Bulk Modulus (GPa) = 18.92255 68.30071 43.61163
# Shear Modulus (GPa) = 20.19523 102.10642 61.15082
#
# Velocity S-wave (km/s) = 3.10320 6.97770 5.39991
# Velocity P-wave (km/s) = 4.67577 9.87351 7.72493
#
# Compressibility (1/GPa) = 0.05284700
#
# Stress axis : x y z
#
# Youngs Moduli (GPa) = 37.30595 101.91890 62.77636
#
# Poissons Ratio (x) = -0.00484 -0.09712
# Poissons Ratio (y) = -0.00177 0.09067
# Poissons Ratio (z) = -0.05772 0.14721
#
# Static dielectric constant tensor:
#      x y z
#    x 1.839070 0.000000 0.058120 
#    y 0.000000 1.731490 0.000000 
#    z 0.058120 0.000000 1.910140 
# 
# From -- ./inp_files/32969.got.cif
#   From: 2010.05.17/outbox.cif.g08.bks.cpg/sg10_17_cif.got.tgz:32969.got - 2010.06.03 11:33:40.
