data_PCOD9143127
_publ_section_title
;
Structure prediction by ZEFSAII (Michael W. Deem and Ramdas Pophale) SiO2 
 PCOD9143127
Probable space group: P 2/M
;
_chemical_formula_sum "Si O2"
_cell_formula_units_Z 16
_cell_length_a 7.187362
_cell_length_b 11.034243
_cell_length_c 8.306491
_cell_angle_alpha 90.000000
_cell_angle_beta 80.746151
_cell_angle_gamma 90.000000
_cell_volume 650.190266
_symmetry_space_group_name_H-M "P 2/M"
_symmetry_group_IT_number 10
_symmetry_cell_setting 'monoclinic'
loop_
_space_group_symop_operation_xyz
x,y,z
-x,y,-z
-x,-y,-z
x,-y,z
loop_
_atom_site_type_symbol
_atom_site_label
_atom_site_fract_x
_atom_site_fract_y
_atom_site_fract_z
Si Si1 0.225509 0.500000 0.976935
Si Si2 0.786510 0.234167 0.518275
Si Si3 0.185073 0.139017 0.806559
Si Si4 0.767201 0.756249 0.876615
Si Si5 0.287510 0.500000 0.587627
O O1 0.285608 0.500000 0.782058
O O2 0.280361 0.619548 0.067023
O O3 0.000000 0.500000 0.000000
O O4 0.703989 0.171837 0.370886
O O5 0.698769 0.216974 0.706359
O O6 0.797243 0.376654 0.472646
O O7 0.000000 0.184085 0.500000
O O8 0.996026 0.222950 0.833809
O O9 0.124365 0.000000 0.810797
O O10 0.288126 0.164997 0.960488
O O11 0.500000 0.500000 0.500000
#
# Coordination Sequence:
#
# PCOD9143127 Si02
#       5
#     2   4   4   4   2
#     4  12  17  34  60  83 113 156 189 236 303 347
#     4  10  20  36  58  85 117 156 196 239 293 354
#     4  10  19  31  52  87 123 152 189 247 296 336
#     4  10  18  30  53  81 116 146 190 238 295 341
#     4  12  24  40  60  88 124 157 193 246 305 360
#
# _framework density 24.608180999999998
#
# number of rings (size 3 to 8) (size 9 to 14) (size 15 to 20)
#    0.000    1.500    5.000    4.125    0.000    5.500 
#    0.000    2.500    0.000    0.750    0.000    1.750 
#    0.000    0.000    0.000    0.000    0.000    0.000 
#
# Total GULP energy -89440.040072 kJ/mol
# GULP energy per Si atom -5590.002505 kJ/mol
# Density = 2.455217 g / cm^3
# Si number density = 24.608181 Si / 1000 Ang^3
#
#
#
# Elastic Constant Matrix: (Units=GPa)
#
#
# Indices 1 2 3 4 5 6 
#
# 1 83.8478 7.8449 49.6177 0.0000 4.4624 0.0000
# 2 7.8449 105.4114 40.2334 0.0000 8.0270 0.0000
# 3 49.6177 40.2334 300.7439 0.0000 46.0593 0.0000
# 4 0.0000 0.0000 0.0000 -59.7598 0.0000 39.6045
# 5 4.4624 8.0270 46.0593 0.0000 36.3040 0.0000
# 6 0.0000 0.0000 0.0000 39.6045 0.0000 -32.0432
#
#
#
# Elastic Compliance Matrix: (Units=1/GPa)
#
#
# Indices 1 2 3 4 5 6 
#
# 1 0.013279 -0.000187 -0.002386 0.000000 0.001436 0.000000
# 2 -0.000187 0.010012 -0.001208 0.000000 -0.000658 0.000000
# 3 -0.002386 -0.001208 0.004710 0.000000 -0.005415 0.000000
# 4 0.000000 0.000000 0.000000 -0.092510 0.000000 -0.114340
# 5 0.001436 -0.000658 -0.005415 0.000000 0.034384 0.000000
# 6 0.000000 0.000000 0.000000 -0.114340 0.000000 -0.172529
#
#
# Mechanical properties :
#
#
# Convention : Reuss Voigt Hill
#
# Bulk Modulus (GPa) = 48.92471 76.15502 62.53987
# Shear Modulus (GPa) = -26.55605 15.05399 -5.75103
#
# Velocity S-wave (km/s) = -3.28861 2.47604 -1.53040
# Velocity P-wave (km/s) = 2.34620 6.26008 4.72722
#
# Compressibility (1/GPa) = 0.02043957
#
# Stress axis : x y z
#
# Youngs Moduli (GPa) = 75.30550 99.88378 212.33515
#
# Poissons Ratio (x) = 0.01868 0.50658
# Poissons Ratio (y) = 0.01408 0.25643
# Poissons Ratio (z) = 0.17966 0.12063
#
# Static dielectric constant tensor:
#      x y z
#    x 1.899400 0.000000 -0.007260 
#    y 0.000000 1.907900 0.000000 
#    z -0.007260 0.000000 1.996990 
# 
# From -- ./inp_files/16928.got.cif
#   From: 2010.05.17/outbox.cif.g08.bks.cpg/sg10_9_cif.got.tgz:16928.got - 2010.06.03 11:33:40.
