data_PCOD9143759
_publ_section_title
;
Structure prediction by ZEFSAII (Michael W. Deem and Ramdas Pophale) SiO2 
 PCOD9143759
Probable space group: P 2/M
;
_chemical_formula_sum "Si O2"
_cell_formula_units_Z 28
_cell_length_a 11.593684
_cell_length_b 9.222292
_cell_length_c 15.242166
_cell_angle_alpha 90.000000
_cell_angle_beta 53.396408
_cell_angle_gamma 90.000000
_cell_volume 1308.288761
_symmetry_space_group_name_H-M "P 2/M"
_symmetry_group_IT_number 10
_symmetry_cell_setting 'monoclinic'
loop_
_space_group_symop_operation_xyz
x,y,z
-x,y,-z
-x,-y,-z
x,-y,z
loop_
_atom_site_type_symbol
_atom_site_label
_atom_site_fract_x
_atom_site_fract_y
_atom_site_fract_z
Si Si1 0.287102 0.330047 0.238613
Si Si2 0.888421 0.672432 0.205424
Si Si3 0.778312 0.325642 0.920439
Si Si4 0.438412 0.832670 0.330984
Si Si5 0.284059 0.166527 0.571916
Si Si6 0.245234 0.166960 0.888520
Si Si7 0.019237 0.844198 0.387937
O O1 0.316133 0.500000 0.232004
O O2 0.311029 0.284164 0.126302
O O3 0.362018 0.250532 0.285763
O O4 0.119110 0.291729 0.323906
O O5 0.876319 0.500000 0.203714
O O6 0.764793 0.734341 0.325432
O O7 0.865703 0.746911 0.121859
O O8 0.050026 0.707168 0.165603
O O9 0.765650 0.500000 0.936446
O O10 0.730849 0.244463 0.029493
O O11 0.400966 0.781921 0.447073
O O12 0.605244 0.830220 0.232276
O O13 0.387634 0.000000 0.352320
O O14 0.136499 0.163238 0.583350
O O15 0.317221 0.000000 0.585567
O O16 0.201821 0.000000 0.920783
O O17 0.000000 0.849036 0.500000
O O18 0.086265 0.000000 0.328837
#
# Coordination Sequence:
#
# PCOD9143759 Si02
#       7
#     4   4   4   4   4   4   4
#     4  11  22  36  59  91 124 157 196 243 297 360
#     4  11  23  41  64  90 123 156 194 249 306 356
#     4  10  23  42  62  88 122 157 193 246 309 355
#     4  10  23  43  61  86 125 163 199 242 297 354
#     4  10  20  36  61  89 120 158 198 242 294 355
#     4  11  25  43  64  87 115 157 209 255 292 349
#     4  10  18  32  56  86 120 159 196 240 298 352
#
# _framework density 21.402003000000001
#
# number of rings (size 3 to 8) (size 9 to 14) (size 15 to 20)
#    0.000    1.571    2.857    1.714    0.000    7.143 
#    0.000    5.714    0.000    0.000    0.000    0.000 
#    0.000    0.000    0.000    0.000    0.000    0.000 
#
# Total GULP energy -156358.963208 kJ/mol
# GULP energy per Si atom -5584.248686 kJ/mol
# Density = 2.135329 g / cm^3
# Si number density = 21.402003 Si / 1000 Ang^3
#
#
#
# Elastic Constant Matrix: (Units=GPa)
#
#
# Indices 1 2 3 4 5 6 
#
# 1 26.9338 13.4924 12.0247 0.0000 3.6029 0.0000
# 2 13.4924 39.1738 40.3627 0.0000 8.3710 0.0000
# 3 12.0247 40.3627 120.2493 0.0000 17.2228 0.0000
# 4 0.0000 0.0000 0.0000 1.5326 0.0000 117.5207
# 5 3.6029 8.3710 17.2228 0.0000 30.1896 0.0000
# 6 0.0000 0.0000 0.0000 117.5207 0.0000 -352.0747
#
#
#
# Elastic Compliance Matrix: (Units=1/GPa)
#
#
# Indices 1 2 3 4 5 6 
#
# 1 0.045023 -0.016461 0.001240 0.000000 -0.001516 0.000000
# 2 -0.016461 0.045413 -0.013150 0.000000 -0.003126 0.000000
# 3 0.001240 -0.013150 0.013182 0.000000 -0.004022 0.000000
# 4 0.000000 0.000000 0.000000 0.024534 0.000000 0.008189
# 5 -0.001516 -0.003126 -0.004022 0.000000 0.036466 0.000000
# 6 0.000000 0.000000 0.000000 0.008189 0.000000 -0.000107
#
#
# Mechanical properties :
#
#
# Convention : Reuss Voigt Hill
#
# Bulk Modulus (GPa) = 21.33195 35.34627 28.33911
# Shear Modulus (GPa) = 21.10790 -56.03867 -17.46539
#
# Velocity S-wave (km/s) = 3.14388 -5.12257 -2.85978
# Velocity P-wave (km/s) = 4.81327 4.29375 1.53806
#
# Compressibility (1/GPa) = 0.04687803
#
# Stress axis : x y z
#
# Youngs Moduli (GPa) = 22.21071 22.01992 75.86191
#
# Poissons Ratio (x) = 0.36247 -0.09408
# Poissons Ratio (y) = 0.36561 0.99755
# Poissons Ratio (z) = -0.02755 0.28955
#
# Static dielectric constant tensor:
#      x y z
#    x 1.789830 0.000000 -0.005090 
#    y 0.000000 1.745020 0.000000 
#    z -0.005090 0.000000 1.808970 
# 
# From -- ./inp_files/49607.got.cif
#   From: 2010.05.17/outbox.cif.g08.bks.cpg/sg10_25_cif.got.tgz:49607.got - 2010.06.03 11:33:40.
