data_PCOD9143043
_publ_section_title
;
Structure prediction by ZEFSAII (Michael W. Deem and Ramdas Pophale) SiO2 
 PCOD9143043
Probable space group: P 2/M
;
_chemical_formula_sum "Si O2"
_cell_formula_units_Z 24
_cell_length_a 20.527132
_cell_length_b 8.723632
_cell_length_c 11.653220
_cell_angle_alpha 90.000000
_cell_angle_beta 43.136634
_cell_angle_gamma 90.000000
_cell_volume 1426.799193
_symmetry_space_group_name_H-M "P 2/M"
_symmetry_group_IT_number 10
_symmetry_cell_setting 'monoclinic'
loop_
_space_group_symop_operation_xyz
x,y,z
-x,y,-z
-x,-y,-z
x,-y,z
loop_
_atom_site_type_symbol
_atom_site_label
_atom_site_fract_x
_atom_site_fract_y
_atom_site_fract_z
Si Si1 0.513816 0.323212 0.120509
Si Si2 0.314907 0.182678 0.406581
Si Si3 0.048346 0.815336 0.105022
Si Si4 0.712160 0.815251 0.826238
Si Si5 0.860383 0.682700 0.236733
Si Si6 0.091468 0.186812 0.309595
O O1 0.510243 0.500000 0.160659
O O2 0.424072 0.232175 0.286088
O O3 0.500000 0.316998 0.000000
O O4 0.617750 0.252411 0.006279
O O5 0.289438 0.225351 0.307067
O O6 0.241108 0.265044 0.584922
O O7 0.305201 0.000000 0.429812
O O8 0.080016 0.769637 0.191681
O O9 0.943059 0.752983 0.211518
O O10 0.046670 0.000000 0.099458
O O11 0.116505 0.748804 0.918848
O O12 0.809580 0.762976 0.760545
O O13 0.706794 0.000000 0.838940
O O14 0.868829 0.500000 0.224547
O O15 0.000000 0.238579 0.500000
O O16 0.091560 0.000000 0.313070
#
# Coordination Sequence:
#
# PCOD9143043 Si02
#       6
#     4   4   4   4   4   4
#     4   9  17  29  45  69 101 131 159 195 241 287
#     4  10  18  30  51  75  97 125 164 202 238 285
#     4  10  19  33  52  72  96 128 165 199 236 284
#     4   9  17  30  49  73 100 129 161 198 240 285
#     4  11  21  33  49  70  99 129 160 202 246 284
#     4   9  17  30  50  75 100 126 159 199 237 278
#
# _framework density 16.820867
#
# number of rings (size 3 to 8) (size 9 to 14) (size 15 to 20)
#    0.000    2.333    0.000    5.000    0.000    5.333 
#    0.000    1.667    0.000    4.500    0.000    7.000 
#    0.000    0.000    0.000    0.000    0.000    0.000 
#
# Total GULP energy -133880.597830 kJ/mol
# GULP energy per Si atom -5578.358243 kJ/mol
# Density = 1.678258 g / cm^3
# Si number density = 16.820867 Si / 1000 Ang^3
#
#
#
# Elastic Constant Matrix: (Units=GPa)
#
#
# Indices 1 2 3 4 5 6 
#
# 1 109.7008 26.1633 66.6584 0.0000 -17.4410 0.0000
# 2 26.1633 60.8353 40.1367 0.0000 -5.7083 0.0000
# 3 66.6584 40.1367 123.3532 0.0000 -25.6847 0.0000
# 4 0.0000 0.0000 0.0000 15.1964 0.0000 0.3533
# 5 -17.4410 -5.7083 -25.6847 0.0000 21.0193 0.0000
# 6 0.0000 0.0000 0.0000 0.3533 0.0000 0.9042
#
#
#
# Elastic Compliance Matrix: (Units=1/GPa)
#
#
# Indices 1 2 3 4 5 6 
#
# 1 0.013826 -0.001483 -0.006283 0.000000 0.003393 0.000000
# 2 -0.001483 0.021288 -0.006945 0.000000 -0.003935 0.000000
# 3 -0.006283 -0.006945 0.016475 0.000000 0.013033 0.000000
# 4 0.000000 0.000000 0.000000 0.066408 0.000000 -0.025947
# 5 0.003393 -0.003935 0.013033 0.000000 0.065247 0.000000
# 6 0.000000 0.000000 0.000000 -0.025947 0.000000 1.116072
#
#
# Mechanical properties :
#
#
# Convention : Reuss Voigt Hill
#
# Bulk Modulus (GPa) = 45.10779 62.20066 53.65422
# Shear Modulus (GPa) = 3.74216 18.15272 10.94744
#
# Velocity S-wave (km/s) = 1.49316 3.28865 2.55389
# Velocity P-wave (km/s) = 5.46329 7.17487 6.37677
#
# Compressibility (1/GPa) = 0.02216912
#
# Stress axis : x y z
#
# Youngs Moduli (GPa) = 72.32579 46.97424 60.69688
#
# Poissons Ratio (x) = 0.06966 0.38134
# Poissons Ratio (y) = 0.10725 0.42153
# Poissons Ratio (z) = 0.45440 0.32623
#
# Static dielectric constant tensor:
#      x y z
#    x 1.555930 0.000000 -0.004770 
#    y 0.000000 1.563060 0.000000 
#    z -0.004770 0.000000 1.553770 
# 
# From -- ./inp_files/48668.got.cif
#   From: 2010.05.17/outbox.cif.g08.bks.cpg/sg10_25_cif.got.tgz:48668.got - 2010.06.03 11:33:40.
