data_PCOD9143834
_publ_section_title
;
Structure prediction by ZEFSAII (Michael W. Deem and Ramdas Pophale) SiO2 
 PCOD9143834
Probable space group: P 2/M
;
_chemical_formula_sum "Si O2"
_cell_formula_units_Z 18
_cell_length_a 11.541836
_cell_length_b 9.609607
_cell_length_c 8.255306
_cell_angle_alpha 90.000000
_cell_angle_beta 78.757507
_cell_angle_gamma 90.000000
_cell_volume 898.046771
_symmetry_space_group_name_H-M "P 2/M"
_symmetry_group_IT_number 10
_symmetry_cell_setting 'monoclinic'
loop_
_space_group_symop_operation_xyz
x,y,z
-x,y,-z
-x,-y,-z
x,-y,z
loop_
_atom_site_type_symbol
_atom_site_label
_atom_site_fract_x
_atom_site_fract_y
_atom_site_fract_z
Si Si1 0.171369 0.000000 0.595388
Si Si2 0.664849 0.500000 0.400650
Si Si3 0.375460 0.800501 0.464789
Si Si4 0.136347 0.500000 0.440747
Si Si5 0.091942 0.000000 0.237983
Si Si6 0.631301 0.500000 0.033871
Si Si7 0.246678 0.257204 0.192889
O O1 0.262314 0.870514 0.583893
O O2 0.125099 0.000000 0.421614
O O3 0.051075 0.000000 0.732884
O O4 0.622310 0.637154 0.501573
O O5 0.804166 0.500000 0.398982
O O6 0.629950 0.500000 0.226161
O O7 0.500000 0.853460 0.500000
O O8 0.346786 0.814103 0.281036
O O9 0.177061 0.363361 0.331236
O O10 0.000000 0.500000 0.500000
O O11 0.157250 0.138629 0.155651
O O12 0.695830 0.360317 0.952813
O O13 0.500000 0.500000 0.000000
#
# Coordination Sequence:
#
# PCOD9143834 Si02
#       7
#     2   2   4   2   2   2   4
#     4   9  19  30  55  81 105 142 172 227 280 323
#     4  10  21  32  55  81 108 142 184 221 279 315
#     4  10  18  33  53  83 110 136 180 230 274 323
#     4   9  19  33  58  84 109 138 180 230 274 324
#     4   9  18  34  54  79 109 137 187 222 271 328
#     4  11  21  39  56  79 113 151 184 223 273 328
#     4   9  20  34  56  82 107 144 182 224 276 323
#
# _framework density 20.043499000000001
#
# number of rings (size 3 to 8) (size 9 to 14) (size 15 to 20)
#    0.000    2.444    0.000    2.667    9.333    0.000 
#    0.000    3.889    0.000    1.333    0.000    0.000 
#    0.000    0.000    0.000    0.000    0.000    0.000 
#
# Total GULP energy -100310.724293 kJ/mol
# GULP energy per Si atom -5572.818016 kJ/mol
# Density = 1.999788 g / cm^3
# Si number density = 20.043499 Si / 1000 Ang^3
#
#
#
# Elastic Constant Matrix: (Units=GPa)
#
#
# Indices 1 2 3 4 5 6 
#
# 1 141.4275 32.6437 -5.0660 0.0000 -6.3007 0.0000
# 2 32.6437 138.5735 -3.3798 0.0000 -15.1488 0.0000
# 3 -5.0660 -3.3798 16.1745 0.0000 -0.6507 0.0000
# 4 0.0000 0.0000 0.0000 7.5724 0.0000 -6.4796
# 5 -6.3007 -15.1488 -0.6507 0.0000 19.8361 0.0000
# 6 0.0000 0.0000 0.0000 -6.4796 0.0000 6.9151
#
#
#
# Elastic Compliance Matrix: (Units=1/GPa)
#
#
# Indices 1 2 3 4 5 6 
#
# 1 0.007570 -0.001595 0.002088 0.000000 0.001255 0.000000
# 2 -0.001595 0.008268 0.001464 0.000000 0.005856 0.000000
# 3 0.002088 0.001464 0.062940 0.000000 0.003846 0.000000
# 4 0.000000 0.000000 0.000000 0.666264 0.000000 0.624298
# 5 0.001255 0.005856 0.003846 0.000000 0.055410 0.000000
# 6 0.000000 0.000000 0.000000 0.624298 0.000000 0.729585
#
#
# Mechanical properties :
#
#
# Convention : Reuss Voigt Hill
#
# Bulk Modulus (GPa) = 12.09320 38.28570 25.18945
# Shear Modulus (GPa) = 3.21815 24.99655 14.10735
#
# Velocity S-wave (km/s) = 1.26849 3.53528 2.65587
# Velocity P-wave (km/s) = 2.86217 5.98390 4.69037
#
# Compressibility (1/GPa) = 0.08269110
#
# Stress axis : x y z
#
# Youngs Moduli (GPa) = 132.10697 120.94874 15.88806
#
# Poissons Ratio (x) = 0.19292 -0.03317
# Poissons Ratio (y) = 0.21072 -0.02325
# Poissons Ratio (z) = -0.27584 -0.17702
#
# Static dielectric constant tensor:
#      x y z
#    x 1.746500 0.000000 0.007960 
#    y 0.000000 1.744690 0.000000 
#    z 0.007960 0.000000 1.677860 
# 
# From -- ./inp_files/22228.got.cif
#   From: 2010.05.17/outbox.cif.g08.bks.cpg/sg10_12_cif.got.tgz:22228.got - 2010.06.03 11:33:40.
