data_PCOD9143423
_publ_section_title
;
Structure prediction by ZEFSAII (Michael W. Deem and Ramdas Pophale) SiO2 
 PCOD9143423
Probable space group: P 2/M
;
_chemical_formula_sum "Si O2"
_cell_formula_units_Z 28
_cell_length_a 7.613175
_cell_length_b 30.564103
_cell_length_c 5.403639
_cell_angle_alpha 90.000000
_cell_angle_beta 117.657316
_cell_angle_gamma 90.000000
_cell_volume 1113.704294
_symmetry_space_group_name_H-M "P 2/M"
_symmetry_group_IT_number 10
_symmetry_cell_setting 'monoclinic'
loop_
_space_group_symop_operation_xyz
x,y,z
-x,y,-z
-x,-y,-z
x,-y,z
loop_
_atom_site_type_symbol
_atom_site_label
_atom_site_fract_x
_atom_site_fract_y
_atom_site_fract_z
Si Si1 0.216831 0.949513 0.505380
Si Si2 0.235336 0.550419 0.387069
Si Si3 0.739582 0.265267 0.678049
Si Si4 0.722088 0.835032 0.750662
Si Si5 0.000000 0.903988 0.000000
Si Si6 0.740413 0.684975 0.175985
Si Si7 0.500000 0.112932 0.000000
Si Si8 0.210999 0.415130 0.872511
O O1 0.381213 0.918357 0.733793
O O2 0.000000 0.942921 0.500000
O O3 0.271643 0.000000 0.570677
O O4 0.172575 0.938826 0.186561
O O5 0.268594 0.500000 0.347041
O O6 0.314187 0.561684 0.709328
O O7 0.000655 0.560651 0.249646
O O8 0.302231 0.580496 0.204193
O O9 0.500000 0.266092 0.500000
O O10 0.788878 0.214385 0.749360
O O11 0.799467 0.289758 0.465060
O O12 0.800585 0.289764 0.967685
O O13 0.500000 0.837784 0.500000
O O14 0.892685 0.866539 0.757338
O O15 0.669038 0.856012 0.985594
O O16 0.813708 0.635380 0.211781
O O17 0.500000 0.682492 0.000000
#
# Coordination Sequence:
#
# PCOD9143423 Si02
#       8
#     4   4   4   4   2   4   2   4
#     4  11  24  42  64  96 137 174 215 275 340 399
#     4  10  19  33  54  80 108 150 199 248 310 372
#     4   9  21  37  59  86 114 160 204 261 310 391
#     4  11  24  40  68  92 130 166 222 273 341 396
#     4  12  23  44  62 100 128 176 218 278 335 408
#     4  10  20  37  57  84 116 155 205 242 311 384
#     4  12  23  42  68 100 124 174 230 276 323 418
#     4  10  18  31  54  78 108 146 190 247 295 362
#
# _framework density 25.141324000000001
#
# number of rings (size 3 to 8) (size 9 to 14) (size 15 to 20)
#    0.000    1.571    2.857    3.429    5.000    0.000 
#    0.000    5.000    0.000    4.714    0.000    0.000 
#    0.000    0.000    0.000    0.000    0.000    0.000 
#
# Total GULP energy -156177.022417 kJ/mol
# GULP energy per Si atom -5577.750801 kJ/mol
# Density = 2.508410 g / cm^3
# Si number density = 25.141324 Si / 1000 Ang^3
#
#
#
# Elastic Constant Matrix: (Units=GPa)
#
#
# Indices 1 2 3 4 5 6 
#
# 1 111.0988 25.8914 34.7151 0.0000 1.2778 0.0000
# 2 25.8914 200.6861 60.0422 0.0000 -20.3888 0.0000
# 3 34.7151 60.0422 177.6807 0.0000 -12.9826 0.0000
# 4 0.0000 0.0000 0.0000 43.6265 0.0000 14.5744
# 5 1.2778 -20.3888 -12.9826 0.0000 40.2228 0.0000
# 6 0.0000 0.0000 0.0000 14.5744 0.0000 100.8054
#
#
#
# Elastic Compliance Matrix: (Units=1/GPa)
#
#
# Indices 1 2 3 4 5 6 
#
# 1 0.009754 -0.000882 -0.001703 0.000000 -0.001306 0.000000
# 2 -0.000882 0.005831 -0.001618 0.000000 0.002461 0.000000
# 3 -0.001703 -0.001618 0.006608 0.000000 0.001367 0.000000
# 4 0.000000 0.000000 0.000000 0.024085 0.000000 -0.003482
# 5 -0.001306 0.002461 0.001367 0.000000 0.026592 0.000000
# 6 0.000000 0.000000 0.000000 -0.003482 0.000000 0.010424
#
#
# Mechanical properties :
#
#
# Convention : Reuss Voigt Hill
#
# Bulk Modulus (GPa) = 72.53748 81.19590 76.86669
# Shear Modulus (GPa) = 51.92433 61.51873 56.72153
#
# Velocity S-wave (km/s) = 4.54949 4.95200 4.75500
# Velocity P-wave (km/s) = 7.51742 8.06612 7.79660
#
# Compressibility (1/GPa) = 0.01378598
#
# Stress axis : x y z
#
# Youngs Moduli (GPa) = 102.52552 171.50121 151.34182
#
# Poissons Ratio (x) = 0.15118 0.25777
# Poissons Ratio (y) = 0.09038 0.24492
# Poissons Ratio (z) = 0.17463 0.27754
#
# Static dielectric constant tensor:
#      x y z
#    x 2.118760 0.000000 -0.120420 
#    y 0.000000 1.917240 0.000000 
#    z -0.120420 0.000000 2.092640 
# 
# From -- ./inp_files/5559.got.cif
#   From: 2010.05.17/outbox.cif.g08.bks.cpg/sg10_3_cif.got.tgz:5559.got - 2010.06.03 11:33:40.
