data_PCOD9143680
_publ_section_title
;
Structure prediction by ZEFSAII (Michael W. Deem and Ramdas Pophale) SiO2 
 PCOD9143680
Probable space group: P 2/M
;
_chemical_formula_sum "Si O2"
_cell_formula_units_Z 28
_cell_length_a 15.366149
_cell_length_b 8.057405
_cell_length_c 12.142124
_cell_angle_alpha 90.000000
_cell_angle_beta 69.985842
_cell_angle_gamma 90.000000
_cell_volume 1412.542876
_symmetry_space_group_name_H-M "P 2/M"
_symmetry_group_IT_number 10
_symmetry_cell_setting 'monoclinic'
loop_
_space_group_symop_operation_xyz
x,y,z
-x,y,-z
-x,-y,-z
x,-y,z
loop_
_atom_site_type_symbol
_atom_site_label
_atom_site_fract_x
_atom_site_fract_y
_atom_site_fract_z
Si Si1 0.625388 0.301140 0.854820
Si Si2 0.908942 0.301085 0.965458
Si Si3 0.818363 0.305894 0.392921
Si Si4 0.740357 0.296896 0.196048
Si Si5 0.804073 0.194661 0.643249
Si Si6 0.424396 0.297143 0.879099
Si Si7 0.973408 0.193654 0.704469
O O1 0.619554 0.500000 0.861774
O O2 0.718459 0.258246 0.751547
O O3 0.531278 0.242251 0.835177
O O4 0.619627 0.244858 0.984413
O O5 0.902551 0.500000 0.948004
O O6 0.921630 0.212798 0.843558
O O7 0.819792 0.248950 0.074278
O O8 0.000000 0.272085 0.000000
O O9 0.796683 0.500000 0.410660
O O10 0.768031 0.238301 0.305607
O O11 0.791192 0.226165 0.520171
O O12 0.928623 0.284342 0.330289
O O13 0.742197 0.500000 0.198352
O O14 0.641410 0.242923 0.191578
O O15 0.902826 0.262913 0.643401
O O16 0.809905 0.000000 0.661108
O O17 0.424256 0.500000 0.877400
O O18 0.994429 0.000000 0.672741
#
# Coordination Sequence:
#
# PCOD9143680 Si02
#       7
#     4   4   4   4   4   4   4
#     4   9  17  33  59  86 106 133 175 218 262 316
#     4  10  18  32  54  81 110 138 174 218 260 307
#     4  11  22  37  56  77 103 141 186 224 262 313
#     4   9  17  31  52  80 112 139 168 217 271 312
#     4  11  24  39  53  74 107 144 180 222 271 316
#     4   8  15  30  56  87 112 132 165 217 270 316
#     4  11  23  37  53  76 108 144 179 219 269 320
#
# _framework density 19.822406999999998
#
# number of rings (size 3 to 8) (size 9 to 14) (size 15 to 20)
#    0.000    2.143    1.429    3.429    0.000    5.429 
#    0.000    2.143    0.000    7.714    0.000    0.000 
#    0.000    0.000    0.000    0.000    0.000    0.000 
#
# Total GULP energy -156332.102064 kJ/mol
# GULP energy per Si atom -5583.289359 kJ/mol
# Density = 1.977729 g / cm^3
# Si number density = 19.822407 Si / 1000 Ang^3
#
#
#
# Elastic Constant Matrix: (Units=GPa)
#
#
# Indices 1 2 3 4 5 6 
#
# 1 135.2010 5.3346 40.5462 0.0000 22.9179 0.0000
# 2 5.3346 5.8956 -5.7576 0.0000 0.9873 0.0000
# 3 40.5462 -5.7576 62.7517 0.0000 12.1058 0.0000
# 4 0.0000 0.0000 0.0000 -471.7430 0.0000 62.4506
# 5 22.9179 0.9873 12.1058 0.0000 17.4062 0.0000
# 6 0.0000 0.0000 0.0000 62.4506 0.0000 -18.1553
#
#
#
# Elastic Compliance Matrix: (Units=1/GPa)
#
#
# Indices 1 2 3 4 5 6 
#
# 1 0.011855 -0.016241 -0.007295 0.000000 -0.009613 0.000000
# 2 -0.016241 0.219285 0.033364 0.000000 -0.014258 0.000000
# 3 -0.007295 0.033364 0.025667 0.000000 -0.010138 0.000000
# 4 0.000000 0.000000 0.000000 -0.003892 0.000000 -0.013388
# 5 -0.009613 -0.014258 -0.010138 0.000000 0.077968 0.000000
# 6 0.000000 0.000000 0.000000 -0.013388 0.000000 -0.101133
#
#
# Mechanical properties :
#
#
# Convention : Reuss Voigt Hill
#
# Bulk Modulus (GPa) = 3.61713 31.56609 17.59161
# Shear Modulus (GPa) = 16.54275 -83.58343 -33.52034
#
# Velocity S-wave (km/s) = 2.89199 -6.50059 -4.11668
# Velocity P-wave (km/s) = 3.60280 6.35488 3.70165
#
# Compressibility (1/GPa) = 0.27646236
#
# Stress axis : x y z
#
# Youngs Moduli (GPa) = 84.35535 4.56027 38.96118
#
# Poissons Ratio (x) = 0.07406 0.28423
# Poissons Ratio (y) = 1.37003 -1.29992
# Poissons Ratio (z) = 0.61540 -0.15215
#
# Static dielectric constant tensor:
#      x y z
#    x 1.720100 0.000000 0.021910 
#    y 0.000000 1.708720 0.000000 
#    z 0.021910 0.000000 1.665290 
# 
# From -- ./inp_files/49092.got.cif
#   From: 2010.05.17/outbox.cif.g08.bks.cpg/sg10_25_cif.got.tgz:49092.got - 2010.06.03 11:33:40.
