data_PCOD9143767
_publ_section_title
;
Structure prediction by ZEFSAII (Michael W. Deem and Ramdas Pophale) SiO2 
 PCOD9143767
Probable space group: P 2/M
;
_chemical_formula_sum "Si O2"
_cell_formula_units_Z 28
_cell_length_a 29.023946
_cell_length_b 8.471836
_cell_length_c 10.202653
_cell_angle_alpha 90.000000
_cell_angle_beta 37.193133
_cell_angle_gamma 90.000000
_cell_volume 1516.512650
_symmetry_space_group_name_H-M "P 2/M"
_symmetry_group_IT_number 10
_symmetry_cell_setting 'monoclinic'
loop_
_space_group_symop_operation_xyz
x,y,z
-x,y,-z
-x,-y,-z
x,-y,z
loop_
_atom_site_type_symbol
_atom_site_label
_atom_site_fract_x
_atom_site_fract_y
_atom_site_fract_z
Si Si1 0.501333 0.188363 0.148259
Si Si2 0.626947 0.310252 0.062235
Si Si3 0.197769 0.312576 0.313965
Si Si4 0.048772 0.192455 0.264898
Si Si5 0.207248 0.812896 0.006772
Si Si6 0.048887 0.809589 0.763145
Si Si7 0.375946 0.312372 0.631500
O O1 0.573878 0.243309 0.069073
O O2 0.429277 0.240905 0.399066
O O3 0.501981 0.000000 0.140781
O O4 0.500000 0.247963 0.000000
O O5 0.619012 0.500000 0.079550
O O6 0.606942 0.256676 0.257049
O O7 0.716096 0.271885 0.839024
O O8 0.196379 0.500000 0.290495
O O9 0.182750 0.220827 0.212327
O O10 0.131949 0.266281 0.563501
O O11 0.136595 0.242452 0.078149
O O12 0.000000 0.245363 0.500000
O O13 0.002412 0.241492 0.243282
O O14 0.050425 0.000000 0.263234
O O15 0.218516 0.000000 0.963730
O O16 0.287608 0.727561 0.805324
O O17 0.058044 0.000000 0.738400
O O18 0.000000 0.768078 0.000000
O O19 0.386831 0.500000 0.606679
#
# Coordination Sequence:
#
# PCOD9143767 Si02
#       7
#     4   4   4   4   4   4   4
#     4  11  24  40  58  85 116 145 184 228 272 327
#     4   9  20  38  60  84 110 145 185 227 277 332
#     4  10  20  35  55  81 114 143 181 229 276 328
#     4   9  16  30  53  79 107 140 181 228 274 318
#     4  10  18  32  57  83 111 143 184 232 277 318
#     4  10  20  35  54  77 106 146 191 228 274 330
#     4  10  21  38  60  86 116 146 184 227 275 334
#
# _framework density 18.463412999999999
#
# number of rings (size 3 to 8) (size 9 to 14) (size 15 to 20)
#    0.000    2.143    1.429    3.000    0.000    6.571 
#    2.571    2.143    0.000    0.000    0.000    0.000 
#    0.000    0.000    0.000    0.000    0.000    0.000 
#
# Total GULP energy -156219.767653 kJ/mol
# GULP energy per Si atom -5579.277416 kJ/mol
# Density = 1.842139 g / cm^3
# Si number density = 18.463413 Si / 1000 Ang^3
#
#
#
# Elastic Constant Matrix: (Units=GPa)
#
#
# Indices 1 2 3 4 5 6 
#
# 1 124.7488 21.3893 82.9427 0.0000 4.8531 0.0000
# 2 21.3893 16.8093 19.7271 0.0000 4.1087 0.0000
# 3 82.9427 19.7271 137.9486 0.0000 5.7135 0.0000
# 4 0.0000 0.0000 0.0000 30.3182 0.0000 -11.2234
# 5 4.8531 4.1087 5.7135 0.0000 24.7841 0.0000
# 6 0.0000 0.0000 0.0000 -11.2234 0.0000 32.6197
#
#
#
# Elastic Compliance Matrix: (Units=1/GPa)
#
#
# Indices 1 2 3 4 5 6 
#
# 1 0.014628 -0.010084 -0.007374 0.000000 0.000507 0.000000
# 2 -0.010084 0.080769 -0.005063 0.000000 -0.010248 0.000000
# 3 -0.007374 -0.005063 0.012431 0.000000 -0.000582 0.000000
# 4 0.000000 0.000000 0.000000 0.037798 0.000000 0.013005
# 5 0.000507 -0.010248 -0.000582 0.000000 0.042082 0.000000
# 6 0.000000 0.000000 0.000000 0.013005 0.000000 0.035131
#
#
# Mechanical properties :
#
#
# Convention : Reuss Voigt Hill
#
# Bulk Modulus (GPa) = 15.92704 58.62499 37.27601
# Shear Modulus (GPa) = 17.31242 27.90757 22.60999
#
# Velocity S-wave (km/s) = 3.06545 3.89203 3.50320
# Velocity P-wave (km/s) = 4.60155 7.21236 6.04948
#
# Compressibility (1/GPa) = 0.06278632
#
# Stress axis : x y z
#
# Youngs Moduli (GPa) = 68.35985 12.38103 80.44294
#
# Poissons Ratio (x) = 0.12485 0.59323
# Poissons Ratio (y) = 0.68932 0.40727
# Poissons Ratio (z) = 0.50412 0.06268
#
# Static dielectric constant tensor:
#      x y z
#    x 1.636840 0.000000 -0.002340 
#    y 0.000000 1.636690 0.000000 
#    z -0.002340 0.000000 1.635440 
# 
# From -- ./inp_files/36933.got.cif
#   From: 2010.05.17/outbox.cif.g08.bks.cpg/sg10_19_cif.got.tgz:36933.got - 2010.06.03 11:33:40.
