data_PCOD9143335
_publ_section_title
;
Structure prediction by ZEFSAII (Michael W. Deem and Ramdas Pophale) SiO2 
 PCOD9143335
Probable space group: P 2/M
;
_chemical_formula_sum "Si O2"
_cell_formula_units_Z 24
_cell_length_a 23.410872
_cell_length_b 7.687817
_cell_length_c 9.876394
_cell_angle_alpha 90.000000
_cell_angle_beta 41.481333
_cell_angle_gamma 90.000000
_cell_volume 1177.398896
_symmetry_space_group_name_H-M "P 2/M"
_symmetry_group_IT_number 10
_symmetry_cell_setting 'monoclinic'
loop_
_space_group_symop_operation_xyz
x,y,z
-x,y,-z
-x,-y,-z
x,-y,z
loop_
_atom_site_type_symbol
_atom_site_label
_atom_site_fract_x
_atom_site_fract_y
_atom_site_fract_z
Si Si1 0.711586 0.787140 0.411286
Si Si2 0.416538 0.801554 0.578518
Si Si3 0.865299 0.209787 0.935580
Si Si4 0.269620 0.698208 0.033031
Si Si5 0.227490 0.789713 0.408084
Si Si6 0.968892 0.787323 0.205376
O O1 0.628405 0.724394 0.475441
O O2 0.796662 0.737868 0.174063
O O3 0.722471 0.730834 0.546221
O O4 0.709660 0.000000 0.412690
O O5 0.500000 0.718535 0.500000
O O6 0.441466 0.000000 0.498048
O O7 0.339562 0.806352 0.824977
O O8 0.866809 0.000000 0.929903
O O9 0.823883 0.269187 0.868388
O O10 0.959786 0.269730 0.812234
O O11 0.293583 0.500000 0.965565
O O12 0.267197 0.735094 0.195536
O O13 0.128172 0.729424 0.594238
O O14 0.226152 0.000000 0.413381
O O15 0.968127 0.000000 0.207685
O O16 0.000000 0.736057 0.000000
#
# Coordination Sequence:
#
# PCOD9143335 Si02
#       6
#     4   4   4   4   4   4
#     4   8  14  27  52  80 102 127 162 208 258 306
#     4   9  18  36  62  86 102 122 161 212 263 314
#     4   9  16  31  53  76 101 132 176 221 261 299
#     4  11  23  36  49  71 107 144 175 205 250 306
#     4  10  18  31  52  77 105 136 171 214 262 300
#     4   9  15  26  51  82 103 127 172 227 264 294
#
# _framework density 20.383915999999999
#
# number of rings (size 3 to 8) (size 9 to 14) (size 15 to 20)
#    0.000    2.667    1.667    2.500    0.000    1.000 
#    0.000    8.333    0.000    6.000    0.000    0.000 
#    0.000    0.000    0.000    0.000    0.000    0.000 
#
# Total GULP energy -133873.420431 kJ/mol
# GULP energy per Si atom -5578.059185 kJ/mol
# Density = 2.033752 g / cm^3
# Si number density = 20.383916 Si / 1000 Ang^3
#
#
#
# Elastic Constant Matrix: (Units=GPa)
#
#
# Indices 1 2 3 4 5 6 
#
# 1 203.9698 7.4813 52.2722 0.0000 8.5211 0.0000
# 2 7.4813 42.7054 -4.4976 0.0000 0.1805 0.0000
# 3 52.2722 -4.4976 41.2788 0.0000 16.3267 0.0000
# 4 0.0000 0.0000 0.0000 -83.4911 0.0000 51.6423
# 5 8.5211 0.1805 16.3267 0.0000 37.2922 0.0000
# 6 0.0000 0.0000 0.0000 51.6423 0.0000 -207.8973
#
#
#
# Elastic Compliance Matrix: (Units=1/GPa)
#
#
# Indices 1 2 3 4 5 6 
#
# 1 0.007790 -0.002582 -0.011426 0.000000 0.003235 0.000000
# 2 -0.002582 0.024614 0.006972 0.000000 -0.002582 0.000000
# 3 -0.011426 0.006972 0.046484 0.000000 -0.017774 0.000000
# 4 0.000000 0.000000 0.000000 -0.014152 0.000000 -0.003515
# 5 0.003235 -0.002582 -0.017774 0.000000 0.033870 0.000000
# 6 0.000000 0.000000 0.000000 -0.003515 0.000000 -0.005683
#
#
# Mechanical properties :
#
#
# Convention : Reuss Voigt Hill
#
# Bulk Modulus (GPa) = 15.42793 44.27398 29.85095
# Shear Modulus (GPa) = 38.88027 -35.30604 1.78711
#
# Velocity S-wave (km/s) = 4.37212 -4.16631 0.93735
# Velocity P-wave (km/s) = 5.75085 1.17345 3.98091
#
# Compressibility (1/GPa) = 0.06481752
#
# Stress axis : x y z
#
# Youngs Moduli (GPa) = 128.36306 40.62769 21.51276
#
# Poissons Ratio (x) = 0.10489 0.24580
# Poissons Ratio (y) = 0.33140 -0.14999
# Poissons Ratio (z) = 1.46666 -0.28327
#
# Static dielectric constant tensor:
#      x y z
#    x 1.753610 0.000000 -0.006100 
#    y 0.000000 1.757770 0.000000 
#    z -0.006100 0.000000 1.673740 
# 
# From -- ./inp_files/27216.got.cif
#   From: 2010.05.17/outbox.cif.g08.bks.cpg/sg10_14_cif.got.tgz:27216.got - 2010.06.03 11:33:40.
