data_PCOD9143173
_publ_section_title
;
Structure prediction by ZEFSAII (Michael W. Deem and Ramdas Pophale) SiO2 
 PCOD9143173
Probable space group: P 2/M
;
_chemical_formula_sum "Si O2"
_cell_formula_units_Z 18
_cell_length_a 23.112607
_cell_length_b 7.519729
_cell_length_c 15.120372
_cell_angle_alpha 90.000000
_cell_angle_beta 155.193221
_cell_angle_gamma 90.000000
_cell_volume 1102.572466
_symmetry_space_group_name_H-M "P 2/M"
_symmetry_group_IT_number 10
_symmetry_cell_setting 'monoclinic'
loop_
_space_group_symop_operation_xyz
x,y,z
-x,y,-z
-x,-y,-z
x,-y,z
loop_
_atom_site_type_symbol
_atom_site_label
_atom_site_fract_x
_atom_site_fract_y
_atom_site_fract_z
Si Si1 0.957747 0.291399 0.162204
Si Si2 0.265959 0.000000 0.178991
Si Si3 0.136527 0.289598 0.248412
Si Si4 0.103970 0.289150 0.723181
Si Si5 0.331389 0.000000 0.065526
Si Si6 0.644680 0.000000 0.504579
O O1 0.926056 0.500000 0.106298
O O2 0.967499 0.255837 0.280396
O O3 0.089754 0.253870 0.284609
O O4 0.833428 0.171208 0.955161
O O5 0.359711 0.000000 0.394809
O O6 0.331004 0.000000 0.172177
O O7 0.164095 0.500000 0.275778
O O8 0.264604 0.169425 0.398979
O O9 0.000000 0.247882 0.000000
O O10 0.134775 0.500000 0.760796
O O11 0.241266 0.170622 0.911493
O O12 0.000000 0.243393 0.500000
O O13 0.488933 0.000000 0.253275
#
# Coordination Sequence:
#
# PCOD9143173 Si02
#       6
#     4   2   4   4   2   2
#     4   9  17  30  50  76  97 119 164 210 240 275
#     4  10  18  31  47  67 100 136 162 192 235 286
#     4  10  19  31  49  71  98 133 169 202 232 274
#     4   9  18  35  58  76  92 121 162 209 253 288
#     4  10  22  33  47  74 104 129 159 199 244 294
#     4  12  21  31  47  70 104 141 164 187 235 296
#
# _framework density 16.325457
#
# number of rings (size 3 to 8) (size 9 to 14) (size 15 to 20)
#    0.000    2.222    2.222    1.667    0.000    0.889 
#    0.000    0.000    0.000    9.333    0.000    6.222 
#    0.000    0.000    0.000    0.000    0.000    0.000 
#
# Total GULP energy -100342.167930 kJ/mol
# GULP energy per Si atom -5574.564885 kJ/mol
# Density = 1.628830 g / cm^3
# Si number density = 16.325457 Si / 1000 Ang^3
#
#
#
# Elastic Constant Matrix: (Units=GPa)
#
#
# Indices 1 2 3 4 5 6 
#
# 1 69.1289 41.5545 65.7988 0.0000 -3.4914 0.0000
# 2 41.5545 68.8553 63.9542 0.0000 6.9514 0.0000
# 3 65.7988 63.9542 127.8070 0.0000 8.0896 0.0000
# 4 0.0000 0.0000 0.0000 11.3390 0.0000 -2.6007
# 5 -3.4914 6.9514 8.0896 0.0000 25.0226 0.0000
# 6 0.0000 0.0000 0.0000 -2.6007 0.0000 21.5069
#
#
#
# Elastic Compliance Matrix: (Units=1/GPa)
#
#
# Indices 1 2 3 4 5 6 
#
# 1 0.032926 -0.008600 -0.013363 0.000000 0.011303 0.000000
# 2 -0.008600 0.029637 -0.010010 0.000000 -0.006197 0.000000
# 3 -0.013363 -0.010010 0.020066 0.000000 -0.005571 0.000000
# 4 0.000000 0.000000 0.000000 0.090707 0.000000 0.010968
# 5 0.011303 -0.006197 -0.005571 0.000000 0.045063 0.000000
# 6 0.000000 0.000000 0.000000 0.010968 0.000000 0.047823
#
#
# Mechanical properties :
#
#
# Convention : Reuss Voigt Hill
#
# Bulk Modulus (GPa) = 53.52974 67.60071 60.56522
# Shear Modulus (GPa) = 14.86345 17.87263 16.36804
#
# Velocity S-wave (km/s) = 3.02063 3.31232 3.16983
# Velocity P-wave (km/s) = 6.71014 7.49177 7.11170
#
# Compressibility (1/GPa) = 0.01868120
#
# Stress axis : x y z
#
# Youngs Moduli (GPa) = 30.37145 33.74182 49.83605
#
# Poissons Ratio (x) = 0.29018 0.66597
# Poissons Ratio (y) = 0.26119 0.49888
# Poissons Ratio (z) = 0.40586 0.33777
#
# Static dielectric constant tensor:
#      x y z
#    x 1.581970 0.000000 -0.006650 
#    y 0.000000 1.565100 0.000000 
#    z -0.006650 0.000000 1.496980 
# 
# From -- ./inp_files/21688.got.cif
#   From: 2010.05.17/outbox.cif.g08.bks.cpg/sg10_11_cif.got.tgz:21688.got - 2010.06.03 11:33:40.
