data_PCOD9143690
_publ_section_title
;
Structure prediction by ZEFSAII (Michael W. Deem and Ramdas Pophale) SiO2 
 PCOD9143690
Probable space group: P 2/M
;
_chemical_formula_sum "Si O2"
_cell_formula_units_Z 24
_cell_length_a 8.233980
_cell_length_b 15.921855
_cell_length_c 14.032322
_cell_angle_alpha 90.000000
_cell_angle_beta 139.951934
_cell_angle_gamma 90.000000
_cell_volume 1183.680076
_symmetry_space_group_name_H-M "P 2/M"
_symmetry_group_IT_number 10
_symmetry_cell_setting 'monoclinic'
loop_
_space_group_symop_operation_xyz
x,y,z
-x,y,-z
-x,-y,-z
x,-y,z
loop_
_atom_site_type_symbol
_atom_site_label
_atom_site_fract_x
_atom_site_fract_y
_atom_site_fract_z
Si Si1 0.524871 0.259459 0.396317
Si Si2 0.566781 0.000000 0.917589
Si Si3 0.773145 0.283771 0.078782
Si Si4 0.986993 0.000000 0.606531
Si Si5 0.409488 0.829849 0.166200
Si Si6 0.021794 0.182626 0.656850
Si Si7 0.152415 0.597121 0.169093
O O1 0.500000 0.254360 0.500000
O O2 0.393617 0.187131 0.271702
O O3 0.825117 0.246235 0.520823
O O4 0.396995 0.343487 0.295761
O O5 0.683026 0.083339 0.922884
O O6 0.500000 0.000000 0.000000
O O7 0.280526 0.000000 0.757745
O O8 0.904736 0.215541 0.205940
O O9 0.949974 0.364177 0.151665
O O10 0.500000 0.302474 0.000000
O O11 0.728287 0.242760 0.955443
O O12 0.892837 0.909872 0.600851
O O13 0.000000 0.000000 0.500000
O O14 0.709036 0.823554 0.275388
O O15 0.214522 0.500000 0.213138
O O16 0.000000 0.601945 0.000000
#
# Coordination Sequence:
#
# PCOD9143690 Si02
#       7
#     4   2   4   2   4   4   4
#     4  12  23  38  61  88 124 163 201 242 302 369
#     4  10  18  34  60  95 119 161 219 255 289 339
#     4  10  20  38  65  91 118 155 201 259 307 355
#     4  10  18  32  54  84 125 163 201 240 280 344
#     4  10  20  36  62  88 126 163 207 253 291 348
#     4  10  20  36  59  91 120 164 207 248 293 346
#     4  11  24  45  68  86 114 156 200 249 314 383
#
# _framework density 20.275748
#
# number of rings (size 3 to 8) (size 9 to 14) (size 15 to 20)
#    0.000    1.500    3.333    5.000    0.000    0.667 
#    0.000    1.667    0.000    3.000    0.000    0.000 
#    0.000    0.000    0.000    0.000    0.000    0.000 
#
# Total GULP energy -133653.127068 kJ/mol
# GULP energy per Si atom -5568.880295 kJ/mol
# Density = 2.022960 g / cm^3
# Si number density = 20.275748 Si / 1000 Ang^3
#
#
#
# Elastic Constant Matrix: (Units=GPa)
#
#
# Indices 1 2 3 4 5 6 
#
# 1 43.6836 38.6529 21.3655 0.0000 -14.4399 0.0000
# 2 38.6529 138.1089 35.5280 0.0000 0.0873 0.0000
# 3 21.3655 35.5280 100.7396 0.0000 -13.0962 0.0000
# 4 0.0000 0.0000 0.0000 33.6161 0.0000 0.6696
# 5 -14.4399 0.0873 -13.0962 0.0000 49.9081 0.0000
# 6 0.0000 0.0000 0.0000 0.6696 0.0000 22.5152
#
#
#
# Elastic Compliance Matrix: (Units=1/GPa)
#
#
# Indices 1 2 3 4 5 6 
#
# 1 0.035695 -0.009202 -0.003086 0.000000 0.009534 0.000000
# 2 -0.009202 0.010365 -0.002125 0.000000 -0.003238 0.000000
# 3 -0.003086 -0.002125 0.011611 0.000000 0.002158 0.000000
# 4 0.000000 0.000000 0.000000 0.029765 0.000000 -0.000885
# 5 0.009534 -0.003238 0.002158 0.000000 0.023367 0.000000
# 6 0.000000 0.000000 0.000000 -0.000885 0.000000 0.044441
#
#
# Mechanical properties :
#
#
# Convention : Reuss Voigt Hill
#
# Bulk Modulus (GPa) = 34.66738 52.62498 43.64618
# Shear Modulus (GPa) = 25.81520 33.67360 29.74440
#
# Velocity S-wave (km/s) = 3.57207 4.07969 3.83429
# Velocity P-wave (km/s) = 5.84363 6.94283 6.41681
#
# Compressibility (1/GPa) = 0.02884556
#
# Stress axis : x y z
#
# Youngs Moduli (GPa) = 28.01493 96.48090 86.12677
#
# Poissons Ratio (x) = 0.88785 0.26576
# Poissons Ratio (y) = 0.25780 0.18299
# Poissons Ratio (z) = 0.08644 0.20498
#
# Static dielectric constant tensor:
#      x y z
#    x 1.752180 0.000000 -0.002780 
#    y 0.000000 1.917760 0.000000 
#    z -0.002780 0.000000 1.734420 
# 
# From -- ./inp_files/61970.got.cif
#   From: 2010.05.17/outbox.cif.g08.bks.cpg/sg10_31_cif.got.tgz:61970.got - 2010.06.03 11:33:40.
