data_PCOD9143336
_publ_section_title
;
Structure prediction by ZEFSAII (Michael W. Deem and Ramdas Pophale) SiO2 
 PCOD9143336
Probable space group: P 2/M
;
_chemical_formula_sum "Si O2"
_cell_formula_units_Z 28
_cell_length_a 9.681689
_cell_length_b 9.400923
_cell_length_c 25.660303
_cell_angle_alpha 90.000000
_cell_angle_beta 40.580954
_cell_angle_gamma 90.000000
_cell_volume 1519.305992
_symmetry_space_group_name_H-M "P 2/M"
_symmetry_group_IT_number 10
_symmetry_cell_setting 'monoclinic'
loop_
_space_group_symop_operation_xyz
x,y,z
-x,y,-z
-x,-y,-z
x,-y,z
loop_
_atom_site_type_symbol
_atom_site_label
_atom_site_fract_x
_atom_site_fract_y
_atom_site_fract_z
Si Si1 0.757331 0.167162 0.585406
Si Si2 0.266382 0.334752 0.581326
Si Si3 0.677731 0.336325 0.995103
Si Si4 0.351860 0.335079 0.677032
Si Si5 0.369786 0.167557 0.153569
Si Si6 0.149840 0.168272 0.323508
Si Si7 0.985295 0.832651 0.835603
O O1 0.584405 0.266036 0.608109
O O2 0.739444 0.188814 0.652725
O O3 0.000000 0.198030 0.500000
O O4 0.718484 0.000000 0.584714
O O5 0.500000 0.279557 0.500000
O O6 0.255850 0.500000 0.567599
O O7 0.251851 0.329271 0.648012
O O8 0.073713 0.248356 0.612691
O O9 0.734736 0.500000 0.989289
O O10 0.871075 0.245679 0.916341
O O11 0.500000 0.336851 0.000000
O O12 0.563158 0.260009 0.076191
O O13 0.362493 0.500000 0.689735
O O14 0.202407 0.243998 0.757636
O O15 0.287489 0.212643 0.233976
O O16 0.176357 0.180856 0.167444
O O17 0.427022 0.000000 0.138539
O O18 0.108364 0.000000 0.329345
O O19 0.015278 0.000000 0.836861
#
# Coordination Sequence:
#
# PCOD9143336 Si02
#       7
#     4   4   4   4   4   4   4
#     4  10  22  39  57  78 106 143 186 227 270 322
#     4  10  21  35  52  77 107 138 174 221 275 324
#     4   9  17  28  46  75 110 142 173 212 260 317
#     4  11  22  35  54  79 109 142 180 224 270 323
#     4   9  17  30  49  76 107 139 176 217 265 317
#     4  10  20  35  55  79 106 139 181 226 267 317
#     4  10  18  31  52  77 108 142 177 218 266 317
#
# _framework density 18.429466000000001
#
# number of rings (size 3 to 8) (size 9 to 14) (size 15 to 20)
#    0.000    2.143    1.429    2.143    0.000    4.571 
#    0.000    0.000    0.000    0.857    0.000    6.000 
#    0.000    0.000    0.000    0.000    0.000    0.000 
#
# Total GULP energy -156288.049241 kJ/mol
# GULP energy per Si atom -5581.716044 kJ/mol
# Density = 1.838752 g / cm^3
# Si number density = 18.429466 Si / 1000 Ang^3
#
#
#
# Elastic Constant Matrix: (Units=GPa)
#
#
# Indices 1 2 3 4 5 6 
#
# 1 19.4209 14.8469 -8.2156 0.0000 -0.2917 0.0000
# 2 14.8469 79.9530 35.2856 0.0000 -8.0055 0.0000
# 3 -8.2156 35.2856 80.6148 0.0000 6.9949 0.0000
# 4 0.0000 0.0000 0.0000 29.5270 0.0000 -1.2357
# 5 -0.2917 -8.0055 6.9949 0.0000 23.8277 0.0000
# 6 0.0000 0.0000 0.0000 -1.2357 0.0000 8.2902
#
#
#
# Elastic Compliance Matrix: (Units=1/GPa)
#
#
# Indices 1 2 3 4 5 6 
#
# 1 0.078691 -0.024768 0.020009 0.000000 -0.013232 0.000000
# 2 -0.024768 0.024678 -0.014385 0.000000 0.012211 0.000000
# 3 0.020009 -0.014385 0.021691 0.000000 -0.010956 0.000000
# 4 0.000000 0.000000 0.000000 0.034080 0.000000 0.005080
# 5 -0.013232 0.012211 -0.010956 0.000000 0.049125 0.000000
# 6 0.000000 0.000000 0.000000 0.005080 0.000000 0.121382
#
#
# Mechanical properties :
#
#
# Convention : Reuss Voigt Hill
#
# Bulk Modulus (GPa) = 11.52457 29.31360 20.41908
# Shear Modulus (GPa) = 12.59894 21.53378 17.06636
#
# Velocity S-wave (km/s) = 2.61747 3.42196 3.04639
# Velocity P-wave (km/s) = 3.92451 5.61724 4.84537
#
# Compressibility (1/GPa) = 0.08677111
#
# Stress axis : x y z
#
# Youngs Moduli (GPa) = 12.70791 40.52208 46.10214
#
# Poissons Ratio (x) = 1.00364 -0.92244
# Poissons Ratio (y) = 0.31475 0.66319
# Poissons Ratio (z) = -0.25427 0.58292
#
# Static dielectric constant tensor:
#      x y z
#    x 1.624630 0.000000 0.020460 
#    y 0.000000 1.618380 0.000000 
#    z 0.020460 0.000000 1.636360 
# 
# From -- ./inp_files/36963.got.cif
#   From: 2010.05.17/outbox.cif.g08.bks.cpg/sg10_19_cif.got.tgz:36963.got - 2010.06.03 11:33:40.
