data_PCOD9143022
_publ_section_title
;
Structure prediction by ZEFSAII (Michael W. Deem and Ramdas Pophale) SiO2 
 PCOD9143022
Probable space group: P 2/M
;
_chemical_formula_sum "Si O2"
_cell_formula_units_Z 32
_cell_length_a 15.225002
_cell_length_b 7.791400
_cell_length_c 11.234938
_cell_angle_alpha 90.000000
_cell_angle_beta 97.999458
_cell_angle_gamma 90.000000
_cell_volume 1319.765868
_symmetry_space_group_name_H-M "P 2/M"
_symmetry_group_IT_number 10
_symmetry_cell_setting 'monoclinic'
loop_
_space_group_symop_operation_xyz
x,y,z
-x,y,-z
-x,-y,-z
x,-y,z
loop_
_atom_site_type_symbol
_atom_site_label
_atom_site_fract_x
_atom_site_fract_y
_atom_site_fract_z
Si Si1 0.824398 0.205228 0.778359
Si Si2 0.371842 0.299976 0.229772
Si Si3 0.259717 0.692864 0.558550
Si Si4 0.563828 0.294195 0.294183
Si Si5 0.925372 0.801432 0.579609
Si Si6 0.630329 0.195266 0.044045
Si Si7 0.808564 0.196566 0.217175
Si Si8 0.094755 0.790587 0.970670
O O1 0.719926 0.229999 0.733972
O O2 0.900087 0.276231 0.703790
O O3 0.839501 0.272227 0.914364
O O4 0.838731 0.000000 0.782892
O O5 0.371451 0.500000 0.256990
O O6 0.464641 0.226915 0.296926
O O7 0.377018 0.281100 0.086310
O O8 0.264968 0.500000 0.507935
O O9 0.357747 0.770184 0.602795
O O10 0.176567 0.794008 0.488154
O O11 0.225278 0.683703 0.687282
O O12 0.565157 0.500000 0.310323
O O13 0.584437 0.262947 0.156893
O O14 0.000000 0.730955 0.500000
O O15 0.952597 0.000000 0.601925
O O16 0.732683 0.190876 0.102639
O O17 0.600784 0.000000 0.021278
O O18 0.820617 0.000000 0.263497
O O19 0.891329 0.265763 0.161330
O O20 0.101280 0.000000 0.964535
O O21 0.000000 0.745193 0.000000
#
# Coordination Sequence:
#
# PCOD9143022 Si02
#       8
#     4   4   4   4   4   4   4   4
#     4  10  21  39  59  85 116 145 189 241 285 337
#     4  11  21  34  54  79 114 156 194 231 283 347
#     4  10  21  38  59  82 114 148 190 240 283 329
#     4   9  20  36  53  79 114 156 197 233 279 339
#     4  10  23  42  66  89 111 145 190 238 288 345
#     4  10  18  30  50  80 116 153 192 235 279 329
#     4   9  17  31  53  80 112 147 186 227 277 339
#     4   9  17  30  54  83 111 145 182 226 281 341
#
# _framework density 24.246725999999999
#
# number of rings (size 3 to 8) (size 9 to 14) (size 15 to 20)
#    0.000    2.250    1.250    1.500    1.750    4.250 
#    0.000    0.625    0.000    4.500    0.000    0.000 
#    0.000    0.000    0.000    0.000    0.000    0.000 
#
# Total GULP energy -178290.000277 kJ/mol
# GULP energy per Si atom -5571.562509 kJ/mol
# Density = 2.419154 g / cm^3
# Si number density = 24.246726 Si / 1000 Ang^3
#
#
#
# Elastic Constant Matrix: (Units=GPa)
#
#
# Indices 1 2 3 4 5 6 
#
# 1 115.3695 -5.1302 14.5462 0.0000 2.6448 0.0000
# 2 -5.1302 41.9922 -0.4958 0.0000 -0.5942 0.0000
# 3 14.5462 -0.4958 30.4494 0.0000 -0.5305 0.0000
# 4 0.0000 0.0000 0.0000 5.7824 0.0000 6.1517
# 5 2.6448 -0.5942 -0.5305 0.0000 19.1764 0.0000
# 6 0.0000 0.0000 0.0000 6.1517 0.0000 10.9072
#
#
#
# Elastic Compliance Matrix: (Units=1/GPa)
#
#
# Indices 1 2 3 4 5 6 
#
# 1 0.009308 0.001065 -0.004453 0.000000 -0.001374 0.000000
# 2 0.001065 0.023951 -0.000109 0.000000 0.000592 0.000000
# 3 -0.004453 -0.000109 0.034994 0.000000 0.001579 0.000000
# 4 0.000000 0.000000 0.000000 0.432356 0.000000 -0.243849
# 5 -0.001374 0.000592 0.001579 0.000000 0.052399 0.000000
# 6 0.000000 0.000000 0.000000 -0.243849 0.000000 0.229213
#
#
# Mechanical properties :
#
#
# Convention : Reuss Voigt Hill
#
# Bulk Modulus (GPa) = 16.32373 22.85018 19.58696
# Shear Modulus (GPa) = 6.17562 19.09927 12.63745
#
# Velocity S-wave (km/s) = 1.59766 2.80965 2.28546
# Velocity P-wave (km/s) = 3.18596 4.46878 3.88074
#
# Compressibility (1/GPa) = 0.06126052
#
# Stress axis : x y z
#
# Youngs Moduli (GPa) = 107.43277 41.75160 28.57595
#
# Poissons Ratio (x) = -0.04447 0.12726
# Poissons Ratio (y) = -0.11443 0.00310
# Poissons Ratio (z) = 0.47843 0.00453
#
# Static dielectric constant tensor:
#      x y z
#    x 2.032800 0.000000 0.024010 
#    y 0.000000 1.934360 0.000000 
#    z 0.024010 0.000000 2.042270 
# 
# From -- ./inp_files/49776.got.cif
#   From: 2010.05.17/outbox.cif.g08.bks.cpg/sg10_25_cif.got.tgz:49776.got - 2010.06.03 11:33:40.
