data_PCOD9143189
_publ_section_title
;
Structure prediction by ZEFSAII (Michael W. Deem and Ramdas Pophale) SiO2 
 PCOD9143189
Probable space group: P 2/M
;
_chemical_formula_sum "Si O2"
_cell_formula_units_Z 24
_cell_length_a 11.229127
_cell_length_b 15.615792
_cell_length_c 13.035514
_cell_angle_alpha 90.000000
_cell_angle_beta 145.465485
_cell_angle_gamma 90.000000
_cell_volume 1295.825761
_symmetry_space_group_name_H-M "P 2/M"
_symmetry_group_IT_number 10
_symmetry_cell_setting 'monoclinic'
loop_
_space_group_symop_operation_xyz
x,y,z
-x,y,-z
-x,-y,-z
x,-y,z
loop_
_atom_site_type_symbol
_atom_site_label
_atom_site_fract_x
_atom_site_fract_y
_atom_site_fract_z
Si Si1 0.864445 0.314688 0.096050
Si Si2 0.067204 0.000000 0.706280
Si Si3 0.721013 0.399043 0.598640
Si Si4 0.818047 0.600677 0.284613
Si Si5 0.650913 0.000000 0.298900
Si Si6 0.642870 0.858036 0.998418
Si Si7 0.523267 0.602002 0.245965
O O1 0.857143 0.350717 0.207703
O O2 0.750239 0.223365 0.021942
O O3 0.103696 0.334449 0.234965
O O4 0.714967 0.370129 0.916909
O O5 0.161230 0.082656 0.829060
O O6 0.196314 0.000000 0.691352
O O7 0.817954 0.000000 0.510025
O O8 0.500000 0.396738 0.500000
O O9 0.792760 0.500000 0.649951
O O10 0.664176 0.372426 0.441910
O O11 0.793955 0.500000 0.242211
O O12 0.615667 0.633484 0.203175
O O13 0.000000 0.606950 0.500000
O O14 0.504821 0.916127 0.180403
O O15 0.500000 0.839879 0.000000
O O16 0.536887 0.500000 0.252430
#
# Coordination Sequence:
#
# PCOD9143189 Si02
#       7
#     4   2   4   4   2   4   4
#     4  12  21  32  51  78 106 134 169 221 263 303
#     4   8  15  31  50  67  97 146 167 188 243 306
#     4  10  22  39  54  70  98 139 187 228 259 301
#     4  10  18  31  48  69 104 142 168 202 253 309
#     4   8  15  31  48  67  99 139 172 197 235 306
#     4   9  18  30  46  74 107 132 168 205 246 308
#     4  10  20  33  51  73  99 136 174 209 260 311
#
# _framework density 18.521007999999998
#
# number of rings (size 3 to 8) (size 9 to 14) (size 15 to 20)
#    0.000    2.167    1.667    4.000    0.000    3.333 
#    6.000    2.500    0.000    0.000    0.000    2.333 
#    0.000    6.667    0.000    0.000    0.000    0.000 
#
# Total GULP energy -133729.300734 kJ/mol
# GULP energy per Si atom -5572.054197 kJ/mol
# Density = 1.847885 g / cm^3
# Si number density = 18.521008 Si / 1000 Ang^3
#
#
#
# Elastic Constant Matrix: (Units=GPa)
#
#
# Indices 1 2 3 4 5 6 
#
# 1 25.8340 15.5226 10.5221 0.0000 15.2173 0.0000
# 2 15.5226 36.0817 30.0727 0.0000 13.5216 0.0000
# 3 10.5221 30.0727 126.7258 0.0000 23.0194 0.0000
# 4 0.0000 0.0000 0.0000 5.4787 0.0000 14.8277
# 5 15.2173 13.5216 23.0194 0.0000 21.5220 0.0000
# 6 0.0000 0.0000 0.0000 14.8277 0.0000 -15.1985
#
#
#
# Elastic Compliance Matrix: (Units=1/GPa)
#
#
# Indices 1 2 3 4 5 6 
#
# 1 0.077564 -0.021059 0.007591 0.000000 -0.049730 0.000000
# 2 -0.021059 0.045400 -0.008128 0.000000 -0.004940 0.000000
# 3 0.007591 -0.008128 0.011464 0.000000 -0.012522 0.000000
# 4 0.000000 0.000000 0.000000 0.050138 0.000000 0.048915
# 5 -0.049730 -0.004940 -0.012522 0.000000 0.098124 0.000000
# 6 0.000000 0.000000 0.000000 0.048915 0.000000 -0.018074
#
#
# Mechanical properties :
#
#
# Convention : Reuss Voigt Hill
#
# Bulk Modulus (GPa) = 10.96054 33.43070 22.19562
# Shear Modulus (GPa) = 14.78326 11.19538 12.98932
#
# Velocity S-wave (km/s) = 2.82829 2.46126 2.65113
# Velocity P-wave (km/s) = 4.07386 5.11531 4.62400
#
# Compressibility (1/GPa) = 0.09123635
#
# Stress axis : x y z
#
# Youngs Moduli (GPa) = 12.89263 22.02637 87.22789
#
# Poissons Ratio (x) = 0.46384 -0.66211
# Poissons Ratio (y) = 0.27150 0.70897
# Poissons Ratio (z) = -0.09786 0.17902
#
# Static dielectric constant tensor:
#      x y z
#    x 1.685550 0.000000 0.032340 
#    y 0.000000 1.649040 0.000000 
#    z 0.032340 0.000000 1.686030 
# 
# From -- ./inp_files/51555.got.cif
#   From: 2010.05.17/outbox.cif.g08.bks.cpg/sg10_26_cif.got.tgz:51555.got - 2010.06.03 11:33:40.
