data_PCOD9143718
_publ_section_title
;
Structure prediction by ZEFSAII (Michael W. Deem and Ramdas Pophale) SiO2 
 PCOD9143718
Probable space group: P 2/M
;
_chemical_formula_sum "Si O2"
_cell_formula_units_Z 24
_cell_length_a 19.119081
_cell_length_b 7.991192
_cell_length_c 8.209965
_cell_angle_alpha 90.000000
_cell_angle_beta 114.666385
_cell_angle_gamma 90.000000
_cell_volume 1139.897571
_symmetry_space_group_name_H-M "P 2/M"
_symmetry_group_IT_number 10
_symmetry_cell_setting 'monoclinic'
loop_
_space_group_symop_operation_xyz
x,y,z
-x,y,-z
-x,-y,-z
x,-y,z
loop_
_atom_site_type_symbol
_atom_site_label
_atom_site_fract_x
_atom_site_fract_y
_atom_site_fract_z
Si Si1 0.002505 0.295841 0.191531
Si Si2 0.412095 0.201983 0.901237
Si Si3 0.838844 0.298893 0.161334
Si Si4 0.325918 0.300517 0.487605
Si Si5 0.831942 0.704892 0.521003
Si Si6 0.681495 0.198360 0.874720
O O1 0.002577 0.500000 0.203148
O O2 0.083105 0.238725 0.345134
O O3 0.923762 0.236303 0.197912
O O4 0.000000 0.251892 0.000000
O O5 0.375810 0.247694 0.691899
O O6 0.412482 0.000000 0.910658
O O7 0.500000 0.260994 0.000000
O O8 0.363308 0.266424 0.009556
O O9 0.843673 0.500000 0.169121
O O10 0.816840 0.241822 0.320990
O O11 0.770316 0.254044 0.973655
O O12 0.323536 0.500000 0.484487
O O13 0.238635 0.237714 0.436453
O O14 0.352045 0.245845 0.333800
O O15 0.832654 0.500000 0.526417
O O16 0.679765 0.000000 0.884762
#
# Coordination Sequence:
#
# PCOD9143718 Si02
#       6
#     4   4   4   4   4   4
#     4   9  16  26  45  77 114 150 192 241 287 333
#     4  10  23  44  66  87 116 155 196 238 288 353
#     4  10  18  32  55  81 113 151 198 247 287 334
#     4  11  22  38  63  92 122 153 193 244 294 345
#     4   9  17  30  51  82 114 150 193 241 291 333
#     4  11  23  39  61  87 119 157 196 237 291 356
#
# _framework density 21.054525000000002
#
# number of rings (size 3 to 8) (size 9 to 14) (size 15 to 20)
#    0.000    2.000    1.667    2.500    0.000    6.333 
#    0.000    3.333    0.000    7.500    0.000    0.000 
#    0.000    0.000    0.000    0.000    0.000    0.000 
#
# Total GULP energy -134019.032559 kJ/mol
# GULP energy per Si atom -5584.126357 kJ/mol
# Density = 2.100660 g / cm^3
# Si number density = 21.054525 Si / 1000 Ang^3
#
#
#
# Elastic Constant Matrix: (Units=GPa)
#
#
# Indices 1 2 3 4 5 6 
#
# 1 75.1113 -1.3805 56.3896 0.0000 17.2040 0.0000
# 2 -1.3805 10.4252 -5.9597 0.0000 2.1699 0.0000
# 3 56.3896 -5.9597 140.9921 0.0000 -4.8012 0.0000
# 4 0.0000 0.0000 0.0000 30.3559 0.0000 3.6858
# 5 17.2040 2.1699 -4.8012 0.0000 30.6102 0.0000
# 6 0.0000 0.0000 0.0000 3.6858 0.0000 16.8123
#
#
#
# Elastic Compliance Matrix: (Units=1/GPa)
#
#
# Indices 1 2 3 4 5 6 
#
# 1 0.024667 0.000571 -0.010370 0.000000 -0.015530 0.000000
# 2 0.000571 0.099554 0.003749 0.000000 -0.006790 0.000000
# 3 -0.010370 0.003749 0.011650 0.000000 0.007390 0.000000
# 4 0.000000 0.000000 0.000000 0.033843 0.000000 -0.007420
# 5 -0.015530 -0.006790 0.007390 0.000000 0.043038 0.000000
# 6 0.000000 0.000000 0.000000 -0.007420 0.000000 0.061107
#
#
# Mechanical properties :
#
#
# Convention : Reuss Voigt Hill
#
# Bulk Modulus (GPa) = 8.07958 36.06970 22.07464
# Shear Modulus (GPa) = 15.28040 27.38763 21.33401
#
# Velocity S-wave (km/s) = 2.69690 3.61057 3.18665
# Velocity P-wave (km/s) = 3.68015 5.87795 4.90377
#
# Compressibility (1/GPa) = 0.12376879
#
# Stress axis : x y z
#
# Youngs Moduli (GPa) = 40.54061 10.04484 85.83529
#
# Poissons Ratio (x) = -0.00573 0.89012
# Poissons Ratio (y) = -0.02313 -0.32177
# Poissons Ratio (z) = 0.42041 -0.03765
#
# Static dielectric constant tensor:
#      x y z
#    x 1.780060 0.000000 -0.012660 
#    y 0.000000 1.765990 0.000000 
#    z -0.012660 0.000000 1.745900 
# 
# From -- ./inp_files/33500.got.cif
#   From: 2010.05.17/outbox.cif.g08.bks.cpg/sg10_17_cif.got.tgz:33500.got - 2010.06.03 11:33:40.
