data_PCOD9143104
_publ_section_title
;
Structure prediction by ZEFSAII (Michael W. Deem and Ramdas Pophale) SiO2 
 PCOD9143104
Probable space group: P 2/M
;
_chemical_formula_sum "Si O2"
_cell_formula_units_Z 32
_cell_length_a 11.230189
_cell_length_b 7.930968
_cell_length_c 22.084597
_cell_angle_alpha 90.000000
_cell_angle_beta 129.994746
_cell_angle_gamma 90.000000
_cell_volume 1506.919740
_symmetry_space_group_name_H-M "P 2/M"
_symmetry_group_IT_number 10
_symmetry_cell_setting 'monoclinic'
loop_
_space_group_symop_operation_xyz
x,y,z
-x,y,-z
-x,-y,-z
x,-y,z
loop_
_atom_site_type_symbol
_atom_site_label
_atom_site_fract_x
_atom_site_fract_y
_atom_site_fract_z
Si Si1 0.941848 0.806103 0.164949
Si Si2 0.143027 0.194289 0.413833
Si Si3 0.827926 0.306136 0.449660
Si Si4 0.468741 0.299592 0.162091
Si Si5 0.828782 0.300534 0.255321
Si Si6 0.500339 0.708035 0.696665
Si Si7 0.741844 0.303819 0.678267
Si Si8 0.358459 0.199453 0.995704
O O1 0.858131 0.798627 0.203008
O O2 0.103842 0.713677 0.229795
O O3 0.977572 0.000000 0.160795
O O4 0.811413 0.731675 0.077721
O O5 0.209043 0.301047 0.490816
O O6 0.223509 0.219842 0.374969
O O7 0.963304 0.246135 0.345047
O O8 0.154000 0.000000 0.434471
O O9 0.841756 0.500000 0.432533
O O10 0.677774 0.233145 0.367404
O O11 0.000000 0.228115 0.500000
O O12 0.440187 0.500000 0.148976
O O13 0.654342 0.273463 0.219256
O O14 0.424319 0.240231 0.214784
O O15 0.395351 0.221526 0.078193
O O16 0.849783 0.500000 0.250047
O O17 0.498318 0.500000 0.695661
O O18 0.599907 0.763744 0.671567
O O19 0.715371 0.500000 0.656853
O O20 0.349400 0.000000 0.978854
O O21 0.500000 0.268741 0.000000
#
# Coordination Sequence:
#
# PCOD9143104 Si02
#       8
#     4   4   4   4   4   4   4   4
#     4  10  19  33  53  77 110 144 179 224 271 322
#     4  11  22  35  54  82 115 146 183 227 272 320
#     4  10  20  38  63  86 113 144 179 222 274 330
#     4  10  20  34  55  82 110 139 182 230 276 326
#     4  10  18  30  52  81 110 141 180 223 273 329
#     4   9  20  38  58  81 108 143 183 230 277 322
#     4  10  20  37  59  79 106 145 192 230 268 320
#     4  10  20  34  52  79 115 148 178 217 276 336
#
# _framework density 21.235372000000002
#
# number of rings (size 3 to 8) (size 9 to 14) (size 15 to 20)
#    0.000    2.000    1.250    4.500    0.000    4.500 
#    0.000    6.250    0.000    3.750    0.000    0.000 
#    0.000    0.000    0.000    0.000    0.000    0.000 
#
# Total GULP energy -178623.489163 kJ/mol
# GULP energy per Si atom -5581.984036 kJ/mol
# Density = 2.118704 g / cm^3
# Si number density = 21.235372 Si / 1000 Ang^3
#
#
#
# Elastic Constant Matrix: (Units=GPa)
#
#
# Indices 1 2 3 4 5 6 
#
# 1 67.1931 5.4013 17.1745 0.0000 -0.9158 0.0000
# 2 5.4013 29.3850 -13.6711 0.0000 1.8562 0.0000
# 3 17.1745 -13.6711 106.1062 0.0000 -11.7673 0.0000
# 4 0.0000 0.0000 0.0000 27.9990 0.0000 -6.7614
# 5 -0.9158 1.8562 -11.7673 0.0000 17.5054 0.0000
# 6 0.0000 0.0000 0.0000 -6.7614 0.0000 -2.3350
#
#
#
# Elastic Compliance Matrix: (Units=1/GPa)
#
#
# Indices 1 2 3 4 5 6 
#
# 1 0.016060 -0.004416 -0.003267 0.000000 -0.000888 0.000000
# 2 -0.004416 0.037424 0.005479 0.000000 -0.000516 0.000000
# 3 -0.003267 0.005479 0.011428 0.000000 0.006930 0.000000
# 4 0.000000 0.000000 0.000000 0.021018 0.000000 -0.060862
# 5 -0.000888 -0.000516 0.006930 0.000000 0.061792 0.000000
# 6 0.000000 0.000000 0.000000 -0.060862 0.000000 -0.252030
#
#
# Mechanical properties :
#
#
# Convention : Reuss Voigt Hill
#
# Bulk Modulus (GPa) = 16.52734 24.49931 20.51332
# Shear Modulus (GPa) = -62.71032 21.55252 -20.57890
#
# Velocity S-wave (km/s) = -5.44014 3.18926 -3.11639
# Velocity P-wave (km/s) = 5.62676 5.01238 1.80783
#
# Compressibility (1/GPa) = 0.06050580
#
# Stress axis : x y z
#
# Youngs Moduli (GPa) = 62.26499 26.72048 87.50560
#
# Poissons Ratio (x) = 0.11800 0.28588
# Poissons Ratio (y) = 0.27496 -0.47948
# Poissons Ratio (z) = 0.20342 -0.14641
#
# Static dielectric constant tensor:
#      x y z
#    x 1.781250 0.000000 0.000290 
#    y 0.000000 1.781510 0.000000 
#    z 0.000290 0.000000 1.772140 
# 
# From -- ./inp_files/83622.got.cif
#   From: 2010.05.17/outbox.cif.g08.bks.cpg/sg10_42_cif.got.tgz:83622.got - 2010.06.03 11:33:40.
