data_PCOD9143697
_publ_section_title
;
Structure prediction by ZEFSAII (Michael W. Deem and Ramdas Pophale) SiO2 
 PCOD9143697
Probable space group: P 2/M
;
_chemical_formula_sum "Si O2"
_cell_formula_units_Z 28
_cell_length_a 11.799006
_cell_length_b 7.471957
_cell_length_c 15.118860
_cell_angle_alpha 90.000000
_cell_angle_beta 69.631303
_cell_angle_gamma 90.000000
_cell_volume 1249.560449
_symmetry_space_group_name_H-M "P 2/M"
_symmetry_group_IT_number 10
_symmetry_cell_setting 'monoclinic'
loop_
_space_group_symop_operation_xyz
x,y,z
-x,y,-z
-x,-y,-z
x,-y,z
loop_
_atom_site_type_symbol
_atom_site_label
_atom_site_fract_x
_atom_site_fract_y
_atom_site_fract_z
Si Si1 0.380494 0.781478 0.144411
Si Si2 0.105437 0.290499 0.910219
Si Si3 0.817072 0.719887 0.298572
Si Si4 0.460008 0.283673 0.609489
Si Si5 0.343709 0.216076 0.955563
Si Si6 0.100505 0.295093 0.535714
Si Si7 0.306460 0.794496 0.350039
O O1 0.521722 0.726313 0.110567
O O2 0.307450 0.719986 0.250262
O O3 0.380248 0.000000 0.146792
O O4 0.330684 0.727913 0.061938
O O5 0.076593 0.500000 0.906380
O O6 0.118323 0.216944 0.807885
O O7 0.234291 0.277983 0.924401
O O8 0.000000 0.211631 0.000000
O O9 0.816702 0.500000 0.299974
O O10 0.676522 0.773146 0.335098
O O11 0.875357 0.783118 0.374433
O O12 0.500000 0.229116 0.500000
O O13 0.464841 0.500000 0.611577
O O14 0.556256 0.212856 0.653118
O O15 0.343258 0.000000 0.954098
O O16 0.061100 0.500000 0.562803
O O17 0.223633 0.297441 0.445767
O O18 0.000000 0.210351 0.500000
O O19 0.265977 0.000000 0.358188
#
# Coordination Sequence:
#
# PCOD9143697 Si02
#       7
#     4   4   4   4   4   4   4
#     4   8  17  33  54  79 107 139 166 210 270 314
#     4  10  21  35  52  76 108 139 170 216 271 309
#     4   9  18  35  55  76 105 139 172 215 266 310
#     4  10  18  32  55  77 104 140 178 213 254 312
#     4   9  17  35  58  76 101 138 180 212 252 315
#     4  10  21  38  57  74  99 142 188 215 247 312
#     4  11  21  33  52  81 113 136 168 217 270 314
#
# _framework density 22.407879000000001
#
# number of rings (size 3 to 8) (size 9 to 14) (size 15 to 20)
#    0.000    2.429    1.429    2.143    0.000    2.000 
#    0.000    5.714    0.000    0.000    0.000    0.000 
#    0.000    0.000    0.000    0.000    0.000    0.000 
#
# Total GULP energy -156420.906840 kJ/mol
# GULP energy per Si atom -5586.460959 kJ/mol
# Density = 2.235688 g / cm^3
# Si number density = 22.407879 Si / 1000 Ang^3
#
#
#
# Elastic Constant Matrix: (Units=GPa)
#
#
# Indices 1 2 3 4 5 6 
#
# 1 101.3926 -5.9105 62.8212 0.0000 14.7007 0.0000
# 2 -5.9105 64.1194 5.6863 0.0000 -4.9232 0.0000
# 3 62.8212 5.6863 204.0631 0.0000 12.8605 0.0000
# 4 0.0000 0.0000 0.0000 -3.7126 0.0000 -3.1738
# 5 14.7007 -4.9232 12.8605 0.0000 24.0938 0.0000
# 6 0.0000 0.0000 0.0000 -3.1738 0.0000 33.2858
#
#
#
# Elastic Compliance Matrix: (Units=1/GPa)
#
#
# Indices 1 2 3 4 5 6 
#
# 1 0.013044 0.001086 -0.003682 0.000000 -0.005771 0.000000
# 2 0.001086 0.016023 -0.000978 0.000000 0.003134 0.000000
# 3 -0.003682 -0.000978 0.006139 0.000000 -0.001230 0.000000
# 4 0.000000 0.000000 0.000000 -0.249051 0.000000 -0.023747
# 5 -0.005771 0.003134 -0.001230 0.000000 0.046323 0.000000
# 6 0.000000 0.000000 0.000000 -0.023747 0.000000 0.027779
#
#
# Mechanical properties :
#
#
# Convention : Reuss Voigt Hill
#
# Bulk Modulus (GPa) = 35.64168 54.97433 45.30801
# Shear Modulus (GPa) = -40.57076 31.19861 -4.68607
#
# Velocity S-wave (km/s) = -4.25968 3.73541 -1.44769
# Velocity P-wave (km/s) = 2.87276 6.57199 4.17961
#
# Compressibility (1/GPa) = 0.02805704
#
# Stress axis : x y z
#
# Youngs Moduli (GPa) = 76.66262 62.40882 162.89867
#
# Poissons Ratio (x) = -0.06776 0.59982
# Poissons Ratio (y) = -0.08324 0.15936
# Poissons Ratio (z) = 0.28229 0.06105
#
# Static dielectric constant tensor:
#      x y z
#    x 1.782920 0.000000 0.005220 
#    y 0.000000 1.860520 0.000000 
#    z 0.005220 0.000000 1.834240 
# 
# From -- ./inp_files/63356.got.cif
#   From: 2010.05.17/outbox.cif.g08.bks.cpg/sg10_32_cif.got.tgz:63356.got - 2010.06.03 11:33:40.
