data_PCOD9143868
_publ_section_title
;
Structure prediction by ZEFSAII (Michael W. Deem and Ramdas Pophale) SiO2 
 PCOD9143868
Probable space group: P 2/M
;
_chemical_formula_sum "Si O2"
_cell_formula_units_Z 32
_cell_length_a 29.881478
_cell_length_b 8.762495
_cell_length_c 20.696585
_cell_angle_alpha 90.000000
_cell_angle_beta 160.077857
_cell_angle_gamma 90.000000
_cell_volume 1846.525823
_symmetry_space_group_name_H-M "P 2/M"
_symmetry_group_IT_number 10
_symmetry_cell_setting 'monoclinic'
loop_
_space_group_symop_operation_xyz
x,y,z
-x,y,-z
-x,-y,-z
x,-y,z
loop_
_atom_site_type_symbol
_atom_site_label
_atom_site_fract_x
_atom_site_fract_y
_atom_site_fract_z
Si Si1 0.606553 0.317153 0.481866
Si Si2 0.323700 0.183015 0.060887
Si Si3 0.648119 0.315798 0.180440
Si Si4 0.685374 0.317158 0.448129
Si Si5 0.644955 0.184258 0.670926
Si Si6 0.617507 0.316557 0.993305
Si Si7 0.853936 0.814243 0.063008
Si Si8 0.151082 0.182668 0.443276
O O1 0.596125 0.500000 0.469678
O O2 0.460992 0.248450 0.274436
O O3 0.686911 0.276461 0.526007
O O4 0.664202 0.254092 0.626433
O O5 0.311268 0.241587 0.970926
O O6 0.331648 0.000000 0.072118
O O7 0.208528 0.231938 0.953219
O O8 0.655530 0.500000 0.194976
O O9 0.753106 0.245258 0.371156
O O10 0.500000 0.272530 0.000000
O O11 0.667251 0.271729 0.131566
O O12 0.699214 0.500000 0.460750
O O13 0.537831 0.278199 0.223336
O O14 0.790967 0.237774 0.546303
O O15 0.500000 0.227511 0.500000
O O16 0.647398 0.000000 0.669535
O O17 0.754693 0.233206 0.871343
O O18 0.626302 0.500000 0.999227
O O19 0.002222 0.762503 0.252701
O O20 0.854648 0.000000 0.063406
O O21 0.151924 0.000000 0.446263
#
# Coordination Sequence:
#
# PCOD9143868 Si02
#       8
#     4   4   4   4   4   4   4   4
#     4  10  20  33  52  81 111 135 171 225 269 306
#     4  10  18  33  55  77 106 143 178 212 263 321
#     4  10  19  36  57  76 106 144 176 214 269 318
#     4   9  18  35  53  73 107 145 172 208 269 323
#     4  10  18  34  58  79 103 141 182 218 262 318
#     4   9  18  33  54  79 106 135 173 223 266 305
#     4   9  20  37  53  76 111 144 172 214 271 317
#     4  11  22  35  54  80 109 138 178 224 259 311
#
# _framework density 17.329840999999998
#
# number of rings (size 3 to 8) (size 9 to 14) (size 15 to 20)
#    0.000    2.250    2.500    1.875    0.000    3.500 
#    0.000    5.000    0.000    7.500    0.000    0.000 
#    0.000    0.000    0.000    0.000    0.000    0.000 
#
# Total GULP energy -178525.788494 kJ/mol
# GULP energy per Si atom -5578.930890 kJ/mol
# Density = 1.729040 g / cm^3
# Si number density = 17.329841 Si / 1000 Ang^3
#
#
#
# Elastic Constant Matrix: (Units=GPa)
#
#
# Indices 1 2 3 4 5 6 
#
# 1 189.8010 45.5462 90.8195 0.0000 2.2819 0.0000
# 2 45.5462 25.0229 29.8138 0.0000 1.3554 0.0000
# 3 90.8195 29.8138 114.5377 0.0000 6.7947 0.0000
# 4 0.0000 0.0000 0.0000 54.8273 0.0000 8.4160
# 5 2.2819 1.3554 6.7947 0.0000 24.3069 0.0000
# 6 0.0000 0.0000 0.0000 8.4160 0.0000 38.3030
#
#
#
# Elastic Compliance Matrix: (Units=1/GPa)
#
#
# Indices 1 2 3 4 5 6 
#
# 1 0.011147 -0.014117 -0.005236 0.000000 0.001204 0.000000
# 2 -0.014117 0.075831 -0.008514 0.000000 -0.000523 0.000000
# 3 -0.005236 -0.008514 0.015295 0.000000 -0.003309 0.000000
# 4 0.000000 0.000000 0.000000 0.018876 0.000000 -0.004147
# 5 0.001204 -0.000523 -0.003309 0.000000 0.041982 0.000000
# 6 0.000000 0.000000 0.000000 -0.004147 0.000000 0.027019
#
#
# Mechanical properties :
#
#
# Convention : Reuss Voigt Hill
#
# Bulk Modulus (GPa) = 21.48692 73.52451 47.50571
# Shear Modulus (GPa) = 19.12812 34.36624 26.74718
#
# Velocity S-wave (km/s) = 3.32590 4.45800 3.93290
# Velocity P-wave (km/s) = 5.21292 8.30764 6.93511
#
# Compressibility (1/GPa) = 0.04653994
#
# Stress axis : x y z
#
# Youngs Moduli (GPa) = 89.71001 13.18720 65.38242
#
# Poissons Ratio (x) = 0.18616 0.34232
# Poissons Ratio (y) = 1.26642 0.55666
# Poissons Ratio (z) = 0.46969 0.11228
#
# Static dielectric constant tensor:
#      x y z
#    x 1.597820 0.000000 -0.002680 
#    y 0.000000 1.585490 0.000000 
#    z -0.002680 0.000000 1.563500 
# 
# From -- ./inp_files/87229.got.cif
#   From: 2010.05.17/outbox.cif.g08.bks.cpg/sg10_44_cif.got.tgz:87229.got - 2010.06.03 11:33:40.
