data_PCOD9143955
_publ_section_title
;
Structure prediction by ZEFSAII (Michael W. Deem and Ramdas Pophale) SiO2 
 PCOD9143955
Probable space group: P 2/M
;
_chemical_formula_sum "Si O2"
_cell_formula_units_Z 32
_cell_length_a 20.798022
_cell_length_b 7.976125
_cell_length_c 25.958521
_cell_angle_alpha 90.000000
_cell_angle_beta 156.634517
_cell_angle_gamma 90.000000
_cell_volume 1707.816041
_symmetry_space_group_name_H-M "P 2/M"
_symmetry_group_IT_number 10
_symmetry_cell_setting 'monoclinic'
loop_
_space_group_symop_operation_xyz
x,y,z
-x,y,-z
-x,-y,-z
x,-y,z
loop_
_atom_site_type_symbol
_atom_site_label
_atom_site_fract_x
_atom_site_fract_y
_atom_site_fract_z
Si Si1 0.491129 0.202226 0.318793
Si Si2 0.325394 0.700766 0.854822
Si Si3 0.824116 0.301153 0.854776
Si Si4 0.010585 0.202572 0.680884
Si Si5 0.182751 0.700811 0.642627
Si Si6 0.208016 0.204502 0.388157
Si Si7 0.685185 0.798345 0.642065
Si Si8 0.288796 0.202326 0.611094
O O1 0.314926 0.260552 0.205966
O O2 0.625079 0.253428 0.460094
O O3 0.563208 0.257738 0.316746
O O4 0.489793 0.000000 0.317879
O O5 0.341230 0.500000 0.861042
O O6 0.185828 0.734750 0.793762
O O7 0.262529 0.767898 0.753572
O O8 0.500000 0.768365 0.000000
O O9 0.838428 0.500000 0.861922
O O10 0.762194 0.241820 0.753529
O O11 0.000000 0.230816 0.000000
O O12 0.939284 0.258841 0.683520
O O13 0.877145 0.256103 0.539991
O O14 0.012888 0.000000 0.682331
O O15 0.169475 0.500000 0.638406
O O16 0.284434 0.736797 0.666110
O O17 0.000000 0.767924 0.500000
O O18 0.214704 0.261860 0.334218
O O19 0.205202 0.000000 0.386255
O O20 0.500000 0.736043 0.500000
O O21 0.677496 0.000000 0.633043
O O22 0.289157 0.000000 0.611677
#
# Coordination Sequence:
#
# PCOD9143955 Si02
#       8
#     4   4   4   4   4   4   4   4
#     4   9  17  34  56  78 104 135 174 215 260 314
#     4  10  21  36  51  70 101 138 172 207 251 304
#     4  11  24  38  51  75 113 148 177 215 262 312
#     4   9  17  31  52  77 105 133 163 207 259 306
#     4  10  19  32  51  75 102 134 174 213 248 301
#     4   8  15  30  53  81 106 127 162 215 265 303
#     4  10  18  33  59  83 104 136 177 220 263 311
#     4   9  18  31  53  82 106 129 165 219 266 301
#
# _framework density 18.737380999999999
#
# number of rings (size 3 to 8) (size 9 to 14) (size 15 to 20)
#    0.000    2.500    2.500    1.875    0.000    2.750 
#    0.000    3.750    0.000    6.000    0.000    0.000 
#    0.000    0.000    0.000    0.000    0.000    0.000 
#
# Total GULP energy -178456.175550 kJ/mol
# GULP energy per Si atom -5576.755486 kJ/mol
# Density = 1.869473 g / cm^3
# Si number density = 18.737381 Si / 1000 Ang^3
#
#
#
# Elastic Constant Matrix: (Units=GPa)
#
#
# Indices 1 2 3 4 5 6 
#
# 1 162.4442 2.4482 93.8527 0.0000 11.4938 0.0000
# 2 2.4482 6.8957 6.4400 0.0000 -6.5228 0.0000
# 3 93.8527 6.4400 140.2861 0.0000 9.6510 0.0000
# 4 0.0000 0.0000 0.0000 15.2658 0.0000 4.4656
# 5 11.4938 -6.5228 9.6510 0.0000 22.4096 0.0000
# 6 0.0000 0.0000 0.0000 4.4656 0.0000 52.2820
#
#
#
# Elastic Compliance Matrix: (Units=1/GPa)
#
#
# Indices 1 2 3 4 5 6 
#
# 1 0.010155 0.000573 -0.006671 0.000000 -0.002169 0.000000
# 2 0.000573 0.228936 -0.015929 0.000000 0.073203 0.000000
# 3 -0.006671 -0.015929 0.012785 0.000000 -0.006721 0.000000
# 4 0.000000 0.000000 0.000000 0.067185 0.000000 -0.005738
# 5 -0.002169 0.073203 -0.006721 0.000000 0.069938 0.000000
# 6 0.000000 0.000000 0.000000 -0.005738 0.000000 0.019617
#
#
# Mechanical properties :
#
#
# Convention : Reuss Voigt Hill
#
# Bulk Modulus (GPa) = 4.81180 57.23419 31.02300
# Shear Modulus (GPa) = 9.57959 31.78382 20.68170
#
# Velocity S-wave (km/s) = 2.26355 4.12306 3.32590
# Velocity P-wave (km/s) = 3.06678 7.29917 5.59835
#
# Compressibility (1/GPa) = 0.20782243
#
# Stress axis : x y z
#
# Youngs Moduli (GPa) = 98.47518 4.36803 78.21819
#
# Poissons Ratio (x) = -0.00250 0.52178
# Poissons Ratio (y) = -0.05646 1.24595
# Poissons Ratio (z) = 0.65691 0.06958
#
# Static dielectric constant tensor:
#      x y z
#    x 1.659510 0.000000 0.006040 
#    y 0.000000 1.669850 0.000000 
#    z 0.006040 0.000000 1.638400 
# 
# From -- ./inp_files/93819.got.cif
#   From: 2010.05.17/outbox.cif.g08.bks.cpg/sg10_47_cif.got.tgz:93819.got - 2010.06.03 11:33:40.
