data_PCOD9143502
_publ_section_title
;
Structure prediction by ZEFSAII (Michael W. Deem and Ramdas Pophale) SiO2 
 PCOD9143502
Probable space group: P 2/M
;
_chemical_formula_sum "Si O2"
_cell_formula_units_Z 26
_cell_length_a 11.376907
_cell_length_b 7.343587
_cell_length_c 21.634918
_cell_angle_alpha 90.000000
_cell_angle_beta 36.804948
_cell_angle_gamma 90.000000
_cell_volume 1082.883577
_symmetry_space_group_name_H-M "P 2/M"
_symmetry_group_IT_number 10
_symmetry_cell_setting 'monoclinic'
loop_
_space_group_symop_operation_xyz
x,y,z
-x,y,-z
-x,-y,-z
x,-y,z
loop_
_atom_site_type_symbol
_atom_site_label
_atom_site_fract_x
_atom_site_fract_y
_atom_site_fract_z
Si Si1 0.707857 0.217265 0.671662
Si Si2 0.289966 0.500000 0.695765
Si Si3 0.343442 0.784859 0.973509
Si Si4 0.036711 0.500000 0.066386
Si Si5 0.797144 0.218833 0.366102
Si Si6 0.129294 0.219372 0.533521
Si Si7 0.606377 0.500000 0.211373
Si Si8 0.752834 0.216010 0.840425
O O1 0.773329 0.256606 0.573167
O O2 0.508152 0.325455 0.765985
O O3 0.900949 0.277931 0.628105
O O4 0.681554 0.000000 0.690203
O O5 0.308136 0.326082 0.643921
O O6 0.418793 0.500000 0.703184
O O7 0.074308 0.500000 0.819488
O O8 0.180002 0.673210 0.006023
O O9 0.290895 0.762565 0.068521
O O10 0.336124 0.000000 0.962041
O O11 0.568720 0.715427 0.878096
O O12 0.841885 0.500000 0.105563
O O13 0.754123 0.275715 0.454651
O O14 0.026431 0.272875 0.264166
O O15 0.773533 0.000000 0.368853
O O16 0.117570 0.000000 0.542214
O O17 0.752207 0.000000 0.828297
#
# Coordination Sequence:
#
# PCOD9143502 Si02
#       8
#     4   2   4   2   4   4   2   4
#     4   9  18  36  55  75  97 116 158 211 244 282
#     4  10  22  31  42  71  98 134 173 183 224 289
#     4   9  16  27  42  62  92 127 159 197 231 266
#     4  10  20  30  42  65  90 127 173 190 215 279
#     4  10  18  32  49  71 105 130 152 195 243 293
#     4   8  17  33  57  79  94 121 154 196 258 297
#     4  10  22  33  49  73  94 132 172 193 233 277
#     4   8  14  24  42  66  91 123 157 189 236 283
#
# _framework density 24.009968000000001
#
# number of rings (size 3 to 8) (size 9 to 14) (size 15 to 20)
#    0.462    2.462    1.538    1.846    0.000    5.538 
#    0.000    1.538    0.000    2.769    0.000    2.154 
#    0.000    6.154    0.000    0.000    0.000    0.000 
#
# Total GULP energy -145237.378833 kJ/mol
# GULP energy per Si atom -5586.053032 kJ/mol
# Density = 2.395532 g / cm^3
# Si number density = 24.009968 Si / 1000 Ang^3
#
#
#
# Elastic Constant Matrix: (Units=GPa)
#
#
# Indices 1 2 3 4 5 6 
#
# 1 132.9282 56.8508 56.0629 0.0000 -11.6914 0.0000
# 2 56.8508 118.3876 23.3446 0.0000 -20.4408 0.0000
# 3 56.0629 23.3446 96.2186 0.0000 -29.7993 0.0000
# 4 0.0000 0.0000 0.0000 2.1306 0.0000 -18.7918
# 5 -11.6914 -20.4408 -29.7993 0.0000 58.2788 0.0000
# 6 0.0000 0.0000 0.0000 -18.7918 0.0000 18.9369
#
#
#
# Elastic Compliance Matrix: (Units=1/GPa)
#
#
# Indices 1 2 3 4 5 6 
#
# 1 0.012309 -0.005049 -0.006809 0.000000 -0.002783 0.000000
# 2 -0.005049 0.011231 0.001334 0.000000 0.003609 0.000000
# 3 -0.006809 0.001334 0.016347 0.000000 0.007461 0.000000
# 4 0.000000 0.000000 0.000000 -0.060543 0.000000 -0.060079
# 5 -0.002783 0.003609 0.007461 0.000000 0.021681 0.000000
# 6 0.000000 0.000000 0.000000 -0.060079 0.000000 -0.006812
#
#
# Mechanical properties :
#
#
# Convention : Reuss Voigt Hill
#
# Bulk Modulus (GPa) = 53.07619 68.89456 60.98538
# Shear Modulus (GPa) = 232.10928 29.95432 131.03180
#
# Velocity S-wave (km/s) = 9.84286 3.53594 7.39543
# Velocity P-wave (km/s) = 12.30162 6.73995 9.91859
#
# Compressibility (1/GPa) = 0.01884084
#
# Stress axis : x y z
#
# Youngs Moduli (GPa) = 81.24085 89.03722 61.17238
#
# Poissons Ratio (x) = 0.44953 0.41652
# Poissons Ratio (y) = 0.41017 -0.08163
# Poissons Ratio (z) = 0.55317 -0.11882
#
# Static dielectric constant tensor:
#      x y z
#    x 1.889510 0.000000 0.033890 
#    y 0.000000 1.899310 0.000000 
#    z 0.033890 0.000000 1.991370 
# 
# From -- ./inp_files/88511.got.cif
#   From: 2010.05.17/outbox.cif.g08.bks.cpg/sg10_45_cif.got.tgz:88511.got - 2010.06.03 11:33:40.
