data_PCOD9143631
_publ_section_title
;
Structure prediction by ZEFSAII (Michael W. Deem and Ramdas Pophale) SiO2 
 PCOD9143631
Probable space group: P 2/M
;
_chemical_formula_sum "Si O2"
_cell_formula_units_Z 28
_cell_length_a 20.156662
_cell_length_b 8.383361
_cell_length_c 25.426061
_cell_angle_alpha 90.000000
_cell_angle_beta 21.229900
_cell_angle_gamma 90.000000
_cell_volume 1555.813918
_symmetry_space_group_name_H-M "P 2/M"
_symmetry_group_IT_number 10
_symmetry_cell_setting 'monoclinic'
loop_
_space_group_symop_operation_xyz
x,y,z
-x,y,-z
-x,-y,-z
x,-y,z
loop_
_atom_site_type_symbol
_atom_site_label
_atom_site_fract_x
_atom_site_fract_y
_atom_site_fract_z
Si Si1 0.832088 0.807685 0.661327
Si Si2 0.287336 0.815943 0.138515
Si Si3 0.221951 0.184838 0.686319
Si Si4 0.562701 0.687393 0.376962
Si Si5 0.172834 0.305821 0.906698
Si Si6 0.568722 0.310639 0.073323
Si Si7 0.834402 0.307065 0.967708
O O1 0.826261 0.751958 0.727104
O O2 0.632228 0.764247 0.786009
O O3 0.000000 0.751744 0.500000
O O4 0.842961 0.000000 0.655880
O O5 0.234068 0.000000 0.168356
O O6 0.500000 0.816233 0.000000
O O7 0.300693 0.726136 0.073343
O O8 0.280298 0.284360 0.694974
O O9 0.388705 0.212882 0.523342
O O10 0.032306 0.246380 0.803392
O O11 0.209581 0.000000 0.709821
O O12 0.516302 0.500000 0.411623
O O13 0.646402 0.734520 0.259569
O O14 0.160844 0.500000 0.916477
O O15 0.180341 0.251034 0.961014
O O16 0.000000 0.248361 0.000000
O O17 0.543037 0.500000 0.095243
O O18 0.672987 0.253348 0.048517
O O19 0.834505 0.500000 0.967359
#
# Coordination Sequence:
#
# PCOD9143631 Si02
#       7
#     4   4   4   4   4   4   4
#     4   9  18  34  56  79 104 137 173 205 242 299
#     4   8  15  30  52  74  99 133 169 201 236 292
#     4  11  21  32  48  73 101 128 163 210 257 303
#     4  10  18  32  54  73  94 127 166 211 260 306
#     4   9  16  30  54  76  93 127 177 218 251 302
#     4  10  20  32  51  78 107 135 166 213 257 300
#     4  10  20  36  53  73 101 134 174 212 259 312
#
# _framework density 17.99701
#
# number of rings (size 3 to 8) (size 9 to 14) (size 15 to 20)
#    0.000    2.429    1.429    3.857    0.000    4.000 
#    0.000    3.571    0.000    5.143    0.000    0.000 
#    0.000    0.000    0.000    0.000    0.000    0.000 
#
# Total GULP energy -156023.578990 kJ/mol
# GULP energy per Si atom -5572.270678 kJ/mol
# Density = 1.795605 g / cm^3
# Si number density = 17.997010 Si / 1000 Ang^3
#
#
#
# Elastic Constant Matrix: (Units=GPa)
#
#
# Indices 1 2 3 4 5 6 
#
# 1 106.9523 5.5210 52.0745 0.0000 8.2968 0.0000
# 2 5.5210 13.0880 3.3522 0.0000 2.4820 0.0000
# 3 52.0745 3.3522 95.2400 0.0000 14.1824 0.0000
# 4 0.0000 0.0000 0.0000 -0.4731 0.0000 10.3341
# 5 8.2968 2.4820 14.1824 0.0000 24.0054 0.0000
# 6 0.0000 0.0000 0.0000 10.3341 0.0000 -3.6562
#
#
#
# Elastic Compliance Matrix: (Units=1/GPa)
#
#
# Indices 1 2 3 4 5 6 
#
# 1 0.012915 -0.003674 -0.006934 0.000000 0.000013 0.000000
# 2 -0.003674 0.079228 0.000275 0.000000 -0.007084 0.000000
# 3 -0.006934 0.000275 0.015272 0.000000 -0.006655 0.000000
# 4 0.000000 0.000000 0.000000 0.034800 0.000000 0.098360
# 5 0.000013 -0.007084 -0.006655 0.000000 0.046317 0.000000
# 6 0.000000 0.000000 0.000000 0.098360 0.000000 0.004503
#
#
# Mechanical properties :
#
#
# Convention : Reuss Voigt Hill
#
# Bulk Modulus (GPa) = 11.52742 37.46395 24.49569
# Shear Modulus (GPa) = 20.60858 14.26408 17.43633
#
# Velocity S-wave (km/s) = 3.38762 2.81834 3.11601
# Velocity P-wave (km/s) = 4.66051 5.60827 5.15621
#
# Compressibility (1/GPa) = 0.08674968
#
# Stress axis : x y z
#
# Youngs Moduli (GPa) = 77.43074 12.62172 65.47759
#
# Poissons Ratio (x) = 0.04638 0.45402
# Poissons Ratio (y) = 0.28451 -0.01803
# Poissons Ratio (z) = 0.53691 -0.00348
#
# Static dielectric constant tensor:
#      x y z
#    x 1.633940 0.000000 0.029660 
#    y 0.000000 1.611480 0.000000 
#    z 0.029660 0.000000 1.622530 
# 
# From -- ./inp_files/93526.got.cif
#   From: 2010.05.17/outbox.cif.g08.bks.cpg/sg10_47_cif.got.tgz:93526.got - 2010.06.03 11:33:40.
