data_PCOD9143543
_publ_section_title
;
Structure prediction by ZEFSAII (Michael W. Deem and Ramdas Pophale) SiO2 
 PCOD9143543
Probable space group: P 2/M
;
_chemical_formula_sum "Si O2"
_cell_formula_units_Z 24
_cell_length_a 14.228660
_cell_length_b 15.521863
_cell_length_c 11.291172
_cell_angle_alpha 90.000000
_cell_angle_beta 149.518511
_cell_angle_gamma 90.000000
_cell_volume 1264.961934
_symmetry_space_group_name_H-M "P 2/M"
_symmetry_group_IT_number 10
_symmetry_cell_setting 'monoclinic'
loop_
_space_group_symop_operation_xyz
x,y,z
-x,y,-z
-x,-y,-z
x,-y,z
loop_
_atom_site_type_symbol
_atom_site_label
_atom_site_fract_x
_atom_site_fract_y
_atom_site_fract_z
Si Si1 0.786237 0.374307 0.744110
Si Si2 0.287496 0.217366 0.042876
Si Si3 0.017952 0.903890 0.378779
Si Si4 0.412397 0.405782 0.220190
Si Si5 0.211060 0.173887 0.230065
Si Si6 0.601292 0.096293 0.342188
O O1 0.636008 0.403785 0.482714
O O2 0.682380 0.397899 0.753059
O O3 0.797253 0.272056 0.732055
O O4 0.000000 0.402186 0.000000
O O5 0.332170 0.318237 0.075703
O O6 0.294003 0.189102 0.189236
O O7 0.443891 0.164537 0.144840
O O8 0.093828 0.177567 0.792022
O O9 0.000000 0.903246 0.500000
O O10 0.226903 0.897001 0.559794
O O11 0.951511 0.000000 0.264878
O O12 0.363650 0.500000 0.116779
O O13 0.323205 0.116664 0.443844
O O14 0.000000 0.140862 0.000000
O O15 0.525501 0.000000 0.254985
#
# Coordination Sequence:
#
# PCOD9143543 Si02
#       6
#     4   4   4   4   4   4
#     4   9  17  30  48  70 110 153 184 216 260 312
#     4  11  21  36  57  80 116 149 178 226 278 324
#     4  10  23  42  61  82 106 137 185 238 281 327
#     4  10  20  31  48  78 111 147 188 222 262 320
#     4  10  18  32  51  79 116 152 178 212 264 327
#     4  11  22  35  56  83 110 145 184 219 271 337
#
# _framework density 18.972902999999999
#
# number of rings (size 3 to 8) (size 9 to 14) (size 15 to 20)
#    0.000    1.833    3.333    2.000    0.000    4.333 
#    0.000    2.500    0.000    0.500    0.000    1.167 
#    0.000    0.000    0.000    0.000    0.000    0.000 
#
# Total GULP energy -133664.096127 kJ/mol
# GULP energy per Si atom -5569.337339 kJ/mol
# Density = 1.892972 g / cm^3
# Si number density = 18.972903 Si / 1000 Ang^3
#
#
#
# Elastic Constant Matrix: (Units=GPa)
#
#
# Indices 1 2 3 4 5 6 
#
# 1 56.9799 25.1237 17.8366 0.0000 11.3785 0.0000
# 2 25.1237 127.7265 0.7837 0.0000 15.5758 0.0000
# 3 17.8366 0.7837 5.7131 0.0000 31.3902 0.0000
# 4 0.0000 0.0000 0.0000 9.1883 0.0000 5.3043
# 5 11.3785 15.5758 31.3902 0.0000 27.2585 0.0000
# 6 0.0000 0.0000 0.0000 5.3043 0.0000 9.0724
#
#
#
# Elastic Compliance Matrix: (Units=1/GPa)
#
#
# Indices 1 2 3 4 5 6 
#
# 1 0.019613 -0.002435 0.004423 0.000000 -0.011889 0.000000
# 2 -0.002435 0.008085 -0.004935 0.000000 0.002080 0.000000
# 3 0.004423 -0.004935 -0.029387 0.000000 0.034816 0.000000
# 4 0.000000 0.000000 0.000000 0.164282 0.000000 -0.096050
# 5 -0.011889 0.002080 0.034816 0.000000 0.000367 0.000000
# 6 0.000000 0.000000 0.000000 -0.096050 0.000000 0.166382
#
#
# Mechanical properties :
#
#
# Convention : Reuss Voigt Hill
#
# Bulk Modulus (GPa) = -131.84842 30.87861 -50.48490
# Shear Modulus (GPa) = 15.02815 18.88219 16.95517
#
# Velocity S-wave (km/s) = 2.81745 3.15813 2.99264
# Velocity P-wave (km/s) = 7.68504 5.44140 3.83738
#
# Compressibility (1/GPa) = -0.00758447
#
# Stress axis : x y z
#
# Youngs Moduli (GPa) = 50.98545 123.68796 -34.02822
#
# Poissons Ratio (x) = 0.30121 0.15050
# Poissons Ratio (y) = 0.12416 -0.16794
# Poissons Ratio (z) = -0.22550 0.61044
#
# Static dielectric constant tensor:
#      x y z
#    x 1.645340 0.000000 0.023810 
#    y 0.000000 1.694740 0.000000 
#    z 0.023810 0.000000 1.710820 
# 
# From -- ./inp_files/51502.got.cif
#   From: 2010.05.17/outbox.cif.g08.bks.cpg/sg10_26_cif.got.tgz:51502.got - 2010.06.03 11:33:40.
