data_PCOD9143944
_publ_section_title
;
Structure prediction by ZEFSAII (Michael W. Deem and Ramdas Pophale) SiO2 
 PCOD9143944
Probable space group: P 2/M
;
_chemical_formula_sum "Si O2"
_cell_formula_units_Z 24
_cell_length_a 22.512460
_cell_length_b 7.636470
_cell_length_c 11.965197
_cell_angle_alpha 90.000000
_cell_angle_beta 149.308197
_cell_angle_gamma 90.000000
_cell_volume 1049.936549
_symmetry_space_group_name_H-M "P 2/M"
_symmetry_group_IT_number 10
_symmetry_cell_setting 'monoclinic'
loop_
_space_group_symop_operation_xyz
x,y,z
-x,y,-z
-x,-y,-z
x,-y,z
loop_
_atom_site_type_symbol
_atom_site_label
_atom_site_fract_x
_atom_site_fract_y
_atom_site_fract_z
Si Si1 0.513376 0.302959 0.335895
Si Si2 0.263983 0.211487 0.174493
Si Si3 0.254617 0.199599 0.914687
Si Si4 0.044012 0.786212 0.950244
Si Si5 0.610236 0.210916 0.256395
Si Si6 0.825460 0.214340 0.453345
O O1 0.472685 0.500000 0.285772
O O2 0.604839 0.256591 0.579848
O O3 0.395224 0.194235 0.133614
O O4 0.585233 0.285688 0.337353
O O5 0.230629 0.278705 0.997503
O O6 0.258800 0.000000 0.162685
O O7 0.171239 0.271833 0.116782
O O8 0.209891 0.000000 0.846146
O O9 0.203954 0.278257 0.718815
O O10 0.949874 0.737065 0.704169
O O11 0.046590 0.000000 0.959437
O O12 0.000000 0.725842 0.000000
O O13 0.725780 0.270117 0.379438
O O14 0.617103 0.000000 0.280396
O O15 0.500000 0.251120 0.000000
O O16 0.819530 0.000000 0.441093
#
# Coordination Sequence:
#
# PCOD9143944 Si02
#       6
#     4   4   4   4   4   4
#     4  12  24  36  54  80 114 149 186 232 278 328
#     4  10  21  36  57  81 108 147 190 230 274 328
#     4  10  20  36  56  81 111 144 187 232 277 331
#     4   9  17  31  54  84 113 140 178 228 278 329
#     4  10  18  33  58  83 110 144 180 221 274 328
#     4   9  17  31  55  85 114 142 176 226 281 328
#
# _framework density 22.858523999999999
#
# number of rings (size 3 to 8) (size 9 to 14) (size 15 to 20)
#    0.000    2.000    1.667    3.000    0.000    6.333 
#    0.000    3.333    0.000    5.500    0.000    2.333 
#    0.000    0.000    0.000    0.000    0.000    0.000 
#
# Total GULP energy -134144.681528 kJ/mol
# GULP energy per Si atom -5589.361730 kJ/mol
# Density = 2.280650 g / cm^3
# Si number density = 22.858524 Si / 1000 Ang^3
#
#
#
# Elastic Constant Matrix: (Units=GPa)
#
#
# Indices 1 2 3 4 5 6 
#
# 1 113.9733 2.7638 37.8434 0.0000 -22.2035 0.0000
# 2 2.7638 44.5146 6.0366 0.0000 -1.7728 0.0000
# 3 37.8434 6.0366 96.9963 0.0000 -6.0141 0.0000
# 4 0.0000 0.0000 0.0000 -52.1998 0.0000 24.7363
# 5 -22.2035 -1.7728 -6.0141 0.0000 34.9388 0.0000
# 6 0.0000 0.0000 0.0000 24.7363 0.0000 -35.3824
#
#
#
# Elastic Compliance Matrix: (Units=1/GPa)
#
#
# Indices 1 2 3 4 5 6 
#
# 1 0.011390 0.000102 -0.004044 0.000000 0.006547 0.000000
# 2 0.000102 0.022686 -0.001391 0.000000 0.000976 0.000000
# 3 -0.004044 -0.001391 0.011938 0.000000 -0.000586 0.000000
# 4 0.000000 0.000000 0.000000 -0.028648 0.000000 -0.020028
# 5 0.006547 0.000976 -0.000586 0.000000 0.032731 0.000000
# 6 0.000000 0.000000 0.000000 -0.020028 0.000000 -0.042265
#
#
# Mechanical properties :
#
#
# Convention : Reuss Voigt Hill
#
# Bulk Modulus (GPa) = 28.29111 38.75243 33.52177
# Shear Modulus (GPa) = 165.12383 3.39402 84.25893
#
# Velocity S-wave (km/s) = 8.50847 1.21984 6.07792
# Velocity P-wave (km/s) = 10.43691 4.35591 7.99697
#
# Compressibility (1/GPa) = 0.03534679
#
# Stress axis : x y z
#
# Youngs Moduli (GPa) = 87.79782 44.08050 83.76772
#
# Poissons Ratio (x) = -0.00450 0.33877
# Poissons Ratio (y) = -0.00896 0.11653
# Poissons Ratio (z) = 0.35507 0.06132
#
# Static dielectric constant tensor:
#      x y z
#    x 1.847310 0.000000 -0.016310 
#    y 0.000000 1.867930 0.000000 
#    z -0.016310 0.000000 1.811410 
# 
# From -- ./inp_files/45251.got.cif
#   From: 2010.05.17/outbox.cif.g08.bks.cpg/sg10_23_cif.got.tgz:45251.got - 2010.06.03 11:33:40.
