data_PCOD9143470
_publ_section_title
;
Structure prediction by ZEFSAII (Michael W. Deem and Ramdas Pophale) SiO2 
 PCOD9143470
Probable space group: P 2/M
;
_chemical_formula_sum "Si O2"
_cell_formula_units_Z 24
_cell_length_a 13.489631
_cell_length_b 14.011417
_cell_length_c 10.689334
_cell_angle_alpha 90.000000
_cell_angle_beta 33.566618
_cell_angle_gamma 90.000000
_cell_volume 1117.079843
_symmetry_space_group_name_H-M "P 2/M"
_symmetry_group_IT_number 10
_symmetry_cell_setting 'monoclinic'
loop_
_space_group_symop_operation_xyz
x,y,z
-x,y,-z
-x,-y,-z
x,-y,z
loop_
_atom_site_type_symbol
_atom_site_label
_atom_site_fract_x
_atom_site_fract_y
_atom_site_fract_z
Si Si1 0.736960 0.606458 0.033958
Si Si2 0.213563 0.390860 0.301273
Si Si3 0.408249 0.196322 0.729935
Si Si4 0.277082 0.237812 0.446310
Si Si5 0.888538 0.394228 0.241489
Si Si6 0.024824 0.111866 0.120224
O O1 0.684839 0.500000 0.131245
O O2 0.657361 0.693788 0.193513
O O3 0.694985 0.616587 0.931287
O O4 0.953923 0.610325 0.820561
O O5 0.249437 0.500000 0.311600
O O6 0.271363 0.303456 0.329149
O O7 0.000000 0.384925 0.500000
O O8 0.500000 0.175003 0.500000
O O9 0.544857 0.182331 0.701863
O O10 0.230434 0.134105 0.933520
O O11 0.257226 0.316705 0.577103
O O12 0.105555 0.170806 0.651130
O O13 0.812938 0.500000 0.316218
O O14 0.000000 0.376719 0.000000
O O15 0.984427 0.000000 0.171181
O O16 0.000000 0.141219 0.000000
#
# Coordination Sequence:
#
# PCOD9143470 Si02
#       6
#     4   4   4   4   4   4
#     4  10  21  37  57  89 134 177 216 255 298 361
#     4  10  19  36  63  92 130 180 225 259 297 361
#     4  12  24  39  64  96 131 163 209 262 320 388
#     4  12  22  37  65  94 126 165 213 259 319 374
#     4  10  18  31  55  85 127 170 203 248 305 365
#     4  11  24  45  69  94 126 159 203 270 338 397
#
# _framework density 21.484589
#
# number of rings (size 3 to 8) (size 9 to 14) (size 15 to 20)
#    0.000    1.167    5.000    2.000    0.000    3.333 
#    0.000    1.667    0.000    4.500    0.000    5.833 
#    0.000    0.000    0.000    0.000    0.000    0.000 
#
# Total GULP energy -134132.606345 kJ/mol
# GULP energy per Si atom -5588.858598 kJ/mol
# Density = 2.143569 g / cm^3
# Si number density = 21.484589 Si / 1000 Ang^3
#
#
#
# Elastic Constant Matrix: (Units=GPa)
#
#
# Indices 1 2 3 4 5 6 
#
# 1 104.1281 16.8608 27.7880 0.0000 2.9263 0.0000
# 2 16.8608 70.5896 7.0394 0.0000 5.4700 0.0000
# 3 27.7880 7.0394 32.5539 0.0000 -14.1548 0.0000
# 4 0.0000 0.0000 0.0000 -2.1270 0.0000 15.7875
# 5 2.9263 5.4700 -14.1548 0.0000 34.6126 0.0000
# 6 0.0000 0.0000 0.0000 15.7875 0.0000 8.3278
#
#
#
# Elastic Compliance Matrix: (Units=1/GPa)
#
#
# Indices 1 2 3 4 5 6 
#
# 1 0.013911 -0.001329 -0.014604 0.000000 -0.006938 0.000000
# 2 -0.001329 0.015162 -0.003816 0.000000 -0.003844 0.000000
# 3 -0.014604 -0.003816 0.054499 0.000000 0.024125 0.000000
# 4 0.000000 0.000000 0.000000 -0.031195 0.000000 0.059138
# 5 -0.006938 -0.003844 0.024125 0.000000 0.039951 0.000000
# 6 0.000000 0.000000 0.000000 0.059138 0.000000 0.007968
#
#
# Mechanical properties :
#
#
# Convention : Reuss Voigt Hill
#
# Bulk Modulus (GPa) = 22.68861 34.51645 28.60253
# Shear Modulus (GPa) = 32.36551 18.53490 25.45021
#
# Velocity S-wave (km/s) = 3.88552 2.94037 3.44551
# Velocity P-wave (km/s) = 5.54193 5.25626 5.40098
#
# Compressibility (1/GPa) = 0.04407497
#
# Stress axis : x y z
#
# Youngs Moduli (GPa) = 71.88578 65.95338 18.34889
#
# Poissons Ratio (x) = 0.08763 0.26797
# Poissons Ratio (y) = 0.09552 0.07002
# Poissons Ratio (z) = 1.04982 0.25168
#
# Static dielectric constant tensor:
#      x y z
#    x 1.877690 0.000000 -0.020330 
#    y 0.000000 1.746720 0.000000 
#    z -0.020330 0.000000 1.817910 
# 
# From -- ./inp_files/51516.got.cif
#   From: 2010.05.17/outbox.cif.g08.bks.cpg/sg10_26_cif.got.tgz:51516.got - 2010.06.03 11:33:40.
