data_PCOD9143850
_publ_section_title
;
Structure prediction by ZEFSAII (Michael W. Deem and Ramdas Pophale) SiO2 
 PCOD9143850
Probable space group: P 2/M
;
_chemical_formula_sum "Si O2"
_cell_formula_units_Z 28
_cell_length_a 19.175930
_cell_length_b 7.643022
_cell_length_c 12.370353
_cell_angle_alpha 90.000000
_cell_angle_beta 39.158898
_cell_angle_gamma 90.000000
_cell_volume 1144.876331
_symmetry_space_group_name_H-M "P 2/M"
_symmetry_group_IT_number 10
_symmetry_cell_setting 'monoclinic'
loop_
_space_group_symop_operation_xyz
x,y,z
-x,y,-z
-x,-y,-z
x,-y,z
loop_
_atom_site_type_symbol
_atom_site_label
_atom_site_fract_x
_atom_site_fract_y
_atom_site_fract_z
Si Si1 0.896016 0.703164 0.203273
Si Si2 0.608495 0.800791 0.998218
Si Si3 0.587894 0.210726 0.618367
Si Si4 0.033637 0.803606 0.649768
Si Si5 0.270753 0.785369 0.349607
Si Si6 0.218948 0.296056 0.046836
Si Si7 0.707369 0.706765 0.275662
O O1 0.872379 0.500000 0.262250
O O2 0.930985 0.805530 0.267116
O O3 0.799501 0.781871 0.245969
O O4 0.000000 0.697168 0.000000
O O5 0.637988 0.724188 0.846220
O O6 0.723496 0.801277 0.924176
O O7 0.570572 0.000000 0.024388
O O8 0.519840 0.723743 0.187936
O O9 0.687607 0.262694 0.580419
O O10 0.599838 0.272366 0.480275
O O11 0.584905 0.000000 0.616478
O O12 0.147482 0.724113 0.465702
O O13 0.913699 0.717524 0.790131
O O14 0.020162 0.000000 0.623525
O O15 0.267696 0.000000 0.349959
O O16 0.248118 0.500000 0.022029
O O17 0.271515 0.226288 0.870461
O O18 0.730131 0.500000 0.239359
#
# Coordination Sequence:
#
# PCOD9143850 Si02
#       7
#     4   4   4   4   4   4   4
#     4  10  18  33  54  80 116 155 190 228 286 346
#     4  10  22  41  62  83 113 154 197 239 284 336
#     4  10  20  37  63  91 115 144 190 244 290 337
#     4  11  21  34  58  90 118 146 188 239 288 340
#     4   9  19  37  61  89 117 147 185 236 296 345
#     4  11  24  42  58  80 119 161 196 228 282 350
#     4  10  21  36  57  83 116 156 189 230 286 345
#
# _framework density 24.456792
#
# number of rings (size 3 to 8) (size 9 to 14) (size 15 to 20)
#    0.000    1.857    2.857    1.286    0.000    4.857 
#    0.000    7.857    0.000    1.714    0.000    0.000 
#    0.000    0.000    0.000    0.000    0.000    0.000 
#
# Total GULP energy -156322.475909 kJ/mol
# GULP energy per Si atom -5582.945568 kJ/mol
# Density = 2.440113 g / cm^3
# Si number density = 24.456792 Si / 1000 Ang^3
#
#
#
# Elastic Constant Matrix: (Units=GPa)
#
#
# Indices 1 2 3 4 5 6 
#
# 1 65.9177 -0.5176 6.4403 0.0000 0.0579 0.0000
# 2 -0.5176 59.2741 2.3281 0.0000 -2.3075 0.0000
# 3 6.4403 2.3281 128.4662 0.0000 9.5427 0.0000
# 4 0.0000 0.0000 0.0000 20.9390 0.0000 1.1652
# 5 0.0579 -2.3075 9.5427 0.0000 18.2050 0.0000
# 6 0.0000 0.0000 0.0000 1.1652 0.0000 3.3902
#
#
#
# Elastic Compliance Matrix: (Units=1/GPa)
#
#
# Indices 1 2 3 4 5 6 
#
# 1 0.015249 0.000180 -0.000797 0.000000 0.000392 0.000000
# 2 0.000180 0.016986 -0.000496 0.000000 0.002412 0.000000
# 3 -0.000797 -0.000496 0.008155 0.000000 -0.004335 0.000000
# 4 0.000000 0.000000 0.000000 0.048689 0.000000 -0.016734
# 5 0.000392 0.002412 -0.004335 0.000000 0.057507 0.000000
# 6 0.000000 0.000000 0.000000 -0.016734 0.000000 0.300721
#
#
# Mechanical properties :
#
#
# Convention : Reuss Voigt Hill
#
# Bulk Modulus (GPa) = 26.20279 30.01772 28.11026
# Shear Modulus (GPa) = 10.81655 24.86732 17.84194
#
# Velocity S-wave (km/s) = 2.10531 3.19217 2.70391
# Velocity P-wave (km/s) = 4.08006 5.08793 4.61161
#
# Compressibility (1/GPa) = 0.03816388
#
# Stress axis : x y z
#
# Youngs Moduli (GPa) = 65.57651 58.87288 122.62265
#
# Poissons Ratio (x) = -0.01058 0.09771
# Poissons Ratio (y) = -0.01178 0.06082
# Poissons Ratio (z) = 0.05225 0.02920
#
# Static dielectric constant tensor:
#      x y z
#    x 1.899740 0.000000 -0.010090 
#    y 0.000000 1.929060 0.000000 
#    z -0.010090 0.000000 2.057160 
# 
# From -- ./inp_files/70184.got.cif
#   From: 2010.05.17/outbox.cif.g08.bks.cpg/sg10_36_cif.got.tgz:70184.got - 2010.06.03 11:33:40.
