data_PCOD9143579
_publ_section_title
;
Structure prediction by ZEFSAII (Michael W. Deem and Ramdas Pophale) SiO2 
 PCOD9143579
Probable space group: P 2/M
;
_chemical_formula_sum "Si O2"
_cell_formula_units_Z 30
_cell_length_a 30.398512
_cell_length_b 9.655611
_cell_length_c 17.774306
_cell_angle_alpha 90.000000
_cell_angle_beta 17.259318
_cell_angle_gamma 90.000000
_cell_volume 1547.881561
_symmetry_space_group_name_H-M "P 2/M"
_symmetry_group_IT_number 10
_symmetry_cell_setting 'monoclinic'
loop_
_space_group_symop_operation_xyz
x,y,z
-x,y,-z
-x,-y,-z
x,-y,z
loop_
_atom_site_type_symbol
_atom_site_label
_atom_site_fract_x
_atom_site_fract_y
_atom_site_fract_z
Si Si1 0.171106 0.653045 0.703365
Si Si2 0.168340 0.844710 0.566059
Si Si3 0.452859 0.837095 0.663561
Si Si4 0.898253 0.166337 0.741513
Si Si5 0.400406 0.337453 0.009652
Si Si6 0.937128 0.332846 0.397428
Si Si7 0.500000 0.780909 0.000000
Si Si8 0.589421 0.335500 0.565715
O O1 0.223531 0.500000 0.590015
O O2 0.183051 0.771454 0.622237
O O3 0.258219 0.681871 0.637931
O O4 0.000000 0.642157 0.000000
O O5 0.073827 0.745105 0.665106
O O6 0.340606 0.853847 0.258505
O O7 0.106875 0.000000 0.668846
O O8 0.500000 0.812898 0.500000
O O9 0.563542 0.747197 0.532802
O O10 0.473077 0.000000 0.645315
O O11 0.280203 0.805754 0.968255
O O12 0.000000 0.196894 0.500000
O O13 0.957423 0.257310 0.714969
O O14 0.915471 0.000000 0.726980
O O15 0.412589 0.500000 0.979521
O O16 0.228551 0.307495 0.300180
O O17 0.490670 0.302757 0.937432
O O18 0.470816 0.276015 0.819926
O O19 0.961196 0.500000 0.351313
O O20 0.569549 0.500000 0.584347
#
# Coordination Sequence:
#
# PCOD9143579 Si02
#       8
#     4   4   4   4   4   4   2   4
#     4  10  22  40  60  84 117 156 198 244 292 349
#     4  11  22  36  55  83 118 155 195 239 289 348
#     4  10  23  42  62  86 117 155 198 245 300 362
#     4  10  21  39  62  88 118 153 194 248 310 366
#     4   9  17  30  53  84 117 154 195 239 293 349
#     4  10  21  35  56  86 119 155 194 241 294 354
#     4  10  18  32  52  82 117 154 195 238 285 346
#     4  10  20  37  60  87 115 150 198 249 296 347
#
# _framework density 19.381329000000001
#
# number of rings (size 3 to 8) (size 9 to 14) (size 15 to 20)
#    0.000    2.000    1.333    2.000    0.000    4.000 
#    0.000    3.333    0.000    0.000    0.000    0.000 
#    0.000    0.000    0.000    0.000    0.000    0.000 
#
# Total GULP energy -167101.495815 kJ/mol
# GULP energy per Si atom -5570.049861 kJ/mol
# Density = 1.933722 g / cm^3
# Si number density = 19.381329 Si / 1000 Ang^3
#
#
#
# Elastic Constant Matrix: (Units=GPa)
#
#
# Indices 1 2 3 4 5 6 
#
# 1 140.1378 80.5228 30.6918 0.0000 -15.1554 0.0000
# 2 80.5228 51.0197 58.6883 0.0000 -28.9631 0.0000
# 3 30.6918 58.6883 46.6048 0.0000 8.5596 0.0000
# 4 0.0000 0.0000 0.0000 13.2888 0.0000 -22.5258
# 5 -15.1554 -28.9631 8.5596 0.0000 16.1480 0.0000
# 6 0.0000 0.0000 0.0000 -22.5258 0.0000 220.7349
#
#
#
# Elastic Compliance Matrix: (Units=1/GPa)
#
#
# Indices 1 2 3 4 5 6 
#
# 1 0.010877 -0.001228 -0.007851 0.000000 0.012167 0.000000
# 2 -0.001228 -0.007481 0.014297 0.000000 -0.022148 0.000000
# 3 -0.007851 0.014297 0.005835 0.000000 0.015181 0.000000
# 4 0.000000 0.000000 0.000000 0.090992 0.000000 0.009286
# 5 0.012167 -0.022148 0.015181 0.000000 0.025574 0.000000
# 6 0.000000 0.000000 0.000000 0.009286 0.000000 0.005478
#
#
# Mechanical properties :
#
#
# Convention : Reuss Voigt Hill
#
# Bulk Modulus (GPa) = 50.84700 64.17425 57.51063
# Shear Modulus (GPa) = 39.24796 54.55828 46.90312
#
# Velocity S-wave (km/s) = 4.50493 5.31141 4.92470
# Velocity P-wave (km/s) = 7.30419 8.41415 7.87874
#
# Compressibility (1/GPa) = 0.01966684
#
# Stress axis : x y z
#
# Youngs Moduli (GPa) = 91.93867 -133.67624 171.36731
#
# Poissons Ratio (x) = -0.16416 1.34544
# Poissons Ratio (y) = 0.11290 -2.45003
# Poissons Ratio (z) = 0.72183 1.91116
#
# Static dielectric constant tensor:
#      x y z
#    x 1.653990 0.000000 0.018180 
#    y 0.000000 1.676110 0.000000 
#    z 0.018180 0.000000 1.742740 
# 
# From -- ./inp_files/80709.got.cif
#   From: 2010.05.17/outbox.cif.g08.bks.cpg/sg10_41_cif.got.tgz:80709.got - 2010.06.03 11:33:40.
