data_PCOD9143413
_publ_section_title
;
Structure prediction by ZEFSAII (Michael W. Deem and Ramdas Pophale) SiO2 
 PCOD9143413
Probable space group: P 2/M
;
_chemical_formula_sum "Si O2"
_cell_formula_units_Z 28
_cell_length_a 13.881712
_cell_length_b 7.348180
_cell_length_c 17.205484
_cell_angle_alpha 90.000000
_cell_angle_beta 136.952033
_cell_angle_gamma 90.000000
_cell_volume 1198.015975
_symmetry_space_group_name_H-M "P 2/M"
_symmetry_group_IT_number 10
_symmetry_cell_setting 'monoclinic'
loop_
_space_group_symop_operation_xyz
x,y,z
-x,y,-z
-x,-y,-z
x,-y,z
loop_
_atom_site_type_symbol
_atom_site_label
_atom_site_fract_x
_atom_site_fract_y
_atom_site_fract_z
Si Si1 0.416881 0.721395 0.837529
Si Si2 0.929936 0.791023 0.537507
Si Si3 0.271413 0.720544 0.015880
Si Si4 0.624458 0.705515 0.359100
Si Si5 0.418899 0.722502 0.372352
Si Si6 0.162138 0.721394 0.116789
Si Si7 0.832415 0.720455 0.200187
O O1 0.414040 0.500000 0.841120
O O2 0.579134 0.775523 0.932016
O O3 0.366884 0.781373 0.722710
O O4 0.310861 0.782990 0.841300
O O5 0.785815 0.700960 0.480108
O O6 0.000000 0.712464 0.500000
O O7 0.041763 0.781927 0.671738
O O8 0.894931 0.000000 0.499805
O O9 0.269877 0.500000 0.018320
O O10 0.247044 0.779183 0.089206
O O11 0.159649 0.777494 0.884784
O O12 0.569401 0.500000 0.315375
O O13 0.522005 0.784254 0.363077
O O14 0.500000 0.779022 0.500000
O O15 0.416776 0.500000 0.374313
O O16 0.259354 0.775977 0.249062
O O17 0.157064 0.500000 0.117746
O O18 0.000000 0.777478 0.000000
O O19 0.831974 0.500000 0.200723
#
# Coordination Sequence:
#
# PCOD9143413 Si02
#       7
#     4   4   4   4   4   4   4
#     4   9  15  26  46  72  99 127 162 206 249 290
#     4  11  23  36  49  69 103 140 172 211 259 306
#     4   9  16  27  44  71 101 129 165 208 252 297
#     4  10  18  31  54  76  99 134 174 211 249 299
#     4   9  17  29  47  75 109 138 169 214 264 310
#     4   9  16  26  41  65 103 142 166 198 259 319
#     4  10  19  30  50  76 100 130 172 213 249 301
#
# _framework density 23.371974999999999
#
# number of rings (size 3 to 8) (size 9 to 14) (size 15 to 20)
#    0.000    2.429    2.857    0.857    0.000    3.429 
#    0.000    4.286    0.000    3.000    0.000    0.000 
#    0.000    2.286    0.000    0.000    0.000    0.000 
#
# Total GULP energy -156126.362191 kJ/mol
# GULP energy per Si atom -5575.941507 kJ/mol
# Density = 2.331878 g / cm^3
# Si number density = 23.371975 Si / 1000 Ang^3
#
#
#
# Elastic Constant Matrix: (Units=GPa)
#
#
# Indices 1 2 3 4 5 6 
#
# 1 58.8719 0.7221 59.0172 0.0000 0.4004 0.0000
# 2 0.7221 85.7980 -1.7850 0.0000 -3.6108 0.0000
# 3 59.0172 -1.7850 202.9067 0.0000 -6.3371 0.0000
# 4 0.0000 0.0000 0.0000 292.5485 0.0000 117.7515
# 5 0.4004 -3.6108 -6.3371 0.0000 38.2988 0.0000
# 6 0.0000 0.0000 0.0000 117.7515 0.0000 30.3217
#
#
#
# Elastic Compliance Matrix: (Units=1/GPa)
#
#
# Indices 1 2 3 4 5 6 
#
# 1 0.024068 -0.000411 -0.007049 0.000000 -0.001457 0.000000
# 2 -0.000411 0.011713 0.000258 0.000000 0.001151 0.000000
# 3 -0.007049 0.000258 0.007020 0.000000 0.001260 0.000000
# 4 0.000000 0.000000 0.000000 -0.006071 0.000000 0.023575
# 5 -0.001457 0.001151 0.001260 0.000000 0.026443 0.000000
# 6 0.000000 0.000000 0.000000 0.023575 0.000000 -0.058570
#
#
# Mechanical properties :
#
#
# Convention : Reuss Voigt Hill
#
# Bulk Modulus (GPa) = 35.21423 51.49836 43.35630
# Shear Modulus (GPa) = 175.61179 91.54193 133.57686
#
# Velocity S-wave (km/s) = 8.67761 6.26518 7.56813
# Velocity P-wave (km/s) = 10.74713 8.62662 9.74473
#
# Compressibility (1/GPa) = 0.02839761
#
# Stress axis : x y z
#
# Youngs Moduli (GPa) = 41.54923 85.37836 142.44233
#
# Poissons Ratio (x) = 0.03505 1.00414
# Poissons Ratio (y) = 0.01706 -0.03681
# Poissons Ratio (z) = 0.29290 -0.02206
#
# Static dielectric constant tensor:
#      x y z
#    x 1.843330 0.000000 0.007030 
#    y 0.000000 1.949700 0.000000 
#    z 0.007030 0.000000 1.945370 
# 
# From -- ./inp_files/77793.got.cif
#   From: 2010.05.17/outbox.cif.g08.bks.cpg/sg10_39_cif.got.tgz:77793.got - 2010.06.03 11:33:40.
