data_PCOD9143476
_publ_section_title
;
Structure prediction by ZEFSAII (Michael W. Deem and Ramdas Pophale) SiO2 
 PCOD9143476
Probable space group: P 2/M
;
_chemical_formula_sum "Si O2"
_cell_formula_units_Z 28
_cell_length_a 12.117715
_cell_length_b 7.453848
_cell_length_c 16.376331
_cell_angle_alpha 90.000000
_cell_angle_beta 124.549782
_cell_angle_gamma 90.000000
_cell_volume 1218.293728
_symmetry_space_group_name_H-M "P 2/M"
_symmetry_group_IT_number 10
_symmetry_cell_setting 'monoclinic'
loop_
_space_group_symop_operation_xyz
x,y,z
-x,y,-z
-x,-y,-z
x,-y,z
loop_
_atom_site_type_symbol
_atom_site_label
_atom_site_fract_x
_atom_site_fract_y
_atom_site_fract_z
Si Si1 0.844004 0.717118 0.142162
Si Si2 0.335967 0.283377 0.267032
Si Si3 0.394554 0.790165 0.699169
Si Si4 0.426832 0.206064 0.890318
Si Si5 0.151098 0.718546 0.040476
Si Si6 0.877501 0.293219 0.499105
Si Si7 0.859692 0.280810 0.674449
O O1 0.838264 0.500000 0.142836
O O2 0.730629 0.788065 0.154820
O O3 0.994660 0.769481 0.229169
O O4 0.814520 0.774939 0.036883
O O5 0.332154 0.500000 0.265647
O O6 0.488814 0.230195 0.318150
O O7 0.252697 0.220858 0.152735
O O8 0.258576 0.220387 0.315164
O O9 0.444342 0.714316 0.807454
O O10 0.256742 0.708943 0.610087
O O11 0.367683 0.000000 0.700916
O O12 0.474953 0.000000 0.906109
O O13 0.500000 0.289539 0.000000
O O14 0.151951 0.500000 0.040991
O O15 0.000000 0.772683 0.000000
O O16 0.917118 0.500000 0.531788
O O17 0.849988 0.216902 0.577352
O O18 0.000000 0.210612 0.500000
O O19 0.854243 0.500000 0.673595
#
# Coordination Sequence:
#
# PCOD9143476 Si02
#       7
#     4   4   4   4   4   4   4
#     4  10  18  31  56  86 112 139 180 228 272 323
#     4  10  19  34  57  83 114 149 184 221 270 331
#     4  11  24  40  57  79 111 148 184 227 277 325
#     4  10  22  39  55  74 108 149 183 220 272 329
#     4   9  15  27  51  84 117 145 174 218 273 320
#     4  10  21  39  62  85 109 140 183 231 276 327
#     4   9  18  33  56  85 112 141 178 225 277 324
#
# _framework density 22.982965
#
# number of rings (size 3 to 8) (size 9 to 14) (size 15 to 20)
#    0.000    2.143    1.429    2.143    0.000    3.429 
#    0.000    5.000    0.000    0.857    0.000    0.000 
#    0.000    0.000    0.000    0.000    0.000    0.000 
#
# Total GULP energy -156527.438519 kJ/mol
# GULP energy per Si atom -5590.265661 kJ/mol
# Density = 2.293065 g / cm^3
# Si number density = 22.982965 Si / 1000 Ang^3
#
#
#
# Elastic Constant Matrix: (Units=GPa)
#
#
# Indices 1 2 3 4 5 6 
#
# 1 164.6776 -6.6888 61.2456 0.0000 -10.0730 0.0000
# 2 -6.6888 69.5172 1.5713 0.0000 -6.8889 0.0000
# 3 61.2456 1.5713 126.4444 0.0000 -21.9343 0.0000
# 4 0.0000 0.0000 0.0000 5.8666 0.0000 9.2132
# 5 -10.0730 -6.8889 -21.9343 0.0000 40.6971 0.0000
# 6 0.0000 0.0000 0.0000 9.2132 0.0000 20.0172
#
#
#
# Elastic Compliance Matrix: (Units=1/GPa)
#
#
# Indices 1 2 3 4 5 6 
#
# 1 0.007451 0.000802 -0.003613 0.000000 0.000032 0.000000
# 2 0.000802 0.014725 -0.000115 0.000000 0.002629 0.000000
# 3 -0.003613 -0.000115 0.010482 0.000000 0.004735 0.000000
# 4 0.000000 0.000000 0.000000 0.614961 0.000000 -0.283045
# 5 0.000032 0.002629 0.004735 0.000000 0.027577 0.000000
# 6 0.000000 0.000000 0.000000 -0.283045 0.000000 0.180233
#
#
# Mechanical properties :
#
#
# Convention : Reuss Voigt Hill
#
# Bulk Modulus (GPa) = 37.30781 52.54395 44.92588
# Shear Modulus (GPa) = 5.74569 33.61693 19.68131
#
# Velocity S-wave (km/s) = 1.58285 3.82866 2.92951
# Velocity P-wave (km/s) = 4.42816 6.51587 5.57069
#
# Compressibility (1/GPa) = 0.02680404
#
# Stress axis : x y z
#
# Youngs Moduli (GPa) = 134.21289 67.91088 95.40485
#
# Poissons Ratio (x) = -0.05445 0.34472
# Poissons Ratio (y) = -0.10761 0.01100
# Poissons Ratio (z) = 0.48495 0.00783
#
# Static dielectric constant tensor:
#      x y z
#    x 1.822600 0.000000 -0.028430 
#    y 0.000000 1.899870 0.000000 
#    z -0.028430 0.000000 1.836770 
# 
# From -- ./inp_files/63916.got.cif
#   From: 2010.05.17/outbox.cif.g08.bks.cpg/sg10_32_cif.got.tgz:63916.got - 2010.06.03 11:33:40.
