data_PCOD9143705
_publ_section_title
;
Structure prediction by ZEFSAII (Michael W. Deem and Ramdas Pophale) SiO2 
 PCOD9143705
Probable space group: P 2/M
;
_chemical_formula_sum "Si O2"
_cell_formula_units_Z 24
_cell_length_a 8.901574
_cell_length_b 8.001658
_cell_length_c 22.007555
_cell_angle_alpha 90.000000
_cell_angle_beta 126.159064
_cell_angle_gamma 90.000000
_cell_volume 1265.603569
_symmetry_space_group_name_H-M "P 2/M"
_symmetry_group_IT_number 10
_symmetry_cell_setting 'monoclinic'
loop_
_space_group_symop_operation_xyz
x,y,z
-x,y,-z
-x,-y,-z
x,-y,z
loop_
_atom_site_type_symbol
_atom_site_label
_atom_site_fract_x
_atom_site_fract_y
_atom_site_fract_z
Si Si1 0.311527 0.000000 0.916845
Si Si2 0.545227 0.806635 0.655463
Si Si3 0.824346 0.201770 0.499540
Si Si4 0.130992 0.695752 0.351818
Si Si5 0.799512 0.316278 0.818064
Si Si6 0.947776 0.000000 0.917442
Si Si7 0.157961 0.690553 0.812930
O O1 0.290487 0.833934 0.870459
O O2 0.500000 0.000000 0.000000
O O3 0.135203 0.000000 0.920977
O O4 0.361753 0.739106 0.578918
O O5 0.710703 0.796933 0.645696
O O6 0.620913 0.712859 0.732716
O O7 0.513747 0.000000 0.664655
O O8 0.852261 0.272979 0.573164
O O9 0.000000 0.242178 0.500000
O O10 0.810567 0.000000 0.502121
O O11 0.163852 0.500000 0.346361
O O12 0.931496 0.735338 0.273828
O O13 0.793441 0.500000 0.844982
O O14 0.831886 0.164451 0.871383
O O15 0.977212 0.311468 0.814561
O O16 0.000000 0.000000 0.000000
O O17 0.232416 0.500000 0.829647
#
# Coordination Sequence:
#
# PCOD9143705 Si02
#       7
#     2   4   4   4   4   2   4
#     4  10  20  34  56  81 102 137 171 204 263 316
#     4  10  18  32  55  79 102 135 181 228 267 305
#     4  10  22  36  49  72 108 147 179 214 265 319
#     4  10  20  33  53  79 102 133 180 227 266 306
#     4   9  17  32  55  81 106 136 175 219 264 307
#     4  10  20  36  56  79 110 137 169 214 261 318
#     4   8  17  32  52  79 106 132 171 219 259 303
#
# _framework density 18.963284000000002
#
# number of rings (size 3 to 8) (size 9 to 14) (size 15 to 20)
#    0.000    2.500    0.833    2.500    4.667    4.333 
#    0.000    1.667    0.000    2.000    0.000    0.000 
#    0.000    0.000    0.000    0.000    0.000    0.000 
#
# Total GULP energy -133884.261008 kJ/mol
# GULP energy per Si atom -5578.510875 kJ/mol
# Density = 1.892012 g / cm^3
# Si number density = 18.963284 Si / 1000 Ang^3
#
#
#
# Elastic Constant Matrix: (Units=GPa)
#
#
# Indices 1 2 3 4 5 6 
#
# 1 10.7888 18.3001 29.5857 0.0000 3.1258 0.0000
# 2 18.3001 114.6942 87.8101 0.0000 8.4446 0.0000
# 3 29.5857 87.8101 179.2020 0.0000 10.6978 0.0000
# 4 0.0000 0.0000 0.0000 13.6136 0.0000 -3.1437
# 5 3.1258 8.4446 10.6978 0.0000 26.3964 0.0000
# 6 0.0000 0.0000 0.0000 -3.1437 0.0000 -1.8754
#
#
#
# Elastic Compliance Matrix: (Units=1/GPa)
#
#
# Indices 1 2 3 4 5 6 
#
# 1 0.177079 -0.009029 -0.024320 0.000000 -0.008224 0.000000
# 2 -0.009029 0.014492 -0.005531 0.000000 -0.001325 0.000000
# 3 -0.024320 -0.005531 0.012326 0.000000 -0.000346 0.000000
# 4 0.000000 0.000000 0.000000 0.052957 0.000000 -0.088771
# 5 -0.008224 -0.001325 -0.000346 0.000000 0.039422 0.000000
# 6 0.000000 0.000000 0.000000 -0.088771 0.000000 -0.384421
#
#
# Mechanical properties :
#
#
# Convention : Reuss Voigt Hill
#
# Bulk Modulus (GPa) = 7.92792 64.00853 35.96823
# Shear Modulus (GPa) = 157.92505 18.89287 88.40896
#
# Velocity S-wave (km/s) = 9.13565 3.15983 6.83537
# Velocity P-wave (km/s) = 10.74570 6.86585 9.01692
#
# Compressibility (1/GPa) = 0.12613653
#
# Stress axis : x y z
#
# Youngs Moduli (GPa) = 5.64721 69.00446 81.12613
#
# Poissons Ratio (x) = 0.62304 1.97298
# Poissons Ratio (y) = 0.05099 0.44873
# Poissons Ratio (z) = 0.13734 0.38169
#
# Static dielectric constant tensor:
#      x y z
#    x 1.633630 0.000000 0.012180 
#    y 0.000000 1.687960 0.000000 
#    z 0.012180 0.000000 1.645660 
# 
# From -- ./inp_files/33814.got.cif
#   From: 2010.05.17/outbox.cif.g08.bks.cpg/sg10_17_cif.got.tgz:33814.got - 2010.06.03 11:33:40.
