data_PCOD9143494
_publ_section_title
;
Structure prediction by ZEFSAII (Michael W. Deem and Ramdas Pophale) SiO2 
 PCOD9143494
Probable space group: P 2/M
;
_chemical_formula_sum "Si O2"
_cell_formula_units_Z 30
_cell_length_a 20.312073
_cell_length_b 9.666527
_cell_length_c 9.348403
_cell_angle_alpha 90.000000
_cell_angle_beta 78.008127
_cell_angle_gamma 90.000000
_cell_volume 1795.476091
_symmetry_space_group_name_H-M "P 2/M"
_symmetry_group_IT_number 10
_symmetry_cell_setting 'monoclinic'
loop_
_space_group_symop_operation_xyz
x,y,z
-x,y,-z
-x,-y,-z
x,-y,z
loop_
_atom_site_type_symbol
_atom_site_label
_atom_site_fract_x
_atom_site_fract_y
_atom_site_fract_z
Si Si1 0.500000 0.726003 0.000000
Si Si2 0.930700 0.659889 0.123934
Si Si3 0.389591 0.163537 0.835201
Si Si4 0.282564 0.164970 0.117793
Si Si5 0.420053 0.159918 0.512754
Si Si6 0.002228 0.163655 0.667473
Si Si7 0.132590 0.837731 0.087659
Si Si8 0.379831 0.657173 0.261800
O O1 0.545001 0.805659 0.097429
O O2 0.442116 0.653855 0.120535
O O3 0.912036 0.500000 0.157394
O O4 0.947298 0.742832 0.261716
O O5 0.879441 0.742446 0.045128
O O6 0.000000 0.660265 0.000000
O O7 0.391703 0.220834 0.674403
O O8 0.389222 0.000000 0.814464
O O9 0.323733 0.200464 0.954798
O O10 0.203956 0.189520 0.129637
O O11 0.318299 0.258379 0.219901
O O12 0.293005 0.000000 0.141092
O O13 0.500000 0.154884 0.500000
O O14 0.402930 0.256519 0.388413
O O15 0.397731 0.000000 0.496849
O O16 0.928873 0.182785 0.773617
O O17 0.000000 0.197427 0.500000
O O18 0.019347 0.000000 0.673599
O O19 0.131104 0.000000 0.045407
O O20 0.361570 0.500000 0.304319
#
# Coordination Sequence:
#
# PCOD9143494 Si02
#       8
#     2   4   4   4   4   4   4   4
#     4  10  18  32  48  72  95 124 157 202 243 290
#     4   9  17  29  48  74 101 130 163 199 241 286
#     4   9  17  30  51  74  95 119 158 204 246 287
#     4   9  19  35  54  73  94 128 168 206 242 289
#     4  10  19  33  51  73  95 122 156 199 250 297
#     4   9  17  30  50  77 105 131 163 205 247 284
#     4   9  17  32  53  74  98 129 167 204 243 287
#     4  11  22  34  49  72 100 130 162 200 247 297
#
# _framework density 16.708659999999998
#
# number of rings (size 3 to 8) (size 9 to 14) (size 15 to 20)
#    0.000    2.533    1.333    1.200    0.000    3.733 
#    0.000    2.000    0.000    8.000    0.000    0.000 
#    0.000    0.000    0.000    0.000    0.000    0.000 
#
# Total GULP energy -167054.322567 kJ/mol
# GULP energy per Si atom -5568.477419 kJ/mol
# Density = 1.667063 g / cm^3
# Si number density = 16.708660 Si / 1000 Ang^3
#
#
#
# Elastic Constant Matrix: (Units=GPa)
#
#
# Indices 1 2 3 4 5 6 
#
# 1 87.2498 54.5127 37.5706 0.0000 18.3631 0.0000
# 2 54.5127 90.7753 70.3840 0.0000 24.2124 0.0000
# 3 37.5706 70.3840 117.4790 0.0000 30.8586 0.0000
# 4 0.0000 0.0000 0.0000 6.6488 0.0000 -6.9519
# 5 18.3631 24.2124 30.8586 0.0000 20.4790 0.0000
# 6 0.0000 0.0000 0.0000 -6.9519 0.0000 0.0015
#
#
#
# Elastic Compliance Matrix: (Units=1/GPa)
#
#
# Indices 1 2 3 4 5 6 
#
# 1 0.019137 -0.011690 0.002914 0.000000 -0.007730 0.000000
# 2 -0.011690 0.028899 -0.012172 0.000000 -0.005345 0.000000
# 3 0.002914 -0.012172 0.019495 0.000000 -0.017598 0.000000
# 4 0.000000 0.000000 0.000000 -0.000032 0.000000 -0.143876
# 5 -0.007730 -0.005345 -0.017598 0.000000 0.088599 0.000000
# 6 0.000000 0.000000 0.000000 -0.143876 0.000000 -0.137604
#
#
# Mechanical properties :
#
#
# Convention : Reuss Voigt Hill
#
# Bulk Modulus (GPa) = 39.00731 68.93765 53.97248
# Shear Modulus (GPa) = 72.53141 14.29499 43.41320
#
# Velocity S-wave (km/s) = 6.59573 2.92814 5.10283
# Velocity P-wave (km/s) = 9.02226 7.26500 8.19089
#
# Compressibility (1/GPa) = 0.02563622
#
# Stress axis : x y z
#
# Youngs Moduli (GPa) = 52.25443 34.60276 51.29450
#
# Poissons Ratio (x) = 0.40450 -0.14946
# Poissons Ratio (y) = 0.61085 0.62434
# Poissons Ratio (z) = -0.15226 0.42118
#
# Static dielectric constant tensor:
#      x y z
#    x 1.542890 0.000000 -0.016100 
#    y 0.000000 1.564140 0.000000 
#    z -0.016100 0.000000 1.594780 
# 
# From -- ./inp_files/33866.got.cif
#   From: 2010.05.17/outbox.cif.g08.bks.cpg/sg10_17_cif.got.tgz:33866.got - 2010.06.03 11:33:40.
