data_PCOD9143105
_publ_section_title
;
Structure prediction by ZEFSAII (Michael W. Deem and Ramdas Pophale) SiO2 
 PCOD9143105
Probable space group: P 2/M
;
_chemical_formula_sum "Si O2"
_cell_formula_units_Z 24
_cell_length_a 19.158905
_cell_length_b 9.430397
_cell_length_c 7.762614
_cell_angle_alpha 90.000000
_cell_angle_beta 114.846228
_cell_angle_gamma 90.000000
_cell_volume 1272.699797
_symmetry_space_group_name_H-M "P 2/M"
_symmetry_group_IT_number 10
_symmetry_cell_setting 'monoclinic'
loop_
_space_group_symop_operation_xyz
x,y,z
-x,y,-z
-x,-y,-z
x,-y,z
loop_
_atom_site_type_symbol
_atom_site_label
_atom_site_fract_x
_atom_site_fract_y
_atom_site_fract_z
Si Si1 0.992165 0.337773 0.781777
Si Si2 0.839813 0.330778 0.021845
Si Si3 0.325936 0.331940 0.000007
Si Si4 0.322105 0.832901 0.656172
Si Si5 0.154953 0.832127 0.334245
Si Si6 0.408791 0.167057 0.390716
O O1 0.975528 0.500000 0.713678
O O2 0.921458 0.237134 0.664918
O O3 0.000000 0.335176 0.000000
O O4 0.077442 0.296268 0.808130
O O5 0.842723 0.500000 0.984119
O O6 0.832708 0.243096 0.837938
O O7 0.764781 0.305120 0.057534
O O8 0.337953 0.500000 0.009290
O O9 0.347532 0.260228 0.842875
O O10 0.372548 0.260727 0.203248
O O11 0.231972 0.808904 0.523265
O O12 0.368418 0.799296 0.530346
O O13 0.333063 0.000000 0.704873
O O14 0.144576 0.000000 0.298811
O O15 0.500000 0.187070 0.500000
O O16 0.393794 0.000000 0.339359
#
# Coordination Sequence:
#
# PCOD9143105 Si02
#       6
#     4   4   4   4   4   4
#     4   8  15  28  47  73 108 149 192 235 280 334
#     4   9  18  33  52  77 111 152 193 233 283 339
#     4  11  23  38  61  90 119 153 193 239 288 339
#     4  10  22  39  59  86 119 154 192 235 286 347
#     4  10  18  30  52  81 111 147 193 241 286 331
#     4  10  22  43  68  89 114 152 192 232 286 351
#
# _framework density 18.85755
#
# number of rings (size 3 to 8) (size 9 to 14) (size 15 to 20)
#    0.000    2.333    1.667    2.000    0.000    6.667 
#    0.000    4.167    0.000    5.000    0.000    0.000 
#    0.000    0.000    0.000    0.000    0.000    0.000 
#
# Total GULP energy -133982.058873 kJ/mol
# GULP energy per Si atom -5582.585786 kJ/mol
# Density = 1.881463 g / cm^3
# Si number density = 18.857550 Si / 1000 Ang^3
#
#
#
# Elastic Constant Matrix: (Units=GPa)
#
#
# Indices 1 2 3 4 5 6 
#
# 1 77.0911 64.7165 77.9351 0.0000 13.2678 0.0000
# 2 64.7165 79.9390 78.1090 0.0000 -5.0018 0.0000
# 3 77.9351 78.1090 91.2396 0.0000 -14.0489 0.0000
# 4 0.0000 0.0000 0.0000 -253.1389 0.0000 206.7889
# 5 13.2678 -5.0018 -14.0489 0.0000 12.5833 0.0000
# 6 0.0000 0.0000 0.0000 206.7889 0.0000 -120.7261
#
#
#
# Elastic Compliance Matrix: (Units=1/GPa)
#
#
# Indices 1 2 3 4 5 6 
#
# 1 -0.010611 -0.024238 0.036292 0.000000 0.042072 0.000000
# 2 -0.024238 0.064615 -0.032270 0.000000 0.015213 0.000000
# 3 0.036292 -0.032270 -0.000340 0.000000 -0.051473 0.000000
# 4 0.000000 0.000000 0.000000 0.009895 0.000000 0.016948
# 5 0.042072 0.015213 -0.051473 0.000000 -0.016311 0.000000
# 6 0.000000 0.000000 0.000000 0.016948 0.000000 0.020747
#
#
# Mechanical properties :
#
#
# Convention : Reuss Voigt Hill
#
# Bulk Modulus (GPa) = 75.57280 76.64343 76.10812
# Shear Modulus (GPa) = 44.31135 -70.42239 -13.05552
#
# Velocity S-wave (km/s) = 4.85273 -6.11764 -2.63406
# Velocity P-wave (km/s) = 8.45939 3.02804 5.58535
#
# Compressibility (1/GPa) = 0.01323227
#
# Stress axis : x y z
#
# Youngs Moduli (GPa) = -94.24197 15.47621 -2942.56687
#
# Poissons Ratio (x) = 0.37512 106.79207
# Poissons Ratio (y) = -2.28428 -94.95594
# Poissons Ratio (z) = 3.42024 0.49941
#
# Static dielectric constant tensor:
#      x y z
#    x 1.678140 0.000000 0.000980 
#    y 0.000000 1.625040 0.000000 
#    z 0.000980 0.000000 1.633130 
# 
# From -- ./inp_files/33503.got.cif
#   From: 2010.05.17/outbox.cif.g08.bks.cpg/sg10_17_cif.got.tgz:33503.got - 2010.06.03 11:33:40.
