data_PCOD9143403
_publ_section_title
;
Structure prediction by ZEFSAII (Michael W. Deem and Ramdas Pophale) SiO2 
 PCOD9143403
Probable space group: P 2/M
;
_chemical_formula_sum "Si O2"
_cell_formula_units_Z 32
_cell_length_a 11.201311
_cell_length_b 8.487183
_cell_length_c 19.817724
_cell_angle_alpha 90.000000
_cell_angle_beta 60.631460
_cell_angle_gamma 90.000000
_cell_volume 1641.894431
_symmetry_space_group_name_H-M "P 2/M"
_symmetry_group_IT_number 10
_symmetry_cell_setting 'monoclinic'
loop_
_space_group_symop_operation_xyz
x,y,z
-x,y,-z
-x,-y,-z
x,-y,z
loop_
_atom_site_type_symbol
_atom_site_label
_atom_site_fract_x
_atom_site_fract_y
_atom_site_fract_z
Si Si1 0.522976 0.313673 0.743431
Si Si2 0.483915 0.814175 0.113157
Si Si3 0.198070 0.310055 0.836512
Si Si4 0.788066 0.314002 0.019693
Si Si5 0.286740 0.189453 0.587073
Si Si6 0.947481 0.312124 0.258387
Si Si7 0.794335 0.812960 0.873885
Si Si8 0.437613 0.190534 0.411374
O O1 0.540247 0.500000 0.750598
O O2 0.569095 0.217248 0.796167
O O3 0.359756 0.280667 0.782689
O O4 0.587055 0.263401 0.654762
O O5 0.624400 0.718463 0.067117
O O6 0.362600 0.764793 0.096799
O O7 0.514052 0.000000 0.094844
O O8 0.179746 0.500000 0.842983
O O9 0.158257 0.253249 0.922619
O O10 0.121321 0.248526 0.792090
O O11 0.814987 0.500000 0.008583
O O12 0.838017 0.238394 0.936704
O O13 0.144321 0.251755 0.654856
O O14 0.330193 0.236957 0.499456
O O15 0.412474 0.239134 0.601319
O O16 0.284751 0.000000 0.588854
O O17 0.940403 0.500000 0.259736
O O18 0.103812 0.259550 0.209263
O O19 0.798868 0.000000 0.867414
O O20 0.437797 0.000000 0.406190
#
# Coordination Sequence:
#
# PCOD9143403 Si02
#       8
#     4   4   4   4   4   4   4   4
#     4  10  18  31  53  81 110 136 172 219 264 310
#     4  10  21  37  56  77 104 137 175 221 269 314
#     4   8  17  32  49  75 107 137 166 207 262 310
#     4  10  20  36  58  81 105 132 171 222 270 313
#     4   9  18  32  50  77 111 144 176 211 252 307
#     4  11  21  35  54  75 106 144 180 216 260 312
#     4  11  24  39  53  74 104 140 181 220 264 316
#     4   9  17  30  51  79 111 143 174 209 256 310
#
# _framework density 19.489681999999998
#
# number of rings (size 3 to 8) (size 9 to 14) (size 15 to 20)
#    0.000    2.250    1.250    3.750    0.000    4.500 
#    0.000    5.625    0.000    0.750    0.000    5.250 
#    0.000    0.000    0.000    0.000    0.000    0.000 
#
# Total GULP energy -178612.135642 kJ/mol
# GULP energy per Si atom -5581.629239 kJ/mol
# Density = 1.944532 g / cm^3
# Si number density = 19.489682 Si / 1000 Ang^3
#
#
#
# Elastic Constant Matrix: (Units=GPa)
#
#
# Indices 1 2 3 4 5 6 
#
# 1 18.5301 -0.6220 1.7231 0.0000 2.3295 0.0000
# 2 -0.6220 12.5807 4.9571 0.0000 -0.9945 0.0000
# 3 1.7231 4.9571 115.9929 0.0000 0.6857 0.0000
# 4 0.0000 0.0000 0.0000 43.3794 0.0000 -29.2946
# 5 2.3295 -0.9945 0.6857 0.0000 26.3318 0.0000
# 6 0.0000 0.0000 0.0000 -29.2946 0.0000 93.8704
#
#
#
# Elastic Compliance Matrix: (Units=1/GPa)
#
#
# Indices 1 2 3 4 5 6 
#
# 1 0.054733 0.002688 -0.000900 0.000000 -0.004717 0.000000
# 2 0.002688 0.081242 -0.003529 0.000000 0.002922 0.000000
# 3 -0.000900 -0.003529 0.008787 0.000000 -0.000282 0.000000
# 4 0.000000 0.000000 0.000000 0.029208 0.000000 0.009115
# 5 -0.004717 0.002922 -0.000282 0.000000 0.038512 0.000000
# 6 0.000000 0.000000 0.000000 0.009115 0.000000 0.013498
#
#
# Mechanical properties :
#
#
# Convention : Reuss Voigt Hill
#
# Bulk Modulus (GPa) = 7.07817 17.69110 12.38464
# Shear Modulus (GPa) = 18.07959 42.11938 30.09949
#
# Velocity S-wave (km/s) = 3.04904 4.65382 3.93412
# Velocity P-wave (km/s) = 4.00439 6.16232 5.19660
#
# Compressibility (1/GPa) = 0.14127949
#
# Stress axis : x y z
#
# Youngs Moduli (GPa) = 18.27042 12.30896 113.80343
#
# Poissons Ratio (x) = -0.03309 0.10243
# Poissons Ratio (y) = -0.04911 0.40163
# Poissons Ratio (z) = 0.01644 0.04344
#
# Static dielectric constant tensor:
#      x y z
#    x 1.697500 0.000000 0.002710 
#    y 0.000000 1.656830 0.000000 
#    z 0.002710 0.000000 1.705590 
# 
# From -- ./inp_files/55330.got.cif
#   From: 2010.05.17/outbox.cif.g08.bks.cpg/sg10_28_cif.got.tgz:55330.got - 2010.06.03 11:33:40.
