data_PCOD9143792
_publ_section_title
;
Structure prediction by ZEFSAII (Michael W. Deem and Ramdas Pophale) SiO2 
 PCOD9143792
Probable space group: P 2/M
;
_chemical_formula_sum "Si O2"
_cell_formula_units_Z 24
_cell_length_a 7.943179
_cell_length_b 13.795394
_cell_length_c 14.611960
_cell_angle_alpha 90.000000
_cell_angle_beta 138.264811
_cell_angle_gamma 90.000000
_cell_volume 1065.879660
_symmetry_space_group_name_H-M "P 2/M"
_symmetry_group_IT_number 10
_symmetry_cell_setting 'monoclinic'
loop_
_space_group_symop_operation_xyz
x,y,z
-x,y,-z
-x,-y,-z
x,-y,z
loop_
_atom_site_type_symbol
_atom_site_label
_atom_site_fract_x
_atom_site_fract_y
_atom_site_fract_z
Si Si1 0.201623 0.610230 0.907908
Si Si2 0.388464 0.707777 0.158791
Si Si3 0.953927 0.270108 0.326578
Si Si4 0.670973 0.889304 0.981005
Si Si5 0.838061 0.889218 0.702612
Si Si6 0.508829 0.292317 0.402727
O O1 0.113821 0.500000 0.868506
O O2 0.048348 0.675061 0.773264
O O3 0.500000 0.612249 0.000000
O O4 0.218567 0.651188 0.017070
O O5 0.686619 0.700065 0.257657
O O6 0.345893 0.820040 0.113069
O O7 0.368619 0.673277 0.254861
O O8 0.006088 0.158663 0.318693
O O9 0.189219 0.292780 0.486939
O O10 0.593455 0.000000 0.931069
O O11 0.500000 0.854526 0.000000
O O12 0.957607 0.888184 0.132916
O O13 0.609185 0.815925 0.631508
O O14 0.764993 0.000000 0.656711
O O15 0.500000 0.340241 0.500000
#
# Coordination Sequence:
#
# PCOD9143792 Si02
#       6
#     4   4   4   4   4   4
#     4   9  18  35  64  96 117 138 185 248 298 341
#     4  11  19  36  62  88 114 150 198 239 286 341
#     4  10  19  37  60  88 116 153 188 237 291 344
#     4  10  18  32  58  91 116 142 191 251 296 336
#     4  10  20  37  58  82 119 156 191 236 287 338
#     4  10  24  38  53  79 121 162 193 231 283 339
#
# _framework density 22.516615000000002
#
# number of rings (size 3 to 8) (size 9 to 14) (size 15 to 20)
#    0.000    2.000    3.333    1.000    0.000    4.333 
#    0.000    2.500    0.000   23.000    0.000    0.000 
#    0.000    0.000    0.000    0.000    0.000    0.000 
#
# Total GULP energy -133825.393559 kJ/mol
# GULP energy per Si atom -5576.058065 kJ/mol
# Density = 2.246537 g / cm^3
# Si number density = 22.516615 Si / 1000 Ang^3
#
#
#
# Elastic Constant Matrix: (Units=GPa)
#
#
# Indices 1 2 3 4 5 6 
#
# 1 76.7429 3.7376 34.3121 0.0000 -6.6711 0.0000
# 2 3.7376 70.3978 19.7671 0.0000 -7.0404 0.0000
# 3 34.3121 19.7671 162.7203 0.0000 -15.9501 0.0000
# 4 0.0000 0.0000 0.0000 6.6737 0.0000 10.1426
# 5 -6.6711 -7.0404 -15.9501 0.0000 51.5979 0.0000
# 6 0.0000 0.0000 0.0000 10.1426 0.0000 4.5538
#
#
#
# Elastic Compliance Matrix: (Units=1/GPa)
#
#
# Indices 1 2 3 4 5 6 
#
# 1 0.014434 0.000164 -0.002968 0.000000 0.000971 0.000000
# 2 0.000164 0.014822 -0.001686 0.000000 0.001522 0.000000
# 3 -0.002968 -0.001686 0.007132 0.000000 0.001591 0.000000
# 4 0.000000 0.000000 0.000000 -0.062828 0.000000 0.139934
# 5 0.000971 0.001522 0.001591 0.000000 0.020206 0.000000
# 6 0.000000 0.000000 0.000000 0.139934 0.000000 -0.092074
#
#
# Mechanical properties :
#
#
# Convention : Reuss Voigt Hill
#
# Bulk Modulus (GPa) = 36.48568 47.27719 41.88144
# Shear Modulus (GPa) = -62.35024 29.36802 -16.49111
#
# Velocity S-wave (km/s) = -5.26791 3.61540 -2.70922
# Velocity P-wave (km/s) = 4.55655 6.20245 2.97559
#
# Compressibility (1/GPa) = 0.02740801
#
# Stress axis : x y z
#
# Youngs Moduli (GPa) = 69.28024 67.46761 140.20909
#
# Poissons Ratio (x) = -0.01108 0.41620
# Poissons Ratio (y) = -0.01138 0.23639
# Poissons Ratio (z) = 0.20565 0.11375
#
# Static dielectric constant tensor:
#      x y z
#    x 1.984200 0.000000 0.030400 
#    y 0.000000 1.817040 0.000000 
#    z 0.030400 0.000000 1.849610 
# 
# From -- ./inp_files/61941.got.cif
#   From: 2010.05.17/outbox.cif.g08.bks.cpg/sg10_31_cif.got.tgz:61941.got - 2010.06.03 11:33:40.
