data_PCOD9143254
_publ_section_title
;
Structure prediction by ZEFSAII (Michael W. Deem and Ramdas Pophale) SiO2 
 PCOD9143254
Probable space group: P 2/M
;
_chemical_formula_sum "Si O2"
_cell_formula_units_Z 28
_cell_length_a 17.467896
_cell_length_b 7.715176
_cell_length_c 12.173077
_cell_angle_alpha 90.000000
_cell_angle_beta 121.927149
_cell_angle_gamma 90.000000
_cell_volume 1392.361011
_symmetry_space_group_name_H-M "P 2/M"
_symmetry_group_IT_number 10
_symmetry_cell_setting 'monoclinic'
loop_
_space_group_symop_operation_xyz
x,y,z
-x,y,-z
-x,-y,-z
x,-y,z
loop_
_atom_site_type_symbol
_atom_site_label
_atom_site_fract_x
_atom_site_fract_y
_atom_site_fract_z
Si Si1 0.449750 0.208168 0.346869
Si Si2 0.880603 0.500000 0.299365
Si Si3 0.400920 0.796135 0.904442
Si Si4 0.093748 0.500000 0.424673
Si Si5 0.800375 0.800079 0.613016
Si Si6 0.246913 0.697026 0.945859
Si Si7 0.757468 0.699720 0.819630
Si Si8 0.377769 0.210990 0.648884
O O1 0.500000 0.240973 0.500000
O O2 0.351407 0.289060 0.267548
O O3 0.522233 0.266416 0.311266
O O4 0.436643 0.000000 0.327549
O O5 0.869548 0.500000 0.421964
O O6 0.831715 0.663909 0.202975
O O7 0.985865 0.500000 0.351875
O O8 0.332277 0.780179 0.952288
O O9 0.359892 0.728145 0.759166
O O10 0.413917 0.000000 0.894417
O O11 0.500000 0.720325 0.000000
O O12 0.129058 0.668828 0.387018
O O13 0.796256 0.791509 0.741603
O O14 0.702071 0.738618 0.493653
O O15 0.814581 0.000000 0.589535
O O16 0.276714 0.500000 0.995809
O O17 0.217698 0.772255 0.040742
O O18 0.787207 0.500000 0.833766
O O19 0.378838 0.000000 0.643137
#
# Coordination Sequence:
#
# PCOD9143254 Si02
#       8
#     4   2   4   2   4   4   4   4
#     4  10  18  31  50  75 115 164 207 252 299 344
#     4   9  22  45  68  91 118 154 194 245 315 381
#     4  10  19  32  53  82 115 156 205 249 291 345
#     4  11  22  43  73  96 119 152 190 254 327 374
#     4  11  22  38  62  94 124 156 202 251 307 370
#     4   9  21  39  57  80 116 160 199 240 298 357
#     4  11  21  36  54  83 119 163 205 245 297 357
#     4   9  18  32  50  78 116 155 198 253 305 348
#
# _framework density 20.109726999999999
#
# number of rings (size 3 to 8) (size 9 to 14) (size 15 to 20)
#    0.429    1.571    2.143    2.143    0.000    2.857 
#    1.286    3.571    0.000    0.857    0.000    0.000 
#    0.000    0.000    0.000    0.000    0.000    0.000 
#
# Total GULP energy -156148.871329 kJ/mol
# GULP energy per Si atom -5576.745405 kJ/mol
# Density = 2.006396 g / cm^3
# Si number density = 20.109727 Si / 1000 Ang^3
#
#
#
# Elastic Constant Matrix: (Units=GPa)
#
#
# Indices 1 2 3 4 5 6 
#
# 1 97.5824 21.0760 43.6747 0.0000 -14.7157 0.0000
# 2 21.0760 46.6736 13.5114 0.0000 -3.8133 0.0000
# 3 43.6747 13.5114 111.4505 0.0000 -20.6457 0.0000
# 4 0.0000 0.0000 0.0000 14.6311 0.0000 -1.1275
# 5 -14.7157 -3.8133 -20.6457 0.0000 33.4821 0.0000
# 6 0.0000 0.0000 0.0000 -1.1275 0.0000 30.0010
#
#
#
# Elastic Compliance Matrix: (Units=1/GPa)
#
#
# Indices 1 2 3 4 5 6 
#
# 1 0.013577 -0.004675 -0.004230 0.000000 0.002826 0.000000
# 2 -0.004675 0.023843 -0.001057 0.000000 0.000009 0.000000
# 3 -0.004230 -0.001057 0.011732 0.000000 0.005254 0.000000
# 4 0.000000 0.000000 0.000000 0.068546 0.000000 0.002576
# 5 0.002826 0.000009 0.005254 0.000000 0.034350 0.000000
# 6 0.000000 0.000000 0.000000 0.002576 0.000000 0.033429
#
#
# Mechanical properties :
#
#
# Convention : Reuss Voigt Hill
#
# Bulk Modulus (GPa) = 34.21428 45.80343 40.00886
# Shear Modulus (GPa) = 23.24024 27.45247 25.34636
#
# Velocity S-wave (km/s) = 3.40321 3.69878 3.55407
# Velocity P-wave (km/s) = 5.70028 6.40839 6.06468
#
# Compressibility (1/GPa) = 0.02922756
#
# Stress axis : x y z
#
# Youngs Moduli (GPa) = 73.65378 41.94060 85.23866
#
# Poissons Ratio (x) = 0.19609 0.36057
# Poissons Ratio (y) = 0.34436 0.09007
# Poissons Ratio (z) = 0.31157 0.04432
#
# Static dielectric constant tensor:
#      x y z
#    x 1.678470 0.000000 -0.034970 
#    y 0.000000 1.729150 0.000000 
#    z -0.034970 0.000000 1.768620 
# 
# From -- ./inp_files/49427.got.cif
#   From: 2010.05.17/outbox.cif.g08.bks.cpg/sg10_25_cif.got.tgz:49427.got - 2010.06.03 11:33:40.
