data_PCOD9143694
_publ_section_title
;
Structure prediction by ZEFSAII (Michael W. Deem and Ramdas Pophale) SiO2 
 PCOD9143694
Probable space group: P 2/M
;
_chemical_formula_sum "Si O2"
_cell_formula_units_Z 28
_cell_length_a 22.062009
_cell_length_b 9.583001
_cell_length_c 18.233246
_cell_angle_alpha 90.000000
_cell_angle_beta 154.024749
_cell_angle_gamma 90.000000
_cell_volume 1688.370315
_symmetry_space_group_name_H-M "P 2/M"
_symmetry_group_IT_number 10
_symmetry_cell_setting 'monoclinic'
loop_
_space_group_symop_operation_xyz
x,y,z
-x,y,-z
-x,-y,-z
x,-y,z
loop_
_atom_site_type_symbol
_atom_site_label
_atom_site_fract_x
_atom_site_fract_y
_atom_site_fract_z
Si Si1 0.632901 0.661330 0.494181
Si Si2 0.667605 0.160295 0.670653
Si Si3 0.152048 0.838058 0.699729
Si Si4 0.580899 0.330743 0.278006
Si Si5 0.258295 0.332407 0.945878
Si Si6 0.657087 0.662110 0.200365
Si Si7 0.701002 0.340487 0.844405
O O1 0.678572 0.500000 0.550093
O O2 0.694656 0.755580 0.625362
O O3 0.650923 0.714144 0.430444
O O4 0.465743 0.660235 0.323969
O O5 0.500000 0.162431 0.500000
O O6 0.730162 0.238005 0.809234
O O7 0.710521 0.000000 0.712533
O O8 0.163016 0.754118 0.787789
O O9 0.252895 0.759901 0.752946
O O10 0.000000 0.832650 0.500000
O O11 0.191248 0.000000 0.752694
O O12 0.581339 0.500000 0.280371
O O13 0.651869 0.289837 0.279322
O O14 0.418252 0.292505 0.101806
O O15 0.245654 0.500000 0.920732
O O16 0.235649 0.304622 0.007510
O O17 0.704897 0.500000 0.248790
O O18 0.500000 0.662694 0.000000
O O19 0.738211 0.500000 0.865996
#
# Coordination Sequence:
#
# PCOD9143694 Si02
#       7
#     4   4   4   4   4   4   4
#     4   8  13  22  36  53  80 114 145 177 221 273
#     4   9  15  21  30  49  81 116 149 181 216 261
#     4  11  24  37  47  66  99 132 160 194 238 287
#     4   8  14  26  45  69  90 112 147 195 241 276
#     4   9  16  30  49  67  87 115 156 200 237 278
#     4  10  18  32  55  75  93 118 157 205 244 283
#     4   8  14  23  38  57  78 109 148 186 226 272
#
# _framework density 16.584040000000002
#
# number of rings (size 3 to 8) (size 9 to 14) (size 15 to 20)
#    0.000    3.000    1.429    2.571    0.000    3.714 
#    0.000    2.857    0.000    0.000    0.000    0.000 
#    0.000    1.143    0.000   12.857    0.000   10.000 
#
# Total GULP energy -155917.566197 kJ/mol
# GULP energy per Si atom -5568.484507 kJ/mol
# Density = 1.654629 g / cm^3
# Si number density = 16.584040 Si / 1000 Ang^3
#
#
#
# Elastic Constant Matrix: (Units=GPa)
#
#
# Indices 1 2 3 4 5 6 
#
# 1 87.9014 61.9426 39.2907 0.0000 -47.3065 0.0000
# 2 61.9426 94.7515 46.3521 0.0000 -34.6269 0.0000
# 3 39.2907 46.3521 42.4237 0.0000 -27.3802 0.0000
# 4 0.0000 0.0000 0.0000 351.9117 0.0000 -275.1520
# 5 -47.3065 -34.6269 -27.3802 0.0000 34.1267 0.0000
# 6 0.0000 0.0000 0.0000 -275.1520 0.0000 228.4621
#
#
#
# Elastic Compliance Matrix: (Units=1/GPa)
#
#
# Indices 1 2 3 4 5 6 
#
# 1 0.054207 -0.016138 0.011110 0.000000 0.067680 0.000000
# 2 -0.016138 0.028192 -0.024539 0.000000 -0.013453 0.000000
# 3 0.011110 -0.024539 0.070436 0.000000 0.047013 0.000000
# 4 0.000000 0.000000 0.000000 0.048714 0.000000 0.058670
# 5 0.067680 -0.013453 0.047013 0.000000 0.147190 0.000000
# 6 0.000000 0.000000 0.000000 0.058670 0.000000 0.075037
#
#
# Mechanical properties :
#
#
# Convention : Reuss Voigt Hill
#
# Bulk Modulus (GPa) = 10.67238 57.80527 34.23882
# Shear Modulus (GPa) = 9.72492 128.06617 68.89555
#
# Velocity S-wave (km/s) = 2.42420 8.79717 6.45240
# Velocity P-wave (km/s) = 3.77955 11.75238 8.72936
#
# Compressibility (1/GPa) = 0.09369983
#
# Stress axis : x y z
#
# Youngs Moduli (GPa) = 18.44784 35.47142 14.19732
#
# Poissons Ratio (x) = 0.57244 -0.15773
# Poissons Ratio (y) = 0.29771 0.34839
# Poissons Ratio (z) = -0.20495 0.87043
#
# Static dielectric constant tensor:
#      x y z
#    x 1.569620 0.000000 -0.028680 
#    y 0.000000 1.549520 0.000000 
#    z -0.028680 0.000000 1.549150 
# 
# From -- ./inp_files/79323.got.cif
#   From: 2010.05.17/outbox.cif.g08.bks.cpg/sg10_40_cif.got.tgz:79323.got - 2010.06.03 11:33:40.
