data_PCOD9143162
_publ_section_title
;
Structure prediction by ZEFSAII (Michael W. Deem and Ramdas Pophale) SiO2 
 PCOD9143162
Probable space group: P 2/M
;
_chemical_formula_sum "Si O2"
_cell_formula_units_Z 24
_cell_length_a 24.323803
_cell_length_b 13.230926
_cell_length_c 19.228507
_cell_angle_alpha 90.000000
_cell_angle_beta 14.236209
_cell_angle_gamma 90.000000
_cell_volume 1521.812410
_symmetry_space_group_name_H-M "P 2/M"
_symmetry_group_IT_number 10
_symmetry_cell_setting 'monoclinic'
loop_
_space_group_symop_operation_xyz
x,y,z
-x,y,-z
-x,-y,-z
x,-y,z
loop_
_atom_site_type_symbol
_atom_site_label
_atom_site_fract_x
_atom_site_fract_y
_atom_site_fract_z
Si Si1 0.203828 0.622376 0.297620
Si Si2 0.968230 0.727641 0.207709
Si Si3 0.276578 0.613903 0.727586
Si Si4 0.232859 0.196045 0.680210
Si Si5 0.284930 0.622186 0.356361
Si Si6 0.636469 0.885556 0.260691
O O1 0.196309 0.500000 0.305796
O O2 0.193067 0.650095 0.392261
O O3 0.000000 0.659853 0.500000
O O4 0.451172 0.648784 0.966906
O O5 0.807135 0.786151 0.351731
O O6 0.846423 0.678701 0.422147
O O7 0.079354 0.641871 0.022590
O O8 0.167580 0.803864 0.984140
O O9 0.500000 0.621264 0.500000
O O10 0.257578 0.500000 0.723907
O O11 0.274406 0.697509 0.669856
O O12 0.446918 0.129478 0.435099
O O13 0.000000 0.156274 0.000000
O O14 0.266107 0.500000 0.387048
O O15 0.500000 0.869063 0.500000
O O16 0.723226 0.000000 0.154664
#
# Coordination Sequence:
#
# PCOD9143162 Si02
#       6
#     4   4   4   4   4   4
#     4   8  15  31  50  70  99 134 164 191 234 286
#     4  11  20  32  49  73  99 126 166 207 244 291
#     4  10  18  31  46  62  97 140 167 193 232 278
#     4  10  19  33  47  68  93 126 170 206 241 288
#     4   9  18  30  48  75 105 132 161 197 233 284
#     4  11  21  36  52  68  93 127 170 217 260 292
#
# _framework density 15.770669
#
# number of rings (size 3 to 8) (size 9 to 14) (size 15 to 20)
#    0.000    2.167    5.000    1.500    0.000    6.000 
#    0.000    0.000    0.000    0.000    0.000    2.333 
#    0.000    6.667    0.000    0.000    0.000    0.000 
#
# Total GULP energy -133771.817239 kJ/mol
# GULP energy per Si atom -5573.825718 kJ/mol
# Density = 1.573477 g / cm^3
# Si number density = 15.770669 Si / 1000 Ang^3
#
#
#
# Elastic Constant Matrix: (Units=GPa)
#
#
# Indices 1 2 3 4 5 6 
#
# 1 97.4002 17.0441 65.9047 0.0000 -8.0779 0.0000
# 2 17.0441 47.9904 26.4626 0.0000 6.6224 0.0000
# 3 65.9047 26.4626 71.7696 0.0000 -1.0298 0.0000
# 4 0.0000 0.0000 0.0000 13.0184 0.0000 1.7559
# 5 -8.0779 6.6224 -1.0298 0.0000 32.8271 0.0000
# 6 0.0000 0.0000 0.0000 1.7559 0.0000 5.2690
#
#
#
# Elastic Compliance Matrix: (Units=1/GPa)
#
#
# Indices 1 2 3 4 5 6 
#
# 1 0.029039 0.004532 -0.028261 0.000000 0.005345 0.000000
# 2 0.004532 0.027926 -0.014530 0.000000 -0.004974 0.000000
# 3 -0.028261 -0.014530 0.045205 0.000000 -0.002605 0.000000
# 4 0.000000 0.000000 0.000000 0.080429 0.000000 -0.026802
# 5 0.005345 -0.004974 -0.002605 0.000000 0.032700 0.000000
# 6 0.000000 0.000000 0.000000 -0.026802 0.000000 0.198721
#
#
# Mechanical properties :
#
#
# Convention : Reuss Voigt Hill
#
# Bulk Modulus (GPa) = 38.98121 48.44256 43.71188
# Shear Modulus (GPa) = 10.01825 17.40617 13.71221
#
# Velocity S-wave (km/s) = 2.52314 3.32581 2.95189
# Velocity P-wave (km/s) = 5.76711 6.74771 6.27659
#
# Compressibility (1/GPa) = 0.02565339
#
# Stress axis : x y z
#
# Youngs Moduli (GPa) = 34.43598 35.80842 22.12149
#
# Poissons Ratio (x) = -0.16229 0.62517
# Poissons Ratio (y) = -0.15607 0.32143
# Poissons Ratio (z) = 0.97319 0.52030
#
# Static dielectric constant tensor:
#      x y z
#    x 1.544610 0.000000 -0.038480 
#    y 0.000000 1.526740 0.000000 
#    z -0.038480 0.000000 1.526240 
# 
# From -- ./inp_files/67518.got.cif
#   From: 2010.05.17/outbox.cif.g08.bks.cpg/sg10_34_cif.got.tgz:67518.got - 2010.06.03 11:33:40.
