data_PCOD9143893
_publ_section_title
;
Structure prediction by ZEFSAII (Michael W. Deem and Ramdas Pophale) SiO2 
 PCOD9143893
Probable space group: P 2/M
;
_chemical_formula_sum "Si O2"
_cell_formula_units_Z 28
_cell_length_a 19.661382
_cell_length_b 8.929223
_cell_length_c 18.232606
_cell_angle_alpha 90.000000
_cell_angle_beta 150.296619
_cell_angle_gamma 90.000000
_cell_volume 1586.093610
_symmetry_space_group_name_H-M "P 2/M"
_symmetry_group_IT_number 10
_symmetry_cell_setting 'monoclinic'
loop_
_space_group_symop_operation_xyz
x,y,z
-x,y,-z
-x,-y,-z
x,-y,z
loop_
_atom_site_type_symbol
_atom_site_label
_atom_site_fract_x
_atom_site_fract_y
_atom_site_fract_z
Si Si1 0.339503 0.679917 0.339921
Si Si2 0.004619 0.676772 0.592456
Si Si3 0.303501 0.681403 0.860077
Si Si4 0.218536 0.822975 0.514434
Si Si5 0.895397 0.173565 0.971517
Si Si6 0.132934 0.678640 0.281161
Si Si7 0.586589 0.319065 0.194948
O O1 0.500000 0.726176 0.500000
O O2 0.339095 0.500000 0.328620
O O3 0.248499 0.754239 0.189734
O O4 0.249356 0.712273 0.328569
O O5 0.982749 0.500000 0.589413
O O6 0.158228 0.726884 0.755584
O O7 0.000000 0.688371 0.500000
O O8 0.896095 0.773224 0.534168
O O9 0.302405 0.500000 0.855954
O O10 0.328943 0.726997 0.799412
O O11 0.431832 0.724027 0.029726
O O12 0.179759 0.750265 0.400966
O O13 0.356249 0.755983 0.679066
O O14 0.226537 0.000000 0.515205
O O15 0.874982 0.000000 0.971958
O O16 0.000000 0.179358 0.000000
O O17 0.984867 0.258683 0.116629
O O18 0.123757 0.500000 0.279013
O O19 0.596558 0.500000 0.210343
#
# Coordination Sequence:
#
# PCOD9143893 Si02
#       7
#     4   4   4   4   4   4   4
#     4   9  18  34  58  87 112 137 177 222 259 304
#     4  10  18  33  56  78  99 131 177 223 265 314
#     4   8  15  29  54  79  96 122 170 224 264 311
#     4  12  24  35  49  75 110 143 176 219 271 319
#     4   9  17  31  53  81 112 142 172 209 257 312
#     4  10  20  36  57  78 104 142 182 218 260 313
#     4   9  16  32  54  75  98 130 172 216 264 316
#
# _framework density 17.653435000000002
#
# number of rings (size 3 to 8) (size 9 to 14) (size 15 to 20)
#    0.000    2.429    1.429    3.000    0.000    2.857 
#    0.000    3.571    0.000    3.429    0.000    0.000 
#    0.000    0.000    0.000    0.000    0.000    0.000 
#
# Total GULP energy -156057.532182 kJ/mol
# GULP energy per Si atom -5573.483292 kJ/mol
# Density = 1.761325 g / cm^3
# Si number density = 17.653435 Si / 1000 Ang^3
#
#
#
# Elastic Constant Matrix: (Units=GPa)
#
#
# Indices 1 2 3 4 5 6 
#
# 1 33.1800 30.4945 48.4007 0.0000 -4.9326 0.0000
# 2 30.4945 62.7507 65.1813 0.0000 -10.5618 0.0000
# 3 48.4007 65.1813 178.2608 0.0000 -6.3816 0.0000
# 4 0.0000 0.0000 0.0000 -5.1132 0.0000 -3.9849
# 5 -4.9326 -10.5618 -6.3816 0.0000 33.2217 0.0000
# 6 0.0000 0.0000 0.0000 -3.9849 0.0000 12.3823
#
#
#
# Elastic Compliance Matrix: (Units=1/GPa)
#
#
# Indices 1 2 3 4 5 6 
#
# 1 0.063200 -0.020570 -0.009603 0.000000 0.000999 0.000000
# 2 -0.020570 0.033821 -0.006551 0.000000 0.006440 0.000000
# 3 -0.009603 -0.006551 0.010559 0.000000 -0.001480 0.000000
# 4 0.000000 0.000000 0.000000 -0.156357 0.000000 -0.050319
# 5 0.000999 0.006440 -0.001480 0.000000 0.032012 0.000000
# 6 0.000000 0.000000 0.000000 -0.050319 0.000000 0.064567
#
#
# Mechanical properties :
#
#
# Convention : Reuss Voigt Hill
#
# Bulk Modulus (GPa) = 29.29713 62.48271 45.88992
# Shear Modulus (GPa) = 37.69967 16.77251 27.23609
#
# Velocity S-wave (km/s) = 4.62621 3.08571 3.93214
# Velocity P-wave (km/s) = 6.72067 6.94020 6.83132
#
# Compressibility (1/GPa) = 0.03413303
#
# Stress axis : x y z
#
# Youngs Moduli (GPa) = 15.82280 29.56736 94.70219
#
# Poissons Ratio (x) = 0.60820 0.90938
# Poissons Ratio (y) = 0.32548 0.62040
# Poissons Ratio (z) = 0.15194 0.19370
#
# Static dielectric constant tensor:
#      x y z
#    x 1.593290 0.000000 0.019460 
#    y 0.000000 1.591820 0.000000 
#    z 0.019460 0.000000 1.636930 
# 
# From -- ./inp_files/79306.got.cif
#   From: 2010.05.17/outbox.cif.g08.bks.cpg/sg10_40_cif.got.tgz:79306.got - 2010.06.03 11:33:40.
