data_PCOD9143653
_publ_section_title
;
Structure prediction by ZEFSAII (Michael W. Deem and Ramdas Pophale) SiO2 
 PCOD9143653
Probable space group: P 2/M
;
_chemical_formula_sum "Si O2"
_cell_formula_units_Z 32
_cell_length_a 29.874394
_cell_length_b 7.504460
_cell_length_c 12.094226
_cell_angle_alpha 90.000000
_cell_angle_beta 31.858842
_cell_angle_gamma 90.000000
_cell_volume 1431.163794
_symmetry_space_group_name_H-M "P 2/M"
_symmetry_group_IT_number 10
_symmetry_cell_setting 'monoclinic'
loop_
_space_group_symop_operation_xyz
x,y,z
-x,y,-z
-x,-y,-z
x,-y,z
loop_
_atom_site_type_symbol
_atom_site_label
_atom_site_fract_x
_atom_site_fract_y
_atom_site_fract_z
Si Si1 0.655025 0.715767 0.477433
Si Si2 0.424011 0.293138 0.733533
Si Si3 0.126218 0.282751 0.684166
Si Si4 0.540439 0.282387 0.099104
Si Si5 0.265037 0.204710 0.924196
Si Si6 0.305367 0.282516 0.367106
Si Si7 0.079736 0.211787 0.262821
Si Si8 0.963891 0.714667 0.898945
O O1 0.656629 0.500000 0.464562
O O2 0.557423 0.771143 0.698536
O O3 0.695297 0.787598 0.281612
O O4 0.703853 0.768508 0.485816
O O5 0.500000 0.213383 0.500000
O O6 0.447616 0.500000 0.699500
O O7 0.423136 0.221934 0.859149
O O8 0.334819 0.286790 0.858693
O O9 0.125087 0.500000 0.685301
O O10 0.223283 0.225253 0.470513
O O11 0.059211 0.225352 0.731735
O O12 0.092081 0.228862 0.877528
O O13 0.539789 0.500000 0.092599
O O14 0.605203 0.221529 0.869394
O O15 0.258041 0.000000 0.973810
O O16 0.170746 0.284168 0.112279
O O17 0.306693 0.500000 0.362741
O O18 0.066362 0.233468 0.159271
O O19 0.000000 0.283222 0.500000
O O20 0.083168 0.000000 0.275334
O O21 0.962591 0.500000 0.902736
#
# Coordination Sequence:
#
# PCOD9143653 Si02
#       8
#     4   4   4   4   4   4   4   4
#     4  10  18  32  54  78 105 136 174 216 259 309
#     4  10  19  35  56  79 109 139 173 220 264 304
#     4   8  15  28  47  77 111 135 161 211 269 311
#     4   9  17  29  47  75 107 137 171 212 255 303
#     4  11  23  37  56  79 102 137 182 221 263 317
#     4   9  16  26  47  78 108 138 171 208 257 314
#     4  10  23  41  55  72 105 142 176 220 269 314
#     4   9  17  32  55  79 104 133 170 215 264 316
#
# _framework density 22.359425999999999
#
# number of rings (size 3 to 8) (size 9 to 14) (size 15 to 20)
#    0.000    2.500    1.250    2.250    0.000    5.000 
#    0.000    2.500    0.000    3.000    0.000    0.000 
#    0.000    0.000    0.000    0.000    0.000    0.000 
#
# Total GULP energy -178650.120396 kJ/mol
# GULP energy per Si atom -5582.816262 kJ/mol
# Density = 2.230854 g / cm^3
# Si number density = 22.359426 Si / 1000 Ang^3
#
#
#
# Elastic Constant Matrix: (Units=GPa)
#
#
# Indices 1 2 3 4 5 6 
#
# 1 90.7839 -10.9636 14.8726 0.0000 -19.5101 0.0000
# 2 -10.9636 53.8810 -4.5087 0.0000 0.3324 0.0000
# 3 14.8726 -4.5087 67.0749 0.0000 -29.5089 0.0000
# 4 0.0000 0.0000 0.0000 8.0638 0.0000 7.1734
# 5 -19.5101 0.3324 -29.5089 0.0000 37.9806 0.0000
# 6 0.0000 0.0000 0.0000 7.1734 0.0000 17.4372
#
#
#
# Elastic Compliance Matrix: (Units=1/GPa)
#
#
# Indices 1 2 3 4 5 6 
#
# 1 0.012727 0.002576 0.000330 0.000000 0.006772 0.000000
# 2 0.002576 0.019224 0.001867 0.000000 0.002606 0.000000
# 3 0.000330 0.001867 0.022833 0.000000 0.017893 0.000000
# 4 0.000000 0.000000 0.000000 0.195589 0.000000 -0.080462
# 5 0.006772 0.002606 0.017893 0.000000 0.043687 0.000000
# 6 0.000000 0.000000 0.000000 -0.080462 0.000000 0.090450
#
#
# Mechanical properties :
#
#
# Convention : Reuss Voigt Hill
#
# Bulk Modulus (GPa) = 15.54460 23.39337 19.46898
# Shear Modulus (GPa) = 12.61329 26.85228 19.73279
#
# Velocity S-wave (km/s) = 2.37769 3.46921 2.97396
# Velocity P-wave (km/s) = 3.80856 5.15096 4.52976
#
# Compressibility (1/GPa) = 0.06433103
#
# Stress axis : x y z
#
# Youngs Moduli (GPa) = 78.57028 52.01914 43.79628
#
# Poissons Ratio (x) = -0.13398 -0.01447
# Poissons Ratio (y) = -0.20237 -0.08179
# Poissons Ratio (z) = -0.02596 -0.09714
#
# Static dielectric constant tensor:
#      x y z
#    x 1.804120 0.000000 -0.021670 
#    y 0.000000 1.897260 0.000000 
#    z -0.021670 0.000000 1.818450 
# 
# From -- ./inp_files/58088.got.cif
#   From: 2010.05.17/outbox.cif.g08.bks.cpg/sg10_30_cif.got.tgz:58088.got - 2010.06.03 11:33:40.
