data_PCOD9143309
_publ_section_title
;
Structure prediction by ZEFSAII (Michael W. Deem and Ramdas Pophale) SiO2 
 PCOD9143309
Probable space group: P 2/M
;
_chemical_formula_sum "Si O2"
_cell_formula_units_Z 28
_cell_length_a 10.522962
_cell_length_b 7.369611
_cell_length_c 28.840496
_cell_angle_alpha 90.000000
_cell_angle_beta 145.464256
_cell_angle_gamma 90.000000
_cell_volume 1267.965007
_symmetry_space_group_name_H-M "P 2/M"
_symmetry_group_IT_number 10
_symmetry_cell_setting 'monoclinic'
loop_
_space_group_symop_operation_xyz
x,y,z
-x,y,-z
-x,-y,-z
x,-y,z
loop_
_atom_site_type_symbol
_atom_site_label
_atom_site_fract_x
_atom_site_fract_y
_atom_site_fract_z
Si Si1 0.676553 0.280483 0.785693
Si Si2 0.539997 0.707557 0.062629
Si Si3 0.911424 0.277821 0.244691
Si Si4 0.864333 0.721175 0.505118
Si Si5 0.913374 0.209860 0.023272
Si Si6 0.798067 0.278566 0.314055
Si Si7 0.635917 0.721240 0.666843
O O1 0.679517 0.500000 0.786586
O O2 0.443222 0.221696 0.738887
O O3 0.680023 0.221918 0.733186
O O4 0.887562 0.221357 0.879542
O O5 0.613369 0.500000 0.075531
O O6 0.734484 0.786379 0.153077
O O7 0.500000 0.791310 0.000000
O O8 0.309857 0.705395 0.022332
O O9 0.905233 0.500000 0.243364
O O10 0.841025 0.219081 0.274665
O O11 0.159928 0.223282 0.304403
O O12 0.861941 0.500000 0.504773
O O13 0.607875 0.780847 0.423773
O O14 0.000000 0.775469 0.500000
O O15 0.003897 0.779011 0.591895
O O16 0.855239 0.000000 0.997523
O O17 0.000000 0.285524 0.000000
O O18 0.796333 0.500000 0.313900
O O19 0.632411 0.500000 0.666319
#
# Coordination Sequence:
#
# PCOD9143309 Si02
#       7
#     4   4   4   4   4   4   4
#     4  10  18  31  52  73  94 129 172 210 251 300
#     4  10  20  36  57  78 103 137 177 219 263 313
#     4   9  17  27  40  65  96 125 161 205 250 295
#     4   9  14  23  38  62  96 130 162 195 239 295
#     4  11  24  38  52  75 106 137 173 218 266 315
#     4   9  16  25  41  66  96 128 163 203 246 295
#     4   9  16  26  43  67  96 126 160 202 244 294
#
# _framework density 22.082629000000001
#
# number of rings (size 3 to 8) (size 9 to 14) (size 15 to 20)
#    0.000    2.429    1.429    2.143    0.000    5.429 
#    0.000    2.857    0.000    0.000    0.000    2.000 
#    0.000    0.000    0.000    9.143    0.000    9.143 
#
# Total GULP energy -156512.956783 kJ/mol
# GULP energy per Si atom -5589.748457 kJ/mol
# Density = 2.203237 g / cm^3
# Si number density = 22.082629 Si / 1000 Ang^3
#
#
#
# Elastic Constant Matrix: (Units=GPa)
#
#
# Indices 1 2 3 4 5 6 
#
# 1 91.0608 -3.2375 8.7549 0.0000 2.3450 0.0000
# 2 -3.2375 78.3390 -8.7300 0.0000 -4.5843 0.0000
# 3 8.7549 -8.7300 112.9076 0.0000 6.5666 0.0000
# 4 0.0000 0.0000 0.0000 79.0966 0.0000 19.4713
# 5 2.3450 -4.5843 6.5666 0.0000 37.4733 0.0000
# 6 0.0000 0.0000 0.0000 19.4713 0.0000 -4.7654
#
#
#
# Elastic Compliance Matrix: (Units=1/GPa)
#
#
# Indices 1 2 3 4 5 6 
#
# 1 0.011084 0.000339 -0.000804 0.000000 -0.000511 0.000000
# 2 0.000339 0.012961 0.000894 0.000000 0.001408 0.000000
# 3 -0.000804 0.000894 0.009071 0.000000 -0.001430 0.000000
# 4 0.000000 0.000000 0.000000 0.006303 0.000000 0.025754
# 5 -0.000511 0.001408 -0.001430 0.000000 0.027140 0.000000
# 6 0.000000 0.000000 0.000000 0.025754 0.000000 -0.104617
#
#
# Mechanical properties :
#
#
# Convention : Reuss Voigt Hill
#
# Bulk Modulus (GPa) = 29.43365 30.65358 30.04361
# Shear Modulus (GPa) = -181.22507 41.39556 -69.91475
#
# Velocity S-wave (km/s) = -9.06890 4.33433 -5.63287
# Velocity P-wave (km/s) = 9.81337 6.24180 5.35454
#
# Compressibility (1/GPa) = 0.03397472
#
# Stress axis : x y z
#
# Youngs Moduli (GPa) = 90.21907 77.15432 110.23657
#
# Poissons Ratio (x) = -0.02612 0.08858
# Poissons Ratio (y) = -0.03055 -0.09855
# Poissons Ratio (z) = 0.07249 -0.06898
#
# Static dielectric constant tensor:
#      x y z
#    x 1.753750 0.000000 -0.011110 
#    y 0.000000 1.847340 0.000000 
#    z -0.011110 0.000000 1.755190 
# 
# From -- ./inp_files/80215.got.cif
#   From: 2010.05.17/outbox.cif.g08.bks.cpg/sg10_41_cif.got.tgz:80215.got - 2010.06.03 11:33:40.
