data_PCOD9143225
_publ_section_title
;
Structure prediction by ZEFSAII (Michael W. Deem and Ramdas Pophale) SiO2 
 PCOD9143225
Probable space group: P 2/M
;
_chemical_formula_sum "Si O2"
_cell_formula_units_Z 32
_cell_length_a 18.500148
_cell_length_b 7.645827
_cell_length_c 12.797499
_cell_angle_alpha 90.000000
_cell_angle_beta 77.604221
_cell_angle_gamma 90.000000
_cell_volume 1767.993518
_symmetry_space_group_name_H-M "P 2/M"
_symmetry_group_IT_number 10
_symmetry_cell_setting 'monoclinic'
loop_
_space_group_symop_operation_xyz
x,y,z
-x,y,-z
-x,-y,-z
x,-y,z
loop_
_atom_site_type_symbol
_atom_site_label
_atom_site_fract_x
_atom_site_fract_y
_atom_site_fract_z
Si Si1 0.496046 0.295826 0.374250
Si Si2 0.336052 0.710903 0.441041
Si Si3 0.924730 0.711949 0.732965
Si Si4 0.089219 0.299101 0.652889
Si Si5 0.188782 0.285653 0.813605
Si Si6 0.342781 0.285557 0.681057
Si Si7 0.175791 0.198872 0.426521
Si Si8 0.078198 0.713225 0.026103
O O1 0.500000 0.291946 0.500000
O O2 0.495234 0.500000 0.343053
O O3 0.415052 0.221482 0.373810
O O4 0.575050 0.222528 0.313462
O O5 0.341021 0.500000 0.441897
O O6 0.328012 0.766524 0.564918
O O7 0.262450 0.758035 0.402127
O O8 0.922067 0.500000 0.729900
O O9 0.862545 0.774059 0.672512
O O10 0.914860 0.767840 0.855998
O O11 0.006441 0.774257 0.671505
O O12 0.077387 0.500000 0.689793
O O13 0.140902 0.224590 0.728263
O O14 0.131936 0.300629 0.530431
O O15 0.190199 0.500000 0.811866
O O16 0.273455 0.229479 0.771951
O O17 0.145392 0.231394 0.930768
O O18 0.345059 0.500000 0.680511
O O19 0.166996 0.000000 0.461970
O O20 0.077081 0.500000 0.026347
O O21 0.000000 0.769080 0.000000
#
# Coordination Sequence:
#
# PCOD9143225 Si02
#       8
#     4   4   4   4   4   4   4   4
#     4   7  11  19  36  64  92 117 143 175 216 269
#     4   9  15  27  46  65  89 120 153 182 217 270
#     4  10  20  33  50  68  89 119 157 193 224 265
#     4  10  18  31  50  69  89 119 155 186 222 270
#     4   9  14  22  43  73  98 117 141 182 229 268
#     4   8  12  20  39  69  98 117 140 178 225 272
#     4  12  24  33  43  63  94 125 156 191 227 266
#     4   9  15  26  45  71  95 113 144 191 232 263
#
# _framework density 18.099615
#
# number of rings (size 3 to 8) (size 9 to 14) (size 15 to 20)
#    0.000    2.750    2.500    3.000    0.000    2.000 
#    0.000    0.000    0.000    4.500    0.000    0.875 
#    0.000    7.000    0.000    0.000    0.000    0.000 
#
# Total GULP energy -178327.226276 kJ/mol
# GULP energy per Si atom -5572.725821 kJ/mol
# Density = 1.805842 g / cm^3
# Si number density = 18.099615 Si / 1000 Ang^3
#
#
#
# Elastic Constant Matrix: (Units=GPa)
#
#
# Indices 1 2 3 4 5 6 
#
# 1 203.6047 3.4667 72.5941 0.0000 -14.6519 0.0000
# 2 3.4667 33.9716 -5.2600 0.0000 -2.1597 0.0000
# 3 72.5941 -5.2600 70.5386 0.0000 2.0055 0.0000
# 4 0.0000 0.0000 0.0000 -150.3878 0.0000 -128.3065
# 5 -14.6519 -2.1597 2.0055 0.0000 22.0584 0.0000
# 6 0.0000 0.0000 0.0000 -128.3065 0.0000 -153.4982
#
#
#
# Elastic Compliance Matrix: (Units=1/GPa)
#
#
# Indices 1 2 3 4 5 6 
#
# 1 0.008728 -0.001922 -0.009309 0.000000 0.006456 0.000000
# 2 -0.001922 0.030367 0.004205 0.000000 0.001315 0.000000
# 3 -0.009309 0.004205 0.024297 0.000000 -0.007981 0.000000
# 4 0.000000 0.000000 0.000000 -0.023181 0.000000 0.019377
# 5 0.006456 0.001315 -0.007981 0.000000 0.050476 0.000000
# 6 0.000000 0.000000 0.000000 0.019377 0.000000 -0.022711
#
#
# Mechanical properties :
#
#
# Convention : Reuss Voigt Hill
#
# Bulk Modulus (GPa) = 20.26740 49.96851 35.11796
# Shear Modulus (GPa) = 50.77439 -40.54459 5.11490
#
# Velocity S-wave (km/s) = 5.30223 -4.73808 1.68289
# Velocity P-wave (km/s) = 6.97903 1.50504 4.81880
#
# Compressibility (1/GPa) = 0.04934033
#
# Stress axis : x y z
#
# Youngs Moduli (GPa) = 114.57628 32.93043 41.15683
#
# Poissons Ratio (x) = 0.06328 0.38313
# Poissons Ratio (y) = 0.22017 -0.17305
# Poissons Ratio (z) = 1.06659 -0.13846
#
# Static dielectric constant tensor:
#      x y z
#    x 1.663770 0.000000 -0.019860 
#    y 0.000000 1.662870 0.000000 
#    z -0.019860 0.000000 1.576000 
# 
# From -- ./inp_files/52733.got.cif
#   From: 2010.05.17/outbox.cif.g08.bks.cpg/sg10_27_cif.got.tgz:52733.got - 2010.06.03 11:33:40.
