data_PCOD9143768
_publ_section_title
;
Structure prediction by ZEFSAII (Michael W. Deem and Ramdas Pophale) SiO2 
 PCOD9143768
Probable space group: P 2/M
;
_chemical_formula_sum "Si O2"
_cell_formula_units_Z 32
_cell_length_a 15.271826
_cell_length_b 13.885907
_cell_length_c 9.592550
_cell_angle_alpha 90.000000
_cell_angle_beta 117.855844
_cell_angle_gamma 90.000000
_cell_volume 1798.512442
_symmetry_space_group_name_H-M "P 2/M"
_symmetry_group_IT_number 10
_symmetry_cell_setting 'monoclinic'
loop_
_space_group_symop_operation_xyz
x,y,z
-x,y,-z
-x,-y,-z
x,-y,z
loop_
_atom_site_type_symbol
_atom_site_label
_atom_site_fract_x
_atom_site_fract_y
_atom_site_fract_z
Si Si1 0.197870 0.386267 0.286951
Si Si2 0.794846 0.891145 0.080840
Si Si3 0.043721 0.301135 0.384551
Si Si4 0.391765 0.256906 0.398092
Si Si5 0.854093 0.889330 0.434587
Si Si6 0.630219 0.889062 0.364215
Si Si7 0.584401 0.111513 0.841086
Si Si8 0.088833 0.731507 0.975427
O O1 0.211303 0.500000 0.297537
O O2 0.136812 0.354400 0.380326
O O3 0.301426 0.330384 0.345544
O O4 0.132833 0.351590 0.105786
O O5 0.855606 0.879660 0.268608
O O6 0.830856 0.811992 0.999573
O O7 0.811639 0.000000 0.042421
O O8 0.676421 0.881224 0.015302
O O9 0.081738 0.192074 0.443049
O O10 0.000000 0.337428 0.500000
O O11 0.958205 0.303859 0.204235
O O12 0.500000 0.303958 0.500000
O O13 0.380751 0.180183 0.513548
O O14 0.394717 0.192162 0.260445
O O15 0.738189 0.873293 0.381573
O O16 0.880646 0.000000 0.491171
O O17 0.529955 0.875753 0.198488
O O18 0.629060 0.000000 0.409450
O O19 0.589999 0.000000 0.791357
O O20 0.000000 0.776502 0.000000
#
# Coordination Sequence:
#
# PCOD9143768 Si02
#       8
#     4   4   4   4   4   4   4   4
#     4  11  24  42  61  83 109 139 185 243 294 332
#     4  10  19  32  52  81 115 149 185 218 261 328
#     4  11  22  39  62  82 110 145 190 234 277 335
#     4  10  18  32  57  84 110 141 177 221 277 335
#     4  10  20  33  54  83 117 152 182 218 270 329
#     4   9  17  30  50  80 114 148 181 217 266 326
#     4   9  17  29  50  80 115 148 182 219 258 325
#     4  10  22  38  56  78 109 145 183 230 279 328
#
# _framework density 17.792483000000001
#
# number of rings (size 3 to 8) (size 9 to 14) (size 15 to 20)
#    0.000    2.000    3.750    0.375    0.000    5.750 
#    0.000    4.375    0.000    0.000    0.000    0.000 
#    0.000    6.000    0.000    0.000    0.000    0.000 
#
# Total GULP energy -178266.476024 kJ/mol
# GULP energy per Si atom -5570.827376 kJ/mol
# Density = 1.775199 g / cm^3
# Si number density = 17.792483 Si / 1000 Ang^3
#
#
#
# Elastic Constant Matrix: (Units=GPa)
#
#
# Indices 1 2 3 4 5 6 
#
# 1 115.5575 49.0720 36.6688 0.0000 12.5859 0.0000
# 2 49.0720 59.1073 23.9757 0.0000 5.8612 0.0000
# 3 36.6688 23.9757 79.5365 0.0000 7.2096 0.0000
# 4 0.0000 0.0000 0.0000 12.0835 0.0000 -6.4909
# 5 12.5859 5.8612 7.2096 0.0000 30.2700 0.0000
# 6 0.0000 0.0000 0.0000 -6.4909 0.0000 6.3282
#
#
#
# Elastic Compliance Matrix: (Units=1/GPa)
#
#
# Indices 1 2 3 4 5 6 
#
# 1 0.014425 -0.010341 -0.003241 0.000000 -0.003223 0.000000
# 2 -0.010341 0.026862 -0.003319 0.000000 -0.000111 0.000000
# 3 -0.003241 -0.003319 0.015216 0.000000 -0.001634 0.000000
# 4 0.000000 0.000000 0.000000 0.184310 0.000000 0.189051
# 5 -0.003223 -0.000111 -0.001634 0.000000 0.034787 0.000000
# 6 0.000000 0.000000 0.000000 0.189051 0.000000 0.351938
#
#
# Mechanical properties :
#
#
# Convention : Reuss Voigt Hill
#
# Bulk Modulus (GPa) = 44.05550 52.62602 48.34076
# Shear Modulus (GPa) = 7.47489 19.36866 13.42178
#
# Velocity S-wave (km/s) = 2.05190 3.30295 2.74952
# Velocity P-wave (km/s) = 5.51618 6.64740 6.10803
#
# Compressibility (1/GPa) = 0.02269864
#
# Stress axis : x y z
#
# Youngs Moduli (GPa) = 69.32576 37.22796 65.72199
#
# Poissons Ratio (x) = 0.38499 0.21298
# Poissons Ratio (y) = 0.71693 0.21816
# Poissons Ratio (z) = 0.22466 0.12358
#
# Static dielectric constant tensor:
#      x y z
#    x 1.653440 0.000000 0.026410 
#    y 0.000000 1.566080 0.000000 
#    z 0.026410 0.000000 1.627430 
# 
# From -- ./inp_files/29554.got.cif
#   From: 2010.05.17/outbox.cif.g08.bks.cpg/sg10_15_cif.got.tgz:29554.got - 2010.06.03 11:33:40.
