data_PCOD9143098
_publ_section_title
;
Structure prediction by ZEFSAII (Michael W. Deem and Ramdas Pophale) SiO2 
 PCOD9143098
Probable space group: P 2/M
;
_chemical_formula_sum "Si O2"
_cell_formula_units_Z 32
_cell_length_a 17.847980
_cell_length_b 16.404403
_cell_length_c 12.393350
_cell_angle_alpha 90.000000
_cell_angle_beta 27.617699
_cell_angle_gamma 90.000000
_cell_volume 1682.105842
_symmetry_space_group_name_H-M "P 2/M"
_symmetry_group_IT_number 10
_symmetry_cell_setting 'monoclinic'
loop_
_space_group_symop_operation_xyz
x,y,z
-x,y,-z
-x,-y,-z
x,-y,z
loop_
_atom_site_type_symbol
_atom_site_label
_atom_site_fract_x
_atom_site_fract_y
_atom_site_fract_z
Si Si1 0.734634 0.591838 0.016429
Si Si2 0.874317 0.867877 0.577805
Si Si3 0.223708 0.092151 0.534635
Si Si4 0.066002 0.688149 0.579065
Si Si5 0.647464 0.753506 0.233338
Si Si6 0.998230 0.763541 0.122414
Si Si7 0.562025 0.812875 0.103708
Si Si8 0.610400 0.363700 0.950750
O O1 0.753296 0.500000 0.033005
O O2 0.635417 0.591932 0.031659
O O3 0.907071 0.633761 0.768463
O O4 0.655325 0.656340 0.199359
O O5 0.839381 0.908756 0.508288
O O6 0.948980 0.778951 0.451264
O O7 0.000000 0.906833 0.500000
O O8 0.705335 0.855387 0.854660
O O9 0.399395 0.134659 0.310608
O O10 0.102299 0.152616 0.751264
O O11 0.230168 0.000000 0.568154
O O12 0.216971 0.649764 0.326198
O O13 0.086190 0.705213 0.681050
O O14 0.500000 0.773392 0.500000
O O15 0.620439 0.794759 0.151149
O O16 0.819916 0.776317 0.065409
O O17 0.000000 0.728604 0.000000
O O18 0.538707 0.725268 0.075303
O O19 0.500000 0.401938 0.000000
#
# Coordination Sequence:
#
# PCOD9143098 Si02
#       8
#     4   4   4   4   4   4   4   4
#     4  10  21  35  53  80 113 145 175 215 270 324
#     4  10  18  33  55  79 111 147 185 223 263 318
#     4  11  23  36  54  83 115 145 177 221 277 326
#     4   9  18  33  54  79 105 142 184 218 258 318
#     4  10  21  38  61  82 102 139 188 228 266 321
#     4  10  20  37  60  80 104 139 184 228 270 320
#     4  10  19  34  55  80 109 144 186 226 265 318
#     4  10  18  30  52  79 109 143 181 221 261 309
#
# _framework density 19.023772999999998
#
# number of rings (size 3 to 8) (size 9 to 14) (size 15 to 20)
#    0.000    2.000    0.000    7.500    0.000    4.000 
#    0.000    1.875    0.000    7.500    0.000    0.000 
#    0.000    0.000    0.000    0.000    0.000    0.000 
#
# Total GULP energy -178615.107654 kJ/mol
# GULP energy per Si atom -5581.722114 kJ/mol
# Density = 1.898047 g / cm^3
# Si number density = 19.023773 Si / 1000 Ang^3
#
#
#
# Elastic Constant Matrix: (Units=GPa)
#
#
# Indices 1 2 3 4 5 6 
#
# 1 89.2758 1.8776 0.7390 0.0000 5.1059 0.0000
# 2 1.8776 59.1510 -1.0656 0.0000 -9.8005 0.0000
# 3 0.7390 -1.0656 56.2129 0.0000 7.7792 0.0000
# 4 0.0000 0.0000 0.0000 -3.7881 0.0000 -9.5362
# 5 5.1059 -9.8005 7.7792 0.0000 33.7439 0.0000
# 6 0.0000 0.0000 0.0000 -9.5362 0.0000 6.9101
#
#
#
# Elastic Compliance Matrix: (Units=1/GPa)
#
#
# Indices 1 2 3 4 5 6 
#
# 1 0.011325 -0.000678 0.000106 0.000000 -0.001935 0.000000
# 2 -0.000678 0.017809 -0.000396 0.000000 0.005366 0.000000
# 3 0.000106 -0.000396 0.018385 0.000000 -0.004370 0.000000
# 4 0.000000 0.000000 0.000000 -0.059003 0.000000 -0.081426
# 5 -0.001935 0.005366 -0.004370 0.000000 0.032494 0.000000
# 6 0.000000 0.000000 0.000000 -0.081426 0.000000 0.032345
#
#
# Mechanical properties :
#
#
# Convention : Reuss Voigt Hill
#
# Bulk Modulus (GPa) = 21.93780 23.08243 22.51011
# Shear Modulus (GPa) = 70.93477 20.91243 45.92360
#
# Velocity S-wave (km/s) = 6.11297 3.31913 4.91859
# Velocity P-wave (km/s) = 7.83462 5.18157 6.64191
#
# Compressibility (1/GPa) = 0.04558343
#
# Stress axis : x y z
#
# Youngs Moduli (GPa) = 88.29786 56.15006 54.39131
#
# Poissons Ratio (x) = 0.03808 -0.00577
# Poissons Ratio (y) = 0.05988 0.02155
# Poissons Ratio (z) = -0.00936 0.02224
#
# Static dielectric constant tensor:
#      x y z
#    x 1.685050 0.000000 -0.004480 
#    y 0.000000 1.659900 0.000000 
#    z -0.004480 0.000000 1.640740 
# 
# From -- ./inp_files/54126.got.cif
#   From: 2010.05.17/outbox.cif.g08.bks.cpg/sg10_28_cif.got.tgz:54126.got - 2010.06.03 11:33:40.
