data_PCOD9143989
_publ_section_title
;
Structure prediction by ZEFSAII (Michael W. Deem and Ramdas Pophale) SiO2 
 PCOD9143989
Probable space group: P 2/M
;
_chemical_formula_sum "Si O2"
_cell_formula_units_Z 30
_cell_length_a 12.934170
_cell_length_b 8.411303
_cell_length_c 14.652897
_cell_angle_alpha 90.000000
_cell_angle_beta 67.166736
_cell_angle_gamma 90.000000
_cell_volume 1469.216241
_symmetry_space_group_name_H-M "P 2/M"
_symmetry_group_IT_number 10
_symmetry_cell_setting 'monoclinic'
loop_
_space_group_symop_operation_xyz
x,y,z
-x,y,-z
-x,-y,-z
x,-y,z
loop_
_atom_site_type_symbol
_atom_site_label
_atom_site_fract_x
_atom_site_fract_y
_atom_site_fract_z
Si Si1 0.719053 0.310152 0.503305
Si Si2 0.383671 0.322397 0.727271
Si Si3 0.500000 0.740987 0.500000
Si Si4 0.497532 0.189751 0.857561
Si Si5 0.316603 0.192400 0.070146
Si Si6 0.159364 0.308456 0.727212
Si Si7 0.114568 0.809910 0.407936
Si Si8 0.912675 0.309854 0.788633
O O1 0.687469 0.500000 0.513849
O O2 0.610627 0.201580 0.517272
O O3 0.805663 0.282634 0.390259
O O4 0.781227 0.268210 0.575037
O O5 0.370221 0.500000 0.768528
O O6 0.434353 0.333407 0.608328
O O7 0.468394 0.237152 0.765618
O O8 0.260875 0.245068 0.755199
O O9 0.612907 0.246232 0.864313
O O10 0.501787 0.000000 0.861722
O O11 0.394094 0.240264 0.958164
O O12 0.193024 0.261731 0.114486
O O13 0.309183 0.000000 0.073629
O O14 0.161540 0.500000 0.739117
O O15 0.033206 0.251275 0.784374
O O16 0.106160 0.759241 0.306023
O O17 0.000000 0.763114 0.500000
O O18 0.125717 0.000000 0.409747
O O19 0.918783 0.500000 0.779141
#
# Coordination Sequence:
#
# PCOD9143989 Si02
#       8
#     4   4   2   4   4   4   4   4
#     4  10  18  34  55  75 107 149 191 229 269 324
#     4  10  19  35  58  83 113 148 187 231 274 326
#     4  10  21  36  57  86 117 150 189 232 277 320
#     4   9  20  40  61  81 111 149 183 223 283 340
#     4   9  20  40  61  81 112 147 179 228 288 337
#     4   8  17  33  52  75 109 147 178 222 280 323
#     4  11  23  36  51  77 114 151 188 229 277 331
#     4  11  21  35  57  83 108 141 188 234 276 332
#
# _framework density 20.419049000000001
#
# number of rings (size 3 to 8) (size 9 to 14) (size 15 to 20)
#    0.000    2.267    1.333    3.600    1.867    1.600 
#    0.000    6.667    0.000    4.000    0.000    0.000 
#    0.000    0.000    0.000    0.000    0.000    0.000 
#
# Total GULP energy -167145.966806 kJ/mol
# GULP energy per Si atom -5571.532227 kJ/mol
# Density = 2.037257 g / cm^3
# Si number density = 20.419049 Si / 1000 Ang^3
#
#
#
# Elastic Constant Matrix: (Units=GPa)
#
#
# Indices 1 2 3 4 5 6 
#
# 1 125.7889 14.9449 21.4685 0.0000 -14.3827 0.0000
# 2 14.9449 17.5706 7.0373 0.0000 -1.9240 0.0000
# 3 21.4685 7.0373 36.0523 0.0000 -1.3383 0.0000
# 4 0.0000 0.0000 0.0000 22.6908 0.0000 -4.0870
# 5 -14.3827 -1.9240 -1.3383 0.0000 36.3777 0.0000
# 6 0.0000 0.0000 0.0000 -4.0870 0.0000 4.7440
#
#
#
# Elastic Compliance Matrix: (Units=1/GPa)
#
#
# Indices 1 2 3 4 5 6 
#
# 1 0.009847 -0.006189 -0.004529 0.000000 0.003399 0.000000
# 2 -0.006189 0.065921 -0.009156 0.000000 0.000703 0.000000
# 3 -0.004529 -0.009156 0.032181 0.000000 -0.001091 0.000000
# 4 0.000000 0.000000 0.000000 0.052165 0.000000 0.044940
# 5 0.003399 0.000703 -0.001091 0.000000 0.028830 0.000000
# 6 0.000000 0.000000 0.000000 0.044940 0.000000 0.249509
#
#
# Mechanical properties :
#
#
# Convention : Reuss Voigt Hill
#
# Bulk Modulus (GPa) = 14.66261 29.59036 22.12649
# Shear Modulus (GPa) = 9.98131 21.82657 15.90394
#
# Velocity S-wave (km/s) = 2.21333 3.27300 2.79387
# Velocity P-wave (km/s) = 3.70516 5.36716 4.61165
#
# Compressibility (1/GPa) = 0.06820067
#
# Stress axis : x y z
#
# Youngs Moduli (GPa) = 101.55541 15.16958 31.07383
#
# Poissons Ratio (x) = 0.09389 0.14074
# Poissons Ratio (y) = 0.62853 0.28451
# Poissons Ratio (z) = 0.45998 0.13889
#
# Static dielectric constant tensor:
#      x y z
#    x 1.763480 0.000000 -0.021060 
#    y 0.000000 1.726280 0.000000 
#    z -0.021060 0.000000 1.701370 
# 
# From -- ./inp_files/63737.got.cif
#   From: 2010.05.17/outbox.cif.g08.bks.cpg/sg10_32_cif.got.tgz:63737.got - 2010.06.03 11:33:40.
