data_PCOD9143760
_publ_section_title
;
Structure prediction by ZEFSAII (Michael W. Deem and Ramdas Pophale) SiO2 
 PCOD9143760
Probable space group: P 2/M
;
_chemical_formula_sum "Si O2"
_cell_formula_units_Z 32
_cell_length_a 16.456130
_cell_length_b 14.584528
_cell_length_c 11.411066
_cell_angle_alpha 90.000000
_cell_angle_beta 145.506634
_cell_angle_gamma 90.000000
_cell_volume 1550.962004
_symmetry_space_group_name_H-M "P 2/M"
_symmetry_group_IT_number 10
_symmetry_cell_setting 'monoclinic'
loop_
_space_group_symop_operation_xyz
x,y,z
-x,y,-z
-x,-y,-z
x,-y,z
loop_
_atom_site_type_symbol
_atom_site_label
_atom_site_fract_x
_atom_site_fract_y
_atom_site_fract_z
Si Si1 0.131973 0.251864 0.562099
Si Si2 0.328634 0.102245 0.409292
Si Si3 0.687195 0.712532 0.023101
Si Si4 0.836290 0.607147 0.846471
Si Si5 0.439439 0.705063 0.560336
Si Si6 0.898974 0.102971 0.668018
Si Si7 0.930427 0.392578 0.209554
Si Si8 0.763285 0.895555 0.964478
O O1 0.149856 0.173330 0.487808
O O2 0.070740 0.338762 0.417182
O O3 0.000000 0.230281 0.500000
O O4 0.283941 0.263361 0.807693
O O5 0.423109 0.186627 0.561247
O O6 0.177389 0.114784 0.297320
O O7 0.381516 0.000000 0.500724
O O8 0.315102 0.109537 0.253770
O O9 0.545801 0.675136 0.790351
O O10 0.728649 0.807798 0.004076
O O11 0.807954 0.633222 0.155400
O O12 0.792987 0.500000 0.797105
O O13 0.854224 0.642907 0.000020
O O14 0.719014 0.661292 0.632843
O O15 0.000000 0.612255 0.000000
O O16 0.500000 0.687626 0.500000
O O17 0.069804 0.111149 0.873303
O O18 0.863095 0.000000 0.587133
O O19 0.957673 0.500000 0.228743
O O20 0.741195 0.000000 0.986800
#
# Coordination Sequence:
#
# PCOD9143760 Si02
#       8
#     4   4   4   4   4   4   4   4
#     4  10  21  36  57  84 124 158 208 253 291 357
#     4  10  22  36  55  85 122 160 203 249 305 372
#     4  11  22  38  52  91 122 158 205 243 299 359
#     4  10  23  41  65  97 125 155 197 249 312 371
#     4  12  23  38  63  91 125 163 199 247 312 359
#     4  10  20  35  57  86 117 161 208 255 305 350
#     4  10  20  37  61  88 120 155 197 245 298 357
#     4  10  18  32  56  86 121 155 196 255 309 354
#
# _framework density 20.632356000000001
#
# number of rings (size 3 to 8) (size 9 to 14) (size 15 to 20)
#    0.000    1.625    5.000    0.375    1.750    6.000 
#    0.000    0.625    0.000    1.500    0.000    2.625 
#    0.000    0.000    0.000    0.000    0.000    0.000 
#
# Total GULP energy -178380.091693 kJ/mol
# GULP energy per Si atom -5574.377865 kJ/mol
# Density = 2.058540 g / cm^3
# Si number density = 20.632356 Si / 1000 Ang^3
#
#
#
# Elastic Constant Matrix: (Units=GPa)
#
#
# Indices 1 2 3 4 5 6 
#
# 1 14.0201 14.9889 15.2830 0.0000 -1.2230 0.0000
# 2 14.9889 76.7482 51.3983 0.0000 -9.3446 0.0000
# 3 15.2830 51.3983 140.1084 0.0000 -2.9246 0.0000
# 4 0.0000 0.0000 0.0000 10.1986 0.0000 -3.2826
# 5 -1.2230 -9.3446 -2.9246 0.0000 13.7375 0.0000
# 6 0.0000 0.0000 0.0000 -3.2826 0.0000 19.7268
#
#
#
# Elastic Compliance Matrix: (Units=1/GPa)
#
#
# Indices 1 2 3 4 5 6 
#
# 1 0.092445 -0.015443 -0.004486 0.000000 -0.003230 0.000000
# 2 -0.015443 0.021487 -0.005948 0.000000 0.011975 0.000000
# 3 -0.004486 -0.005948 0.009759 0.000000 -0.002368 0.000000
# 4 0.000000 0.000000 0.000000 0.103602 0.000000 0.017240
# 5 -0.003230 0.011975 -0.002368 0.000000 0.080148 0.000000
# 6 0.000000 0.000000 0.000000 0.017240 0.000000 0.053561
#
#
# Mechanical properties :
#
#
# Convention : Reuss Voigt Hill
#
# Bulk Modulus (GPa) = 13.90115 43.80191 28.85153
# Shear Modulus (GPa) = 11.44858 18.67967 15.06412
#
# Velocity S-wave (km/s) = 2.35815 3.01218 2.70501
# Velocity P-wave (km/s) = 3.76387 5.77698 4.87546
#
# Compressibility (1/GPa) = 0.07193651
#
# Stress axis : x y z
#
# Youngs Moduli (GPa) = 10.81726 46.53964 102.46726
#
# Poissons Ratio (x) = 0.71873 0.45966
# Poissons Ratio (y) = 0.16706 0.60947
# Poissons Ratio (z) = 0.04853 0.27681
#
# Static dielectric constant tensor:
#      x y z
#    x 1.918470 0.000000 -0.052320 
#    y 0.000000 1.751450 0.000000 
#    z -0.052320 0.000000 1.809340 
# 
# From -- ./inp_files/54063.got.cif
#   From: 2010.05.17/outbox.cif.g08.bks.cpg/sg10_28_cif.got.tgz:54063.got - 2010.06.03 11:33:40.
