data_PCOD9143963
_publ_section_title
;
Structure prediction by ZEFSAII (Michael W. Deem and Ramdas Pophale) SiO2 
 PCOD9143963
Probable space group: P 2/M
;
_chemical_formula_sum "Si O2"
_cell_formula_units_Z 32
_cell_length_a 29.649801
_cell_length_b 7.646581
_cell_length_c 11.519386
_cell_angle_alpha 90.000000
_cell_angle_beta 149.621149
_cell_angle_gamma 90.000000
_cell_volume 1320.761957
_symmetry_space_group_name_H-M "P 2/M"
_symmetry_group_IT_number 10
_symmetry_cell_setting 'monoclinic'
loop_
_space_group_symop_operation_xyz
x,y,z
-x,y,-z
-x,-y,-z
x,-y,z
loop_
_atom_site_type_symbol
_atom_site_label
_atom_site_fract_x
_atom_site_fract_y
_atom_site_fract_z
Si Si1 0.783632 0.207517 0.456677
Si Si2 0.836313 0.288026 0.197675
Si Si3 0.941455 0.289687 0.659870
Si Si4 0.370302 0.203103 0.287301
Si Si5 0.537349 0.697783 0.274139
Si Si6 0.370800 0.797166 0.039165
Si Si7 0.876508 0.286558 0.034445
Si Si8 0.703924 0.294638 0.525468
O O1 0.885458 0.242744 0.649297
O O2 0.745097 0.280406 0.489946
O O3 0.771138 0.000000 0.434498
O O4 0.720250 0.280605 0.213198
O O5 0.830122 0.500000 0.188610
O O6 0.885582 0.227283 0.423183
O O7 0.889262 0.242971 0.197547
O O8 0.736564 0.216694 0.961469
O O9 0.944244 0.500000 0.661298
O O10 0.042378 0.226632 0.866359
O O11 0.405432 0.299199 0.479048
O O12 0.402153 0.275244 0.232710
O O13 0.398547 0.000000 0.365100
O O14 0.512704 0.500000 0.186362
O O15 0.445506 0.786680 0.106507
O O16 0.605160 0.777822 0.330417
O O17 0.353304 0.000000 0.026509
O O18 0.873793 0.500000 0.021212
O O19 0.780594 0.220331 0.779232
O O20 0.693915 0.500000 0.531253
#
# Coordination Sequence:
#
# PCOD9143963 Si02
#       8
#     4   4   4   4   4   4   4   4
#     4  11  24  42  60  81 116 156 198 243 287 342
#     4  10  18  33  59  90 120 150 192 239 286 342
#     4  10  20  35  62  91 116 153 194 238 291 345
#     4  11  21  36  59  86 121 159 190 226 287 354
#     4  11  23  39  62  91 118 147 190 245 291 338
#     4  10  23  41  59  83 118 158 191 231 290 351
#     4   9  18  36  60  88 121 152 188 238 294 346
#     4  10  22  41  61  83 115 151 194 244 292 342
#
# _framework density 24.228438000000001
#
# number of rings (size 3 to 8) (size 9 to 14) (size 15 to 20)
#    0.000    1.750    2.500    1.875    0.000    7.000 
#    0.000    6.250    0.000    1.500    0.000    0.000 
#    0.000    0.000    0.000    0.000    0.000    0.000 
#
# Total GULP energy -178889.092057 kJ/mol
# GULP energy per Si atom -5590.284127 kJ/mol
# Density = 2.417329 g / cm^3
# Si number density = 24.228438 Si / 1000 Ang^3
#
#
#
# Elastic Constant Matrix: (Units=GPa)
#
#
# Indices 1 2 3 4 5 6 
#
# 1 151.9508 -3.2396 4.4339 0.0000 28.5111 0.0000
# 2 -3.2396 54.2563 -3.6956 0.0000 -1.8377 0.0000
# 3 4.4339 -3.6956 21.4702 0.0000 21.8747 0.0000
# 4 0.0000 0.0000 0.0000 12.4335 0.0000 6.9905
# 5 28.5111 -1.8377 21.8747 0.0000 42.8224 0.0000
# 6 0.0000 0.0000 0.0000 6.9905 0.0000 30.2232
#
#
#
# Elastic Compliance Matrix: (Units=1/GPa)
#
#
# Indices 1 2 3 4 5 6 
#
# 1 0.008158 0.000722 0.008220 0.000000 -0.009599 0.000000
# 2 0.000722 0.018777 0.005738 0.000000 -0.002606 0.000000
# 3 0.008220 0.005738 0.106749 0.000000 -0.059756 0.000000
# 4 0.000000 0.000000 0.000000 0.092450 0.000000 -0.021383
# 5 -0.009599 -0.002606 -0.059756 0.000000 0.060157 0.000000
# 6 0.000000 0.000000 0.000000 -0.021383 0.000000 0.038033
#
#
# Mechanical properties :
#
#
# Convention : Reuss Voigt Hill
#
# Bulk Modulus (GPa) = 6.13337 24.74162 15.43750
# Shear Modulus (GPa) = 14.31386 32.44107 23.37746
#
# Velocity S-wave (km/s) = 2.43325 3.66316 3.10962
# Velocity P-wave (km/s) = 3.22974 5.30336 4.39072
#
# Compressibility (1/GPa) = 0.16304238
#
# Stress axis : x y z
#
# Youngs Moduli (GPa) = 122.58246 53.25751 9.36777
#
# Poissons Ratio (x) = -0.03844 -0.07700
# Poissons Ratio (y) = -0.08848 -0.05375
# Poissons Ratio (z) = -1.00760 -0.30558
#
# Static dielectric constant tensor:
#      x y z
#    x 1.961370 0.000000 -0.004490 
#    y 0.000000 1.894270 0.000000 
#    z -0.004490 0.000000 1.934150 
# 
# From -- ./inp_files/49862.got.cif
#   From: 2010.05.17/outbox.cif.g08.bks.cpg/sg10_25_cif.got.tgz:49862.got - 2010.06.03 11:33:40.
