data_PCOD9143646
_publ_section_title
;
Structure prediction by ZEFSAII (Michael W. Deem and Ramdas Pophale) SiO2 
 PCOD9143646
Probable space group: P 2/M
;
_chemical_formula_sum "Si O2"
_cell_formula_units_Z 30
_cell_length_a 12.619965
_cell_length_b 7.279313
_cell_length_c 20.537681
_cell_angle_alpha 90.000000
_cell_angle_beta 142.225912
_cell_angle_gamma 90.000000
_cell_volume 1155.689692
_symmetry_space_group_name_H-M "P 2/M"
_symmetry_group_IT_number 10
_symmetry_cell_setting 'monoclinic'
loop_
_space_group_symop_operation_xyz
x,y,z
-x,y,-z
-x,-y,-z
x,-y,z
loop_
_atom_site_type_symbol
_atom_site_label
_atom_site_fract_x
_atom_site_fract_y
_atom_site_fract_z
Si Si1 0.759212 0.292980 0.540410
Si Si2 0.122169 0.716574 0.688214
Si Si3 0.630601 0.277773 0.646606
Si Si4 0.098823 0.000000 0.224398
Si Si5 0.154729 0.277687 0.975720
Si Si6 0.260792 0.210209 0.618142
Si Si7 0.482829 0.722373 0.917739
Si Si8 0.652641 0.279867 0.807152
O O1 0.765443 0.500000 0.570738
O O2 0.567617 0.223856 0.464351
O O3 0.747795 0.309320 0.455078
O O4 0.949319 0.204714 0.636706
O O5 0.116108 0.500000 0.699551
O O6 0.139462 0.733335 0.618738
O O7 0.301776 0.792681 0.802294
O O8 0.642399 0.500000 0.649364
O O9 0.776791 0.162834 0.681818
O O10 0.663239 0.215319 0.738021
O O11 0.983280 0.161033 0.130698
O O12 0.119716 0.500000 0.955442
O O13 0.341245 0.236992 0.034005
O O14 0.194151 0.225176 0.070078
O O15 0.460785 0.228543 0.738258
O O16 0.224532 0.000000 0.585544
O O17 0.471473 0.500000 0.910286
O O18 0.500000 0.781422 0.000000
O O19 0.656474 0.500000 0.807745
#
# Coordination Sequence:
#
# PCOD9143646 Si02
#       8
#     4   4   4   2   4   4   4   4
#     4   9  19  33  50  73 106 146 185 222 264 324
#     4  10  18  32  54  77 104 145 183 212 270 340
#     4   9  20  36  50  74 108 143 186 234 274 314
#     4  12  24  35  57  76 104 147 190 234 277 331
#     4  10  21  36  55  80 109 143 185 229 276 334
#     4  11  20  27  45  74 111 146 183 222 260 319
#     4   9  18  35  60  87 114 141 175 227 281 333
#     4   9  18  33  50  69 105 148 182 224 271 319
#
# _framework density 25.958523
#
# number of rings (size 3 to 8) (size 9 to 14) (size 15 to 20)
#    0.000    2.267    1.333    2.800    4.667    3.200 
#    0.000    2.333    0.000    0.000    0.000    1.867 
#    0.000    6.400    0.000    0.000    0.000    0.000 
#
# Total GULP energy -167299.889820 kJ/mol
# GULP energy per Si atom -5576.662994 kJ/mol
# Density = 2.589944 g / cm^3
# Si number density = 25.958523 Si / 1000 Ang^3
#
#
#
# Elastic Constant Matrix: (Units=GPa)
#
#
# Indices 1 2 3 4 5 6 
#
# 1 133.6277 -3.8319 52.5953 0.0000 19.8787 0.0000
# 2 -3.8319 139.2995 28.5122 0.0000 17.3401 0.0000
# 3 52.5953 28.5122 172.8150 0.0000 31.4167 0.0000
# 4 0.0000 0.0000 0.0000 261.3195 0.0000 -24.6065
# 5 19.8787 17.3401 31.4167 0.0000 40.1606 0.0000
# 6 0.0000 0.0000 0.0000 -24.6065 0.0000 1.6922
#
#
#
# Elastic Compliance Matrix: (Units=1/GPa)
#
#
# Indices 1 2 3 4 5 6 
#
# 1 0.008887 0.001101 -0.002332 0.000000 -0.003050 0.000000
# 2 0.001101 0.007811 -0.001063 0.000000 -0.003086 0.000000
# 3 -0.002332 -0.001063 0.007436 0.000000 -0.004204 0.000000
# 4 0.000000 0.000000 0.000000 -0.010365 0.000000 -0.150711
# 5 -0.003050 -0.003086 -0.004204 0.000000 0.031031 0.000000
# 6 0.000000 0.000000 0.000000 -0.150711 0.000000 -1.600543
#
#
# Mechanical properties :
#
#
# Convention : Reuss Voigt Hill
#
# Bulk Modulus (GPa) = 51.15955 66.69929 58.92942
# Shear Modulus (GPa) = -3.23700 85.19890 40.98095
#
# Velocity S-wave (km/s) = -1.11790 5.73519 3.97761
# Velocity P-wave (km/s) = 4.25261 8.34308 6.62162
#
# Compressibility (1/GPa) = 0.01954669
#
# Stress axis : x y z
#
# Youngs Moduli (GPa) = 112.52901 128.02803 134.48491
#
# Poissons Ratio (x) = -0.14101 0.31359
# Poissons Ratio (y) = -0.12394 0.14294
# Poissons Ratio (z) = 0.26240 0.13607
#
# Static dielectric constant tensor:
#      x y z
#    x 2.125430 0.000000 -0.015610 
#    y 0.000000 2.091470 0.000000 
#    z -0.015610 0.000000 2.051800 
# 
# From -- ./inp_files/89413.got.cif
#   From: 2010.05.17/outbox.cif.g08.bks.cpg/sg10_45_cif.got.tgz:89413.got - 2010.06.03 11:33:40.
