data_PCOD9143554
_publ_section_title
;
Structure prediction by ZEFSAII (Michael W. Deem and Ramdas Pophale) SiO2 
 PCOD9143554
Probable space group: P 2/M
;
_chemical_formula_sum "Si O2"
_cell_formula_units_Z 28
_cell_length_a 19.540539
_cell_length_b 7.614416
_cell_length_c 16.511701
_cell_angle_alpha 90.000000
_cell_angle_beta 146.638856
_cell_angle_gamma 90.000000
_cell_volume 1351.014734
_symmetry_space_group_name_H-M "P 2/M"
_symmetry_group_IT_number 10
_symmetry_cell_setting 'monoclinic'
loop_
_space_group_symop_operation_xyz
x,y,z
-x,y,-z
-x,-y,-z
x,-y,z
loop_
_atom_site_type_symbol
_atom_site_label
_atom_site_fract_x
_atom_site_fract_y
_atom_site_fract_z
Si Si1 0.614608 0.206087 0.663553
Si Si2 0.952736 0.301274 0.369860
Si Si3 0.105867 0.788406 0.042587
Si Si4 0.685555 0.796996 0.150540
Si Si5 0.592662 0.286295 0.826676
Si Si6 0.434641 0.298570 0.812630
Si Si7 0.124197 0.289049 0.873343
O O1 0.500000 0.284165 0.500000
O O2 0.755542 0.278963 0.797174
O O3 0.579343 0.224222 0.722405
O O4 0.623844 0.000000 0.650600
O O5 0.005983 0.500000 0.420264
O O6 0.805680 0.305029 0.241202
O O7 0.958151 0.223393 0.284252
O O8 0.000000 0.213431 0.500000
O O9 0.109445 0.000000 0.051890
O O10 0.083021 0.749138 0.924751
O O11 0.000000 0.724990 0.000000
O O12 0.664266 0.790459 0.226290
O O13 0.693417 0.000000 0.134072
O O14 0.565091 0.712465 0.990329
O O15 0.592674 0.500000 0.829522
O O16 0.479360 0.224476 0.771027
O O17 0.731523 0.227653 0.990944
O O18 0.395931 0.500000 0.765045
O O19 0.125776 0.500000 0.866278
#
# Coordination Sequence:
#
# PCOD9143554 Si02
#       7
#     4   4   4   4   4   4   4
#     4   9  18  32  50  73 102 134 165 201 252 311
#     4  10  20  36  55  72  99 141 180 215 258 312
#     4   9  18  33  53  76 101 132 168 205 254 315
#     4  11  21  31  47  74 104 130 165 211 257 300
#     4   9  17  30  51  75  98 126 166 213 251 293
#     4  10  18  32  52  72  99 132 168 208 253 302
#     4   9  17  32  52  76  99 125 171 217 253 295
#
# _framework density 20.725162000000001
#
# number of rings (size 3 to 8) (size 9 to 14) (size 15 to 20)
#    0.000    2.429    1.429    2.571    0.000    2.571 
#    0.000    1.429    0.000    3.429    0.000    0.000 
#    0.000    0.000    0.000    0.000    0.000    0.000 
#
# Total GULP energy -155988.682166 kJ/mol
# GULP energy per Si atom -5571.024363 kJ/mol
# Density = 2.067799 g / cm^3
# Si number density = 20.725162 Si / 1000 Ang^3
#
#
#
# Elastic Constant Matrix: (Units=GPa)
#
#
# Indices 1 2 3 4 5 6 
#
# 1 135.0342 -0.6046 45.6128 0.0000 -14.3569 0.0000
# 2 -0.6046 57.2090 -2.6810 0.0000 0.7737 0.0000
# 3 45.6128 -2.6810 111.4540 0.0000 -35.9076 0.0000
# 4 0.0000 0.0000 0.0000 13.3359 0.0000 -1.9404
# 5 -14.3569 0.7737 -35.9076 0.0000 21.5852 0.0000
# 6 0.0000 0.0000 0.0000 -1.9404 0.0000 38.7720
#
#
#
# Elastic Compliance Matrix: (Units=1/GPa)
#
#
# Indices 1 2 3 4 5 6 
#
# 1 0.008595 -0.000075 -0.003613 0.000000 -0.000291 0.000000
# 2 -0.000075 0.017500 0.000503 0.000000 0.000160 0.000000
# 3 -0.003613 0.000503 0.020866 0.000000 0.032290 0.000000
# 4 0.000000 0.000000 0.000000 0.075535 0.000000 0.003780
# 5 -0.000291 0.000160 0.032290 0.000000 0.099845 0.000000
# 6 0.000000 0.000000 0.000000 0.003780 0.000000 0.025981
#
#
# Mechanical properties :
#
#
# Convention : Reuss Voigt Hill
#
# Bulk Modulus (GPa) = 24.63533 43.15019 33.89276
# Shear Modulus (GPa) = 18.64127 32.16329 25.40228
#
# Velocity S-wave (km/s) = 3.00234 3.94368 3.50476
# Velocity P-wave (km/s) = 4.89195 6.44998 5.72422
#
# Compressibility (1/GPa) = 0.04059211
#
# Stress axis : x y z
#
# Youngs Moduli (GPa) = 116.35129 57.14161 47.92458
#
# Poissons Ratio (x) = 0.00426 0.17315
# Poissons Ratio (y) = 0.00867 -0.02410
# Poissons Ratio (z) = 0.42037 -0.02874
#
# Static dielectric constant tensor:
#      x y z
#    x 1.773040 0.000000 -0.032240 
#    y 0.000000 1.770740 0.000000 
#    z -0.032240 0.000000 1.767970 
# 
# From -- ./inp_files/68696.got.cif
#   From: 2010.05.17/outbox.cif.g08.bks.cpg/sg10_35_cif.got.tgz:68696.got - 2010.06.03 11:33:40.
