data_PCOD9143848
_publ_section_title
;
Structure prediction by ZEFSAII (Michael W. Deem and Ramdas Pophale) SiO2 
 PCOD9143848
Probable space group: P 2/M
;
_chemical_formula_sum "Si O2"
_cell_formula_units_Z 28
_cell_length_a 19.707066
_cell_length_b 14.136639
_cell_length_c 9.242459
_cell_angle_alpha 90.000000
_cell_angle_beta 39.851432
_cell_angle_gamma 90.000000
_cell_volume 1649.975755
_symmetry_space_group_name_H-M "P 2/M"
_symmetry_group_IT_number 10
_symmetry_cell_setting 'monoclinic'
loop_
_space_group_symop_operation_xyz
x,y,z
-x,y,-z
-x,-y,-z
x,-y,z
loop_
_atom_site_type_symbol
_atom_site_label
_atom_site_fract_x
_atom_site_fract_y
_atom_site_fract_z
Si Si1 0.612435 0.893709 0.894863
Si Si2 0.019777 0.106699 0.794487
Si Si3 0.068988 0.608097 0.252659
Si Si4 0.912428 0.395217 0.244643
Si Si5 0.388223 0.112448 0.759330
Si Si6 0.780799 0.773102 0.459209
Si Si7 0.810117 0.214072 0.066106
O O1 0.679970 0.815733 0.701299
O O2 0.660091 0.000000 0.799493
O O3 0.500000 0.896126 0.000000
O O4 0.603338 0.875126 0.081094
O O5 0.121396 0.173676 0.621980
O O6 0.039846 0.000000 0.709874
O O7 0.000000 0.101474 0.000000
O O8 0.917346 0.151118 0.885275
O O9 0.109006 0.500000 0.216396
O O10 0.000000 0.644738 0.500000
O O11 0.978077 0.598201 0.281913
O O12 0.155382 0.682719 0.052227
O O13 0.891973 0.500000 0.217358
O O14 0.806796 0.336897 0.435166
O O15 0.000000 0.343702 0.000000
O O16 0.500000 0.138424 0.500000
O O17 0.288406 0.169660 0.858998
O O18 0.371562 0.000000 0.758586
O O19 0.781224 0.786868 0.284800
#
# Coordination Sequence:
#
# PCOD9143848 Si02
#       7
#     4   4   4   4   4   4   4
#     4  10  22  39  58  79 105 140 183 228 270 318
#     4   9  17  28  44  73 109 141 170 206 259 318
#     4  10  21  35  52  78 113 149 182 219 267 322
#     4  10  18  33  54  79 111 145 184 221 259 318
#     4  10  22  39  57  78 105 142 185 225 268 318
#     4  11  19  32  52  81 109 142 178 221 270 318
#     4  11  20  32  54  80 110 142 178 223 268 320
#
# _framework density 16.969947000000001
#
# number of rings (size 3 to 8) (size 9 to 14) (size 15 to 20)
#    0.000    1.857    2.857    2.143    2.000    2.857 
#    0.000    0.000    0.000    4.286    0.000    0.000 
#    0.000    0.000    0.000    0.000    0.000    0.000 
#
# Total GULP energy -155966.551897 kJ/mol
# GULP energy per Si atom -5570.233996 kJ/mol
# Density = 1.693132 g / cm^3
# Si number density = 16.969947 Si / 1000 Ang^3
#
#
#
# Elastic Constant Matrix: (Units=GPa)
#
#
# Indices 1 2 3 4 5 6 
#
# 1 100.4514 35.0497 37.2717 0.0000 -8.3785 0.0000
# 2 35.0497 102.3956 50.6798 0.0000 -9.6323 0.0000
# 3 37.2717 50.6798 91.6336 0.0000 1.1993 0.0000
# 4 0.0000 0.0000 0.0000 44.5394 0.0000 -22.1621
# 5 -8.3785 -9.6323 1.1993 0.0000 25.2568 0.0000
# 6 0.0000 0.0000 0.0000 -22.1621 0.0000 36.4411
#
#
#
# Elastic Compliance Matrix: (Units=1/GPa)
#
#
# Indices 1 2 3 4 5 6 
#
# 1 0.012421 -0.001915 -0.004040 0.000000 0.003582 0.000000
# 2 -0.001915 0.014547 -0.007335 0.000000 0.005261 0.000000
# 3 -0.004040 -0.007335 0.016678 0.000000 -0.004930 0.000000
# 4 0.000000 0.000000 0.000000 0.032194 0.000000 0.019579
# 5 0.003582 0.005261 -0.004930 0.000000 0.043022 0.000000
# 6 0.000000 0.000000 0.000000 0.019579 0.000000 0.039349
#
#
# Mechanical properties :
#
#
# Convention : Reuss Voigt Hill
#
# Bulk Modulus (GPa) = 58.59981 60.05366 59.32674
# Shear Modulus (GPa) = 26.24942 32.67943 29.46443
#
# Velocity S-wave (km/s) = 3.93723 4.39307 4.17138
# Velocity P-wave (km/s) = 7.43475 7.82286 7.63127
#
# Compressibility (1/GPa) = 0.01706490
#
# Stress axis : x y z
#
# Youngs Moduli (GPa) = 80.50859 68.74218 59.96025
#
# Poissons Ratio (x) = 0.13166 0.24223
# Poissons Ratio (y) = 0.15420 0.43983
# Poissons Ratio (z) = 0.32524 0.50425
#
# Static dielectric constant tensor:
#      x y z
#    x 1.437680 0.000000 -0.084080 
#    y 0.000000 1.622240 0.000000 
#    z -0.084080 0.000000 1.493290 
# 
# From -- ./inp_files/32771.got.cif
#   From: 2010.05.17/outbox.cif.g08.bks.cpg/sg10_17_cif.got.tgz:32771.got - 2010.06.03 11:33:40.
