data_PCOD9143577
_publ_section_title
;
Structure prediction by ZEFSAII (Michael W. Deem and Ramdas Pophale) SiO2 
 PCOD9143577
Probable space group: P 2/M
;
_chemical_formula_sum "Si O2"
_cell_formula_units_Z 30
_cell_length_a 24.601663
_cell_length_b 9.485809
_cell_length_c 14.558583
_cell_angle_alpha 90.000000
_cell_angle_beta 28.286671
_cell_angle_gamma 90.000000
_cell_volume 1610.013111
_symmetry_space_group_name_H-M "P 2/M"
_symmetry_group_IT_number 10
_symmetry_cell_setting 'monoclinic'
loop_
_space_group_symop_operation_xyz
x,y,z
-x,y,-z
-x,-y,-z
x,-y,z
loop_
_atom_site_type_symbol
_atom_site_label
_atom_site_fract_x
_atom_site_fract_y
_atom_site_fract_z
Si Si1 0.063258 0.845562 0.604337
Si Si2 0.239075 0.662625 0.061503
Si Si3 0.864066 0.668907 0.975424
Si Si4 0.429385 0.834208 0.888201
Si Si5 0.666895 0.840227 0.763257
Si Si6 0.000000 0.249968 0.500000
Si Si7 0.645603 0.669087 0.615829
Si Si8 0.129702 0.328722 0.827822
O O1 0.197328 0.829554 0.421559
O O2 0.989158 0.728226 0.764998
O O3 0.038133 0.835075 0.533186
O O4 0.026375 0.000000 0.692225
O O5 0.278402 0.500000 0.004355
O O6 0.216899 0.710452 0.989259
O O7 0.114167 0.668415 0.297034
O O8 0.328716 0.762707 0.978846
O O9 0.868020 0.500000 0.967822
O O10 0.834192 0.714141 0.122800
O O11 0.546889 0.746969 0.704772
O O12 0.442020 0.000000 0.848049
O O13 0.392149 0.823161 0.050537
O O14 0.634526 0.726110 0.735842
O O15 0.641658 0.000000 0.766639
O O16 0.633853 0.500000 0.628584
O O17 0.771529 0.711363 0.390735
O O18 0.125520 0.500000 0.832413
O O19 0.000000 0.279070 0.000000
#
# Coordination Sequence:
#
# PCOD9143577 Si02
#       8
#     4   4   4   4   4   2   4   4
#     4  10  19  31  51  80 113 149 190 225 267 331
#     4  10  20  34  55  84 115 147 190 236 277 327
#     4   9  19  35  55  82 115 149 184 234 290 331
#     4  11  23  40  58  79 114 158 189 224 280 340
#     4  10  21  37  54  79 113 153 188 224 277 337
#     4  10  18  32  52  80 114 152 184 226 278 328
#     4  11  23  38  60  87 109 142 190 239 282 333
#     4   9  18  36  61  86 113 144 182 229 287 342
#
# _framework density 18.633389000000001
#
# number of rings (size 3 to 8) (size 9 to 14) (size 15 to 20)
#    0.000    2.000    1.333    2.400    0.000    6.933 
#    0.000    2.000    0.000    7.600    0.000    0.000 
#    0.000    0.000    0.000    0.000    0.000    0.000 
#
# Total GULP energy -167356.015648 kJ/mol
# GULP energy per Si atom -5578.533855 kJ/mol
# Density = 1.859098 g / cm^3
# Si number density = 18.633389 Si / 1000 Ang^3
#
#
#
# Elastic Constant Matrix: (Units=GPa)
#
#
# Indices 1 2 3 4 5 6 
#
# 1 89.1534 44.7902 40.2495 0.0000 -12.5207 0.0000
# 2 44.7902 69.4819 35.8557 0.0000 -15.0341 0.0000
# 3 40.2495 35.8557 66.1069 0.0000 -16.3314 0.0000
# 4 0.0000 0.0000 0.0000 14.1229 0.0000 -6.8868
# 5 -12.5207 -15.0341 -16.3314 0.0000 31.7029 0.0000
# 6 0.0000 0.0000 0.0000 -6.8868 0.0000 4.1148
#
#
#
# Elastic Compliance Matrix: (Units=1/GPa)
#
#
# Indices 1 2 3 4 5 6 
#
# 1 0.018481 -0.008502 -0.006684 0.000000 -0.000176 0.000000
# 2 -0.008502 0.024464 -0.006939 0.000000 0.004669 0.000000
# 3 -0.006684 -0.006939 0.024630 0.000000 0.006757 0.000000
# 4 0.000000 0.000000 0.000000 0.385101 0.000000 0.644534
# 5 -0.000176 0.004669 0.006757 0.000000 0.037168 0.000000
# 6 0.000000 0.000000 0.000000 0.644534 0.000000 1.321769
#
#
# Mechanical properties :
#
#
# Convention : Reuss Voigt Hill
#
# Bulk Modulus (GPa) = 42.87464 51.83700 47.35582
# Shear Modulus (GPa) = 2.68292 16.91124 9.79708
#
# Velocity S-wave (km/s) = 1.20124 3.01587 2.29548
# Velocity P-wave (km/s) = 4.99835 6.32512 5.70046
#
# Compressibility (1/GPa) = 0.02332381
#
# Stress axis : x y z
#
# Youngs Moduli (GPa) = 54.10949 40.87618 40.60123
#
# Poissons Ratio (x) = 0.34754 0.27139
# Poissons Ratio (y) = 0.46005 0.28173
# Poissons Ratio (z) = 0.36168 0.28364
#
# Static dielectric constant tensor:
#      x y z
#    x 1.655630 0.000000 -0.003560 
#    y 0.000000 1.632690 0.000000 
#    z -0.003560 0.000000 1.639310 
# 
# From -- ./inp_files/71306.got.cif
#   From: 2010.05.17/outbox.cif.g08.bks.cpg/sg10_36_cif.got.tgz:71306.got - 2010.06.03 11:33:40.
