data_PCOD9143565
_publ_section_title
;
Structure prediction by ZEFSAII (Michael W. Deem and Ramdas Pophale) SiO2 
 PCOD9143565
Probable space group: P 2/M
;
_chemical_formula_sum "Si O2"
_cell_formula_units_Z 28
_cell_length_a 28.836933
_cell_length_b 8.684853
_cell_length_c 9.876316
_cell_angle_alpha 90.000000
_cell_angle_beta 140.564163
_cell_angle_gamma 90.000000
_cell_volume 1571.181594
_symmetry_space_group_name_H-M "P 2/M"
_symmetry_group_IT_number 10
_symmetry_cell_setting 'monoclinic'
loop_
_space_group_symop_operation_xyz
x,y,z
-x,y,-z
-x,-y,-z
x,-y,z
loop_
_atom_site_type_symbol
_atom_site_label
_atom_site_fract_x
_atom_site_fract_y
_atom_site_fract_z
Si Si1 0.582328 0.185533 0.710890
Si Si2 0.255795 0.315428 0.420461
Si Si3 0.097657 0.183744 0.116945
Si Si4 0.187422 0.315164 0.775504
Si Si5 0.705117 0.183861 0.771956
Si Si6 0.049489 0.314803 0.299402
Si Si7 0.312215 0.684481 0.838425
O O1 0.500000 0.239671 0.500000
O O2 0.637526 0.233132 0.715092
O O3 0.581990 0.000000 0.712712
O O4 0.618257 0.243882 0.930605
O O5 0.248398 0.500000 0.406969
O O6 0.175490 0.241459 0.241445
O O7 0.296050 0.262401 0.376110
O O8 0.296823 0.266001 0.650548
O O9 0.082873 0.255788 0.232283
O O10 0.095593 0.000000 0.121998
O O11 0.030776 0.243046 0.874050
O O12 0.190052 0.500000 0.801336
O O13 0.106102 0.272674 0.545491
O O14 0.241734 0.277438 0.772566
O O15 0.221808 0.233666 0.982837
O O16 0.703510 0.000000 0.754068
O O17 0.044596 0.500000 0.282328
O O18 0.319469 0.500000 0.856300
#
# Coordination Sequence:
#
# PCOD9143565 Si02
#       7
#     4   4   4   4   4   4   4
#     4   9  19  37  59  83 111 141 172 209 260 320
#     4  11  21  37  55  76 108 145 180 220 269 324
#     4  11  21  31  48  77 109 140 179 228 274 314
#     4   9  17  33  54  76 102 138 182 223 264 315
#     4  10  21  35  54  81 109 139 175 219 267 317
#     4  10  18  32  52  75 105 142 184 226 270 319
#     4   9  18  33  55  81 104 135 181 222 257 307
#
# _framework density 17.820983999999999
#
# number of rings (size 3 to 8) (size 9 to 14) (size 15 to 20)
#    0.000    2.143    1.429    3.429    0.000    3.143 
#    0.000    1.429    0.000    8.571    0.000    0.000 
#    0.000    0.000    0.000    0.000    0.000    0.000 
#
# Total GULP energy -156265.111347 kJ/mol
# GULP energy per Si atom -5580.896834 kJ/mol
# Density = 1.778042 g / cm^3
# Si number density = 17.820984 Si / 1000 Ang^3
#
#
#
# Elastic Constant Matrix: (Units=GPa)
#
#
# Indices 1 2 3 4 5 6 
#
# 1 65.7844 22.4211 60.3670 0.0000 -6.3065 0.0000
# 2 22.4211 42.6345 34.2754 0.0000 -2.0959 0.0000
# 3 60.3670 34.2754 145.5080 0.0000 7.1623 0.0000
# 4 0.0000 0.0000 0.0000 53.4442 0.0000 -15.9548
# 5 -6.3065 -2.0959 7.1623 0.0000 29.4969 0.0000
# 6 0.0000 0.0000 0.0000 -15.9548 0.0000 32.1502
#
#
#
# Elastic Compliance Matrix: (Units=1/GPa)
#
#
# Indices 1 2 3 4 5 6 
#
# 1 0.027511 -0.005650 -0.010478 0.000000 0.008024 0.000000
# 2 -0.005650 0.030512 -0.004950 0.000000 0.002162 0.000000
# 3 -0.010478 -0.004950 0.012664 0.000000 -0.005667 0.000000
# 4 0.000000 0.000000 0.000000 0.021965 0.000000 0.010900
# 5 0.008024 0.002162 -0.005667 0.000000 0.037147 0.000000
# 6 0.000000 0.000000 0.000000 0.010900 0.000000 0.036513
#
#
# Mechanical properties :
#
#
# Convention : Reuss Voigt Hill
#
# Bulk Modulus (GPa) = 35.04769 54.22822 44.63795
# Shear Modulus (GPa) = 22.93809 32.14248 27.54028
#
# Velocity S-wave (km/s) = 3.59156 4.25153 3.93540
# Velocity P-wave (km/s) = 6.07522 7.38892 6.76404
#
# Compressibility (1/GPa) = 0.02853255
#
# Stress axis : x y z
#
# Youngs Moduli (GPa) = 36.34930 32.77399 78.96290
#
# Poissons Ratio (x) = 0.18517 0.82734
# Poissons Ratio (y) = 0.20537 0.39084
# Poissons Ratio (z) = 0.38085 0.16222
#
# Static dielectric constant tensor:
#      x y z
#    x 1.597940 0.000000 0.002620 
#    y 0.000000 1.596340 0.000000 
#    z 0.002620 0.000000 1.608890 
# 
# From -- ./inp_files/37262.got.cif
#   From: 2010.05.17/outbox.cif.g08.bks.cpg/sg10_19_cif.got.tgz:37262.got - 2010.06.03 11:33:40.
