data_PCOD9143765
_publ_section_title
;
Structure prediction by ZEFSAII (Michael W. Deem and Ramdas Pophale) SiO2 
 PCOD9143765
Probable space group: P 2/M
;
_chemical_formula_sum "Si O2"
_cell_formula_units_Z 30
_cell_length_a 24.453261
_cell_length_b 12.984946
_cell_length_c 7.696860
_cell_angle_alpha 90.000000
_cell_angle_beta 31.819127
_cell_angle_gamma 90.000000
_cell_volume 1288.541604
_symmetry_space_group_name_H-M "P 2/M"
_symmetry_group_IT_number 10
_symmetry_cell_setting 'monoclinic'
loop_
_space_group_symop_operation_xyz
x,y,z
-x,y,-z
-x,-y,-z
x,-y,z
loop_
_atom_site_type_symbol
_atom_site_label
_atom_site_fract_x
_atom_site_fract_y
_atom_site_fract_z
Si Si1 0.463606 0.332464 0.794697
Si Si2 0.836417 0.830092 0.441645
Si Si3 0.066749 0.882640 0.167871
Si Si4 0.294729 0.847772 0.692610
Si Si5 0.676569 0.610790 0.336505
Si Si6 0.604283 0.113689 0.925677
Si Si7 0.227671 0.000000 0.140768
Si Si8 0.755401 0.611382 0.725070
O O1 0.500000 0.351827 0.500000
O O2 0.551626 0.382591 0.673812
O O3 0.461507 0.210287 0.833640
O O4 0.346266 0.372310 0.122374
O O5 0.722352 0.867476 0.677597
O O6 0.846821 0.908693 0.571556
O O7 0.825605 0.711345 0.519540
O O8 0.917683 0.838459 0.065502
O O9 0.000000 0.829551 0.500000
O O10 0.031045 0.000000 0.247890
O O11 0.182741 0.887523 0.932752
O O12 0.288886 0.723799 0.695677
O O13 0.380313 0.881894 0.323161
O O14 0.302790 0.907274 0.852660
O O15 0.709727 0.500000 0.323924
O O16 0.713772 0.609754 0.035150
O O17 0.572587 0.000000 0.068224
O O18 0.802673 0.500000 0.559342
#
# Coordination Sequence:
#
# PCOD9143765 Si02
#       8
#     4   4   4   4   4   4   2   4
#     4   9  19  33  51  77 105 142 188 231 263 309
#     4  10  18  32  57  82 108 143 182 217 257 318
#     4  10  20  38  58  81 115 145 168 209 270 331
#     4  11  21  36  56  81 109 141 174 220 276 321
#     4  10  20  35  54  76 108 143 181 227 274 312
#     4  10  19  35  50  72 109 148 182 214 271 329
#     4  12  18  32  57  86 111 135 174 228 262 319
#     4   9  17  31  54  80 107 144 188 225 261 308
#
# _framework density 23.282135
#
# number of rings (size 3 to 8) (size 9 to 14) (size 15 to 20)
#    0.000    2.000    4.000    1.200    0.000    2.400 
#    1.200    9.333    0.000    1.600    0.000    1.867 
#    0.000    0.000    0.000    0.000    0.000    0.000 
#
# Total GULP energy -167057.627758 kJ/mol
# GULP energy per Si atom -5568.587592 kJ/mol
# Density = 2.322914 g / cm^3
# Si number density = 23.282135 Si / 1000 Ang^3
#
#
#
# Elastic Constant Matrix: (Units=GPa)
#
#
# Indices 1 2 3 4 5 6 
#
# 1 33.9517 16.7429 15.6265 0.0000 1.6607 0.0000
# 2 16.7429 224.8968 23.6906 0.0000 6.0562 0.0000
# 3 15.6265 23.6906 76.0605 0.0000 13.4340 0.0000
# 4 0.0000 0.0000 0.0000 30.4753 0.0000 6.3973
# 5 1.6607 6.0562 13.4340 0.0000 23.0623 0.0000
# 6 0.0000 0.0000 0.0000 6.3973 0.0000 19.9056
#
#
#
# Elastic Compliance Matrix: (Units=1/GPa)
#
#
# Indices 1 2 3 4 5 6 
#
# 1 0.033308 -0.001835 -0.006613 0.000000 0.001936 0.000000
# 2 -0.001835 0.004702 -0.000995 0.000000 -0.000523 0.000000
# 3 -0.006613 -0.000995 0.016370 0.000000 -0.008798 0.000000
# 4 0.000000 0.000000 0.000000 0.035187 0.000000 -0.011309
# 5 0.001936 -0.000523 -0.008798 0.000000 0.048484 0.000000
# 6 0.000000 0.000000 0.000000 -0.011309 0.000000 0.053872
#
#
# Mechanical properties :
#
#
# Convention : Reuss Voigt Hill
#
# Bulk Modulus (GPa) = 28.17496 49.66990 38.92243
# Shear Modulus (GPa) = 22.45773 33.27857 27.86815
#
# Velocity S-wave (km/s) = 3.10916 3.78479 3.46349
# Velocity P-wave (km/s) = 5.00169 6.36237 5.72262
#
# Compressibility (1/GPa) = 0.03549251
#
# Stress axis : x y z
#
# Youngs Moduli (GPa) = 30.02311 212.67476 61.08725
#
# Poissons Ratio (x) = 0.39029 0.40399
# Poissons Ratio (y) = 0.05510 0.06079
# Poissons Ratio (z) = 0.19855 0.21164
#
# Static dielectric constant tensor:
#      x y z
#    x 2.066340 0.000000 0.026400 
#    y 0.000000 1.816360 0.000000 
#    z 0.026400 0.000000 1.873990 
# 
# From -- ./inp_files/32414.got.cif
#   From: 2010.05.17/outbox.cif.g08.bks.cpg/sg10_17_cif.got.tgz:32414.got - 2010.06.03 11:33:40.
