data_PCOD9143289
_publ_section_title
;
Structure prediction by ZEFSAII (Michael W. Deem and Ramdas Pophale) SiO2 
 PCOD9143289
Probable space group: P 2/M
;
_chemical_formula_sum "Si O2"
_cell_formula_units_Z 28
_cell_length_a 32.320247
_cell_length_b 8.979062
_cell_length_c 9.884266
_cell_angle_alpha 90.000000
_cell_angle_beta 34.566046
_cell_angle_gamma 90.000000
_cell_volume 1627.442304
_symmetry_space_group_name_H-M "P 2/M"
_symmetry_group_IT_number 10
_symmetry_cell_setting 'monoclinic'
loop_
_space_group_symop_operation_xyz
x,y,z
-x,y,-z
-x,-y,-z
x,-y,z
loop_
_atom_site_type_symbol
_atom_site_label
_atom_site_fract_x
_atom_site_fract_y
_atom_site_fract_z
Si Si1 0.552250 0.177367 0.560519
Si Si2 0.083516 0.178760 0.273157
Si Si3 0.604219 0.821842 0.111624
Si Si4 0.759945 0.321450 0.646091
Si Si5 0.802187 0.177997 0.806104
Si Si6 0.199082 0.678635 0.764552
Si Si7 0.685914 0.677741 0.320486
O O1 0.467088 0.219170 0.784083
O O2 0.582905 0.205282 0.325979
O O3 0.604448 0.261620 0.523454
O O4 0.556856 0.000000 0.570778
O O5 0.126173 0.212025 0.297913
O O6 0.000000 0.230043 0.500000
O O7 0.084062 0.000000 0.255388
O O8 0.131569 0.248855 0.024497
O O9 0.616074 0.000000 0.066585
O O10 0.676650 0.734547 0.879170
O O11 0.761932 0.500000 0.651778
O O12 0.801617 0.248289 0.659741
O O13 0.792508 0.276438 0.413419
O O14 0.792985 0.000000 0.822781
O O15 0.734836 0.246703 0.071668
O O16 0.191165 0.500000 0.791328
O O17 0.272254 0.715717 0.653032
O O18 0.687008 0.500000 0.300388
#
# Coordination Sequence:
#
# PCOD9143289 Si02
#       7
#     4   4   4   4   4   4   4
#     4   9  17  30  48  72 101 132 171 218 261 303
#     4   9  19  37  60  84 105 129 167 209 248 298
#     4   9  18  31  48  71 102 136 170 214 262 303
#     4  11  21  34  51  75 106 138 174 212 249 301
#     4  10  19  32  53  78 104 133 166 208 254 300
#     4   9  21  37  52  75 108 140 169 205 253 304
#     4  10  18  31  51  74  99 132 175 217 253 299
#
# _framework density 17.204913000000001
#
# number of rings (size 3 to 8) (size 9 to 14) (size 15 to 20)
#    0.000    2.429    1.429    2.143    0.000    3.143 
#    0.000    2.857    0.000    8.571    0.000    0.000 
#    0.000    0.000    0.000    0.000    0.000    0.000 
#
# Total GULP energy -156180.703571 kJ/mol
# GULP energy per Si atom -5577.882270 kJ/mol
# Density = 1.716575 g / cm^3
# Si number density = 17.204913 Si / 1000 Ang^3
#
#
#
# Elastic Constant Matrix: (Units=GPa)
#
#
# Indices 1 2 3 4 5 6 
#
# 1 125.0540 48.0274 74.3116 0.0000 0.4974 0.0000
# 2 48.0274 38.1873 38.2368 0.0000 1.1488 0.0000
# 3 74.3116 38.2368 86.2437 0.0000 0.4634 0.0000
# 4 0.0000 0.0000 0.0000 19.6244 0.0000 3.5090
# 5 0.4974 1.1488 0.4634 0.0000 33.3645 0.0000
# 6 0.0000 0.0000 0.0000 3.5090 0.0000 45.9074
#
#
#
# Elastic Compliance Matrix: (Units=1/GPa)
#
#
# Indices 1 2 3 4 5 6 
#
# 1 0.019879 -0.014133 -0.010865 0.000000 0.000341 0.000000
# 2 -0.014133 0.057200 -0.013174 0.000000 -0.001576 0.000000
# 3 -0.010865 -0.013174 0.026796 0.000000 0.000243 0.000000
# 4 0.000000 0.000000 0.000000 0.051663 0.000000 -0.003949
# 5 0.000341 -0.001576 0.000243 0.000000 0.030018 0.000000
# 6 0.000000 0.000000 0.000000 -0.003949 0.000000 0.022085
#
#
# Mechanical properties :
#
#
# Convention : Reuss Voigt Hill
#
# Bulk Modulus (GPa) = 36.32142 63.40406 49.86274
# Shear Modulus (GPa) = 17.05542 25.70653 21.38098
#
# Velocity S-wave (km/s) = 3.15193 3.86960 3.52905
# Velocity P-wave (km/s) = 5.86541 7.54304 6.75650
#
# Compressibility (1/GPa) = 0.02753197
#
# Stress axis : x y z
#
# Youngs Moduli (GPa) = 50.30357 17.48244 37.31917
#
# Poissons Ratio (x) = 0.24709 0.40546
# Poissons Ratio (y) = 0.71096 0.49163
# Poissons Ratio (z) = 0.54653 0.23031
#
# Static dielectric constant tensor:
#      x y z
#    x 1.605240 0.000000 -0.006070 
#    y 0.000000 1.572100 0.000000 
#    z -0.006070 0.000000 1.551700 
# 
# From -- ./inp_files/37955.got.cif
#   From: 2010.05.17/outbox.cif.g08.bks.cpg/sg10_19_cif.got.tgz:37955.got - 2010.06.03 11:33:40.
