data_PCOD9143562
_publ_section_title
;
Structure prediction by ZEFSAII (Michael W. Deem and Ramdas Pophale) SiO2 
 PCOD9143562
Probable space group: P 2/M
;
_chemical_formula_sum "Si O2"
_cell_formula_units_Z 20
_cell_length_a 8.135280
_cell_length_b 7.722141
_cell_length_c 13.747884
_cell_angle_alpha 90.000000
_cell_angle_beta 80.247322
_cell_angle_gamma 90.000000
_cell_volume 851.184948
_symmetry_space_group_name_H-M "P 2/M"
_symmetry_group_IT_number 10
_symmetry_cell_setting 'monoclinic'
loop_
_space_group_symop_operation_xyz
x,y,z
-x,y,-z
-x,-y,-z
x,-y,z
loop_
_atom_site_type_symbol
_atom_site_label
_atom_site_fract_x
_atom_site_fract_y
_atom_site_fract_z
Si Si1 0.618637 0.500000 0.345628
Si Si2 0.140185 0.195920 0.340196
Si Si3 0.732514 0.792111 0.034196
Si Si4 0.239483 0.500000 0.466170
Si Si5 0.535658 0.305990 0.793602
Si Si6 0.025202 0.788849 0.151496
O O1 0.432746 0.500000 0.411945
O O2 0.749995 0.500000 0.418703
O O3 0.608080 0.334484 0.274994
O O4 0.159232 0.330379 0.425552
O O5 0.320684 0.190948 0.266877
O O6 0.024577 0.263746 0.263604
O O7 0.095462 0.000000 0.373452
O O8 0.556565 0.742538 0.098271
O O9 0.872269 0.735420 0.098945
O O10 0.733051 0.000000 0.030281
O O11 0.807311 0.732683 0.923513
O O12 0.606361 0.500000 0.795672
O O13 0.024992 0.000000 0.153131
#
# Coordination Sequence:
#
# PCOD9143562 Si02
#       6
#     2   4   4   2   4   4
#     4   7  16  32  50  61 108 124 151 211 248 277
#     4  10  18  32  52  75 100 128 163 201 247 291
#     4   9  16  32  51  69  96 133 168 198 240 287
#     4   9  16  34  50  73  96 132 155 207 248 289
#     4   9  18  32  47  71 100 129 156 207 243 281
#     4   8  17  31  49  71  99 130 165 205 237 284
#
# _framework density 23.496656999999999
#
# number of rings (size 3 to 8) (size 9 to 14) (size 15 to 20)
#    0.600    2.600    1.000    1.800    0.000    0.800 
#    3.600   14.000    0.000    2.400    0.000    4.200 
#    0.000    0.000    0.000    0.000    0.000    0.000 
#
# Total GULP energy -111545.025044 kJ/mol
# GULP energy per Si atom -5577.251252 kJ/mol
# Density = 2.344318 g / cm^3
# Si number density = 23.496657 Si / 1000 Ang^3
#
#
#
# Elastic Constant Matrix: (Units=GPa)
#
#
# Indices 1 2 3 4 5 6 
#
# 1 68.0720 3.6400 17.7755 0.0000 -11.5469 0.0000
# 2 3.6400 80.4975 34.9480 0.0000 9.6906 0.0000
# 3 17.7755 34.9480 137.8043 0.0000 22.0792 0.0000
# 4 0.0000 0.0000 0.0000 2.5919 0.0000 20.0285
# 5 -11.5469 9.6906 22.0792 0.0000 45.8723 0.0000
# 6 0.0000 0.0000 0.0000 20.0285 0.0000 -34.2764
#
#
#
# Elastic Compliance Matrix: (Units=1/GPa)
#
#
# Indices 1 2 3 4 5 6 
#
# 1 0.016426 -0.000121 -0.002985 0.000000 0.005597 0.000000
# 2 -0.000121 0.014038 -0.003321 0.000000 -0.001398 0.000000
# 3 -0.002985 -0.003321 0.009201 0.000000 -0.004479 0.000000
# 4 0.000000 0.000000 0.000000 0.069954 0.000000 0.040876
# 5 0.005597 -0.001398 -0.004479 0.000000 0.025659 0.000000
# 6 0.000000 0.000000 0.000000 0.040876 0.000000 -0.005290
#
#
# Mechanical properties :
#
#
# Convention : Reuss Voigt Hill
#
# Bulk Modulus (GPa) = 37.29565 44.34454 40.82010
# Shear Modulus (GPa) = 32.94271 18.17159 25.55715
#
# Velocity S-wave (km/s) = 3.74841 2.78397 3.30160
# Velocity P-wave (km/s) = 5.88569 5.40811 5.65195
#
# Compressibility (1/GPa) = 0.02681278
#
# Stress axis : x y z
#
# Youngs Moduli (GPa) = 60.88059 71.23459 108.67893
#
# Poissons Ratio (x) = 0.00859 0.32439
# Poissons Ratio (y) = 0.00734 0.36089
# Poissons Ratio (z) = 0.18172 0.23655
#
# Static dielectric constant tensor:
#      x y z
#    x 1.947140 0.000000 0.040550 
#    y 0.000000 1.832150 0.000000 
#    z 0.040550 0.000000 1.928920 
# 
# From -- ./inp_files/35615.got.cif
#   From: 2010.05.17/outbox.cif.g08.bks.cpg/sg10_18_cif.got.tgz:35615.got - 2010.06.03 11:33:40.
