data_PCOD9143332
_publ_section_title
;
Structure prediction by ZEFSAII (Michael W. Deem and Ramdas Pophale) SiO2 
 PCOD9143332
Probable space group: P 2/M
;
_chemical_formula_sum "Si O2"
_cell_formula_units_Z 32
_cell_length_a 18.870149
_cell_length_b 13.940568
_cell_length_c 21.903689
_cell_angle_alpha 90.000000
_cell_angle_beta 160.067376
_cell_angle_gamma 90.000000
_cell_volume 1964.350742
_symmetry_space_group_name_H-M "P 2/M"
_symmetry_group_IT_number 10
_symmetry_cell_setting 'monoclinic'
loop_
_space_group_symop_operation_xyz
x,y,z
-x,y,-z
-x,-y,-z
x,-y,z
loop_
_atom_site_type_symbol
_atom_site_label
_atom_site_fract_x
_atom_site_fract_y
_atom_site_fract_z
Si Si1 0.772462 0.888726 0.785376
Si Si2 0.445148 0.793380 0.606784
Si Si3 0.108037 0.612585 0.756492
Si Si4 0.772462 0.611273 0.285376
Si Si5 0.386785 0.111730 0.135270
Si Si6 0.386787 0.611731 0.635272
Si Si7 0.445146 0.293380 0.106782
Si Si8 0.108040 0.112585 0.256495
O O1 0.614354 0.821387 0.693000
O O2 0.798311 0.868075 0.734778
O O3 0.702654 0.000000 0.735591
O O4 0.000000 0.882164 0.000000
O O5 0.497294 0.855997 0.709125
O O6 0.451993 0.683868 0.634447
O O7 0.223964 0.822889 0.399730
O O8 0.146444 0.500000 0.801158
O O9 0.201692 0.631922 0.765223
O O10 0.860320 0.626047 0.554070
O O11 0.223963 0.677111 0.899728
O O12 0.702654 0.500000 0.235595
O O13 0.614354 0.678613 0.193000
O O14 0.000000 0.617838 0.500000
O O15 0.451991 0.183868 0.134446
O O16 0.423378 0.000000 0.152208
O O17 0.139678 0.126045 0.945926
O O18 0.423376 0.500000 0.652207
O O19 0.502711 0.644003 0.790879
O O20 0.146450 0.000000 0.301162
#
# Coordination Sequence:
#
# PCOD9143332 Si02
#       8
#     4   4   4   4   4   4   4   4
#     4  10  18  31  52  77 103 127 159 210 258 293
#     4  11  20  32  53  77 100 135 166 199 252 303
#     4  10  19  32  53  78 102 126 162 209 254 297
#     4  10  18  31  52  77 103 127 159 210 258 293
#     4  10  21  35  50  74 105 133 165 206 244 292
#     4  10  21  35  50  74 105 133 165 206 244 292
#     4  11  20  32  53  77 100 135 166 199 252 303
#     4  10  19  32  53  78 102 126 162 209 254 297
#
# _framework density 16.290371
#
# number of rings (size 3 to 8) (size 9 to 14) (size 15 to 20)
#    0.000    1.750    2.500    3.750    0.000    2.000 
#    0.000    0.000    0.000    3.750    0.000    0.000 
#    0.000    0.000    0.000    0.000    0.000    0.000 
#
# Total GULP energy -178656.476067 kJ/mol
# GULP energy per Si atom -5583.014877 kJ/mol
# Density = 1.625329 g / cm^3
# Si number density = 16.290371 Si / 1000 Ang^3
#
#
#
# Elastic Constant Matrix: (Units=GPa)
#
#
# Indices 1 2 3 4 5 6 
#
# 1 74.8866 63.2128 28.3613 0.0000 -1.1596 0.0000
# 2 63.2128 116.6207 37.8087 0.0000 -4.2582 0.0000
# 3 28.3613 37.8087 60.2122 0.0000 -23.0544 0.0000
# 4 0.0000 0.0000 0.0000 18.7113 0.0000 -2.1836
# 5 -1.1596 -4.2582 -23.0544 0.0000 31.7771 0.0000
# 6 0.0000 0.0000 0.0000 -2.1836 0.0000 18.2490
#
#
#
# Elastic Compliance Matrix: (Units=1/GPa)
#
#
# Indices 1 2 3 4 5 6 
#
# 1 0.026097 -0.012139 -0.006824 0.000000 -0.005625 0.000000
# 2 -0.012139 0.016967 -0.005865 0.000000 -0.002424 0.000000
# 3 -0.006824 -0.005865 0.031997 0.000000 0.022179 0.000000
# 4 0.000000 0.000000 0.000000 0.054201 0.000000 0.006485
# 5 -0.005625 -0.002424 0.022179 0.000000 0.047030 0.000000
# 6 0.000000 0.000000 0.000000 0.006485 0.000000 0.055574
#
#
# Mechanical properties :
#
#
# Convention : Reuss Voigt Hill
#
# Bulk Modulus (GPa) = 39.36011 56.72056 48.04033
# Shear Modulus (GPa) = 17.24201 21.90324 19.57263
#
# Velocity S-wave (km/s) = 3.25686 3.67079 3.47000
# Velocity P-wave (km/s) = 6.19329 7.27051 6.75341
#
# Compressibility (1/GPa) = 0.02540643
#
# Stress axis : x y z
#
# Youngs Moduli (GPa) = 38.31815 58.93686 31.25315
#
# Poissons Ratio (x) = 0.71542 0.21327
# Poissons Ratio (y) = 0.46513 0.18329
# Poissons Ratio (z) = 0.26148 0.34565
#
# Static dielectric constant tensor:
#      x y z
#    x 1.527680 0.000000 -0.000220 
#    y 0.000000 1.527710 0.000000 
#    z -0.000220 0.000000 1.570060 
# 
# From -- ./inp_files/79686.got.cif
#   From: 2010.05.17/outbox.cif.g08.bks.cpg/sg10_40_cif.got.tgz:79686.got - 2010.06.03 11:33:40.
