data_PCOD9143227
_publ_section_title
;
Structure prediction by ZEFSAII (Michael W. Deem and Ramdas Pophale) SiO2 
 PCOD9143227
Probable space group: P 2/M
;
_chemical_formula_sum "Si O2"
_cell_formula_units_Z 32
_cell_length_a 11.207465
_cell_length_b 7.554388
_cell_length_c 21.788396
_cell_angle_alpha 90.000000
_cell_angle_beta 52.898310
_cell_angle_gamma 90.000000
_cell_volume 1471.291222
_symmetry_space_group_name_H-M "P 2/M"
_symmetry_group_IT_number 10
_symmetry_cell_setting 'monoclinic'
loop_
_space_group_symop_operation_xyz
x,y,z
-x,y,-z
-x,-y,-z
x,-y,z
loop_
_atom_site_type_symbol
_atom_site_label
_atom_site_fract_x
_atom_site_fract_y
_atom_site_fract_z
Si Si1 0.195480 0.702614 0.391114
Si Si2 0.037927 0.716882 0.086441
Si Si3 0.653852 0.714147 0.530020
Si Si4 0.012713 0.298625 0.763966
Si Si5 0.491832 0.207423 0.248704
Si Si6 0.236572 0.712856 0.913875
Si Si7 0.947446 0.717947 0.379258
Si Si8 0.651268 0.206993 0.323832
O O1 0.159813 0.500000 0.418140
O O2 0.269271 0.777789 0.429848
O O3 0.329522 0.705827 0.299926
O O4 0.048440 0.778242 0.405079
O O5 0.034516 0.500000 0.089261
O O6 0.042473 0.781313 0.154830
O O7 0.884686 0.772392 0.099718
O O8 0.172399 0.770509 0.999618
O O9 0.647549 0.500000 0.531623
O O10 0.774575 0.769790 0.441949
O O11 0.482530 0.773449 0.585545
O O12 0.955539 0.500000 0.780021
O O13 0.984816 0.217684 0.705930
O O14 0.193676 0.301981 0.711517
O O15 0.599228 0.232097 0.157602
O O16 0.581965 0.275001 0.280841
O O17 0.466374 0.000000 0.266024
O O18 0.232612 0.500000 0.914981
O O19 0.951252 0.500000 0.377564
O O20 0.686418 0.000000 0.306038
#
# Coordination Sequence:
#
# PCOD9143227 Si02
#       8
#     4   4   4   4   4   4   4   4
#     4   9  17  31  51  71  92 120 154 195 238 274
#     4   8  15  26  45  71  96 121 150 186 226 275
#     4   9  17  31  51  71  92 119 153 196 239 274
#     4  10  18  31  50  69  95 126 154 187 230 278
#     4  10  19  30  46  71  98 122 153 195 233 269
#     4   9  15  27  47  71  95 120 153 186 227 278
#     4   9  18  31  50  74  92 115 158 201 231 270
#     4  10  20  32  45  67  98 127 156 189 228 276
#
# _framework density 21.749604000000001
#
# number of rings (size 3 to 8) (size 9 to 14) (size 15 to 20)
#    0.000    2.750    1.250    1.875    0.000    3.000 
#    0.000    6.250    0.000    3.750    0.000    5.250 
#    0.000    0.000    0.000    0.000    0.000    0.000 
#
# Total GULP energy -178546.755707 kJ/mol
# GULP energy per Si atom -5579.586116 kJ/mol
# Density = 2.170010 g / cm^3
# Si number density = 21.749604 Si / 1000 Ang^3
#
#
#
# Elastic Constant Matrix: (Units=GPa)
#
#
# Indices 1 2 3 4 5 6 
#
# 1 35.6341 -4.1809 0.3777 0.0000 -1.1914 0.0000
# 2 -4.1809 58.6761 -3.1450 0.0000 1.4238 0.0000
# 3 0.3777 -3.1450 130.1410 0.0000 -0.6797 0.0000
# 4 0.0000 0.0000 0.0000 466.7669 0.0000 -212.8526
# 5 -1.1914 1.4238 -0.6797 0.0000 33.4893 0.0000
# 6 0.0000 0.0000 0.0000 -212.8526 0.0000 95.2525
#
#
#
# Elastic Compliance Matrix: (Units=1/GPa)
#
#
# Indices 1 2 3 4 5 6 
#
# 1 0.028328 0.001995 -0.000029 0.000000 0.000922 0.000000
# 2 0.001995 0.017222 0.000407 0.000000 -0.000653 0.000000
# 3 -0.000029 0.000407 0.007695 0.000000 0.000138 0.000000
# 4 0.000000 0.000000 0.000000 -0.112655 0.000000 -0.251740
# 5 0.000922 -0.000653 0.000138 0.000000 0.029924 0.000000
# 6 0.000000 0.000000 0.000000 -0.251740 0.000000 -0.552044
#
#
# Mechanical properties :
#
#
# Convention : Reuss Voigt Hill
#
# Bulk Modulus (GPa) = 17.24435 23.39497 20.31966
# Shear Modulus (GPa) = -8.81920 134.52835 62.85458
#
# Velocity S-wave (km/s) = -2.01586 7.87322 5.38163
# Velocity P-wave (km/s) = 1.58983 9.66591 6.92667
#
# Compressibility (1/GPa) = 0.05799002
#
# Stress axis : x y z
#
# Youngs Moduli (GPa) = 35.30050 58.06361 129.96100
#
# Poissons Ratio (x) = -0.11581 0.00379
# Poissons Ratio (y) = -0.07041 -0.05289
# Poissons Ratio (z) = 0.00103 -0.02363
#
# Static dielectric constant tensor:
#      x y z
#    x 1.779470 0.000000 0.029040 
#    y 0.000000 1.823220 0.000000 
#    z 0.029040 0.000000 1.832940 
# 
# From -- ./inp_files/54808.got.cif
#   From: 2010.05.17/outbox.cif.g08.bks.cpg/sg10_28_cif.got.tgz:54808.got - 2010.06.03 11:33:40.
