data_PCOD9143769
_publ_section_title
;
Structure prediction by ZEFSAII (Michael W. Deem and Ramdas Pophale) SiO2 
 PCOD9143769
Probable space group: P 2/M
;
_chemical_formula_sum "Si O2"
_cell_formula_units_Z 28
_cell_length_a 11.835219
_cell_length_b 7.606927
_cell_length_c 15.160104
_cell_angle_alpha 90.000000
_cell_angle_beta 68.618628
_cell_angle_gamma 90.000000
_cell_volume 1270.921578
_symmetry_space_group_name_H-M "P 2/M"
_symmetry_group_IT_number 10
_symmetry_cell_setting 'monoclinic'
loop_
_space_group_symop_operation_xyz
x,y,z
-x,y,-z
-x,-y,-z
x,-y,z
loop_
_atom_site_type_symbol
_atom_site_label
_atom_site_fract_x
_atom_site_fract_y
_atom_site_fract_z
Si Si1 0.846123 0.702615 0.797472
Si Si2 0.378361 0.785864 0.641632
Si Si3 0.658092 0.214906 0.156546
Si Si4 0.341447 0.212140 0.457891
Si Si5 0.891481 0.709025 0.591534
Si Si6 0.566170 0.212785 0.889626
Si Si7 0.115386 0.793666 0.017043
O O1 0.882973 0.500000 0.789431
O O2 0.887646 0.781643 0.692215
O O3 0.700028 0.713806 0.841905
O O4 0.891898 0.781696 0.875948
O O5 0.317794 0.729412 0.750128
O O6 0.520550 0.733399 0.603490
O O7 0.320964 0.728573 0.565181
O O8 0.376966 0.000000 0.640539
O O9 0.524936 0.267859 0.161757
O O10 0.655706 0.000000 0.155588
O O11 0.759126 0.277605 0.058825
O O12 0.237138 0.268511 0.420877
O O13 0.341502 0.000000 0.456686
O O14 0.911088 0.500000 0.594547
O O15 0.000000 0.781055 0.500000
O O16 0.578245 0.000000 0.886005
O O17 0.500000 0.260128 0.000000
O O18 0.118891 0.000000 0.993857
O O19 0.000000 0.715716 0.000000
#
# Coordination Sequence:
#
# PCOD9143769 Si02
#       7
#     4   4   4   4   4   4   4
#     4  11  23  38  57  80 109 143 181 230 277 320
#     4   8  15  28  50  80 112 138 165 214 278 326
#     4   9  16  29  50  78 110 143 174 210 265 326
#     4   9  17  32  55  82 106 133 175 227 273 317
#     4  10  23  41  56  73 105 149 187 222 272 326
#     4  10  18  32  57  84 111 143 179 218 267 328
#     4  10  21  37  56  78 107 144 184 222 263 321
#
# _framework density 22.031255999999999
#
# number of rings (size 3 to 8) (size 9 to 14) (size 15 to 20)
#    0.000    2.429    1.429    2.143    0.000    4.286 
#    0.000    2.857    0.000    1.714    0.000    0.000 
#    0.000    0.000    0.000    0.000    0.000    0.000 
#
# Total GULP energy -156324.666884 kJ/mol
# GULP energy per Si atom -5583.023817 kJ/mol
# Density = 2.198111 g / cm^3
# Si number density = 22.031256 Si / 1000 Ang^3
#
#
#
# Elastic Constant Matrix: (Units=GPa)
#
#
# Indices 1 2 3 4 5 6 
#
# 1 87.8976 -7.4059 38.8700 0.0000 18.3602 0.0000
# 2 -7.4059 38.3688 -5.5198 0.0000 -3.9347 0.0000
# 3 38.8700 -5.5198 150.0982 0.0000 20.5689 0.0000
# 4 0.0000 0.0000 0.0000 8.2052 0.0000 -1.4540
# 5 18.3602 -3.9347 20.5689 0.0000 27.2644 0.0000
# 6 0.0000 0.0000 0.0000 -1.4540 0.0000 -7.3284
#
#
#
# Elastic Compliance Matrix: (Units=1/GPa)
#
#
# Indices 1 2 3 4 5 6 
#
# 1 0.014205 0.001611 -0.002610 0.000000 -0.007364 0.000000
# 2 0.001611 0.026671 0.000206 0.000000 0.002609 0.000000
# 3 -0.002610 0.000206 0.007920 0.000000 -0.004187 0.000000
# 4 0.000000 0.000000 0.000000 0.117735 0.000000 -0.023359
# 5 -0.007364 0.002609 -0.004187 0.000000 0.045172 0.000000
# 6 0.000000 0.000000 0.000000 -0.023359 0.000000 -0.131820
#
#
# Mechanical properties :
#
#
# Convention : Reuss Voigt Hill
#
# Bulk Modulus (GPa) = 21.18201 36.47258 28.82730
# Shear Modulus (GPa) = 51.43758 22.32293 36.88025
#
# Velocity S-wave (km/s) = 4.83717 3.18659 4.09589
# Velocity P-wave (km/s) = 6.39007 5.48908 5.95664
#
# Compressibility (1/GPa) = 0.04720986
#
# Stress axis : x y z
#
# Youngs Moduli (GPa) = 70.39699 37.49396 126.26838
#
# Poissons Ratio (x) = -0.06041 0.32959
# Poissons Ratio (y) = -0.11342 -0.02603
# Poissons Ratio (z) = 0.18375 -0.00773
#
# Static dielectric constant tensor:
#      x y z
#    x 1.769850 0.000000 0.001650 
#    y 0.000000 1.846450 0.000000 
#    z 0.001650 0.000000 1.830350 
# 
# From -- ./inp_files/63355.got.cif
#   From: 2010.05.17/outbox.cif.g08.bks.cpg/sg10_32_cif.got.tgz:63355.got - 2010.06.03 11:33:40.
