data_PCOD9143650
_publ_section_title
;
Structure prediction by ZEFSAII (Michael W. Deem and Ramdas Pophale) SiO2 
 PCOD9143650
Probable space group: P 2/M
;
_chemical_formula_sum "Si O2"
_cell_formula_units_Z 28
_cell_length_a 14.419444
_cell_length_b 14.644312
_cell_length_c 7.866168
_cell_angle_alpha 90.000000
_cell_angle_beta 119.866775
_cell_angle_gamma 90.000000
_cell_volume 1440.432121
_symmetry_space_group_name_H-M "P 2/M"
_symmetry_group_IT_number 10
_symmetry_cell_setting 'monoclinic'
loop_
_space_group_symop_operation_xyz
x,y,z
-x,y,-z
-x,-y,-z
x,-y,z
loop_
_atom_site_type_symbol
_atom_site_label
_atom_site_fract_x
_atom_site_fract_y
_atom_site_fract_z
Si Si1 0.118924 0.681897 0.065071
Si Si2 0.420317 0.215391 0.572809
Si Si3 0.163785 0.000000 0.798778
Si Si4 0.795989 0.207694 0.178146
Si Si5 0.815139 0.820623 0.583906
Si Si6 0.339171 0.400175 0.319728
Si Si7 0.575389 0.684892 0.935004
Si Si8 0.074298 0.000000 0.326788
O O1 0.150637 0.744430 0.253501
O O2 0.213970 0.608407 0.157556
O O3 0.133717 0.742036 0.904585
O O4 0.000000 0.648816 0.000000
O O5 0.500000 0.178615 0.500000
O O6 0.312516 0.162327 0.518082
O O7 0.376693 0.315001 0.469559
O O8 0.496908 0.234576 0.799393
O O9 0.219077 0.900960 0.878760
O O10 0.121599 0.000000 0.564122
O O11 0.052475 0.000000 0.797872
O O12 0.841521 0.205836 0.412496
O O13 0.686309 0.266310 0.086723
O O14 0.878069 0.908729 0.702826
O O15 0.362544 0.500000 0.411880
O O16 0.399062 0.380681 0.198207
O O17 0.500000 0.635025 0.000000
#
# Coordination Sequence:
#
# PCOD9143650 Si02
#       8
#     4   4   2   4   4   4   4   2
#     4  10  21  35  56  81 104 142 182 214 267 324
#     4   9  18  33  54  75 104 139 175 212 266 320
#     4   9  18  33  51  78 107 140 177 231 263 301
#     4  10  20  35  55  79 111 140 184 220 262 313
#     4  10  19  35  54  77 109 144 177 225 263 312
#     4   9  20  36  54  79 106 132 173 222 266 321
#     4  10  18  32  54  78 103 138 173 213 264 318
#     4   9  18  31  53  77 103 140 186 220 271 302
#
# _framework density 19.438611999999999
#
# number of rings (size 3 to 8) (size 9 to 14) (size 15 to 20)
#    0.000    2.429    1.429    1.714    0.000    5.429 
#    0.000    2.857    0.000    0.000    0.000    4.000 
#    0.000    0.000    0.000    0.000    0.000    0.000 
#
# Total GULP energy -155875.134599 kJ/mol
# GULP energy per Si atom -5566.969093 kJ/mol
# Density = 1.939437 g / cm^3
# Si number density = 19.438612 Si / 1000 Ang^3
#
#
#
# Elastic Constant Matrix: (Units=GPa)
#
#
# Indices 1 2 3 4 5 6 
#
# 1 111.0969 12.4125 14.9755 0.0000 6.3318 0.0000
# 2 12.4125 59.7179 -2.5633 0.0000 -7.3004 0.0000
# 3 14.9755 -2.5633 45.2843 0.0000 -7.7216 0.0000
# 4 0.0000 0.0000 0.0000 23.6678 0.0000 -4.2002
# 5 6.3318 -7.3004 -7.7216 0.0000 29.8810 0.0000
# 6 0.0000 0.0000 0.0000 -4.2002 0.0000 4.7186
#
#
#
# Elastic Compliance Matrix: (Units=1/GPa)
#
#
# Indices 1 2 3 4 5 6 
#
# 1 0.010090 -0.002750 -0.004155 0.000000 -0.003884 0.000000
# 2 -0.002750 0.018148 0.002921 0.000000 0.005771 0.000000
# 3 -0.004155 0.002921 0.024995 0.000000 0.008053 0.000000
# 4 0.000000 0.000000 0.000000 0.050178 0.000000 0.044664
# 5 -0.003884 0.005771 0.008053 0.000000 0.037780 0.000000
# 6 0.000000 0.000000 0.000000 0.044664 0.000000 0.251682
#
#
# Mechanical properties :
#
#
# Convention : Reuss Voigt Hill
#
# Bulk Modulus (GPa) = 22.09216 29.52760 25.80988
# Shear Modulus (GPa) = 12.02130 24.40513 18.21321
#
# Velocity S-wave (km/s) = 2.48951 3.54714 3.06430
# Velocity P-wave (km/s) = 4.43321 5.65681 5.08197
#
# Compressibility (1/GPa) = 0.04526493
#
# Stress axis : x y z
#
# Youngs Moduli (GPa) = 99.11013 55.10266 40.00786
#
# Poissons Ratio (x) = 0.15155 0.16622
# Poissons Ratio (y) = 0.27258 -0.11686
# Poissons Ratio (z) = 0.41176 -0.16095
#
# Static dielectric constant tensor:
#      x y z
#    x 1.784140 0.000000 -0.032310 
#    y 0.000000 1.891330 0.000000 
#    z -0.032310 0.000000 1.727390 
# 
# From -- ./inp_files/29230.got.cif
#   From: 2010.05.17/outbox.cif.g08.bks.cpg/sg10_15_cif.got.tgz:29230.got - 2010.06.03 11:33:40.
