data_PCOD9143013
_publ_section_title
;
Structure prediction by ZEFSAII (Michael W. Deem and Ramdas Pophale) SiO2 
 PCOD9143013
Probable space group: P 2/M
;
_chemical_formula_sum "Si O2"
_cell_formula_units_Z 28
_cell_length_a 18.834088
_cell_length_b 11.855503
_cell_length_c 20.355108
_cell_angle_alpha 90.000000
_cell_angle_beta 157.706341
_cell_angle_gamma 90.000000
_cell_volume 1724.179144
_symmetry_space_group_name_H-M "P 2/M"
_symmetry_group_IT_number 10
_symmetry_cell_setting 'monoclinic'
loop_
_space_group_symop_operation_xyz
x,y,z
-x,y,-z
-x,-y,-z
x,-y,z
loop_
_atom_site_type_symbol
_atom_site_label
_atom_site_fract_x
_atom_site_fract_y
_atom_site_fract_z
Si Si1 0.080933 0.363383 0.500291
Si Si2 0.144451 0.269293 0.303030
Si Si3 0.878358 0.500000 0.793945
Si Si4 0.511988 0.365459 0.201659
Si Si5 0.082663 0.134845 0.999733
Si Si6 0.710012 0.500000 0.794605
Si Si7 0.892230 0.365457 0.202418
Si Si8 0.538937 0.269243 0.697691
O O1 0.077127 0.500000 0.500175
O O2 0.296143 0.332671 0.670142
O O3 0.000000 0.320581 0.500000
O O4 0.957030 0.332578 0.330811
O O5 0.169372 0.388076 0.286748
O O6 0.344728 0.228899 0.500356
O O7 0.046060 0.185733 0.167853
O O8 0.010566 0.297603 0.249892
O O9 0.775043 0.500000 0.775144
O O10 0.101453 0.500000 0.999622
O O11 0.523936 0.500000 0.228065
O O12 0.488972 0.297494 0.249434
O O13 0.327132 0.349970 0.999584
O O14 0.085589 0.000000 0.999724
O O15 0.289042 0.185722 0.167065
O O16 0.000000 0.170554 0.000000
O O17 0.596499 0.388074 0.714123
O O18 0.933039 0.500000 0.228803
#
# Coordination Sequence:
#
# PCOD9143013 Si02
#       8
#     4   4   2   4   4   2   4   4
#     4   9  18  30  46  74 115 154 183 211 254 324
#     4  12  22  35  58  82 109 143 184 228 281 333
#     4  11  21  33  51  80 113 140 174 224 281 338
#     4  10  18  30  50  77 110 148 182 216 264 320
#     4  11  26  45  59  75 106 146 190 240 285 328
#     4  11  21  33  51  80 113 140 174 224 281 338
#     4  10  18  30  50  77 110 148 182 216 264 320
#     4  12  22  35  58  82 109 143 184 228 281 333
#
# _framework density 16.239611
#
# number of rings (size 3 to 8) (size 9 to 14) (size 15 to 20)
#    0.000    1.286    5.714    1.286    0.000    4.000 
#    0.000    4.286    0.000    0.000    0.000    0.000 
#    0.000    3.429    0.000    0.000    0.000    0.000 
#
# Total GULP energy -156366.142359 kJ/mol
# GULP energy per Si atom -5584.505084 kJ/mol
# Density = 1.620265 g / cm^3
# Si number density = 16.239611 Si / 1000 Ang^3
#
#
#
# Elastic Constant Matrix: (Units=GPa)
#
#
# Indices 1 2 3 4 5 6 
#
# 1 142.9849 34.3349 87.6733 0.0000 1.7291 0.0000
# 2 34.3349 42.6055 33.4854 0.0000 0.2179 0.0000
# 3 87.6733 33.4854 165.5776 0.0000 -3.5677 0.0000
# 4 0.0000 0.0000 0.0000 -2.6131 0.0000 -7.0584
# 5 1.7291 0.2179 -3.5677 0.0000 22.8973 0.0000
# 6 0.0000 0.0000 0.0000 -7.0584 0.0000 -61.6570
#
#
#
# Elastic Compliance Matrix: (Units=1/GPa)
#
#
# Indices 1 2 3 4 5 6 
#
# 1 0.011309 -0.005199 -0.004971 0.000000 -0.001579 0.000000
# 2 -0.005199 0.030327 -0.003389 0.000000 -0.000424 0.000000
# 3 -0.004971 -0.003389 0.009397 0.000000 0.001872 0.000000
# 4 0.000000 0.000000 0.000000 -0.553984 0.000000 0.063419
# 5 -0.001579 -0.000424 0.001872 0.000000 0.044088 0.000000
# 6 0.000000 0.000000 0.000000 0.063419 0.000000 -0.023479
#
#
# Mechanical properties :
#
#
# Convention : Reuss Voigt Hill
#
# Bulk Modulus (GPa) = 41.81481 73.57280 57.69381
# Shear Modulus (GPa) = -11.17940 4.77039 -3.20450
#
# Velocity S-wave (km/s) = -2.62659 1.71577 -1.40625
# Velocity P-wave (km/s) = 4.07504 7.02339 5.74169
#
# Compressibility (1/GPa) = 0.02391497
#
# Stress axis : x y z
#
# Youngs Moduli (GPa) = 88.42340 32.97403 106.41344
#
# Poissons Ratio (x) = 0.17143 0.52896
# Poissons Ratio (y) = 0.45971 0.36068
# Poissons Ratio (z) = 0.43954 0.11176
#
# Static dielectric constant tensor:
#      x y z
#    x 1.536900 0.000000 -0.003100 
#    y 0.000000 1.510780 0.000000 
#    z -0.003100 0.000000 1.562850 
# 
# From -- ./inp_files/79537.got.cif
#   From: 2010.05.17/outbox.cif.g08.bks.cpg/sg10_40_cif.got.tgz:79537.got - 2010.06.03 11:33:40.
