data_PCOD9143945
_publ_section_title
;
Structure prediction by ZEFSAII (Michael W. Deem and Ramdas Pophale) SiO2 
 PCOD9143945
Probable space group: P 2/M
;
_chemical_formula_sum "Si O2"
_cell_formula_units_Z 32
_cell_length_a 14.944765
_cell_length_b 7.468015
_cell_length_c 22.463015
_cell_angle_alpha 90.000000
_cell_angle_beta 29.431983
_cell_angle_gamma 90.000000
_cell_volume 1231.937371
_symmetry_space_group_name_H-M "P 2/M"
_symmetry_group_IT_number 10
_symmetry_cell_setting 'monoclinic'
loop_
_space_group_symop_operation_xyz
x,y,z
-x,y,-z
-x,-y,-z
x,-y,z
loop_
_atom_site_type_symbol
_atom_site_label
_atom_site_fract_x
_atom_site_fract_y
_atom_site_fract_z
Si Si1 0.255121 0.783787 0.016734
Si Si2 0.940380 0.799482 0.122965
Si Si3 0.285482 0.716592 0.629292
Si Si4 0.256745 0.718896 0.515971
Si Si5 0.934891 0.705167 0.626217
Si Si6 0.285986 0.783471 0.128441
Si Si7 0.605901 0.712665 0.746774
Si Si8 0.599700 0.287540 0.249411
O O1 0.203794 0.723366 0.112628
O O2 0.125194 0.709041 0.039776
O O3 0.241488 0.000000 0.025120
O O4 0.462929 0.737411 0.882899
O O5 0.816263 0.793557 0.254713
O O6 0.807771 0.741786 0.146813
O O7 0.992398 0.000000 0.077690
O O8 0.500000 0.758931 0.500000
O O9 0.272818 0.500000 0.642352
O O10 0.205034 0.776060 0.612208
O O11 0.248699 0.500000 0.521028
O O12 0.463109 0.770501 0.381092
O O13 0.124258 0.783551 0.540211
O O14 0.974167 0.500000 0.586257
O O15 0.814277 0.704943 0.756514
O O16 0.802841 0.785129 0.652321
O O17 0.271983 0.000000 0.141638
O O18 0.500000 0.740062 0.000000
O O19 0.632039 0.500000 0.722628
O O20 0.493784 0.787880 0.755756
O O21 0.583095 0.500000 0.254647
#
# Coordination Sequence:
#
# PCOD9143945 Si02
#       8
#     4   4   4   4   4   4   4   4
#     4  10  22  39  57  79 112 148 181 220 275 333
#     4  11  23  37  56  84 112 142 182 230 275 317
#     4  10  18  33  58  84 112 149 181 212 268 334
#     4   9  18  34  57  82 111 146 179 214 268 330
#     4  10  20  34  55  86 114 138 177 228 273 315
#     4  10  19  34  57  81 108 148 182 210 267 336
#     4  10  22  37  57  83 108 140 186 234 273 312
#     4  10  21  40  59  77 108 148 186 224 270 330
#
# _framework density 25.975345000000001
#
# number of rings (size 3 to 8) (size 9 to 14) (size 15 to 20)
#    0.000    2.000    2.500    1.125    0.000    3.500 
#    0.000    5.625    0.000    0.000    0.000    2.625 
#    0.000    0.000    0.000    0.000    0.000    0.000 
#
# Total GULP energy -178930.191632 kJ/mol
# GULP energy per Si atom -5591.568488 kJ/mol
# Density = 2.591622 g / cm^3
# Si number density = 25.975345 Si / 1000 Ang^3
#
#
#
# Elastic Constant Matrix: (Units=GPa)
#
#
# Indices 1 2 3 4 5 6 
#
# 1 186.6575 9.1439 19.0790 0.0000 -27.3807 0.0000
# 2 9.1439 76.4135 -5.7304 0.0000 -2.2836 0.0000
# 3 19.0790 -5.7304 81.8985 0.0000 -21.2525 0.0000
# 4 0.0000 0.0000 0.0000 7.9216 0.0000 -6.0227
# 5 -27.3807 -2.2836 -21.2525 0.0000 54.1628 0.0000
# 6 0.0000 0.0000 0.0000 -6.0227 0.0000 -2.7718
#
#
#
# Elastic Compliance Matrix: (Units=1/GPa)
#
#
# Indices 1 2 3 4 5 6 
#
# 1 0.005853 -0.000676 -0.000724 0.000000 0.002646 0.000000
# 2 -0.000676 0.013284 0.001273 0.000000 0.000718 0.000000
# 3 -0.000724 0.001273 0.013791 0.000000 0.005099 0.000000
# 4 0.000000 0.000000 0.000000 0.047600 0.000000 -0.103430
# 5 0.002646 0.000718 0.005099 0.000000 0.021832 0.000000
# 6 0.000000 0.000000 0.000000 -0.103430 0.000000 -0.136040
#
#
# Mechanical properties :
#
#
# Convention : Reuss Voigt Hill
#
# Bulk Modulus (GPa) = 30.60385 43.32826 36.96606
# Shear Modulus (GPa) = -221.87638 33.36099 -94.25769
#
# Velocity S-wave (km/s) = -9.25222 3.58765 -6.03043
# Velocity P-wave (km/s) = 10.11586 5.82051 5.85031
#
# Compressibility (1/GPa) = 0.03267563
#
# Stress axis : x y z
#
# Youngs Moduli (GPa) = 170.86236 75.27584 72.51002
#
# Poissons Ratio (x) = 0.05085 0.05250
# Poissons Ratio (y) = 0.11543 -0.09232
# Poissons Ratio (z) = 0.12371 -0.09585
#
# Static dielectric constant tensor:
#      x y z
#    x 2.114370 0.000000 -0.011250 
#    y 0.000000 1.978510 0.000000 
#    z -0.011250 0.000000 1.997480 
# 
# From -- ./inp_files/66625.got.cif
#   From: 2010.05.17/outbox.cif.g08.bks.cpg/sg10_34_cif.got.tgz:66625.got - 2010.06.03 11:33:40.
