data_PCOD9143849
_publ_section_title
;
Structure prediction by ZEFSAII (Michael W. Deem and Ramdas Pophale) SiO2 
 PCOD9143849
Probable space group: P 2/M
;
_chemical_formula_sum "Si O2"
_cell_formula_units_Z 32
_cell_length_a 13.300400
_cell_length_b 7.516814
_cell_length_c 19.328298
_cell_angle_alpha 90.000000
_cell_angle_beta 49.318276
_cell_angle_gamma 90.000000
_cell_volume 1465.404097
_symmetry_space_group_name_H-M "P 2/M"
_symmetry_group_IT_number 10
_symmetry_cell_setting 'monoclinic'
loop_
_space_group_symop_operation_xyz
x,y,z
-x,y,-z
-x,-y,-z
x,-y,z
loop_
_atom_site_type_symbol
_atom_site_label
_atom_site_fract_x
_atom_site_fract_y
_atom_site_fract_z
Si Si1 0.166263 0.707492 0.232220
Si Si2 0.191014 0.282536 0.791931
Si Si3 0.674062 0.285088 0.596403
Si Si4 0.963106 0.282623 0.438731
Si Si5 0.889917 0.281670 0.896120
Si Si6 0.442983 0.282575 0.598817
Si Si7 0.592005 0.204588 0.785390
Si Si8 0.711633 0.291943 0.102111
O O1 0.130748 0.500000 0.242273
O O2 0.152960 0.780488 0.160923
O O3 0.312851 0.717417 0.198655
O O4 0.063238 0.783253 0.335055
O O5 0.192565 0.500000 0.791412
O O6 0.295945 0.226589 0.686317
O O7 0.244432 0.219881 0.842780
O O8 0.040886 0.229120 0.844560
O O9 0.672483 0.500000 0.599635
O O10 0.809789 0.232176 0.497958
O O11 0.544936 0.226596 0.612845
O O12 0.667159 0.223954 0.678447
O O13 0.970385 0.500000 0.435616
O O14 0.000000 0.226204 0.500000
O O15 0.885012 0.500000 0.898358
O O16 0.793198 0.218483 0.000582
O O17 0.500000 0.222664 0.500000
O O18 0.443326 0.500000 0.597410
O O19 0.445393 0.280889 0.840274
O O20 0.574133 0.000000 0.810253
O O21 0.746179 0.500000 0.090256
#
# Coordination Sequence:
#
# PCOD9143849 Si02
#       8
#     4   4   4   4   4   4   4   4
#     4  10  20  36  55  81 114 145 179 224 275 326
#     4   9  16  29  52  85 117 141 171 219 270 321
#     4  10  18  33  54  80 111 147 181 218 268 323
#     4   9  16  27  50  78 103 133 173 213 256 313
#     4   9  19  32  54  85 112 140 179 227 274 325
#     4   9  17  26  45  83 120 143 167 210 268 321
#     4  12  24  37  55  79 107 144 190 236 273 321
#     4  10  19  36  59  82 108 142 181 225 279 330
#
# _framework density 21.836980000000001
#
# number of rings (size 3 to 8) (size 9 to 14) (size 15 to 20)
#    0.000    2.250    2.500    1.500    1.750    2.000 
#    0.000    4.375    0.000    2.625    0.000    0.000 
#    0.000    0.000    0.000    0.000    0.000    0.000 
#
# Total GULP energy -178722.314902 kJ/mol
# GULP energy per Si atom -5585.072341 kJ/mol
# Density = 2.178728 g / cm^3
# Si number density = 21.836980 Si / 1000 Ang^3
#
#
#
# Elastic Constant Matrix: (Units=GPa)
#
#
# Indices 1 2 3 4 5 6 
#
# 1 124.4928 -10.7320 95.6598 0.0000 -0.8574 0.0000
# 2 -10.7320 50.6262 -3.2217 0.0000 7.5996 0.0000
# 3 95.6598 -3.2217 146.3191 0.0000 24.4137 0.0000
# 4 0.0000 0.0000 0.0000 -979.9863 0.0000 -567.8867
# 5 -0.8574 7.5996 24.4137 0.0000 27.1839 0.0000
# 6 0.0000 0.0000 0.0000 -567.8867 0.0000 -373.3540
#
#
#
# Elastic Compliance Matrix: (Units=1/GPa)
#
#
# Indices 1 2 3 4 5 6 
#
# 1 0.020178 0.001144 -0.015549 0.000000 0.014281 0.000000
# 2 0.001144 0.021034 0.000812 0.000000 -0.006573 0.000000
# 3 -0.015549 0.000812 0.020158 0.000000 -0.018822 0.000000
# 4 0.000000 0.000000 0.000000 -0.008605 0.000000 0.013089
# 5 0.014281 -0.006573 -0.018822 0.000000 0.055978 0.000000
# 6 0.000000 0.000000 0.000000 0.013089 0.000000 -0.022587
#
#
# Mechanical properties :
#
#
# Convention : Reuss Voigt Hill
#
# Bulk Modulus (GPa) = 29.25430 53.87225 41.56328
# Shear Modulus (GPa) = 40.08456 -249.24915 -104.58230
#
# Velocity S-wave (km/s) = 4.28907 -10.69526 -6.92793
# Velocity P-wave (km/s) = 6.16068 11.30462 6.70226
#
# Compressibility (1/GPa) = 0.03418300
#
# Stress axis : x y z
#
# Youngs Moduli (GPa) = 49.55983 47.54305 49.60697
#
# Poissons Ratio (x) = -0.05439 0.77136
# Poissons Ratio (y) = -0.05670 -0.04028
# Poissons Ratio (z) = 0.77062 -0.03860
#
# Static dielectric constant tensor:
#      x y z
#    x 1.784620 0.000000 -0.002130 
#    y 0.000000 1.829660 0.000000 
#    z -0.002130 0.000000 1.774520 
# 
# From -- ./inp_files/83532.got.cif
#   From: 2010.05.17/outbox.cif.g08.bks.cpg/sg10_42_cif.got.tgz:83532.got - 2010.06.03 11:33:40.
