data_PCOD9143259
_publ_section_title
;
Structure prediction by ZEFSAII (Michael W. Deem and Ramdas Pophale) SiO2 
 PCOD9143259
Probable space group: P 2/M
;
_chemical_formula_sum "Si O2"
_cell_formula_units_Z 24
_cell_length_a 5.260799
_cell_length_b 20.361762
_cell_length_c 13.371881
_cell_angle_alpha 90.000000
_cell_angle_beta 80.022103
_cell_angle_gamma 90.000000
_cell_volume 1410.719066
_symmetry_space_group_name_H-M "P 2/M"
_symmetry_group_IT_number 10
_symmetry_cell_setting 'monoclinic'
loop_
_space_group_symop_operation_xyz
x,y,z
-x,y,-z
-x,-y,-z
x,-y,z
loop_
_atom_site_type_symbol
_atom_site_label
_atom_site_fract_x
_atom_site_fract_y
_atom_site_fract_z
Si Si1 0.140960 0.425111 0.759327
Si Si2 0.184424 0.808203 0.720070
Si Si3 0.218125 0.922353 0.566754
Si Si4 0.412080 0.386999 0.116253
Si Si5 0.027896 0.687972 0.614515
Si Si6 0.660857 0.748268 0.789232
O O1 0.152589 0.500000 0.723509
O O2 0.377428 0.410919 0.817711
O O3 0.138935 0.373163 0.668910
O O4 0.871252 0.413409 0.836401
O O5 0.188092 0.878034 0.666686
O O6 0.190719 0.753306 0.630651
O O7 0.421526 0.792753 0.775760
O O8 0.915159 0.791220 0.793139
O O9 0.500000 0.911049 0.500000
O O10 0.000000 0.904474 0.500000
O O11 0.192590 0.000000 0.589745
O O12 0.399319 0.307614 0.126488
O O13 0.500000 0.406769 0.000000
O O14 0.000000 0.676470 0.500000
O O15 0.754063 0.706211 0.685256
#
# Coordination Sequence:
#
# PCOD9143259 Si02
#       6
#     4   4   4   4   4   4
#     4  11  23  38  52  77 105 129 170 216 256 317
#     4  10  18  31  51  69 102 133 171 205 244 287
#     4  10  20  31  45  73 108 141 177 207 238 288
#     4  11  21  39  58  75 101 130 164 216 275 317
#     4   9  20  33  52  73  97 139 171 209 246 294
#     4   9  19  33  49  77  98 124 172 218 241 299
#
# _framework density 17.012601
#
# number of rings (size 3 to 8) (size 9 to 14) (size 15 to 20)
#    1.000    1.000    1.667    2.500    2.333    2.333 
#    0.000    0.000    0.000    3.000    0.000    0.000 
#    0.000    4.000    0.000    0.000    0.000    0.000 
#
# Total GULP energy -133732.015511 kJ/mol
# GULP energy per Si atom -5572.167313 kJ/mol
# Density = 1.697388 g / cm^3
# Si number density = 17.012601 Si / 1000 Ang^3
#
#
#
# Elastic Constant Matrix: (Units=GPa)
#
#
# Indices 1 2 3 4 5 6 
#
# 1 111.1822 16.6290 -6.8921 0.0000 6.2505 0.0000
# 2 16.6290 58.0413 -8.1125 0.0000 -0.6420 0.0000
# 3 -6.8921 -8.1125 31.7721 0.0000 -2.1961 0.0000
# 4 0.0000 0.0000 0.0000 -6.1959 0.0000 -2.5659
# 5 6.2505 -0.6420 -2.1961 0.0000 12.0709 0.0000
# 6 0.0000 0.0000 0.0000 -2.5659 0.0000 7.8224
#
#
#
# Elastic Compliance Matrix: (Units=1/GPa)
#
#
# Indices 1 2 3 4 5 6 
#
# 1 0.009745 -0.002696 0.001080 0.000000 -0.004993 0.000000
# 2 -0.002696 0.018652 0.004398 0.000000 0.003188 0.000000
# 3 0.001080 0.004398 0.033227 0.000000 0.005719 0.000000
# 4 0.000000 0.000000 0.000000 -0.142095 0.000000 -0.046609
# 5 -0.004993 0.003188 0.005719 0.000000 0.086640 0.000000
# 6 0.000000 0.000000 0.000000 -0.046609 0.000000 0.112550
#
#
# Mechanical properties :
#
#
# Convention : Reuss Voigt Hill
#
# Bulk Modulus (GPa) = 14.88371 22.69383 18.78877
# Shear Modulus (GPa) = 36.88678 16.03088 26.45883
#
# Velocity S-wave (km/s) = 4.66145 3.07301 3.94794
# Velocity P-wave (km/s) = 6.14327 5.09505 5.64355
#
# Compressibility (1/GPa) = 0.06718756
#
# Stress axis : x y z
#
# Youngs Moduli (GPa) = 102.61475 53.61478 30.09623
#
# Poissons Ratio (x) = 0.14456 -0.03252
# Poissons Ratio (y) = 0.27668 -0.13236
# Poissons Ratio (z) = -0.11086 -0.23579
#
# Static dielectric constant tensor:
#      x y z
#    x 1.593070 0.000000 -0.015120 
#    y 0.000000 1.581450 0.000000 
#    z -0.015120 0.000000 1.549630 
# 
# From -- ./inp_files/39509.got.cif
#   From: 2010.05.17/outbox.cif.g08.bks.cpg/sg10_20_cif.got.tgz:39509.got - 2010.06.03 11:33:40.
