data_PCOD9143709
_publ_section_title
;
Structure prediction by ZEFSAII (Michael W. Deem and Ramdas Pophale) SiO2 
 PCOD9143709
Probable space group: P 2/M
;
_chemical_formula_sum "Si O2"
_cell_formula_units_Z 32
_cell_length_a 14.697856
_cell_length_b 7.571725
_cell_length_c 25.412939
_cell_angle_alpha 90.000000
_cell_angle_beta 150.293824
_cell_angle_gamma 90.000000
_cell_volume 1401.500341
_symmetry_space_group_name_H-M "P 2/M"
_symmetry_group_IT_number 10
_symmetry_cell_setting 'monoclinic'
loop_
_space_group_symop_operation_xyz
x,y,z
-x,y,-z
-x,-y,-z
x,-y,z
loop_
_atom_site_type_symbol
_atom_site_label
_atom_site_fract_x
_atom_site_fract_y
_atom_site_fract_z
Si Si1 0.794138 0.713444 0.882610
Si Si2 0.005279 0.283782 0.179196
Si Si3 0.586099 0.291758 0.596824
Si Si4 0.313109 0.797455 0.783150
Si Si5 0.533123 0.203816 0.351354
Si Si6 0.786831 0.214857 0.383250
Si Si7 0.704403 0.704459 0.110468
Si Si8 0.296195 0.713098 0.050025
O O1 0.800692 0.500000 0.881176
O O2 0.676219 0.778977 0.774717
O O3 0.684286 0.766841 0.879873
O O4 0.000000 0.771301 0.000000
O O5 0.013202 0.500000 0.182770
O O6 0.867926 0.224151 0.156593
O O7 0.210929 0.217719 0.289612
O O8 0.898705 0.234395 0.072260
O O9 0.500000 0.217289 0.500000
O O10 0.612435 0.500000 0.600841
O O11 0.464060 0.276327 0.588155
O O12 0.263924 0.720766 0.701067
O O13 0.244890 0.711226 0.802572
O O14 0.533965 0.787145 0.896539
O O15 0.251287 0.000000 0.753087
O O16 0.661962 0.280540 0.369439
O O17 0.583366 0.000000 0.381061
O O18 0.000000 0.254106 0.500000
O O19 0.764763 0.000000 0.370806
O O20 0.687554 0.500000 0.085105
O O21 0.500000 0.783467 0.000000
O O22 0.305675 0.500000 0.052757
#
# Coordination Sequence:
#
# PCOD9143709 Si02
#       8
#     4   4   4   4   4   4   4   4
#     4  10  20  34  57  86 116 153 194 235 285 348
#     4   9  18  35  58  82 110 148 191 229 281 345
#     4  10  22  41  63  85 113 150 193 241 288 341
#     4  11  21  34  54  81 113 146 185 234 282 332
#     4  11  22  38  61  87 116 151 193 242 290 344
#     4   9  20  39  59  80 113 158 194 226 282 348
#     4  10  19  34  56  79 108 151 191 228 278 340
#     4  10  18  32  55  79 109 148 186 225 276 341
#
# _framework density 22.832674999999998
#
# number of rings (size 3 to 8) (size 9 to 14) (size 15 to 20)
#    0.000    2.000    2.500    1.500    0.000    3.750 
#    0.000    2.500    0.000    5.250    0.000    0.000 
#    0.000    0.000    0.000    0.000    0.000    0.000 
#
# Total GULP energy -178666.526439 kJ/mol
# GULP energy per Si atom -5583.328951 kJ/mol
# Density = 2.278071 g / cm^3
# Si number density = 22.832675 Si / 1000 Ang^3
#
#
#
# Elastic Constant Matrix: (Units=GPa)
#
#
# Indices 1 2 3 4 5 6 
#
# 1 122.1032 -6.5771 59.1319 0.0000 -23.0508 0.0000
# 2 -6.5771 45.0624 -1.1257 0.0000 -0.0982 0.0000
# 3 59.1319 -1.1257 124.8587 0.0000 -22.0954 0.0000
# 4 0.0000 0.0000 0.0000 4.1583 0.0000 8.6155
# 5 -23.0508 -0.0982 -22.0954 0.0000 38.8705 0.0000
# 6 0.0000 0.0000 0.0000 8.6155 0.0000 -2.2309
#
#
#
# Elastic Compliance Matrix: (Units=1/GPa)
#
#
# Indices 1 2 3 4 5 6 
#
# 1 0.011270 0.001539 -0.004603 0.000000 0.004071 0.000000
# 2 0.001539 0.022408 -0.000395 0.000000 0.000745 0.000000
# 3 -0.004603 -0.000395 0.010787 0.000000 0.003401 0.000000
# 4 0.000000 0.000000 0.000000 0.026716 0.000000 0.103175
# 5 0.004071 0.000745 0.003401 0.000000 0.030076 0.000000
# 6 0.000000 0.000000 0.000000 0.103175 0.000000 -0.049797
#
#
# Mechanical properties :
#
#
# Convention : Reuss Voigt Hill
#
# Bulk Modulus (GPa) = 26.63341 43.87582 35.25462
# Shear Modulus (GPa) = 70.52767 24.19927 47.36347
#
# Velocity S-wave (km/s) = 5.56381 3.25907 4.55947
# Velocity P-wave (km/s) = 7.27768 5.78100 6.57208
#
# Compressibility (1/GPa) = 0.03754682
#
# Stress axis : x y z
#
# Youngs Moduli (GPa) = 88.72757 44.62725 92.70018
#
# Poissons Ratio (x) = -0.06868 0.42673
# Poissons Ratio (y) = -0.13654 0.03662
# Poissons Ratio (z) = 0.40844 0.01763
#
# Static dielectric constant tensor:
#      x y z
#    x 1.864720 0.000000 -0.003640 
#    y 0.000000 1.875330 0.000000 
#    z -0.003640 0.000000 1.843500 
# 
# From -- ./inp_files/71455.got.cif
#   From: 2010.05.17/outbox.cif.g08.bks.cpg/sg10_36_cif.got.tgz:71455.got - 2010.06.03 11:33:40.
