data_PCOD9143663
_publ_section_title
;
Structure prediction by ZEFSAII (Michael W. Deem and Ramdas Pophale) SiO2 
 PCOD9143663
Probable space group: P 2/M
;
_chemical_formula_sum "Si O2"
_cell_formula_units_Z 32
_cell_length_a 21.509852
_cell_length_b 7.668787
_cell_length_c 8.295532
_cell_angle_alpha 90.000000
_cell_angle_beta 79.485491
_cell_angle_gamma 90.000000
_cell_volume 1345.408187
_symmetry_space_group_name_H-M "P 2/M"
_symmetry_group_IT_number 10
_symmetry_cell_setting 'monoclinic'
loop_
_space_group_symop_operation_xyz
x,y,z
-x,y,-z
-x,-y,-z
x,-y,z
loop_
_atom_site_type_symbol
_atom_site_label
_atom_site_fract_x
_atom_site_fract_y
_atom_site_fract_z
Si Si1 0.514389 0.703778 0.171326
Si Si2 0.646931 0.294537 0.198641
Si Si3 0.727203 0.801442 0.381169
Si Si4 0.861826 0.214182 0.427489
Si Si5 0.703041 0.789885 0.850706
Si Si6 0.387083 0.794117 0.395575
Si Si7 0.151820 0.787073 0.207070
Si Si8 0.071935 0.786922 0.933477
O O1 0.529276 0.500000 0.142477
O O2 0.574150 0.782900 0.235670
O O3 0.451599 0.711337 0.311052
O O4 0.500000 0.779079 0.000000
O O5 0.652201 0.500000 0.229850
O O6 0.719460 0.206859 0.193969
O O7 0.653826 0.285944 0.998153
O O8 0.790198 0.722499 0.419840
O O9 0.651588 0.745394 0.423467
O O10 0.727073 0.000000 0.437995
O O11 0.877497 0.264025 0.603930
O O12 0.860788 0.000000 0.424448
O O13 0.904005 0.268987 0.255142
O O14 0.671729 0.748335 0.692319
O O15 0.775208 0.729591 0.824025
O O16 0.702639 0.000000 0.861279
O O17 0.399020 0.000000 0.388440
O O18 0.115249 0.729561 0.063802
O O19 0.151415 0.000000 0.205642
O O20 0.073958 0.000000 0.931428
O O21 0.000000 0.734264 0.000000
#
# Coordination Sequence:
#
# PCOD9143663 Si02
#       8
#     4   4   4   4   4   4   4   4
#     4  10  21  37  52  69 100 139 172 206 261 329
#     4  11  23  36  52  75 102 137 175 211 264 328
#     4  10  20  36  54  76 103 132 172 221 270 314
#     4   9  16  29  49  71 100 138 178 220 265 315
#     4  10  18  32  54  78  99 128 174 222 265 309
#     4  10  20  33  54  78  97 123 171 225 264 307
#     4   9  16  28  48  72 100 138 180 219 265 316
#     4   9  17  26  39  68 108 147 182 211 249 309
#
# _framework density 23.784603000000001
#
# number of rings (size 3 to 8) (size 9 to 14) (size 15 to 20)
#    0.000    2.250    2.500    1.125    0.000    4.750 
#    0.000    5.000    0.000    0.000    0.000    0.000 
#    0.000    8.000    0.000    9.000    0.000   10.000 
#
# Total GULP energy -178246.321004 kJ/mol
# GULP energy per Si atom -5570.197531 kJ/mol
# Density = 2.373047 g / cm^3
# Si number density = 23.784603 Si / 1000 Ang^3
#
#
#
# Elastic Constant Matrix: (Units=GPa)
#
#
# Indices 1 2 3 4 5 6 
#
# 1 122.3282 12.3570 70.8618 0.0000 -8.2309 0.0000
# 2 12.3570 35.3605 8.5112 0.0000 3.2983 0.0000
# 3 70.8618 8.5112 129.5072 0.0000 -16.5724 0.0000
# 4 0.0000 0.0000 0.0000 25.9306 0.0000 -12.6348
# 5 -8.2309 3.2983 -16.5724 0.0000 39.4137 0.0000
# 6 0.0000 0.0000 0.0000 -12.6348 0.0000 8.0941
#
#
#
# Elastic Compliance Matrix: (Units=1/GPa)
#
#
# Indices 1 2 3 4 5 6 
#
# 1 0.012217 -0.002709 -0.006501 0.000000 0.000044 0.000000
# 2 -0.002709 0.029768 -0.000915 0.000000 -0.003441 0.000000
# 3 -0.006501 -0.000915 0.011810 0.000000 0.003685 0.000000
# 4 0.000000 0.000000 0.000000 0.161086 0.000000 0.251453
# 5 0.000044 -0.003441 0.003685 0.000000 0.027219 0.000000
# 6 0.000000 0.000000 0.000000 0.251453 0.000000 0.516062
#
#
# Mechanical properties :
#
#
# Convention : Reuss Voigt Hill
#
# Bulk Modulus (GPa) = 29.80932 52.29512 41.05222
# Shear Modulus (GPa) = 6.33237 27.71873 17.02555
#
# Velocity S-wave (km/s) = 1.63345 3.41751 2.67839
# Velocity P-wave (km/s) = 4.01470 6.13247 5.18290
#
# Compressibility (1/GPa) = 0.03354656
#
# Stress axis : x y z
#
# Youngs Moduli (GPa) = 81.85092 33.59331 84.67084
#
# Poissons Ratio (x) = 0.09100 0.55046
# Poissons Ratio (y) = 0.22172 0.07744
# Poissons Ratio (z) = 0.53213 0.03072
#
# Static dielectric constant tensor:
#      x y z
#    x 1.940200 0.000000 -0.025180 
#    y 0.000000 1.873700 0.000000 
#    z -0.025180 0.000000 1.985380 
# 
# From -- ./inp_files/33872.got.cif
#   From: 2010.05.17/outbox.cif.g08.bks.cpg/sg10_17_cif.got.tgz:33872.got - 2010.06.03 11:33:40.
