data_PCOD9143531
_publ_section_title
;
Structure prediction by ZEFSAII (Michael W. Deem and Ramdas Pophale) SiO2 
 PCOD9143531
Probable space group: P 2/M
;
_chemical_formula_sum "Si O2"
_cell_formula_units_Z 32
_cell_length_a 14.660974
_cell_length_b 8.737819
_cell_length_c 15.990645
_cell_angle_alpha 90.000000
_cell_angle_beta 90.612100
_cell_angle_gamma 90.000000
_cell_volume 2048.363678
_symmetry_space_group_name_H-M "P 2/M"
_symmetry_group_IT_number 10
_symmetry_cell_setting 'monoclinic'
loop_
_space_group_symop_operation_xyz
x,y,z
-x,y,-z
-x,-y,-z
x,-y,z
loop_
_atom_site_type_symbol
_atom_site_label
_atom_site_fract_x
_atom_site_fract_y
_atom_site_fract_z
Si Si1 0.607709 0.818986 0.824661
Si Si2 0.389300 0.675889 0.000347
Si Si3 0.395486 0.313650 0.493795
Si Si4 0.900676 0.182640 0.406394
Si Si5 0.094987 0.316033 0.407208
Si Si6 0.281990 0.314886 0.657148
Si Si7 0.404640 0.314707 0.817118
Si Si8 0.715351 0.684540 0.672000
O O1 0.637514 0.769570 0.918313
O O2 0.506676 0.749447 0.808098
O O3 0.675818 0.755641 0.755510
O O4 0.601580 0.000000 0.819611
O O5 0.358959 0.500000 0.009818
O O6 0.500000 0.674968 0.000000
O O7 0.365125 0.733563 0.907333
O O8 0.500000 0.261558 0.500000
O O9 0.396414 0.500000 0.493500
O O10 0.338463 0.268147 0.574899
O O11 0.346112 0.265775 0.408015
O O12 0.886523 0.251774 0.499461
O O13 0.817015 0.239885 0.349701
O O14 0.998606 0.246610 0.378485
O O15 0.903430 0.000000 0.411477
O O16 0.088355 0.500000 0.412881
O O17 0.180343 0.276775 0.349376
O O18 0.272593 0.500000 0.655501
O O19 0.339972 0.272971 0.739546
O O20 0.412313 0.500000 0.819621
O O21 0.708859 0.500000 0.677669
#
# Coordination Sequence:
#
# PCOD9143531 Si02
#       8
#     4   4   4   4   4   4   4   4
#     4  11  21  30  45  70 101 133 160 195 242 292
#     4   8  15  30  49  69  92 122 162 204 241 276
#     4   9  16  27  45  67  91 122 160 197 230 266
#     4  11  21  32  48  71 100 126 152 196 251 292
#     4  10  19  34  54  70  88 121 168 208 239 279
#     4  10  18  32  51  71  94 125 166 201 233 282
#     4   9  18  32  52  72  94 127 166 206 238 273
#     4  10  19  32  49  69  92 125 165 203 237 274
#
# _framework density 15.622225
#
# number of rings (size 3 to 8) (size 9 to 14) (size 15 to 20)
#    0.000    2.250    1.250    4.875    0.000    5.750 
#    0.000    0.000    0.000    1.500    0.000    0.875 
#    0.000    7.000    0.000    0.000    0.000    0.000 
#
# Total GULP energy -178469.232195 kJ/mol
# GULP energy per Si atom -5577.163506 kJ/mol
# Density = 1.558667 g / cm^3
# Si number density = 15.622225 Si / 1000 Ang^3
#
#
#
# Elastic Constant Matrix: (Units=GPa)
#
#
# Indices 1 2 3 4 5 6 
#
# 1 108.1668 40.6909 65.8516 0.0000 -14.2614 0.0000
# 2 40.6909 46.5448 40.6881 0.0000 -4.9034 0.0000
# 3 65.8516 40.6881 128.8830 0.0000 -12.7961 0.0000
# 4 0.0000 0.0000 0.0000 -4.4673 0.0000 7.6570
# 5 -14.2614 -4.9034 -12.7961 0.0000 10.5929 0.0000
# 6 0.0000 0.0000 0.0000 7.6570 0.0000 2.9421
#
#
#
# Elastic Compliance Matrix: (Units=1/GPa)
#
#
# Indices 1 2 3 4 5 6 
#
# 1 0.017491 -0.009982 -0.004439 0.000000 0.013566 0.000000
# 2 -0.009982 0.035441 -0.006584 0.000000 -0.004986 0.000000
# 3 -0.004439 -0.006584 0.012737 0.000000 0.006363 0.000000
# 4 0.000000 0.000000 0.000000 -0.040991 0.000000 0.106684
# 5 0.013566 -0.004986 0.006363 0.000000 0.118046 0.000000
# 6 0.000000 0.000000 0.000000 0.106684 0.000000 0.062241
#
#
# Mechanical properties :
#
#
# Convention : Reuss Voigt Hill
#
# Bulk Modulus (GPa) = 42.26406 64.22842 53.24624
# Shear Modulus (GPa) = 19.61865 10.90447 15.26156
#
# Velocity S-wave (km/s) = 3.54759 2.64485 3.12895
# Velocity P-wave (km/s) = 6.62519 7.10843 6.87106
#
# Compressibility (1/GPa) = 0.02366076
#
# Stress axis : x y z
#
# Youngs Moduli (GPa) = 57.17271 28.21594 78.51105
#
# Poissons Ratio (x) = 0.28164 0.34849
# Poissons Ratio (y) = 0.57068 0.51689
# Poissons Ratio (z) = 0.25377 0.18576
#
# Static dielectric constant tensor:
#      x y z
#    x 1.509240 0.000000 0.006020 
#    y 0.000000 1.518890 0.000000 
#    z 0.006020 0.000000 1.522850 
# 
# From -- ./inp_files/66038.got.cif
#   From: 2010.05.17/outbox.cif.g08.bks.cpg/sg10_34_cif.got.tgz:66038.got - 2010.06.03 11:33:40.
