data_PCOD9143283
_publ_section_title
;
Structure prediction by ZEFSAII (Michael W. Deem and Ramdas Pophale) SiO2 
 PCOD9143283
Probable space group: P 2/M
;
_chemical_formula_sum "Si O2"
_cell_formula_units_Z 28
_cell_length_a 12.478302
_cell_length_b 7.682881
_cell_length_c 15.111321
_cell_angle_alpha 90.000000
_cell_angle_beta 111.404600
_cell_angle_gamma 90.000000
_cell_volume 1348.789204
_symmetry_space_group_name_H-M "P 2/M"
_symmetry_group_IT_number 10
_symmetry_cell_setting 'monoclinic'
loop_
_space_group_symop_operation_xyz
x,y,z
-x,y,-z
-x,-y,-z
x,-y,z
loop_
_atom_site_type_symbol
_atom_site_label
_atom_site_fract_x
_atom_site_fract_y
_atom_site_fract_z
Si Si1 0.240804 0.786689 0.544034
Si Si2 0.502516 0.789830 0.396673
Si Si3 0.883754 0.206888 0.669850
Si Si4 0.276797 0.699470 0.221555
Si Si5 0.389242 0.713396 0.081382
Si Si6 0.645679 0.709597 0.130618
Si Si7 0.869227 0.207147 0.311255
O O1 0.372542 0.734005 0.600532
O O2 0.195903 0.726944 0.434864
O O3 0.159128 0.726573 0.598825
O O4 0.241975 0.000000 0.543519
O O5 0.500000 0.747097 0.500000
O O6 0.395246 0.712343 0.312726
O O7 0.492339 0.000000 0.386704
O O8 0.823608 0.232152 0.745824
O O9 0.013005 0.276611 0.695836
O O10 0.888594 0.000000 0.658896
O O11 0.247422 0.500000 0.196633
O O12 0.308162 0.778931 0.135664
O O13 0.389002 0.500000 0.083742
O O14 0.522697 0.768351 0.133253
O O15 0.351947 0.765411 0.971489
O O16 0.643274 0.500000 0.129960
O O17 0.757057 0.765188 0.217788
O O18 0.883721 0.000000 0.325248
#
# Coordination Sequence:
#
# PCOD9143283 Si02
#       7
#     4   4   4   4   4   4   4
#     4   9  17  32  53  74  98 135 175 205 243 301
#     4  10  18  31  51  74 103 135 167 199 245 309
#     4  10  20  36  52  69 101 143 177 203 245 304
#     4  11  21  33  51  77 106 132 169 213 253 293
#     4   8  17  34  56  79 101 133 166 200 253 315
#     4   9  17  35  59  77 100 131 166 205 254 310
#     4  10  20  33  53  78 101 129 172 219 253 288
#
# _framework density 20.759360000000001
#
# number of rings (size 3 to 8) (size 9 to 14) (size 15 to 20)
#    0.000    2.429    1.429    2.571    0.000    2.571 
#    0.000    5.000    0.000    6.000    0.000    0.000 
#    0.000    0.000    0.000    0.000    0.000    0.000 
#
# Total GULP energy -156287.857122 kJ/mol
# GULP energy per Si atom -5581.709183 kJ/mol
# Density = 2.071211 g / cm^3
# Si number density = 20.759360 Si / 1000 Ang^3
#
#
#
# Elastic Constant Matrix: (Units=GPa)
#
#
# Indices 1 2 3 4 5 6 
#
# 1 151.4759 7.4072 41.6476 0.0000 -32.4871 0.0000
# 2 7.4072 29.4792 -3.3237 0.0000 -3.4587 0.0000
# 3 41.6476 -3.3237 50.9706 0.0000 -28.0634 0.0000
# 4 0.0000 0.0000 0.0000 12.9345 0.0000 -1.8858
# 5 -32.4871 -3.4587 -28.0634 0.0000 28.5961 0.0000
# 6 0.0000 0.0000 0.0000 -1.8858 0.0000 10.5797
#
#
#
# Elastic Compliance Matrix: (Units=1/GPa)
#
#
# Indices 1 2 3 4 5 6 
#
# 1 0.009170 -0.002122 -0.004431 0.000000 0.005814 0.000000
# 2 -0.002122 0.037344 0.011592 0.000000 0.013482 0.000000
# 3 -0.004431 0.011592 0.047851 0.000000 0.043328 0.000000
# 4 0.000000 0.000000 0.000000 0.079376 0.000000 0.014149
# 5 0.005814 0.013482 0.043328 0.000000 0.085726 0.000000
# 6 0.000000 0.000000 0.000000 0.014149 0.000000 0.097042
#
#
# Mechanical properties :
#
#
# Convention : Reuss Voigt Hill
#
# Bulk Modulus (GPa) = 9.57452 35.93199 22.75326
# Shear Modulus (GPa) = 13.11493 22.83502 17.97498
#
# Velocity S-wave (km/s) = 2.51621 3.32020 2.94577
# Velocity P-wave (km/s) = 3.61440 5.66081 4.74914
#
# Compressibility (1/GPa) = 0.10444384
#
# Stress axis : x y z
#
# Youngs Moduli (GPa) = 109.04552 26.77805 20.89838
#
# Poissons Ratio (x) = 0.05682 0.09259
# Poissons Ratio (y) = 0.23136 -0.24225
# Poissons Ratio (z) = 0.48314 -0.31040
#
# Static dielectric constant tensor:
#      x y z
#    x 1.760520 0.000000 -0.030430 
#    y 0.000000 1.779980 0.000000 
#    z -0.030430 0.000000 1.721390 
# 
# From -- ./inp_files/49108.got.cif
#   From: 2010.05.17/outbox.cif.g08.bks.cpg/sg10_25_cif.got.tgz:49108.got - 2010.06.03 11:33:40.
