data_PCOD9143506
_publ_section_title
;
Structure prediction by ZEFSAII (Michael W. Deem and Ramdas Pophale) SiO2 
 PCOD9143506
Probable space group: P 2/M
;
_chemical_formula_sum "Si O2"
_cell_formula_units_Z 32
_cell_length_a 21.270567
_cell_length_b 13.279196
_cell_length_c 21.166554
_cell_angle_alpha 90.000000
_cell_angle_beta 159.820269
_cell_angle_gamma 90.000000
_cell_volume 2062.421942
_symmetry_space_group_name_H-M "P 2/M"
_symmetry_group_IT_number 10
_symmetry_cell_setting 'monoclinic'
loop_
_space_group_symop_operation_xyz
x,y,z
-x,y,-z
-x,-y,-z
x,-y,z
loop_
_atom_site_type_symbol
_atom_site_label
_atom_site_fract_x
_atom_site_fract_y
_atom_site_fract_z
Si Si1 0.795186 0.877314 0.444745
Si Si2 0.222574 0.884344 0.709897
Si Si3 0.714673 0.113866 0.717507
Si Si4 0.557637 0.614254 0.481089
Si Si5 0.297709 0.228604 0.167306
Si Si6 0.213701 0.122403 0.839254
Si Si7 0.440990 0.121372 0.178405
Si Si8 0.070221 0.697966 0.135222
O O1 0.730334 0.840245 0.314132
O O2 0.651446 0.851465 0.363083
O O3 0.003620 0.846251 0.651721
O O4 0.795678 0.000000 0.441388
O O5 0.276639 0.840703 0.829049
O O6 0.000000 0.887311 0.500000
O O7 0.288488 0.000000 0.771030
O O8 0.500000 0.121682 0.500000
O O9 0.729693 0.143087 0.805022
O O10 0.829680 0.195963 0.787298
O O11 0.774432 0.000000 0.761100
O O12 0.500000 0.629584 0.500000
O O13 0.511000 0.500000 0.419306
O O14 0.449780 0.694822 0.337624
O O15 0.774081 0.631245 0.686527
O O16 0.358184 0.179328 0.159340
O O17 0.104173 0.285280 0.985538
O O18 0.213560 0.000000 0.834451
O O19 0.334484 0.147201 0.013366
O O20 0.428068 0.000000 0.175551
O O21 0.000000 0.659455 0.000000
#
# Coordination Sequence:
#
# PCOD9143506 Si02
#       8
#     4   4   4   4   4   4   4   4
#     4   8  14  25  39  56  80 116 159 197 228 252
#     4   7  10  19  37  55  75 107 153 202 232 250
#     4  10  18  32  50  66  90 122 156 189 216 249
#     4  11  21  37  57  76  92 105 135 188 245 291
#     4  11  21  34  48  68  95 121 151 184 225 275
#     4   8  14  25  37  55  82 115 157 199 228 250
#     4  10  20  29  40  61  92 128 162 187 212 259
#     4  10  19  34  51  73  92 113 145 182 228 274
#
# _framework density 15.515738000000001
#
# number of rings (size 3 to 8) (size 9 to 14) (size 15 to 20)
#    0.000    2.625    3.750    1.875    0.000    5.000 
#    0.000    2.500    0.000    0.000    0.000    0.000 
#    0.000    0.000    0.000    2.250    0.000   15.750 
#
# Total GULP energy -178201.245742 kJ/mol
# GULP energy per Si atom -5568.788929 kJ/mol
# Density = 1.548042 g / cm^3
# Si number density = 15.515738 Si / 1000 Ang^3
#
#
#
# Elastic Constant Matrix: (Units=GPa)
#
#
# Indices 1 2 3 4 5 6 
#
# 1 67.4859 12.5404 12.6872 0.0000 11.3276 0.0000
# 2 12.5404 32.7780 7.9466 0.0000 -6.3534 0.0000
# 3 12.6872 7.9466 60.7599 0.0000 7.3775 0.0000
# 4 0.0000 0.0000 0.0000 5.2457 0.0000 -1.6355
# 5 11.3276 -6.3534 7.3775 0.0000 20.1393 0.0000
# 6 0.0000 0.0000 0.0000 -1.6355 0.0000 5.0881
#
#
#
# Elastic Compliance Matrix: (Units=1/GPa)
#
#
# Indices 1 2 3 4 5 6 
#
# 1 0.019050 -0.009607 -0.001101 0.000000 -0.013342 0.000000
# 2 -0.009607 0.039381 -0.005556 0.000000 0.019863 0.000000
# 3 -0.001101 -0.005556 0.018370 0.000000 -0.007863 0.000000
# 4 0.000000 0.000000 0.000000 0.211865 0.000000 0.068102
# 5 -0.013342 0.019863 -0.007863 0.000000 0.066305 0.000000
# 6 0.000000 0.000000 0.000000 0.068102 0.000000 0.218428
#
#
# Mechanical properties :
#
#
# Convention : Reuss Voigt Hill
#
# Bulk Modulus (GPa) = 22.58828 25.26359 23.92593
# Shear Modulus (GPa) = 8.05563 14.61793 11.33678
#
# Velocity S-wave (km/s) = 2.28105 3.07275 2.70601
# Velocity P-wave (km/s) = 4.63977 5.37652 5.02168
#
# Compressibility (1/GPa) = 0.04427075
#
# Stress axis : x y z
#
# Youngs Moduli (GPa) = 52.49430 25.39305 54.43803
#
# Poissons Ratio (x) = 0.24396 0.05995
# Poissons Ratio (y) = 0.50433 0.30246
# Poissons Ratio (z) = 0.05781 0.14109
#
# Static dielectric constant tensor:
#      x y z
#    x 1.529440 0.000000 0.011520 
#    y 0.000000 1.493530 0.000000 
#    z 0.011520 0.000000 1.573440 
# 
# From -- ./inp_files/86372.got.cif
#   From: 2010.05.17/outbox.cif.g08.bks.cpg/sg10_44_cif.got.tgz:86372.got - 2010.06.03 11:33:40.
