data_PCOD9143047
_publ_section_title
;
Structure prediction by ZEFSAII (Michael W. Deem and Ramdas Pophale) SiO2 
 PCOD9143047
Probable space group: P 2/M
;
_chemical_formula_sum "Si O2"
_cell_formula_units_Z 32
_cell_length_a 14.960158
_cell_length_b 7.468528
_cell_length_c 14.726152
_cell_angle_alpha 90.000000
_cell_angle_beta 53.841366
_cell_angle_gamma 90.000000
_cell_volume 1328.440042
_symmetry_space_group_name_H-M "P 2/M"
_symmetry_group_IT_number 10
_symmetry_cell_setting 'monoclinic'
loop_
_space_group_symop_operation_xyz
x,y,z
-x,y,-z
-x,-y,-z
x,-y,z
loop_
_atom_site_type_symbol
_atom_site_label
_atom_site_fract_x
_atom_site_fract_y
_atom_site_fract_z
Si Si1 0.622077 0.719217 0.957293
Si Si2 0.345864 0.286702 0.857141
Si Si3 0.380364 0.795001 0.560938
Si Si4 0.945498 0.281564 0.288213
Si Si5 0.842716 0.718462 0.731754
Si Si6 0.815532 0.299289 0.198849
Si Si7 0.839309 0.297153 0.539410
Si Si8 0.599904 0.800330 0.663182
O O1 0.620036 0.500000 0.959379
O O2 0.720272 0.776603 0.832553
O O3 0.500000 0.776981 0.000000
O O4 0.652113 0.778568 0.040972
O O5 0.328630 0.500000 0.868597
O O6 0.247512 0.216284 0.850682
O O7 0.472765 0.260536 0.747038
O O8 0.500000 0.711224 0.500000
O O9 0.286145 0.692095 0.668886
O O10 0.369020 0.805845 0.461042
O O11 0.382269 0.000000 0.596833
O O12 0.936265 0.500000 0.287646
O O13 0.906742 0.214809 0.212033
O O14 0.873028 0.221859 0.420258
O O15 0.069302 0.233923 0.243466
O O16 0.842262 0.500000 0.727940
O O17 0.879874 0.784153 0.610123
O O18 0.853464 0.500000 0.150749
O O19 0.882324 0.500000 0.509277
O O20 0.706188 0.303890 0.635977
O O21 0.604019 0.000000 0.699267
#
# Coordination Sequence:
#
# PCOD9143047 Si02
#       8
#     4   4   4   4   4   4   4   4
#     4   9  17  31  50  73  98 126 164 208 248 288
#     4  10  20  32  49  73 100 131 169 208 247 290
#     4  10  19  31  45  65  98 136 169 196 235 297
#     4   9  17  29  46  73 104 130 161 202 248 294
#     4   9  17  30  51  75  99 129 167 208 245 289
#     4  10  19  30  46  71 102 130 160 203 248 288
#     4  10  18  30  51  76 100 130 167 204 244 294
#     4  11  21  31  47  73 104 135 165 200 246 298
#
# _framework density 24.088403
#
# number of rings (size 3 to 8) (size 9 to 14) (size 15 to 20)
#    0.000    2.250    2.500    1.500    0.000    4.250 
#    0.000    0.625    0.000    9.375    0.000    0.000 
#    0.000    2.000    0.000    0.000    0.000    0.000 
#
# Total GULP energy -178448.318281 kJ/mol
# GULP energy per Si atom -5576.509946 kJ/mol
# Density = 2.403358 g / cm^3
# Si number density = 24.088403 Si / 1000 Ang^3
#
#
#
# Elastic Constant Matrix: (Units=GPa)
#
#
# Indices 1 2 3 4 5 6 
#
# 1 178.1600 8.0166 54.3579 0.0000 13.3045 0.0000
# 2 8.0166 73.4018 -1.5081 0.0000 5.4816 0.0000
# 3 54.3579 -1.5081 87.9309 0.0000 16.6967 0.0000
# 4 0.0000 0.0000 0.0000 -21.8465 0.0000 6.6464
# 5 13.3045 5.4816 16.6967 0.0000 42.3470 0.0000
# 6 0.0000 0.0000 0.0000 6.6464 0.0000 -12.4243
#
#
#
# Elastic Compliance Matrix: (Units=1/GPa)
#
#
# Indices 1 2 3 4 5 6 
#
# 1 0.006977 -0.000819 -0.004249 0.000000 -0.000411 0.000000
# 2 -0.000819 0.013884 0.001121 0.000000 -0.001982 0.000000
# 3 -0.004249 0.001121 0.014909 0.000000 -0.004688 0.000000
# 4 0.000000 0.000000 0.000000 -0.054672 0.000000 -0.029247
# 5 -0.000411 -0.001982 -0.004688 0.000000 0.025849 0.000000
# 6 0.000000 0.000000 0.000000 -0.029247 0.000000 -0.096134
#
#
# Mechanical properties :
#
#
# Convention : Reuss Voigt Hill
#
# Bulk Modulus (GPa) = 35.87402 51.24727 43.56064
# Shear Modulus (GPa) = -69.44347 20.19033 -24.62657
#
# Velocity S-wave (km/s) = -5.37505 2.89827 -3.20088
# Velocity P-wave (km/s) = 4.85763 5.70270 2.11237
#
# Compressibility (1/GPa) = 0.02787533
#
# Stress axis : x y z
#
# Youngs Moduli (GPa) = 143.33094 72.02498 67.07464
#
# Poissons Ratio (x) = 0.05896 0.28501
# Poissons Ratio (y) = 0.11733 -0.07516
# Poissons Ratio (z) = 0.60902 -0.08070
#
# Static dielectric constant tensor:
#      x y z
#    x 2.005340 0.000000 0.025620 
#    y 0.000000 1.987280 0.000000 
#    z 0.025620 0.000000 1.883210 
# 
# From -- ./inp_files/66475.got.cif
#   From: 2010.05.17/outbox.cif.g08.bks.cpg/sg10_34_cif.got.tgz:66475.got - 2010.06.03 11:33:40.
