data_PCOD9143504
_publ_section_title
;
Structure prediction by ZEFSAII (Michael W. Deem and Ramdas Pophale) SiO2 
 PCOD9143504
Probable space group: P 2/M
;
_chemical_formula_sum "Si O2"
_cell_formula_units_Z 30
_cell_length_a 12.466632
_cell_length_b 14.418349
_cell_length_c 11.796728
_cell_angle_alpha 90.000000
_cell_angle_beta 58.628028
_cell_angle_gamma 90.000000
_cell_volume 1810.444515
_symmetry_space_group_name_H-M "P 2/M"
_symmetry_group_IT_number 10
_symmetry_cell_setting 'monoclinic'
loop_
_space_group_symop_operation_xyz
x,y,z
-x,y,-z
-x,-y,-z
x,-y,z
loop_
_atom_site_type_symbol
_atom_site_label
_atom_site_fract_x
_atom_site_fract_y
_atom_site_fract_z
Si Si1 0.243123 0.606994 0.116641
Si Si2 0.148983 0.600525 0.911194
Si Si3 0.500000 0.278767 0.000000
Si Si4 0.450469 0.240446 0.278298
Si Si5 0.990848 0.393553 0.369651
Si Si6 0.315264 0.728317 0.684236
Si Si7 0.635638 0.104937 0.488777
Si Si8 0.702548 0.388568 0.515283
O O1 0.260051 0.500000 0.146375
O O2 0.373130 0.660527 0.059419
O O3 0.119117 0.647757 0.247926
O O4 0.207293 0.605705 0.003908
O O5 0.187314 0.500000 0.839618
O O6 0.197488 0.684388 0.810795
O O7 0.000000 0.601699 0.000000
O O8 0.517888 0.225883 0.870567
O O9 0.576874 0.257636 0.281606
O O10 0.383745 0.154775 0.379465
O O11 0.363882 0.331952 0.346562
O O12 0.991527 0.500000 0.325986
O O13 0.000000 0.394234 0.500000
O O14 0.849791 0.360137 0.423508
O O15 0.289281 0.823361 0.631599
O O16 0.356822 0.653617 0.566307
O O17 0.500000 0.102126 0.500000
O O18 0.682662 0.000000 0.470881
O O19 0.693141 0.500000 0.532383
#
# Coordination Sequence:
#
# PCOD9143504 Si02
#       8
#     4   4   2   4   4   4   4   4
#     4  10  20  31  44  63  94 142 181 207 242 285
#     4  10  19  31  47  70 104 143 178 208 242 291
#     4  12  21  34  45  66 106 138 166 210 244 310
#     4  10  21  32  48  73 102 131 166 207 254 305
#     4   9  17  30  44  61  87 126 179 218 239 276
#     4  10  18  32  49  74 100 127 166 216 256 303
#     4   8  16  33  56  76  95 120 159 211 267 314
#     4  10  19  30  47  69  97 130 168 215 255 289
#
# _framework density 16.570516999999999
#
# number of rings (size 3 to 8) (size 9 to 14) (size 15 to 20)
#    0.000    2.267    1.333    3.400    0.000    5.867 
#    0.000    0.333    0.000    0.400    0.000    0.000 
#    0.000   48.000    0.000    0.000    0.000    0.000 
#
# Total GULP energy -167100.338238 kJ/mol
# GULP energy per Si atom -5570.011275 kJ/mol
# Density = 1.653280 g / cm^3
# Si number density = 16.570517 Si / 1000 Ang^3
#
#
#
# Elastic Constant Matrix: (Units=GPa)
#
#
# Indices 1 2 3 4 5 6 
#
# 1 76.0384 22.4236 28.1373 0.0000 2.1761 0.0000
# 2 22.4236 103.1599 52.5357 0.0000 -4.9303 0.0000
# 3 28.1373 52.5357 108.2211 0.0000 4.1944 0.0000
# 4 0.0000 0.0000 0.0000 17.5154 0.0000 1.1082
# 5 2.1761 -4.9303 4.1944 0.0000 24.7744 0.0000
# 6 0.0000 0.0000 0.0000 1.1082 0.0000 7.5186
#
#
#
# Elastic Compliance Matrix: (Units=1/GPa)
#
#
# Indices 1 2 3 4 5 6 
#
# 1 0.014796 -0.001773 -0.002941 0.000000 -0.001155 0.000000
# 2 -0.001773 0.013425 -0.006207 0.000000 0.003878 0.000000
# 3 -0.002941 -0.006207 0.013142 0.000000 -0.003202 0.000000
# 4 0.000000 0.000000 0.000000 0.057630 0.000000 -0.008495
# 5 -0.001155 0.003878 -0.003202 0.000000 0.041779 0.000000
# 6 0.000000 0.000000 0.000000 -0.008495 0.000000 0.134256
#
#
# Mechanical properties :
#
#
# Convention : Reuss Voigt Hill
#
# Bulk Modulus (GPa) = 51.22753 54.84586 53.03669
# Shear Modulus (GPa) = 16.48109 22.24986 19.36548
#
# Velocity S-wave (km/s) = 3.15715 3.66831 3.42229
# Velocity P-wave (km/s) = 6.65373 7.14929 6.90596
#
# Compressibility (1/GPa) = 0.01952075
#
# Stress axis : x y z
#
# Youngs Moduli (GPa) = 67.58754 74.48630 76.09151
#
# Poissons Ratio (x) = 0.13210 0.22380
# Poissons Ratio (y) = 0.11986 0.47226
# Poissons Ratio (z) = 0.19879 0.46230
#
# Static dielectric constant tensor:
#      x y z
#    x 1.589720 0.000000 0.009860 
#    y 0.000000 1.547640 0.000000 
#    z 0.009860 0.000000 1.599440 
# 
# From -- ./inp_files/47359.got.cif
#   From: 2010.05.17/outbox.cif.g08.bks.cpg/sg10_24_cif.got.tgz:47359.got - 2010.06.03 11:33:40.
