data_PCOD9143585
_publ_section_title
;
Structure prediction by ZEFSAII (Michael W. Deem and Ramdas Pophale) SiO2 
 PCOD9143585
Probable space group: P 2/M
;
_chemical_formula_sum "Si O2"
_cell_formula_units_Z 28
_cell_length_a 17.685839
_cell_length_b 7.423721
_cell_length_c 14.700544
_cell_angle_alpha 90.000000
_cell_angle_beta 41.206545
_cell_angle_gamma 90.000000
_cell_volume 1271.505058
_symmetry_space_group_name_H-M "P 2/M"
_symmetry_group_IT_number 10
_symmetry_cell_setting 'monoclinic'
loop_
_space_group_symop_operation_xyz
x,y,z
-x,y,-z
-x,-y,-z
x,-y,z
loop_
_atom_site_type_symbol
_atom_site_label
_atom_site_fract_x
_atom_site_fract_y
_atom_site_fract_z
Si Si1 0.805477 0.720603 0.387506
Si Si2 0.209266 0.279523 0.264388
Si Si3 0.974309 0.295856 0.704015
Si Si4 0.868489 0.716981 0.130906
Si Si5 0.590049 0.708728 0.051188
Si Si6 0.225475 0.789898 0.979302
Si Si7 0.660629 0.719694 0.679568
O O1 0.809296 0.500000 0.381917
O O2 0.817037 0.780712 0.273250
O O3 0.695790 0.773856 0.546297
O O4 0.915857 0.783775 0.345578
O O5 0.205460 0.500000 0.262976
O O6 0.092270 0.216281 0.322460
O O7 0.240283 0.228967 0.338519
O O8 0.317652 0.218668 0.104533
O O9 0.007868 0.500000 0.647524
O O10 0.876075 0.301763 0.870968
O O11 0.873162 0.500000 0.130124
O O12 0.796406 0.765006 0.107120
O O13 0.000000 0.780818 0.000000
O O14 0.575482 0.500000 0.038280
O O15 0.654829 0.719840 0.089205
O O16 0.462999 0.785877 0.174658
O O17 0.218781 0.000000 0.006944
O O18 0.656127 0.500000 0.684340
#
# Coordination Sequence:
#
# PCOD9143585 Si02
#       7
#     4   4   4   4   4   4   4
#     4   9  17  28  46  73 103 130 159 195 241 293
#     4   8  14  24  45  74 102 129 159 197 241 282
#     4   9  16  30  49  73 103 132 158 192 246 296
#     4  10  18  32  53  73  98 129 158 195 245 297
#     4   9  17  31  51  72  99 132 164 198 242 286
#     4  11  21  32  50  75  98 122 164 212 245 280
#     4   9  16  27  46  76 104 127 162 205 237 278
#
# _framework density 22.021148
#
# number of rings (size 3 to 8) (size 9 to 14) (size 15 to 20)
#    0.000    2.714    1.429    2.571    0.000    2.571 
#    0.000    3.571    0.000   12.857    0.000    4.000 
#    0.000    0.000    0.000    0.000    0.000    0.000 
#
# Total GULP energy -156283.069049 kJ/mol
# GULP energy per Si atom -5581.538180 kJ/mol
# Density = 2.197103 g / cm^3
# Si number density = 22.021148 Si / 1000 Ang^3
#
#
#
# Elastic Constant Matrix: (Units=GPa)
#
#
# Indices 1 2 3 4 5 6 
#
# 1 92.3733 -14.0190 22.7169 0.0000 24.0966 0.0000
# 2 -14.0190 76.4796 -2.0519 0.0000 0.4045 0.0000
# 3 22.7169 -2.0519 47.7687 0.0000 29.3410 0.0000
# 4 0.0000 0.0000 0.0000 -21.6285 0.0000 3.3029
# 5 24.0966 0.4045 29.3410 0.0000 31.5610 0.0000
# 6 0.0000 0.0000 0.0000 3.3029 0.0000 -72.9647
#
#
#
# Elastic Compliance Matrix: (Units=1/GPa)
#
#
# Indices 1 2 3 4 5 6 
#
# 1 0.014027 0.002631 0.000096 0.000000 -0.010833 0.000000
# 2 0.002631 0.013619 0.001573 0.000000 -0.003646 0.000000
# 3 0.000096 0.001573 0.048985 0.000000 -0.045633 0.000000
# 4 0.000000 0.000000 0.000000 -0.046557 0.000000 -0.002107
# 5 -0.010833 -0.003646 -0.045633 0.000000 0.082425 0.000000
# 6 0.000000 0.000000 0.000000 -0.002107 0.000000 -0.013801
#
#
# Mechanical properties :
#
#
# Convention : Reuss Voigt Hill
#
# Bulk Modulus (GPa) = 11.73264 25.54594 18.63929
# Shear Modulus (GPa) = 42.19084 1.39195 21.79140
#
# Velocity S-wave (km/s) = 4.38188 0.79591 3.14915
# Velocity P-wave (km/s) = 5.56243 3.53135 4.65892
#
# Compressibility (1/GPa) = 0.08523227
#
# Stress axis : x y z
#
# Youngs Moduli (GPa) = 71.29032 73.42596 20.41426
#
# Poissons Ratio (x) = -0.19319 -0.00196
# Poissons Ratio (y) = -0.18757 -0.03212
# Poissons Ratio (z) = -0.00684 -0.11552
#
# Static dielectric constant tensor:
#      x y z
#    x 1.788840 0.000000 0.001970 
#    y 0.000000 1.882550 0.000000 
#    z 0.001970 0.000000 1.797820 
# 
# From -- ./inp_files/68574.got.cif
#   From: 2010.05.17/outbox.cif.g08.bks.cpg/sg10_35_cif.got.tgz:68574.got - 2010.06.03 11:33:40.
