data_PCOD9143446
_publ_section_title
;
Structure prediction by ZEFSAII (Michael W. Deem and Ramdas Pophale) SiO2 
 PCOD9143446
Probable space group: P 2/M
;
_chemical_formula_sum "Si O2"
_cell_formula_units_Z 28
_cell_length_a 15.218611
_cell_length_b 7.471487
_cell_length_c 12.779434
_cell_angle_alpha 90.000000
_cell_angle_beta 59.205421
_cell_angle_gamma 90.000000
_cell_volume 1248.219782
_symmetry_space_group_name_H-M "P 2/M"
_symmetry_group_IT_number 10
_symmetry_cell_setting 'monoclinic'
loop_
_space_group_symop_operation_xyz
x,y,z
-x,y,-z
-x,-y,-z
x,-y,z
loop_
_atom_site_type_symbol
_atom_site_label
_atom_site_fract_x
_atom_site_fract_y
_atom_site_fract_z
Si Si1 0.394602 0.716078 0.011888
Si Si2 0.222160 0.718855 0.508803
Si Si3 0.218791 0.281623 0.276264
Si Si4 0.304523 0.209651 0.847322
Si Si5 0.612911 0.293753 0.427300
Si Si6 0.992967 0.706772 0.679686
Si Si7 0.077438 0.216859 0.044933
O O1 0.394942 0.500000 0.015367
O O2 0.297771 0.779123 0.139476
O O3 0.500000 0.778174 0.000000
O O4 0.378329 0.767313 0.901592
O O5 0.218951 0.500000 0.517826
O O6 0.253132 0.765978 0.371880
O O7 0.301968 0.784053 0.546749
O O8 0.106130 0.783626 0.597877
O O9 0.216361 0.500000 0.272306
O O10 0.103623 0.216479 0.324242
O O11 0.346339 0.292524 0.715671
O O12 0.293033 0.000000 0.832114
O O13 0.192305 0.278379 0.948822
O O14 0.500000 0.210852 0.500000
O O15 0.600617 0.500000 0.469798
O O16 0.000901 0.500000 0.640603
O O17 0.960740 0.713966 0.820525
O O18 0.078148 0.000000 0.051048
O O19 0.000000 0.268690 0.000000
#
# Coordination Sequence:
#
# PCOD9143446 Si02
#       7
#     4   4   4   4   4   4   4
#     4  10  21  36  60  88 112 144 189 237 282 335
#     4   9  18  32  53  83 114 144 181 229 284 332
#     4   9  17  31  53  83 113 140 175 225 282 333
#     4  11  23  39  59  82 115 151 186 233 283 335
#     4  10  22  38  59  83 110 146 189 233 275 330
#     4  10  18  31  54  83 110 139 180 231 279 330
#     4  10  21  36  54  77 110 152 189 225 274 330
#
# _framework density 22.431947999999998
#
# number of rings (size 3 to 8) (size 9 to 14) (size 15 to 20)
#    0.000    2.143    1.429    1.714    2.000    3.143 
#    0.000    0.000    0.000    3.429    0.000    0.000 
#    0.000    0.000    0.000    0.000    0.000    0.000 
#
# Total GULP energy -156512.753375 kJ/mol
# GULP energy per Si atom -5589.741192 kJ/mol
# Density = 2.238089 g / cm^3
# Si number density = 22.431948 Si / 1000 Ang^3
#
#
#
# Elastic Constant Matrix: (Units=GPa)
#
#
# Indices 1 2 3 4 5 6 
#
# 1 167.1963 3.0730 49.6566 0.0000 21.0603 0.0000
# 2 3.0730 66.8828 -8.8599 0.0000 -7.1822 0.0000
# 3 49.6566 -8.8599 96.6377 0.0000 20.4102 0.0000
# 4 0.0000 0.0000 0.0000 113.6248 0.0000 45.6267
# 5 21.0603 -7.1822 20.4102 0.0000 36.0267 0.0000
# 6 0.0000 0.0000 0.0000 45.6267 0.0000 10.1611
#
#
#
# Elastic Compliance Matrix: (Units=1/GPa)
#
#
# Indices 1 2 3 4 5 6 
#
# 1 0.007310 -0.001054 -0.003301 0.000000 -0.002613 0.000000
# 2 -0.001054 0.015494 0.001340 0.000000 0.002946 0.000000
# 3 -0.003301 0.001340 0.013294 0.000000 -0.005335 0.000000
# 4 0.000000 0.000000 0.000000 -0.010959 0.000000 0.049207
# 5 -0.002613 0.002946 -0.005335 0.000000 0.032894 0.000000
# 6 0.000000 0.000000 0.000000 0.049207 0.000000 -0.122541
#
#
# Mechanical properties :
#
#
# Convention : Reuss Voigt Hill
#
# Bulk Modulus (GPa) = 33.25833 46.49512 39.87673
# Shear Modulus (GPa) = -103.18511 51.08567 -26.04972
#
# Velocity S-wave (km/s) = -6.78963 4.77735 -3.41145
# Velocity P-wave (km/s) = 6.82692 7.15562 1.51593
#
# Compressibility (1/GPa) = 0.03006765
#
# Stress axis : x y z
#
# Youngs Moduli (GPa) = 136.80170 64.54214 75.22461
#
# Poissons Ratio (x) = 0.06801 0.24830
# Poissons Ratio (y) = 0.14415 -0.10079
# Poissons Ratio (z) = 0.45156 -0.08647
#
# Static dielectric constant tensor:
#      x y z
#    x 1.818790 0.000000 -0.016190 
#    y 0.000000 1.847040 0.000000 
#    z -0.016190 0.000000 1.763250 
# 
# From -- ./inp_files/49626.got.cif
#   From: 2010.05.17/outbox.cif.g08.bks.cpg/sg10_25_cif.got.tgz:49626.got - 2010.06.03 11:33:40.
