data_PCOD9143408
_publ_section_title
;
Structure prediction by ZEFSAII (Michael W. Deem and Ramdas Pophale) SiO2 
 PCOD9143408
Probable space group: P 2/M
;
_chemical_formula_sum "Si O2"
_cell_formula_units_Z 28
_cell_length_a 21.796119
_cell_length_b 7.677090
_cell_length_c 12.151356
_cell_angle_alpha 90.000000
_cell_angle_beta 141.016151
_cell_angle_gamma 90.000000
_cell_volume 1279.148978
_symmetry_space_group_name_H-M "P 2/M"
_symmetry_group_IT_number 10
_symmetry_cell_setting 'monoclinic'
loop_
_space_group_symop_operation_xyz
x,y,z
-x,y,-z
-x,-y,-z
x,-y,z
loop_
_atom_site_type_symbol
_atom_site_label
_atom_site_fract_x
_atom_site_fract_y
_atom_site_fract_z
Si Si1 0.498549 0.712884 0.127744
Si Si2 0.813704 0.289058 0.378971
Si Si3 0.022976 0.202583 0.654064
Si Si4 0.110179 0.198420 0.152196
Si Si5 0.290903 0.293941 0.556315
Si Si6 0.307658 0.286766 0.995231
Si Si7 0.804243 0.696983 0.957542
O O1 0.491151 0.500000 0.116680
O O2 0.601622 0.771108 0.324559
O O3 0.500000 0.763529 0.000000
O O4 0.407233 0.770250 0.074947
O O5 0.818828 0.500000 0.386483
O O6 0.735067 0.229733 0.358100
O O7 0.778353 0.233373 0.209149
O O8 0.917212 0.217296 0.561235
O O9 0.000000 0.271148 0.500000
O O10 0.051676 0.000000 0.687923
O O11 0.103356 0.305343 0.831908
O O12 0.196466 0.269661 0.349150
O O13 0.156239 0.206251 0.094355
O O14 0.096854 0.000000 0.169884
O O15 0.000000 0.278248 0.000000
O O16 0.303775 0.500000 0.584247
O O17 0.307171 0.500000 0.998303
O O18 0.281242 0.230294 0.082496
O O19 0.778811 0.500000 0.887512
#
# Coordination Sequence:
#
# PCOD9143408 Si02
#       7
#     4   4   4   4   4   4   4
#     4   9  15  29  55  89 124 151 181 229 285 338
#     4  10  18  31  53  83 115 146 185 232 279 331
#     4  11  22  33  48  76 114 152 186 223 279 347
#     4  11  25  44  62  79 110 154 196 240 290 345
#     4  10  20  34  60  91 115 147 192 238 283 334
#     4   9  17  30  52  85 119 147 178 226 286 335
#     4  11  22  37  59  83 112 148 192 242 285 335
#
# _framework density 21.889554
#
# number of rings (size 3 to 8) (size 9 to 14) (size 15 to 20)
#    0.000    1.857    2.857    2.143    0.000    4.571 
#    0.000    0.714    0.000    7.286    0.000    0.000 
#    0.000    0.000    0.000    0.000    0.000    0.000 
#
# Total GULP energy -156191.455588 kJ/mol
# GULP energy per Si atom -5578.266271 kJ/mol
# Density = 2.183973 g / cm^3
# Si number density = 21.889554 Si / 1000 Ang^3
#
#
#
# Elastic Constant Matrix: (Units=GPa)
#
#
# Indices 1 2 3 4 5 6 
#
# 1 139.8025 0.2081 43.9186 0.0000 20.8031 0.0000
# 2 0.2081 37.4035 -6.5844 0.0000 2.1130 0.0000
# 3 43.9186 -6.5844 71.9781 0.0000 15.2015 0.0000
# 4 0.0000 0.0000 0.0000 -264.6142 0.0000 -51.3113
# 5 20.8031 2.1130 15.2015 0.0000 40.8804 0.0000
# 6 0.0000 0.0000 0.0000 -51.3113 0.0000 32.3454
#
#
#
# Elastic Compliance Matrix: (Units=1/GPa)
#
#
# Indices 1 2 3 4 5 6 
#
# 1 0.009157 -0.000792 -0.005084 0.000000 -0.002729 0.000000
# 2 -0.000792 0.027484 0.003486 0.000000 -0.002314 0.000000
# 3 -0.005084 0.003486 0.018238 0.000000 -0.004375 0.000000
# 4 0.000000 0.000000 0.000000 -0.002890 0.000000 -0.004585
# 5 -0.002729 -0.002314 -0.004375 0.000000 0.027597 0.000000
# 6 0.000000 0.000000 0.000000 -0.004585 0.000000 0.023643
#
#
# Mechanical properties :
#
#
# Convention : Reuss Voigt Hill
#
# Bulk Modulus (GPa) = 19.95982 36.02985 27.99484
# Shear Modulus (GPa) = 40.09372 -24.16823 7.96275
#
# Velocity S-wave (km/s) = 4.28441 -3.32640 1.90934
# Velocity P-wave (km/s) = 5.79768 1.31996 4.20448
#
# Compressibility (1/GPa) = 0.05010066
#
# Stress axis : x y z
#
# Youngs Moduli (GPa) = 109.20446 36.38450 54.83115
#
# Poissons Ratio (x) = 0.02881 0.27874
# Poissons Ratio (y) = 0.08646 -0.19114
# Poissons Ratio (z) = 0.55514 -0.12684
#
# Static dielectric constant tensor:
#      x y z
#    x 1.886390 0.000000 0.032730 
#    y 0.000000 1.802670 0.000000 
#    z 0.032730 0.000000 1.789380 
# 
# From -- ./inp_files/55411.got.cif
#   From: 2010.05.17/outbox.cif.g08.bks.cpg/sg10_28_cif.got.tgz:55411.got - 2010.06.03 11:33:40.
