data_PCOD9143894
_publ_section_title
;
Structure prediction by ZEFSAII (Michael W. Deem and Ramdas Pophale) SiO2 
 PCOD9143894
Probable space group: P 2/M
;
_chemical_formula_sum "Si O2"
_cell_formula_units_Z 28
_cell_length_a 8.980437
_cell_length_b 14.807203
_cell_length_c 14.175453
_cell_angle_alpha 90.000000
_cell_angle_beta 55.301302
_cell_angle_gamma 90.000000
_cell_volume 1549.751959
_symmetry_space_group_name_H-M "P 2/M"
_symmetry_group_IT_number 10
_symmetry_cell_setting 'monoclinic'
loop_
_space_group_symop_operation_xyz
x,y,z
-x,y,-z
-x,-y,-z
x,-y,z
loop_
_atom_site_type_symbol
_atom_site_label
_atom_site_fract_x
_atom_site_fract_y
_atom_site_fract_z
Si Si1 0.212827 0.103479 0.947937
Si Si2 0.015108 0.000000 0.327229
Si Si3 0.625067 0.180040 0.545259
Si Si4 0.790827 0.602198 0.045588
Si Si5 0.283450 0.247747 0.078550
Si Si6 0.324433 0.255236 0.763937
Si Si7 0.953978 0.199060 0.297050
Si Si8 0.275088 0.000000 0.396833
O O1 0.308960 0.167737 0.837060
O O2 0.277582 0.000000 0.926736
O O3 0.234880 0.157619 0.037077
O O4 0.000000 0.102776 0.000000
O O5 0.977125 0.090390 0.283023
O O6 0.205323 0.000000 0.314563
O O7 0.880452 0.000000 0.465600
O O8 0.500000 0.155023 0.500000
O O9 0.512224 0.255480 0.640283
O O10 0.823067 0.208515 0.435819
O O11 0.629754 0.093208 0.611141
O O12 0.724352 0.500000 0.056899
O O13 0.695899 0.657821 0.163466
O O14 0.774695 0.663947 0.959008
O O15 0.000000 0.599096 0.000000
O O16 0.156494 0.239988 0.217231
O O17 0.500000 0.250379 0.000000
O O18 0.161953 0.241052 0.747114
#
# Coordination Sequence:
#
# PCOD9143894 Si02
#       8
#     4   2   4   4   4   4   4   2
#     4  10  20  33  52  74 105 151 185 223 267 303
#     4   9  20  28  49  63 105 162 179 216 255 299
#     4   9  19  30  54  76 102 141 184 231 268 294
#     4  10  20  39  64  82 100 136 178 225 279 326
#     4  11  22  36  54  80 113 141 179 221 273 332
#     4  10  18  33  56  79 102 131 180 227 266 317
#     4  10  19  35  48  75 111 142 181 221 260 313
#     4   9  17  34  40  70 105 146 205 209 239 311
#
# _framework density 18.067408
#
# number of rings (size 3 to 8) (size 9 to 14) (size 15 to 20)
#    0.000    2.143    2.857    1.071    3.000    4.000 
#    0.000    0.000    0.000    4.714    0.000    1.000 
#    0.000    0.000    0.000    0.000    0.000    0.000 
#
# Total GULP energy -155968.694525 kJ/mol
# GULP energy per Si atom -5570.310519 kJ/mol
# Density = 1.802629 g / cm^3
# Si number density = 18.067408 Si / 1000 Ang^3
#
#
#
# Elastic Constant Matrix: (Units=GPa)
#
#
# Indices 1 2 3 4 5 6 
#
# 1 31.8749 15.7779 20.4645 0.0000 -16.9937 0.0000
# 2 15.7779 111.5961 33.3329 0.0000 -8.4385 0.0000
# 3 20.4645 33.3329 105.5712 0.0000 -31.1530 0.0000
# 4 0.0000 0.0000 0.0000 11.1230 0.0000 -7.6584
# 5 -16.9937 -8.4385 -31.1530 0.0000 22.1738 0.0000
# 6 0.0000 0.0000 0.0000 -7.6584 0.0000 -3.7696
#
#
#
# Elastic Compliance Matrix: (Units=1/GPa)
#
#
# Indices 1 2 3 4 5 6 
#
# 1 0.056911 -0.005919 0.005198 0.000000 0.048666 0.000000
# 2 -0.005919 0.010524 -0.003984 0.000000 -0.006128 0.000000
# 3 0.005198 -0.003984 0.017852 0.000000 0.027548 0.000000
# 4 0.000000 0.000000 0.000000 0.037479 0.000000 -0.076142
# 5 0.048666 -0.006128 0.027548 0.000000 0.118767 0.000000
# 6 0.000000 0.000000 0.000000 -0.076142 0.000000 -0.110588
#
#
# Mechanical properties :
#
#
# Convention : Reuss Voigt Hill
#
# Bulk Modulus (GPa) = 13.17929 43.13253 28.15591
# Shear Modulus (GPa) = 30.18480 17.86989 24.02735
#
# Velocity S-wave (km/s) = 4.09183 3.14836 3.65070
# Velocity P-wave (km/s) = 5.44375 6.09435 5.77821
#
# Compressibility (1/GPa) = 0.07587664
#
# Stress axis : x y z
#
# Youngs Moduli (GPa) = 17.57134 95.01829 56.01677
#
# Poissons Ratio (x) = 0.56240 -0.29115
# Poissons Ratio (y) = 0.10400 0.22317
# Poissons Ratio (z) = -0.09133 0.37855
#
# Static dielectric constant tensor:
#      x y z
#    x 1.671640 0.000000 -0.025170 
#    y 0.000000 1.590330 0.000000 
#    z -0.025170 0.000000 1.680300 
# 
# From -- ./inp_files/51426.got.cif
#   From: 2010.05.17/outbox.cif.g08.bks.cpg/sg10_26_cif.got.tgz:51426.got - 2010.06.03 11:33:40.
