data_PCOD9143986
_publ_section_title
;
Structure prediction by ZEFSAII (Michael W. Deem and Ramdas Pophale) SiO2 
 PCOD9143986
Probable space group: P 2/M
;
_chemical_formula_sum "Si O2"
_cell_formula_units_Z 30
_cell_length_a 17.728979
_cell_length_b 13.990640
_cell_length_c 17.292833
_cell_angle_alpha 90.000000
_cell_angle_beta 21.524255
_cell_angle_gamma 90.000000
_cell_volume 1573.726752
_symmetry_space_group_name_H-M "P 2/M"
_symmetry_group_IT_number 10
_symmetry_cell_setting 'monoclinic'
loop_
_space_group_symop_operation_xyz
x,y,z
-x,y,-z
-x,-y,-z
x,-y,z
loop_
_atom_site_type_symbol
_atom_site_label
_atom_site_fract_x
_atom_site_fract_y
_atom_site_fract_z
Si Si1 0.427584 0.288592 0.232797
Si Si2 0.806937 0.895641 0.522443
Si Si3 0.163875 0.387881 0.618702
Si Si4 0.438048 0.722644 0.471896
Si Si5 0.783448 0.249544 0.014596
Si Si6 0.500000 0.730660 0.000000
Si Si7 0.178793 0.893753 0.264615
Si Si8 0.855350 0.890250 0.297954
O O1 0.311866 0.189476 0.325562
O O2 0.282350 0.348279 0.429467
O O3 0.628554 0.257944 0.089672
O O4 0.460136 0.329950 0.116044
O O5 0.766188 0.890443 0.470341
O O6 0.048390 0.885025 0.309824
O O7 0.744093 0.000000 0.611195
O O8 0.129912 0.500000 0.644844
O O9 0.308112 0.360008 0.553565
O O10 0.954690 0.330020 0.833579
O O11 0.500000 0.701971 0.500000
O O12 0.291692 0.817386 0.607909
O O13 0.638829 0.735455 0.227006
O O14 0.918901 0.155527 0.904897
O O15 0.320993 0.803837 0.143889
O O16 0.000000 0.894019 0.500000
O O17 0.275808 0.000000 0.172508
O O18 0.860699 0.000000 0.265100
#
# Coordination Sequence:
#
# PCOD9143986 Si02
#       8
#     4   4   4   4   4   2   4   4
#     4  11  22  38  58  89 119 155 200 249 299 350
#     4  10  18  34  54  79 119 160 200 243 278 329
#     4  10  23  44  66  86 113 148 193 248 307 367
#     4  10  22  40  63  94 128 151 187 242 294 352
#     4  10  20  39  63  85 116 158 203 235 295 349
#     4  12  23  30  59  84 116 160 200 242 300 350
#     4  10  20  32  47  75 118 158 199 243 284 332
#     4  10  20  35  56  86 124 168 208 238 273 332
#
# _framework density 19.063030000000001
#
# number of rings (size 3 to 8) (size 9 to 14) (size 15 to 20)
#    0.000    1.733    5.333    1.000    0.000    6.400 
#    0.000    1.667    0.000    0.800    0.000    0.000 
#    0.000    0.000    0.000    0.000    0.000    0.000 
#
# Total GULP energy -167237.253551 kJ/mol
# GULP energy per Si atom -5574.575118 kJ/mol
# Density = 1.901964 g / cm^3
# Si number density = 19.063030 Si / 1000 Ang^3
#
#
#
# Elastic Constant Matrix: (Units=GPa)
#
#
# Indices 1 2 3 4 5 6 
#
# 1 120.9419 10.4276 29.6803 0.0000 8.0710 0.0000
# 2 10.4276 81.2063 25.8586 0.0000 -5.5502 0.0000
# 3 29.6803 25.8586 81.0055 0.0000 -4.7187 0.0000
# 4 0.0000 0.0000 0.0000 -12.3969 0.0000 -8.1996
# 5 8.0710 -5.5502 -4.7187 0.0000 20.8690 0.0000
# 6 0.0000 0.0000 0.0000 -8.1996 0.0000 7.1514
#
#
#
# Elastic Compliance Matrix: (Units=1/GPa)
#
#
# Indices 1 2 3 4 5 6 
#
# 1 0.009498 -0.000379 -0.003627 0.000000 -0.004594 0.000000
# 2 -0.000379 0.013874 -0.004121 0.000000 0.002904 0.000000
# 3 -0.003627 -0.004121 0.015207 0.000000 0.003745 0.000000
# 4 0.000000 0.000000 0.000000 -0.045875 0.000000 -0.052599
# 5 -0.004594 0.002904 0.003745 0.000000 0.051314 0.000000
# 6 0.000000 0.000000 0.000000 -0.052599 0.000000 0.079524
#
#
# Mechanical properties :
#
#
# Convention : Reuss Voigt Hill
#
# Bulk Modulus (GPa) = 44.79037 46.12076 45.45556
# Shear Modulus (GPa) = 33.95919 17.60385 25.78152
#
# Velocity S-wave (km/s) = 4.22526 3.04214 3.68154
# Velocity P-wave (km/s) = 6.88119 6.04862 6.47829
#
# Compressibility (1/GPa) = 0.02232623
#
# Stress axis : x y z
#
# Youngs Moduli (GPa) = 105.28900 72.07914 65.75816
#
# Poissons Ratio (x) = 0.02730 0.23848
# Poissons Ratio (y) = 0.03988 0.27098
# Poissons Ratio (z) = 0.38185 0.29702
#
# Static dielectric constant tensor:
#      x y z
#    x 1.706270 0.000000 0.015850 
#    y 0.000000 1.646610 0.000000 
#    z 0.015850 0.000000 1.703800 
# 
# From -- ./inp_files/79060.got.cif
#   From: 2010.05.17/outbox.cif.g08.bks.cpg/sg10_40_cif.got.tgz:79060.got - 2010.06.03 11:33:40.
