data_PCOD9143795
_publ_section_title
;
Structure prediction by ZEFSAII (Michael W. Deem and Ramdas Pophale) SiO2 
 PCOD9143795
Probable space group: P 2/M
;
_chemical_formula_sum "Si O2"
_cell_formula_units_Z 20
_cell_length_a 9.459635
_cell_length_b 8.275113
_cell_length_c 26.341464
_cell_angle_alpha 90.000000
_cell_angle_beta 151.647121
_cell_angle_gamma 90.000000
_cell_volume 979.244067
_symmetry_space_group_name_H-M "P 2/M"
_symmetry_group_IT_number 10
_symmetry_cell_setting 'monoclinic'
loop_
_space_group_symop_operation_xyz
x,y,z
-x,y,-z
-x,-y,-z
x,-y,z
loop_
_atom_site_type_symbol
_atom_site_label
_atom_site_fract_x
_atom_site_fract_y
_atom_site_fract_z
Si Si1 0.841273 0.186440 0.691349
Si Si2 0.125680 0.313371 0.679576
Si Si3 0.695654 0.000000 0.111685
Si Si4 0.900552 0.000000 0.027277
Si Si5 0.795612 0.189007 0.479915
Si Si6 0.171189 0.678975 0.108089
O O1 0.535249 0.257334 0.615952
O O2 0.981113 0.278526 0.688335
O O3 0.090044 0.153634 0.812819
O O4 0.778746 0.000000 0.653442
O O5 0.071166 0.500000 0.648756
O O6 0.480886 0.288802 0.792136
O O7 0.972335 0.205970 0.588213
O O8 0.500000 0.000000 0.000000
O O9 0.453690 0.000000 0.080335
O O10 0.031978 0.834561 0.091809
O O11 0.000000 0.000000 0.000000
O O12 0.000000 0.261403 0.500000
O O13 0.749262 0.000000 0.452155
O O14 0.141588 0.500000 0.122602
O O15 0.000000 0.669816 0.000000
#
# Coordination Sequence:
#
# PCOD9143795 Si02
#       6
#     4   4   2   2   4   4
#     4   9  20  38  59  85 116 156 199 251 295 357
#     4  11  22  36  60  90 121 158 204 250 298 364
#     4  10  22  38  59  91 121 151 203 253 302 370
#     4  10  18  32  59  83 110 159 198 241 300 356
#     4  10  22  39  59  85 120 160 198 248 307 361
#     4   9  19  33  52  87 123 151 197 253 299 353
#
# _framework density 20.423915999999998
#
# number of rings (size 3 to 8) (size 9 to 14) (size 15 to 20)
#    0.600    1.600    0.000    3.600    2.800    5.200 
#    0.000    0.000    0.000    2.400    0.000    0.000 
#    0.000    0.000    0.000    0.000    0.000    0.000 
#
# Total GULP energy -111450.311886 kJ/mol
# GULP energy per Si atom -5572.515594 kJ/mol
# Density = 2.037743 g / cm^3
# Si number density = 20.423916 Si / 1000 Ang^3
#
#
#
# Elastic Constant Matrix: (Units=GPa)
#
#
# Indices 1 2 3 4 5 6 
#
# 1 55.1963 1.8401 60.4626 0.0000 1.8843 0.0000
# 2 1.8401 74.0994 7.1348 0.0000 18.6172 0.0000
# 3 60.4626 7.1348 134.3678 0.0000 24.3629 0.0000
# 4 0.0000 0.0000 0.0000 -0.0896 0.0000 20.1885
# 5 1.8843 18.6172 24.3629 0.0000 34.0364 0.0000
# 6 0.0000 0.0000 0.0000 20.1885 0.0000 -1.0633
#
#
#
# Elastic Compliance Matrix: (Units=1/GPa)
#
#
# Indices 1 2 3 4 5 6 
#
# 1 0.040060 -0.002482 -0.020384 0.000000 0.013730 0.000000
# 2 -0.002482 0.015880 0.002095 0.000000 -0.010048 0.000000
# 3 -0.020384 0.002095 0.018968 0.000000 -0.013595 0.000000
# 4 0.000000 0.000000 0.000000 0.002609 0.000000 0.049545
# 5 0.013730 -0.010048 -0.013595 0.000000 0.043848 0.000000
# 6 0.000000 0.000000 0.000000 0.049545 0.000000 0.000220
#
#
# Mechanical properties :
#
#
# Convention : Reuss Voigt Hill
#
# Bulk Modulus (GPa) = 29.96904 44.72652 37.34778
# Shear Modulus (GPa) = 28.69482 19.52510 24.10996
#
# Velocity S-wave (km/s) = 3.75235 3.09527 3.43953
# Velocity P-wave (km/s) = 5.78609 5.89244 5.83951
#
# Compressibility (1/GPa) = 0.03336777
#
# Stress axis : x y z
#
# Youngs Moduli (GPa) = 24.96271 62.97271 52.71980
#
# Poissons Ratio (x) = 0.15628 1.07463
# Poissons Ratio (y) = 0.06195 -0.11047
# Poissons Ratio (z) = 0.50883 -0.13196
#
# Static dielectric constant tensor:
#      x y z
#    x 1.734500 0.000000 -0.003540 
#    y 0.000000 1.786280 0.000000 
#    z -0.003540 0.000000 1.756850 
# 
# From -- ./inp_files/91922.got.cif
#   From: 2010.05.17/outbox.cif.g08.bks.cpg/sg10_46_cif.got.tgz:91922.got - 2010.06.03 11:33:40.
