data_PCOD9143426
_publ_section_title
;
Structure prediction by ZEFSAII (Michael W. Deem and Ramdas Pophale) SiO2 
 PCOD9143426
Probable space group: P 2/M
;
_chemical_formula_sum "Si O2"
_cell_formula_units_Z 30
_cell_length_a 14.061791
_cell_length_b 15.636116
_cell_length_c 20.782730
_cell_angle_alpha 90.000000
_cell_angle_beta 18.123233
_cell_angle_gamma 90.000000
_cell_volume 1421.408283
_symmetry_space_group_name_H-M "P 2/M"
_symmetry_group_IT_number 10
_symmetry_cell_setting 'monoclinic'
loop_
_space_group_symop_operation_xyz
x,y,z
-x,y,-z
-x,-y,-z
x,-y,z
loop_
_atom_site_type_symbol
_atom_site_label
_atom_site_fract_x
_atom_site_fract_y
_atom_site_fract_z
Si Si1 0.489836 0.264766 0.886026
Si Si2 0.000000 0.362830 0.500000
Si Si3 0.694575 0.904311 0.523844
Si Si4 0.387429 0.594375 0.370613
Si Si5 0.181231 0.403895 0.165208
Si Si6 0.092257 0.095676 0.838120
Si Si7 0.254088 0.904832 0.075343
Si Si8 0.351120 0.768792 0.826865
O O1 0.815882 0.309515 0.672065
O O2 0.432257 0.248061 0.848479
O O3 0.235894 0.327834 0.079472
O O4 0.481717 0.174118 0.926078
O O5 0.758733 0.408618 0.607988
O O6 0.452801 0.900268 0.619705
O O7 0.594176 0.831772 0.637405
O O8 0.028720 0.895284 0.280070
O O9 0.664617 0.000000 0.571170
O O10 0.521961 0.500000 0.296491
O O11 0.615082 0.675557 0.227325
O O12 0.110540 0.606430 0.600378
O O13 0.160687 0.500000 0.149567
O O14 0.500000 0.402211 0.000000
O O15 0.961812 0.101410 0.849811
O O16 0.996533 0.000000 0.922656
O O17 0.951679 0.174042 0.968422
O O18 0.391515 0.000000 0.987037
#
# Coordination Sequence:
#
# PCOD9143426 Si02
#       8
#     4   2   4   4   4   4   4   4
#     4  10  20  33  49  73 105 135 166 210 255 304
#     4  10  19  32  51  76 100 132 163 208 261 298
#     4  10  18  31  54  79 103 134 172 214 254 295
#     4  10  20  33  51  75 102 129 165 207 252 302
#     4  10  19  33  54  77  95 123 164 213 261 297
#     4   9  17  31  52  79 107 134 170 212 252 295
#     4   9  18  32  51  76 106 138 172 209 251 296
#     4  10  20  30  46  76 109 138 162 202 259 303
#
# _framework density 21.105829
#
# number of rings (size 3 to 8) (size 9 to 14) (size 15 to 20)
#    0.000    2.267    1.333    2.200    0.000    5.333 
#    0.000    0.333    0.000    3.600    0.000    0.000 
#    0.000   19.200    0.000    0.000    0.000    0.000 
#
# Total GULP energy -167168.207040 kJ/mol
# GULP energy per Si atom -5572.273568 kJ/mol
# Density = 2.105779 g / cm^3
# Si number density = 21.105829 Si / 1000 Ang^3
#
#
#
# Elastic Constant Matrix: (Units=GPa)
#
#
# Indices 1 2 3 4 5 6 
#
# 1 51.9298 10.9774 -5.4046 0.0000 11.4743 0.0000
# 2 10.9774 177.2484 68.3366 0.0000 17.7920 0.0000
# 3 -5.4046 68.3366 71.6825 0.0000 17.2754 0.0000
# 4 0.0000 0.0000 0.0000 21.6937 0.0000 10.2499
# 5 11.4743 17.7920 17.2754 0.0000 22.3100 0.0000
# 6 0.0000 0.0000 0.0000 10.2499 0.0000 30.7524
#
#
#
# Elastic Compliance Matrix: (Units=1/GPa)
#
#
# Indices 1 2 3 4 5 6 
#
# 1 0.024713 -0.003353 0.009195 0.000000 -0.017156 0.000000
# 2 -0.003353 0.009383 -0.009602 0.000000 0.001677 0.000000
# 3 0.009195 -0.009602 0.028390 0.000000 -0.019055 0.000000
# 4 0.000000 0.000000 0.000000 0.054712 0.000000 -0.018236
# 5 -0.017156 0.001677 -0.019055 0.000000 0.067064 0.000000
# 6 0.000000 0.000000 0.000000 -0.018236 0.000000 0.038596
#
#
# Mechanical properties :
#
#
# Convention : Reuss Voigt Hill
#
# Bulk Modulus (GPa) = 18.19350 49.85327 34.02339
# Shear Modulus (GPa) = 20.10438 30.08131 25.09285
#
# Velocity S-wave (km/s) = 3.08969 3.77936 3.45179
# Velocity P-wave (km/s) = 4.62246 6.53580 5.66055
#
# Compressibility (1/GPa) = 0.05496467
#
# Stress axis : x y z
#
# Youngs Moduli (GPa) = 40.46398 106.57326 35.22378
#
# Poissons Ratio (x) = 0.35739 -0.32388
# Poissons Ratio (y) = 0.13569 0.33823
# Poissons Ratio (z) = -0.37206 1.02334
#
# Static dielectric constant tensor:
#      x y z
#    x 1.777350 0.000000 -0.017850 
#    y 0.000000 1.816070 0.000000 
#    z -0.017850 0.000000 1.750360 
# 
# From -- ./inp_files/28315.got.cif
#   From: 2010.05.17/outbox.cif.g08.bks.cpg/sg10_15_cif.got.tgz:28315.got - 2010.06.03 11:33:40.
