data_PCOD9143580
_publ_section_title
;
Structure prediction by ZEFSAII (Michael W. Deem and Ramdas Pophale) SiO2 
 PCOD9143580
Probable space group: P 2/M
;
_chemical_formula_sum "Si O2"
_cell_formula_units_Z 28
_cell_length_a 9.483409
_cell_length_b 11.288547
_cell_length_c 16.062379
_cell_angle_alpha 90.000000
_cell_angle_beta 116.117169
_cell_angle_gamma 90.000000
_cell_volume 1543.967982
_symmetry_space_group_name_H-M "P 2/M"
_symmetry_group_IT_number 10
_symmetry_cell_setting 'monoclinic'
loop_
_space_group_symop_operation_xyz
x,y,z
-x,y,-z
-x,-y,-z
x,-y,z
loop_
_atom_site_type_symbol
_atom_site_label
_atom_site_fract_x
_atom_site_fract_y
_atom_site_fract_z
Si Si1 0.758149 0.500000 0.007745
Si Si2 0.725607 0.734240 0.766167
Si Si3 0.591223 0.355148 0.234600
Si Si4 0.896336 0.500000 0.857830
Si Si5 0.336223 0.732605 0.931844
Si Si6 0.327234 0.363986 0.420432
Si Si7 0.179948 0.643649 0.550963
Si Si8 0.018652 0.140012 0.909692
O O1 0.666724 0.617563 0.008385
O O2 0.917776 0.500000 0.101967
O O3 0.825179 0.500000 0.932460
O O4 0.572124 0.710153 0.783091
O O5 0.832588 0.618364 0.802770
O O6 0.674174 0.724405 0.657299
O O7 0.849233 0.835306 0.823097
O O8 0.567351 0.500000 0.227022
O O9 0.652164 0.310723 0.160871
O O10 0.716187 0.326290 0.340981
O O11 0.171935 0.799618 0.907719
O O12 0.500000 0.797127 0.000000
O O13 0.500000 0.378588 0.500000
O O14 0.272695 0.500000 0.385191
O O15 0.240506 0.313818 0.477836
O O16 0.188117 0.500000 0.550483
O O17 0.000000 0.679335 0.500000
O O18 0.047212 0.000000 0.920171
O O19 0.000000 0.187026 0.000000
#
# Coordination Sequence:
#
# PCOD9143580 Si02
#       8
#     2   4   4   2   4   4   4   4
#     4  11  21  34  50  85 127 152 185 227 302 374
#     4  12  21  36  61  88 119 158 199 244 297 349
#     4  11  21  34  53  90 130 160 187 228 291 367
#     4  11  20  30  55  85 118 153 188 237 292 367
#     4  12  24  37  57  88 122 157 187 233 301 363
#     4  10  18  32  52  86 123 161 195 228 283 359
#     4   9  19  31  47  75 124 166 193 223 271 345
#     4  11  26  47  65  83 110 153 212 261 295 341
#
# _framework density 18.135090999999999
#
# number of rings (size 3 to 8) (size 9 to 14) (size 15 to 20)
#    0.000    1.143    5.000    2.786    2.000    0.286 
#    0.000    0.714    0.000    0.429    0.000    1.000 
#    0.000    0.000    0.000    0.000    0.000    0.000 
#
# Total GULP energy -156034.541144 kJ/mol
# GULP energy per Si atom -5572.662184 kJ/mol
# Density = 1.809382 g / cm^3
# Si number density = 18.135091 Si / 1000 Ang^3
#
#
#
# Elastic Constant Matrix: (Units=GPa)
#
#
# Indices 1 2 3 4 5 6 
#
# 1 141.9398 26.4394 56.3816 0.0000 -7.8318 0.0000
# 2 26.4394 34.8941 15.5525 0.0000 -2.2452 0.0000
# 3 56.3816 15.5525 96.5446 0.0000 -11.1898 0.0000
# 4 0.0000 0.0000 0.0000 8.6094 0.0000 -2.2638
# 5 -7.8318 -2.2452 -11.1898 0.0000 35.0571 0.0000
# 6 0.0000 0.0000 0.0000 -2.2638 0.0000 10.7436
#
#
#
# Elastic Compliance Matrix: (Units=1/GPa)
#
#
# Indices 1 2 3 4 5 6 
#
# 1 0.010032 -0.005372 -0.004957 0.000000 0.000315 0.000000
# 2 -0.005372 0.033757 -0.002273 0.000000 0.000236 0.000000
# 3 -0.004957 -0.002273 0.013991 0.000000 0.003213 0.000000
# 4 0.000000 0.000000 0.000000 0.122965 0.000000 0.025910
# 5 0.000315 0.000236 0.003213 0.000000 0.029636 0.000000
# 6 0.000000 0.000000 0.000000 0.025910 0.000000 0.098538
#
#
# Mechanical properties :
#
#
# Convention : Reuss Voigt Hill
#
# Bulk Modulus (GPa) = 30.69736 52.23616 41.46676
# Shear Modulus (GPa) = 14.49347 22.54902 18.52124
#
# Velocity S-wave (km/s) = 2.83007 3.53000 3.19923
# Velocity P-wave (km/s) = 5.25765 6.74396 6.04665
#
# Compressibility (1/GPa) = 0.03257609
#
# Stress axis : x y z
#
# Youngs Moduli (GPa) = 99.67863 29.62353 71.47278
#
# Poissons Ratio (x) = 0.15913 0.35428
# Poissons Ratio (y) = 0.53546 0.16249
# Poissons Ratio (z) = 0.49410 0.06735
#
# Static dielectric constant tensor:
#      x y z
#    x 1.600340 0.000000 0.002010 
#    y 0.000000 1.612440 0.000000 
#    z 0.002010 0.000000 1.675180 
# 
# From -- ./inp_files/61035.got.cif
#   From: 2010.05.17/outbox.cif.g08.bks.cpg/sg10_31_cif.got.tgz:61035.got - 2010.06.03 11:33:40.
