data_PCOD9143509
_publ_section_title
;
Structure prediction by ZEFSAII (Michael W. Deem and Ramdas Pophale) SiO2 
 PCOD9143509
Probable space group: P 2/M
;
_chemical_formula_sum "Si O2"
_cell_formula_units_Z 24
_cell_length_a 12.950873
_cell_length_b 13.599527
_cell_length_c 16.753392
_cell_angle_alpha 90.000000
_cell_angle_beta 23.321704
_cell_angle_gamma 90.000000
_cell_volume 1168.164076
_symmetry_space_group_name_H-M "P 2/M"
_symmetry_group_IT_number 10
_symmetry_cell_setting 'monoclinic'
loop_
_space_group_symop_operation_xyz
x,y,z
-x,y,-z
-x,-y,-z
x,-y,z
loop_
_atom_site_type_symbol
_atom_site_label
_atom_site_fract_x
_atom_site_fract_y
_atom_site_fract_z
Si Si1 0.516251 0.883602 0.231544
Si Si2 0.110355 0.888411 0.799807
Si Si3 0.763563 0.682329 0.229004
Si Si4 0.959619 0.810804 0.327643
Si Si5 0.190794 0.611119 0.625670
Si Si6 0.738671 0.886129 0.740776
O O1 0.310034 0.829982 0.433207
O O2 0.477808 0.847244 0.167352
O O3 0.449235 0.000000 0.280110
O O4 0.816579 0.876326 0.042230
O O5 0.270175 0.797232 0.721660
O O6 0.072706 0.871937 0.731416
O O7 0.202540 0.000000 0.750453
O O8 0.492525 0.637134 0.391680
O O9 0.829530 0.626708 0.264583
O O10 0.000000 0.672888 0.000000
O O11 0.979198 0.696479 0.292560
O O12 0.187055 0.840745 0.227328
O O13 0.129168 0.500000 0.647249
O O14 0.000000 0.880739 0.500000
O O15 0.681784 0.000000 0.796203
#
# Coordination Sequence:
#
# PCOD9143509 Si02
#       6
#     4   4   4   4   4   4
#     4   9  17  30  49  74 105 135 160 188 223 276
#     4  10  20  31  47  75 104 130 159 187 229 289
#     4  10  20  36  54  73  96 124 158 198 244 290
#     4  10  18  32  50  70  99 130 162 200 239 278
#     4  10  22  37  53  73  91 118 166 212 249 287
#     4   8  14  26  47  73  99 131 163 187 222 276
#
# _framework density 20.545059999999999
#
# number of rings (size 3 to 8) (size 9 to 14) (size 15 to 20)
#    0.000    2.500    0.000    4.500    0.000    2.333 
#    0.000   10.833    0.000    4.500    0.000    4.667 
#    0.000    0.000    0.000    0.000    0.000    0.000 
#
# Total GULP energy -134098.091270 kJ/mol
# GULP energy per Si atom -5587.420470 kJ/mol
# Density = 2.049830 g / cm^3
# Si number density = 20.545060 Si / 1000 Ang^3
#
#
#
# Elastic Constant Matrix: (Units=GPa)
#
#
# Indices 1 2 3 4 5 6 
#
# 1 51.2375 7.7165 2.6626 0.0000 5.8392 0.0000
# 2 7.7165 108.4040 -3.3582 0.0000 -0.4252 0.0000
# 3 2.6626 -3.3582 81.8063 0.0000 17.2511 0.0000
# 4 0.0000 0.0000 0.0000 8.7698 0.0000 -4.4750
# 5 5.8392 -0.4252 17.2511 0.0000 28.2457 0.0000
# 6 0.0000 0.0000 0.0000 -4.4750 0.0000 13.7375
#
#
#
# Elastic Compliance Matrix: (Units=1/GPa)
#
#
# Indices 1 2 3 4 5 6 
#
# 1 0.020218 -0.001450 0.000193 0.000000 -0.004319 0.000000
# 2 -0.001450 0.009341 0.000388 0.000000 0.000204 0.000000
# 3 0.000193 0.000388 0.014050 0.000000 -0.008615 0.000000
# 4 0.000000 0.000000 0.000000 0.136761 0.000000 0.044550
# 5 -0.004319 0.000204 -0.008615 0.000000 0.041562 0.000000
# 6 0.000000 0.000000 0.000000 0.044550 0.000000 0.087305
#
#
# Mechanical properties :
#
#
# Convention : Reuss Voigt Hill
#
# Bulk Modulus (GPa) = 23.88309 28.38772 26.13540
# Shear Modulus (GPa) = 15.38785 25.77906 20.58346
#
# Velocity S-wave (km/s) = 2.73972 3.54610 3.16867
# Velocity P-wave (km/s) = 4.65382 5.53297 5.11233
#
# Compressibility (1/GPa) = 0.04187064
#
# Stress axis : x y z
#
# Youngs Moduli (GPa) = 49.46196 107.05743 71.17221
#
# Poissons Ratio (x) = 0.15524 -0.01376
# Poissons Ratio (y) = 0.07172 -0.02759
# Poissons Ratio (z) = -0.00956 -0.04151
#
# Static dielectric constant tensor:
#      x y z
#    x 1.788980 0.000000 0.001700 
#    y 0.000000 1.710850 0.000000 
#    z 0.001700 0.000000 1.785460 
# 
# From -- ./inp_files/65024.got.cif
#   From: 2010.05.17/outbox.cif.g08.bks.cpg/sg10_33_cif.got.tgz:65024.got - 2010.06.03 11:33:40.
