data_PCOD9143717
_publ_section_title
;
Structure prediction by ZEFSAII (Michael W. Deem and Ramdas Pophale) SiO2 
 PCOD9143717
Probable space group: P 2/M
;
_chemical_formula_sum "Si O2"
_cell_formula_units_Z 28
_cell_length_a 15.644248
_cell_length_b 8.515862
_cell_length_c 12.299279
_cell_angle_alpha 90.000000
_cell_angle_beta 117.509078
_cell_angle_gamma 90.000000
_cell_volume 1453.302622
_symmetry_space_group_name_H-M "P 2/M"
_symmetry_group_IT_number 10
_symmetry_cell_setting 'monoclinic'
loop_
_space_group_symop_operation_xyz
x,y,z
-x,y,-z
-x,-y,-z
x,-y,z
loop_
_atom_site_type_symbol
_atom_site_label
_atom_site_fract_x
_atom_site_fract_y
_atom_site_fract_z
Si Si1 0.224538 0.315731 0.430626
Si Si2 0.318130 0.190376 0.700442
Si Si3 0.131639 0.683767 0.997734
Si Si4 0.927985 0.182926 0.815811
Si Si5 0.539855 0.190889 0.812021
Si Si6 0.394472 0.185804 0.383926
Si Si7 0.294433 0.810187 0.933839
O O1 0.205806 0.500000 0.418370
O O2 0.252519 0.258614 0.567007
O O3 0.133851 0.227247 0.325146
O O4 0.315929 0.276255 0.407563
O O5 0.429195 0.242624 0.748690
O O6 0.287490 0.235910 0.804046
O O7 0.316538 0.000000 0.692016
O O8 0.141245 0.500000 0.026517
O O9 0.211958 0.739898 0.961054
O O10 0.026165 0.719535 0.886184
O O11 0.134518 0.776897 0.113359
O O12 0.952809 0.000000 0.831356
O O13 0.593892 0.240373 0.733488
O O14 0.536765 0.000000 0.806859
O O15 0.602683 0.235431 0.953280
O O16 0.500000 0.199410 0.500000
O O17 0.368648 0.000000 0.370191
O O18 0.288403 0.000000 0.935144
#
# Coordination Sequence:
#
# PCOD9143717 Si02
#       7
#     4   4   4   4   4   4   4
#     4  12  24  37  55  84 121 155 190 236 302 355
#     4  10  20  37  57  80 113 156 205 246 281 333
#     4  11  22  39  62  91 124 149 180 232 295 349
#     4  11  22  40  66  90 114 147 192 237 283 343
#     4   9  17  32  56  84 112 147 196 246 284 324
#     4  10  18  32  55  81 113 151 193 235 282 341
#     4  10  20  35  59  86 113 153 202 244 283 337
#
# _framework density 19.266463000000002
#
# number of rings (size 3 to 8) (size 9 to 14) (size 15 to 20)
#    0.000    1.571    1.429    6.000    0.000    3.714 
#    0.000    1.429    0.000    6.000    0.000    0.000 
#    0.000    0.000    0.000    0.000    0.000    0.000 
#
# Total GULP energy -156514.106183 kJ/mol
# GULP energy per Si atom -5589.789507 kJ/mol
# Density = 1.922261 g / cm^3
# Si number density = 19.266463 Si / 1000 Ang^3
#
#
#
# Elastic Constant Matrix: (Units=GPa)
#
#
# Indices 1 2 3 4 5 6 
#
# 1 36.0219 -2.9296 23.8695 0.0000 -5.1746 0.0000
# 2 -2.9296 26.9904 2.1717 0.0000 -2.1613 0.0000
# 3 23.8695 2.1717 125.2260 0.0000 -5.2912 0.0000
# 4 0.0000 0.0000 0.0000 -9.2138 0.0000 -7.3134
# 5 -5.1746 -2.1613 -5.2912 0.0000 20.2117 0.0000
# 6 0.0000 0.0000 0.0000 -7.3134 0.0000 -15.7459
#
#
#
# Elastic Compliance Matrix: (Units=1/GPa)
#
#
# Indices 1 2 3 4 5 6 
#
# 1 0.033255 0.004695 -0.006107 0.000000 0.007417 0.000000
# 2 0.004695 0.038062 -0.001347 0.000000 0.004919 0.000000
# 3 -0.006107 -0.001347 0.009203 0.000000 0.000702 0.000000
# 4 0.000000 0.000000 0.000000 -0.171909 0.000000 0.079846
# 5 0.007417 0.004919 0.000702 0.000000 0.052085 0.000000
# 6 0.000000 0.000000 0.000000 0.079846 0.000000 -0.100594
#
#
# Mechanical properties :
#
#
# Convention : Reuss Voigt Hill
#
# Bulk Modulus (GPa) = 13.33306 26.05128 19.69217
# Shear Modulus (GPa) = -45.71202 10.05885 -17.82659
#
# Velocity S-wave (km/s) = -4.87624 2.28741 -3.04512
# Velocity P-wave (km/s) = 4.97677 4.53070 1.45620
#
# Compressibility (1/GPa) = 0.07500154
#
# Stress axis : x y z
#
# Youngs Moduli (GPa) = 30.07087 26.27284 108.66510
#
# Poissons Ratio (x) = -0.12335 0.66359
# Poissons Ratio (y) = -0.14118 0.14639
# Poissons Ratio (z) = 0.18364 0.03539
#
# Static dielectric constant tensor:
#      x y z
#    x 1.651300 0.000000 0.003020 
#    y 0.000000 1.655170 0.000000 
#    z 0.003020 0.000000 1.672810 
# 
# From -- ./inp_files/50033.got.cif
#   From: 2010.05.17/outbox.cif.g08.bks.cpg/sg10_26_cif.got.tgz:50033.got - 2010.06.03 11:33:40.
