data_PCOD9143300
_publ_section_title
;
Structure prediction by ZEFSAII (Michael W. Deem and Ramdas Pophale) SiO2 
 PCOD9143300
Probable space group: P 2/M
;
_chemical_formula_sum "Si O2"
_cell_formula_units_Z 26
_cell_length_a 8.612619
_cell_length_b 7.630701
_cell_length_c 26.825982
_cell_angle_alpha 90.000000
_cell_angle_beta 38.917915
_cell_angle_gamma 90.000000
_cell_volume 1107.535443
_symmetry_space_group_name_H-M "P 2/M"
_symmetry_group_IT_number 10
_symmetry_cell_setting 'monoclinic'
loop_
_space_group_symop_operation_xyz
x,y,z
-x,y,-z
-x,-y,-z
x,-y,z
loop_
_atom_site_type_symbol
_atom_site_label
_atom_site_fract_x
_atom_site_fract_y
_atom_site_fract_z
Si Si1 0.043564 0.800904 0.327177
Si Si2 0.954988 0.287760 0.149037
Si Si3 0.500000 0.256580 0.500000
Si Si4 0.576938 0.794674 0.689169
Si Si5 0.760920 0.295340 0.827047
Si Si6 0.213758 0.285613 0.983681
Si Si7 0.279888 0.787338 0.451160
O O1 0.197334 0.720751 0.334734
O O2 0.113362 0.715386 0.257832
O O3 0.754317 0.808023 0.411022
O O4 0.132734 0.000000 0.299612
O O5 0.943751 0.500000 0.151233
O O6 0.672618 0.227405 0.217565
O O7 0.067761 0.219926 0.172499
O O8 0.130502 0.234232 0.059835
O O9 0.635063 0.307857 0.519474
O O10 0.557305 0.729180 0.637291
O O11 0.631261 0.000000 0.667861
O O12 0.735376 0.500000 0.846027
O O13 0.483194 0.223265 0.899599
O O14 0.214563 0.500000 0.982065
O O15 0.000000 0.226454 0.000000
O O16 0.000000 0.761282 0.500000
O O17 0.302314 0.000000 0.456595
#
# Coordination Sequence:
#
# PCOD9143300 Si02
#       7
#     4   4   2   4   4   4   4
#     4  11  22  36  57  84 112 146 189 234 283 336
#     4  10  20  35  57  83 112 147 186 227 276 335
#     4  12  21  34  57  82 111 150 191 236 285 336
#     4  10  21  36  55  83 116 146 185 236 282 331
#     4  10  21  37  57  83 114 146 184 230 279 335
#     4   9  17  32  56  82 107 142 186 227 271 330
#     4  10  18  31  51  77 107 141 186 231 273 327
#
# _framework density 23.475546000000001
#
# number of rings (size 3 to 8) (size 9 to 14) (size 15 to 20)
#    0.000    1.846    1.538    3.692    0.000    5.538 
#    0.000    1.154    0.000    6.000    0.000    0.000 
#    0.000    0.000    0.000    0.000    0.000    0.000 
#
# Total GULP energy -144932.802106 kJ/mol
# GULP energy per Si atom -5574.338543 kJ/mol
# Density = 2.342212 g / cm^3
# Si number density = 23.475546 Si / 1000 Ang^3
#
#
#
# Elastic Constant Matrix: (Units=GPa)
#
#
# Indices 1 2 3 4 5 6 
#
# 1 163.5827 15.0791 57.3005 0.0000 4.2897 0.0000
# 2 15.0791 46.5003 -1.7802 0.0000 1.0203 0.0000
# 3 57.3005 -1.7802 145.5324 0.0000 -4.4904 0.0000
# 4 0.0000 0.0000 0.0000 -34.1906 0.0000 7.6334
# 5 4.2897 1.0203 -4.4904 0.0000 49.6907 0.0000
# 6 0.0000 0.0000 0.0000 7.6334 0.0000 -8.2152
#
#
#
# Elastic Compliance Matrix: (Units=1/GPa)
#
#
# Indices 1 2 3 4 5 6 
#
# 1 0.007407 -0.002497 -0.002973 0.000000 -0.000857 0.000000
# 2 -0.002497 0.022366 0.001253 0.000000 -0.000130 0.000000
# 3 -0.002973 0.001253 0.008087 0.000000 0.000962 0.000000
# 4 0.000000 0.000000 0.000000 -0.036903 0.000000 -0.034290
# 5 -0.000857 -0.000130 0.000962 0.000000 0.020288 0.000000
# 6 0.000000 0.000000 0.000000 -0.034290 0.000000 -0.153587
#
#
# Mechanical properties :
#
#
# Convention : Reuss Voigt Hill
#
# Bulk Modulus (GPa) = 33.98522 55.20158 44.59340
# Shear Modulus (GPa) = -43.82196 20.45805 -11.68195
#
# Velocity S-wave (km/s) = -4.32523 2.95526 -2.23316
# Velocity P-wave (km/s) = 3.23035 5.93382 3.51960
#
# Compressibility (1/GPa) = 0.02942456
#
# Stress axis : x y z
#
# Youngs Moduli (GPa) = 135.00146 44.71113 123.65425
#
# Poissons Ratio (x) = 0.11165 0.36768
# Poissons Ratio (y) = 0.33711 -0.15491
# Poissons Ratio (z) = 0.40142 -0.05601
#
# Static dielectric constant tensor:
#      x y z
#    x 1.901810 0.000000 0.006420 
#    y 0.000000 1.976160 0.000000 
#    z 0.006420 0.000000 1.849860 
# 
# From -- ./inp_files/91809.got.cif
#   From: 2010.05.17/outbox.cif.g08.bks.cpg/sg10_46_cif.got.tgz:91809.got - 2010.06.03 11:33:40.
