data_PCOD9143471
_publ_section_title
;
Structure prediction by ZEFSAII (Michael W. Deem and Ramdas Pophale) SiO2 
 PCOD9143471
Probable space group: P 2/M
;
_chemical_formula_sum "Si O2"
_cell_formula_units_Z 28
_cell_length_a 9.763676
_cell_length_b 17.313436
_cell_length_c 16.777936
_cell_angle_alpha 90.000000
_cell_angle_beta 29.537370
_cell_angle_gamma 90.000000
_cell_volume 1398.215980
_symmetry_space_group_name_H-M "P 2/M"
_symmetry_group_IT_number 10
_symmetry_cell_setting 'monoclinic'
loop_
_space_group_symop_operation_xyz
x,y,z
-x,y,-z
-x,-y,-z
x,-y,z
loop_
_atom_site_type_symbol
_atom_site_label
_atom_site_fract_x
_atom_site_fract_y
_atom_site_fract_z
Si Si1 0.532177 0.701944 0.159016
Si Si2 0.823418 0.124156 0.835240
Si Si3 0.489287 0.755398 0.655463
Si Si4 0.340496 0.085672 0.664833
Si Si5 0.760426 0.411700 0.805923
Si Si6 0.934427 0.825020 0.622091
Si Si7 0.014669 0.706363 0.788703
O O1 0.579142 0.709579 0.229318
O O2 0.340596 0.632812 0.222129
O O3 0.359722 0.780449 0.226804
O O4 0.815813 0.694673 0.966309
O O5 0.883111 0.215690 0.817880
O O6 0.017300 0.086245 0.803012
O O7 0.935127 0.110461 0.689420
O O8 0.500000 0.106151 0.000000
O O9 0.394730 0.845724 0.699414
O O10 0.820526 0.763437 0.483646
O O11 0.321051 0.719972 0.667287
O O12 0.500000 0.103578 0.500000
O O13 0.421638 0.000000 0.649946
O O14 0.838597 0.500000 0.751120
O O15 0.985278 0.362130 0.740641
O O16 0.500000 0.410995 0.000000
O O17 0.000000 0.852602 0.500000
#
# Coordination Sequence:
#
# PCOD9143471 Si02
#       7
#     4   4   4   4   4   4   4
#     4  10  18  34  54  82 109 144 186 228 271 324
#     4  11  18  33  57  83 106 142 192 237 267 326
#     4  10  21  33  56  80 109 144 185 228 276 332
#     4  10  21  36  55  80 113 149 183 230 289 339
#     4   9  17  31  54  83 115 146 181 225 275 329
#     4  10  19  32  52  83 108 140 186 228 277 327
#     4  10  18  31  55  86 107 138 187 233 272 314
#
# _framework density 20.025518000000002
#
# number of rings (size 3 to 8) (size 9 to 14) (size 15 to 20)
#    0.000    2.000    4.286    0.857    0.000    0.286 
#    0.000    0.714    0.000   23.571    0.000    0.000 
#    0.000    0.000    0.000    0.000    0.000    0.286 
#
# Total GULP energy -156135.588340 kJ/mol
# GULP energy per Si atom -5576.271012 kJ/mol
# Density = 1.997994 g / cm^3
# Si number density = 20.025518 Si / 1000 Ang^3
#
#
#
# Elastic Constant Matrix: (Units=GPa)
#
#
# Indices 1 2 3 4 5 6 
#
# 1 114.5536 35.2203 37.0974 0.0000 -1.2347 0.0000
# 2 35.2203 95.6893 2.1917 0.0000 22.6622 0.0000
# 3 37.0974 2.1917 67.0865 0.0000 12.2302 0.0000
# 4 0.0000 0.0000 0.0000 4.6200 0.0000 0.5760
# 5 -1.2347 22.6622 12.2302 0.0000 25.9602 0.0000
# 6 0.0000 0.0000 0.0000 0.5760 0.0000 8.1043
#
#
#
# Elastic Compliance Matrix: (Units=1/GPa)
#
#
# Indices 1 2 3 4 5 6 
#
# 1 0.014644 -0.008134 -0.010123 0.000000 0.012567 0.000000
# 2 -0.008134 0.017900 0.007475 0.000000 -0.019534 0.000000
# 3 -0.010123 0.007475 0.023561 0.000000 -0.018106 0.000000
# 4 0.000000 0.000000 0.000000 0.218387 0.000000 -0.015521
# 5 0.012567 -0.019534 -0.018106 0.000000 0.064700 0.000000
# 6 0.000000 0.000000 0.000000 -0.015521 0.000000 0.124494
#
#
# Mechanical properties :
#
#
# Convention : Reuss Voigt Hill
#
# Bulk Modulus (GPa) = 28.95337 47.37201 38.16269
# Shear Modulus (GPa) = 10.06512 21.25823 15.66168
#
# Velocity S-wave (km/s) = 2.24434 3.26169 2.79961
# Velocity P-wave (km/s) = 4.60497 6.15565 5.43589
#
# Compressibility (1/GPa) = 0.03453829
#
# Stress axis : x y z
#
# Youngs Moduli (GPa) = 68.28591 55.86733 42.44351
#
# Poissons Ratio (x) = 0.45445 0.42966
# Poissons Ratio (y) = 0.55547 -0.31724
# Poissons Ratio (z) = 0.69127 -0.41758
#
# Static dielectric constant tensor:
#      x y z
#    x 1.742710 0.000000 0.010820 
#    y 0.000000 1.708540 0.000000 
#    z 0.010820 0.000000 1.758890 
# 
# From -- ./inp_files/62332.got.cif
#   From: 2010.05.17/outbox.cif.g08.bks.cpg/sg10_32_cif.got.tgz:62332.got - 2010.06.03 11:33:40.
