data_PCOD9143350
_publ_section_title
;
Structure prediction by ZEFSAII (Michael W. Deem and Ramdas Pophale) SiO2 
 PCOD9143350
Probable space group: P 2/M
;
_chemical_formula_sum "Si O2"
_cell_formula_units_Z 32
_cell_length_a 28.002532
_cell_length_b 8.238729
_cell_length_c 10.858450
_cell_angle_alpha 90.000000
_cell_angle_beta 32.931409
_cell_angle_gamma 90.000000
_cell_volume 1361.860042
_symmetry_space_group_name_H-M "P 2/M"
_symmetry_group_IT_number 10
_symmetry_cell_setting 'monoclinic'
loop_
_space_group_symop_operation_xyz
x,y,z
-x,y,-z
-x,-y,-z
x,-y,z
loop_
_atom_site_type_symbol
_atom_site_label
_atom_site_fract_x
_atom_site_fract_y
_atom_site_fract_z
Si Si1 0.783735 0.824609 0.259658
Si Si2 0.738546 0.185255 0.072800
Si Si3 0.089264 0.693211 0.864696
Si Si4 0.619501 0.315627 0.700254
Si Si5 0.377358 0.695308 0.024058
Si Si6 0.078081 0.309158 0.421227
Si Si7 0.439613 0.191958 0.438031
Si Si8 0.818263 0.697388 0.581672
O O1 0.763731 0.831135 0.161153
O O2 0.883022 0.780104 0.071495
O O3 0.723113 0.688826 0.450589
O O4 0.760532 0.000000 0.364124
O O5 0.639116 0.255359 0.302418
O O6 0.738451 0.000000 0.021073
O O7 0.821064 0.288443 0.846072
O O8 0.084138 0.500000 0.894957
O O9 0.159990 0.733172 0.606319
O O10 0.000000 0.750123 0.000000
O O11 0.587644 0.500000 0.762791
O O12 0.607443 0.250712 0.865345
O O13 0.583159 0.225929 0.657511
O O14 0.372980 0.500000 0.040362
O O15 0.282542 0.752266 0.177439
O O16 0.461774 0.743781 0.761785
O O17 0.057080 0.500000 0.479807
O O18 0.100987 0.241742 0.508120
O O19 0.000000 0.242972 0.500000
O O20 0.438990 0.000000 0.457912
O O21 0.818810 0.500000 0.591938
#
# Coordination Sequence:
#
# PCOD9143350 Si02
#       8
#     4   4   4   4   4   4   4   4
#     4  10  20  34  53  80 116 152 187 234 284 333
#     4   9  21  40  57  78 114 152 187 233 285 334
#     4  10  20  34  57  83 113 153 188 228 289 350
#     4  10  18  31  52  79 112 153 194 226 273 341
#     4  10  19  33  54  78 112 154 189 229 284 346
#     4  10  22  39  64  90 110 141 190 245 288 334
#     4  10  21  35  53  81 116 151 189 238 284 330
#     4   9  19  38  56  83 121 147 184 241 290 337
#
# _framework density 23.497274000000001
#
# number of rings (size 3 to 8) (size 9 to 14) (size 15 to 20)
#    0.000    2.250    1.250    2.250    1.750    6.000 
#    0.000    1.875    0.000    3.750    0.000    0.000 
#    0.000    0.000    0.000    0.000    0.000    0.000 
#
# Total GULP energy -178275.534289 kJ/mol
# GULP energy per Si atom -5571.110447 kJ/mol
# Density = 2.344379 g / cm^3
# Si number density = 23.497274 Si / 1000 Ang^3
#
#
#
# Elastic Constant Matrix: (Units=GPa)
#
#
# Indices 1 2 3 4 5 6 
#
# 1 75.3632 -0.4428 13.0581 0.0000 -22.5737 0.0000
# 2 -0.4428 18.0713 -4.6347 0.0000 0.2338 0.0000
# 3 13.0581 -4.6347 52.6056 0.0000 -22.7624 0.0000
# 4 0.0000 0.0000 0.0000 13.2507 0.0000 6.5613
# 5 -22.5737 0.2338 -22.7624 0.0000 30.1163 0.0000
# 6 0.0000 0.0000 0.0000 6.5613 0.0000 -0.3073
#
#
#
# Elastic Compliance Matrix: (Units=1/GPa)
#
#
# Indices 1 2 3 4 5 6 
#
# 1 0.017254 0.000760 0.002047 0.000000 0.014474 0.000000
# 2 0.000760 0.057150 0.007283 0.000000 0.005631 0.000000
# 3 0.002047 0.007283 0.029396 0.000000 0.023696 0.000000
# 4 0.000000 0.000000 0.000000 0.006522 0.000000 0.139239
# 5 0.014474 0.005631 0.023696 0.000000 0.061920 0.000000
# 6 0.000000 0.000000 0.000000 0.139239 0.000000 -0.281198
#
#
# Mechanical properties :
#
#
# Convention : Reuss Voigt Hill
#
# Bulk Modulus (GPa) = 8.06574 18.00015 13.03294
# Shear Modulus (GPa) = -56.94126 17.81591 -19.56268
#
# Velocity S-wave (km/s) = -4.92806 2.75655 -2.88853
# Velocity P-wave (km/s) = 5.37968 4.22002 2.35927
#
# Compressibility (1/GPa) = 0.12398117
#
# Stress axis : x y z
#
# Youngs Moduli (GPa) = 57.95632 17.49783 34.01809
#
# Poissons Ratio (x) = -0.01331 -0.06964
# Poissons Ratio (y) = -0.04408 -0.24775
# Poissons Ratio (z) = -0.11864 -0.12743
#
# Static dielectric constant tensor:
#      x y z
#    x 1.960180 0.000000 -0.016290 
#    y 0.000000 1.878660 0.000000 
#    z -0.016290 0.000000 1.998690 
# 
# From -- ./inp_files/58103.got.cif
#   From: 2010.05.17/outbox.cif.g08.bks.cpg/sg10_30_cif.got.tgz:58103.got - 2010.06.03 11:33:40.
