data_PCOD9143652
_publ_section_title
;
Structure prediction by ZEFSAII (Michael W. Deem and Ramdas Pophale) SiO2 
 PCOD9143652
Probable space group: P 2/M
;
_chemical_formula_sum "Si O2"
_cell_formula_units_Z 28
_cell_length_a 22.603895
_cell_length_b 7.702513
_cell_length_c 15.460658
_cell_angle_alpha 90.000000
_cell_angle_beta 149.765857
_cell_angle_gamma 90.000000
_cell_volume 1355.418031
_symmetry_space_group_name_H-M "P 2/M"
_symmetry_group_IT_number 10
_symmetry_cell_setting 'monoclinic'
loop_
_space_group_symop_operation_xyz
x,y,z
-x,y,-z
-x,-y,-z
x,-y,z
loop_
_atom_site_type_symbol
_atom_site_label
_atom_site_fract_x
_atom_site_fract_y
_atom_site_fract_z
Si Si1 0.100471 0.802522 0.417455
Si Si2 0.648656 0.712522 0.775005
Si Si3 0.147261 0.700284 0.844049
Si Si4 0.793168 0.290015 0.264225
Si Si5 0.475701 0.288719 0.067383
Si Si6 0.620992 0.288372 0.545916
Si Si7 0.303831 0.290890 0.542154
O O1 0.164061 0.781692 0.590433
O O2 0.190935 0.752452 0.456747
O O3 0.977918 0.702723 0.267930
O O4 0.066290 0.000000 0.361888
O O5 0.651991 0.500000 0.778741
O O6 0.516578 0.760348 0.636306
O O7 0.664115 0.768891 0.694853
O O8 0.749762 0.776999 0.966725
O O9 0.182397 0.500000 0.874819
O O10 0.138104 0.770440 0.734616
O O11 0.803098 0.500000 0.286787
O O12 0.656996 0.243392 0.076009
O O13 0.480264 0.500000 0.073510
O O14 0.578927 0.227155 0.260393
O O15 0.500000 0.231785 0.000000
O O16 0.623642 0.500000 0.550429
O O17 0.692029 0.229033 0.551595
O O18 0.311169 0.500000 0.549238
#
# Coordination Sequence:
#
# PCOD9143652 Si02
#       7
#     4   4   4   4   4   4   4
#     4  12  25  37  48  67 102 142 177 216 256 293
#     4   8  14  28  51  85 115 127 152 205 263 307
#     4  10  20  34  55  77 100 133 173 211 248 299
#     4  10  19  34  55  78 100 130 171 211 252 303
#     4   9  15  26  49  77 102 125 157 204 247 291
#     4   8  14  26  52  86 113 130 151 201 264 310
#     4  10  18  32  54  78 104 137 172 203 247 305
#
# _framework density 20.657834000000001
#
# number of rings (size 3 to 8) (size 9 to 14) (size 15 to 20)
#    0.000    2.429    1.429    3.429    0.000    5.714 
#    0.000    2.143    0.000    7.714    0.000    2.000 
#    0.000    0.000    0.000    0.000    0.000    0.000 
#
# Total GULP energy -156263.874185 kJ/mol
# GULP energy per Si atom -5580.852649 kJ/mol
# Density = 2.061082 g / cm^3
# Si number density = 20.657834 Si / 1000 Ang^3
#
#
#
# Elastic Constant Matrix: (Units=GPa)
#
#
# Indices 1 2 3 4 5 6 
#
# 1 162.5281 0.2884 48.0315 0.0000 -14.1230 0.0000
# 2 0.2884 32.1060 -3.8167 0.0000 -5.9863 0.0000
# 3 48.0315 -3.8167 54.0642 0.0000 -3.1867 0.0000
# 4 0.0000 0.0000 0.0000 -90.2068 0.0000 -19.2770
# 5 -14.1230 -5.9863 -3.1867 0.0000 22.5223 0.0000
# 6 0.0000 0.0000 0.0000 -19.2770 0.0000 -24.6864
#
#
#
# Elastic Compliance Matrix: (Units=1/GPa)
#
#
# Indices 1 2 3 4 5 6 
#
# 1 0.008761 -0.000157 -0.007536 0.000000 0.004386 0.000000
# 2 -0.000157 0.033215 0.003024 0.000000 0.009158 0.000000
# 3 -0.007536 0.003024 0.025386 0.000000 -0.000330 0.000000
# 4 0.000000 0.000000 0.000000 -0.013306 0.000000 0.010390
# 5 0.004386 0.009158 -0.000330 0.000000 0.049538 0.000000
# 6 0.000000 0.000000 0.000000 0.010390 0.000000 -0.048622
#
#
# Mechanical properties :
#
#
# Convention : Reuss Voigt Hill
#
# Bulk Modulus (GPa) = 17.23416 37.52276 27.37846
# Shear Modulus (GPa) = 59.77103 -4.86117 27.45493
#
# Velocity S-wave (km/s) = 5.38485 -1.53567 3.64954
# Velocity P-wave (km/s) = 6.85733 3.88059 5.57144
#
# Compressibility (1/GPa) = 0.05802430
#
# Stress axis : x y z
#
# Youngs Moduli (GPa) = 114.13752 30.10665 39.39192
#
# Poissons Ratio (x) = 0.00472 0.29687
# Poissons Ratio (y) = 0.01790 -0.11912
# Poissons Ratio (z) = 0.86017 -0.09104
#
# Static dielectric constant tensor:
#      x y z
#    x 1.759670 0.000000 -0.005410 
#    y 0.000000 1.769290 0.000000 
#    z -0.005410 0.000000 1.716070 
# 
# From -- ./inp_files/49324.got.cif
#   From: 2010.05.17/outbox.cif.g08.bks.cpg/sg10_25_cif.got.tgz:49324.got - 2010.06.03 11:33:40.
