data_PCOD9143387
_publ_section_title
;
Structure prediction by ZEFSAII (Michael W. Deem and Ramdas Pophale) SiO2 
 PCOD9143387
Probable space group: P 2/M
;
_chemical_formula_sum "Si O2"
_cell_formula_units_Z 32
_cell_length_a 20.986076
_cell_length_b 7.514898
_cell_length_c 25.766718
_cell_angle_alpha 90.000000
_cell_angle_beta 22.944669
_cell_angle_gamma 90.000000
_cell_volume 1584.171043
_symmetry_space_group_name_H-M "P 2/M"
_symmetry_group_IT_number 10
_symmetry_cell_setting 'monoclinic'
loop_
_space_group_symop_operation_xyz
x,y,z
-x,y,-z
-x,-y,-z
x,-y,z
loop_
_atom_site_type_symbol
_atom_site_label
_atom_site_fract_x
_atom_site_fract_y
_atom_site_fract_z
Si Si1 0.340804 0.291011 0.157156
Si Si2 0.351768 0.284428 0.869872
Si Si3 0.161278 0.208933 0.850961
Si Si4 0.026733 0.284388 0.841868
Si Si5 0.855790 0.706784 0.357543
Si Si6 0.557993 0.717267 0.083695
Si Si7 0.863878 0.282654 0.781251
Si Si8 0.489102 0.793917 0.655690
O O1 0.305996 0.500000 0.192068
O O2 0.405161 0.218227 0.163681
O O3 0.194775 0.216817 0.231274
O O4 0.500000 0.282439 0.000000
O O5 0.353347 0.500000 0.868205
O O6 0.427800 0.225283 0.867618
O O7 0.446823 0.221233 0.748057
O O8 0.161826 0.228134 0.009653
O O9 0.133131 0.224932 0.810965
O O10 0.332473 0.284736 0.742872
O O11 0.166141 0.000000 0.861732
O O12 0.000000 0.285959 0.000000
O O13 0.028734 0.500000 0.840839
O O14 0.094481 0.218618 0.735883
O O15 0.904580 0.500000 0.317790
O O16 0.664333 0.714209 0.511469
O O17 0.965252 0.779140 0.322790
O O18 0.553141 0.500000 0.087285
O O19 0.723535 0.764441 0.928441
O O20 0.862782 0.500000 0.778056
O O21 0.504229 0.000000 0.629588
#
# Coordination Sequence:
#
# PCOD9143387 Si02
#       8
#     4   4   4   4   4   4   4   4
#     4   7  10  16  33  66 103 133 158 191 240 292
#     4  10  18  31  53  79 104 131 164 206 254 298
#     4  10  21  38  56  73  98 132 168 209 253 296
#     4  10  20  33  55  82 104 129 163 205 252 304
#     4  10  20  35  53  77 108 136 165 204 251 301
#     4   8  12  21  41  72 105 130 159 201 247 293
#     4   8  12  22  42  69 103 136 161 194 244 296
#     4  11  24  39  53  72  99 133 173 211 249 299
#
# _framework density 20.199839999999998
#
# number of rings (size 3 to 8) (size 9 to 14) (size 15 to 20)
#    0.000    2.750    2.500    1.875    0.000    2.250 
#    0.000    2.500    0.000    0.750    0.000    6.125 
#    0.000    3.000    0.000    0.000    0.000    0.000 
#
# Total GULP energy -178419.317852 kJ/mol
# GULP energy per Si atom -5575.603683 kJ/mol
# Density = 2.015386 g / cm^3
# Si number density = 20.199840 Si / 1000 Ang^3
#
#
#
# Elastic Constant Matrix: (Units=GPa)
#
#
# Indices 1 2 3 4 5 6 
#
# 1 149.6641 -7.8083 46.9622 0.0000 -30.0427 0.0000
# 2 -7.8083 46.7953 -6.7757 0.0000 -4.8607 0.0000
# 3 46.9622 -6.7757 85.3850 0.0000 -13.9836 0.0000
# 4 0.0000 0.0000 0.0000 -38.3857 0.0000 34.1128
# 5 -30.0427 -4.8607 -13.9836 0.0000 28.8575 0.0000
# 6 0.0000 0.0000 0.0000 34.1128 0.0000 18.5195
#
#
#
# Elastic Compliance Matrix: (Units=1/GPa)
#
#
# Indices 1 2 3 4 5 6 
#
# 1 0.009691 0.001964 -0.003767 0.000000 0.008595 0.000000
# 2 0.001964 0.022662 0.001823 0.000000 0.006746 0.000000
# 3 -0.003767 0.001823 0.014486 0.000000 0.003405 0.000000
# 4 0.000000 0.000000 0.000000 -0.009879 0.000000 0.018198
# 5 0.008595 0.006746 0.003405 0.000000 0.046387 0.000000
# 6 0.000000 0.000000 0.000000 0.018198 0.000000 0.020477
#
#
# Mechanical properties :
#
#
# Convention : Reuss Voigt Hill
#
# Bulk Modulus (GPa) = 21.33121 38.51120 29.92120
# Shear Modulus (GPa) = 41.87247 18.42933 30.15090
#
# Velocity S-wave (km/s) = 4.55786 3.02379 3.86765
# Velocity P-wave (km/s) = 6.18723 5.59442 5.89828
#
# Compressibility (1/GPa) = 0.04687967
#
# Stress axis : x y z
#
# Youngs Moduli (GPa) = 103.18415 44.12665 69.03371
#
# Poissons Ratio (x) = -0.08669 0.26004
# Poissons Ratio (y) = -0.20270 -0.12582
# Poissons Ratio (z) = 0.38868 -0.08042
#
# Static dielectric constant tensor:
#      x y z
#    x 1.747470 0.000000 -0.037020 
#    y 0.000000 1.785990 0.000000 
#    z -0.037020 0.000000 1.674150 
# 
# From -- ./inp_files/86115.got.cif
#   From: 2010.05.17/outbox.cif.g08.bks.cpg/sg10_44_cif.got.tgz:86115.got - 2010.06.03 11:33:40.
