data_PCOD9143012
_publ_section_title
;
Structure prediction by ZEFSAII (Michael W. Deem and Ramdas Pophale) SiO2 
 PCOD9143012
Probable space group: P 2/M
;
_chemical_formula_sum "Si O2"
_cell_formula_units_Z 22
_cell_length_a 11.909140
_cell_length_b 21.061022
_cell_length_c 5.050795
_cell_angle_alpha 90.000000
_cell_angle_beta 104.868259
_cell_angle_gamma 90.000000
_cell_volume 1224.417988
_symmetry_space_group_name_H-M "P 2/M"
_symmetry_group_IT_number 10
_symmetry_cell_setting 'monoclinic'
loop_
_space_group_symop_operation_xyz
x,y,z
-x,y,-z
-x,-y,-z
x,-y,z
loop_
_atom_site_type_symbol
_atom_site_label
_atom_site_fract_x
_atom_site_fract_y
_atom_site_fract_z
Si Si1 0.235716 0.258980 0.742101
Si Si2 0.085332 0.861503 0.800489
Si Si3 0.372575 0.294864 0.315514
Si Si4 0.875231 0.605924 0.296844
Si Si5 0.085077 0.000000 0.803141
Si Si6 0.735630 0.429956 0.716862
O O1 0.173842 0.194890 0.795350
O O2 0.281014 0.264341 0.468890
O O3 0.147821 0.318322 0.728183
O O4 0.342913 0.270668 0.005627
O O5 0.000000 0.863340 0.500000
O O6 0.145696 0.931255 0.852304
O O7 0.000000 0.851262 0.000000
O O8 0.500000 0.281642 0.500000
O O9 0.349386 0.370670 0.292280
O O10 0.783334 0.577375 0.448921
O O11 0.000000 0.592667 0.500000
O O12 0.842648 0.579779 0.988150
O O13 0.000000 0.000000 0.500000
O O14 0.000000 0.000000 0.000000
O O15 0.686064 0.500000 0.728148
#
# Coordination Sequence:
#
# PCOD9143012 Si02
#       6
#     4   4   4   4   2   4
#     4  10  20  33  51  75  97 127 166 199 241 292
#     4  10  18  30  50  77 110 138 161 191 231 282
#     4  10  21  37  53  70  93 121 163 216 256 286
#     4  10  20  32  47  69  99 127 154 190 232 288
#     4   8  16  28  44  72 107 140 165 186 220 276
#     4  10  21  34  49  70  92 120 160 197 241 300
#
# _framework density 17.967721000000001
#
# number of rings (size 3 to 8) (size 9 to 14) (size 15 to 20)
#    0.000    2.182    0.000    3.273    0.000    5.455 
#    0.000    0.000    0.000    6.545    0.000    3.818 
#    0.000    0.000    0.000    0.000    0.000    0.000 
#
# Total GULP energy -122653.799953 kJ/mol
# GULP energy per Si atom -5575.172725 kJ/mol
# Density = 1.792683 g / cm^3
# Si number density = 17.967721 Si / 1000 Ang^3
#
#
#
# Elastic Constant Matrix: (Units=GPa)
#
#
# Indices 1 2 3 4 5 6 
#
# 1 20.2700 19.4232 -0.8354 0.0000 1.4126 0.0000
# 2 19.4232 130.7089 1.1933 0.0000 -8.1816 0.0000
# 3 -0.8354 1.1933 84.3247 0.0000 -12.6008 0.0000
# 4 0.0000 0.0000 0.0000 9.1036 0.0000 0.4634
# 5 1.4126 -8.1816 -12.6008 0.0000 26.5413 0.0000
# 6 0.0000 0.0000 0.0000 0.4634 0.0000 -0.5366
#
#
#
# Elastic Compliance Matrix: (Units=1/GPa)
#
#
# Indices 1 2 3 4 5 6 
#
# 1 0.058420 -0.009054 -0.000188 0.000000 -0.005990 0.000000
# 2 -0.009054 0.009210 0.000297 0.000000 0.003462 0.000000
# 3 -0.000188 0.000297 0.012774 0.000000 0.006166 0.000000
# 4 0.000000 0.000000 0.000000 0.105221 0.000000 0.090868
# 5 -0.005990 0.003462 0.006166 0.000000 0.041991 0.000000
# 6 0.000000 0.000000 0.000000 0.090868 0.000000 -1.785162
#
#
# Mechanical properties :
#
#
# Convention : Reuss Voigt Hill
#
# Bulk Modulus (GPa) = 15.99648 30.54065 23.26856
# Shear Modulus (GPa) = -3.29203 21.38983 9.04890
#
# Velocity S-wave (km/s) = -1.35505 3.45405 2.24658
# Velocity P-wave (km/s) = 2.54441 5.73948 4.43935
#
# Compressibility (1/GPa) = 0.06251376
#
# Stress axis : x y z
#
# Youngs Moduli (GPa) = 17.11753 108.57713 78.28209
#
# Poissons Ratio (x) = 0.98309 0.01473
# Poissons Ratio (y) = 0.15499 -0.02327
# Poissons Ratio (z) = 0.00322 -0.03228
#
# Static dielectric constant tensor:
#      x y z
#    x 1.582040 0.000000 -0.000500 
#    y 0.000000 1.668850 0.000000 
#    z -0.000500 0.000000 1.601700 
# 
# From -- ./inp_files/7274.got.cif
#   From: 2010.05.17/outbox.cif.g08.bks.cpg/sg10_4_cif.got.tgz:7274.got - 2010.06.03 11:33:40.
