data_PCOD9143329
_publ_section_title
;
Structure prediction by ZEFSAII (Michael W. Deem and Ramdas Pophale) SiO2 
 PCOD9143329
Probable space group: P 2/M
;
_chemical_formula_sum "Si O2"
_cell_formula_units_Z 28
_cell_length_a 29.017232
_cell_length_b 7.672465
_cell_length_c 10.233555
_cell_angle_alpha 90.000000
_cell_angle_beta 142.664608
_cell_angle_gamma 90.000000
_cell_volume 1381.763327
_symmetry_space_group_name_H-M "P 2/M"
_symmetry_group_IT_number 10
_symmetry_cell_setting 'monoclinic'
loop_
_space_group_symop_operation_xyz
x,y,z
-x,y,-z
-x,-y,-z
x,-y,z
loop_
_atom_site_type_symbol
_atom_site_label
_atom_site_fract_x
_atom_site_fract_y
_atom_site_fract_z
Si Si1 0.951575 0.289694 0.767097
Si Si2 0.375280 0.711983 0.582675
Si Si3 0.796003 0.299158 0.824125
Si Si4 0.202633 0.794548 0.463277
Si Si5 0.493044 0.702775 0.631643
Si Si6 0.373728 0.793674 0.879114
Si Si7 0.045938 0.713952 0.730089
O O1 0.951947 0.500000 0.768448
O O2 0.864512 0.234335 0.586244
O O3 0.996117 0.229709 0.740712
O O4 0.000000 0.227615 0.000000
O O5 0.375605 0.500000 0.583167
O O6 0.288958 0.775999 0.362836
O O7 0.430727 0.776499 0.593126
O O8 0.397353 0.761791 0.781037
O O9 0.788147 0.500000 0.847948
O O10 0.818727 0.294015 0.722251
O O11 0.867272 0.222825 0.062399
O O12 0.286320 0.731144 0.692568
O O13 0.209428 0.000000 0.451491
O O14 0.500000 0.777392 0.500000
O O15 0.471609 0.500000 0.565413
O O16 0.571013 0.711946 0.889384
O O17 0.375457 0.000000 0.905885
O O18 0.049390 0.500000 0.740125
O O19 0.000000 0.767215 0.500000
#
# Coordination Sequence:
#
# PCOD9143329 Si02
#       7
#     4   4   4   4   4   4   4
#     4  10  18  31  52  77 101 131 172 211 253 302
#     4   9  18  33  56  80 102 135 174 216 263 308
#     4   9  16  31  53  74 101 133 171 213 255 300
#     4  10  20  33  51  77 105 132 170 215 258 299
#     4  10  21  37  54  79 112 139 169 211 262 317
#     4  10  21  36  55  79 105 137 178 217 256 309
#     4   9  17  30  48  74 104 132 167 211 251 297
#
# _framework density 20.263961999999999
#
# number of rings (size 3 to 8) (size 9 to 14) (size 15 to 20)
#    0.000    2.429    1.429    1.286    0.000    4.571 
#    2.571    0.000    0.000    1.714    0.000    0.000 
#    0.000    0.000    0.000    0.000    0.000    0.000 
#
# Total GULP energy -156186.330720 kJ/mol
# GULP energy per Si atom -5578.083240 kJ/mol
# Density = 2.021784 g / cm^3
# Si number density = 20.263962 Si / 1000 Ang^3
#
#
#
# Elastic Constant Matrix: (Units=GPa)
#
#
# Indices 1 2 3 4 5 6 
#
# 1 114.5649 -3.4688 74.1490 0.0000 -5.7005 0.0000
# 2 -3.4688 37.7901 -7.4759 0.0000 -1.2618 0.0000
# 3 74.1490 -7.4759 148.5394 0.0000 -5.3396 0.0000
# 4 0.0000 0.0000 0.0000 68.6089 0.0000 -65.1791
# 5 -5.7005 -1.2618 -5.3396 0.0000 28.7908 0.0000
# 6 0.0000 0.0000 0.0000 -65.1791 0.0000 71.2954
#
#
#
# Elastic Compliance Matrix: (Units=1/GPa)
#
#
# Indices 1 2 3 4 5 6 
#
# 1 0.012949 -0.000035 -0.006416 0.000000 0.001372 0.000000
# 2 -0.000035 0.026787 0.001417 0.000000 0.001430 0.000000
# 3 -0.006416 0.001417 0.010030 0.000000 0.000652 0.000000
# 4 0.000000 0.000000 0.000000 0.110847 0.000000 0.101337
# 5 0.001372 0.001430 0.000652 0.000000 0.035189 0.000000
# 6 0.000000 0.000000 0.000000 0.101337 0.000000 0.106670
#
#
# Mechanical properties :
#
#
# Convention : Reuss Voigt Hill
#
# Bulk Modulus (GPa) = 25.19080 47.47811 36.33445
# Shear Modulus (GPa) = 15.34819 49.58503 32.46661
#
# Velocity S-wave (km/s) = 2.75510 4.95204 4.00707
# Velocity P-wave (km/s) = 4.75174 7.49517 6.27522
#
# Compressibility (1/GPa) = 0.03969704
#
# Stress axis : x y z
#
# Youngs Moduli (GPa) = 77.22827 37.33180 99.70217
#
# Poissons Ratio (x) = 0.00130 0.63971
# Poissons Ratio (y) = 0.00270 -0.14128
# Poissons Ratio (z) = 0.49551 -0.05290
#
# Static dielectric constant tensor:
#      x y z
#    x 1.716330 0.000000 0.026890 
#    y 0.000000 1.752120 0.000000 
#    z 0.026890 0.000000 1.710250 
# 
# From -- ./inp_files/37245.got.cif
#   From: 2010.05.17/outbox.cif.g08.bks.cpg/sg10_19_cif.got.tgz:37245.got - 2010.06.03 11:33:40.
