data_PCOD9143772
_publ_section_title
;
Structure prediction by ZEFSAII (Michael W. Deem and Ramdas Pophale) SiO2 
 PCOD9143772
Probable space group: P 2/M
;
_chemical_formula_sum "Si O2"
_cell_formula_units_Z 32
_cell_length_a 12.778300
_cell_length_b 7.882598
_cell_length_c 29.665549
_cell_angle_alpha 90.000000
_cell_angle_beta 149.534921
_cell_angle_gamma 90.000000
_cell_volume 1515.004924
_symmetry_space_group_name_H-M "P 2/M"
_symmetry_group_IT_number 10
_symmetry_cell_setting 'monoclinic'
loop_
_space_group_symop_operation_xyz
x,y,z
-x,y,-z
-x,-y,-z
x,-y,z
loop_
_atom_site_type_symbol
_atom_site_label
_atom_site_fract_x
_atom_site_fract_y
_atom_site_fract_z
Si Si1 0.645963 0.304282 0.990704
Si Si2 0.192160 0.797100 0.039045
Si Si3 0.847337 0.801013 0.482454
Si Si4 0.881329 0.300954 0.341576
Si Si5 0.974322 0.707863 0.182356
Si Si6 0.795734 0.292964 0.208676
Si Si7 0.611736 0.303472 0.711987
Si Si8 0.537494 0.803871 0.781265
O O1 0.599871 0.500000 0.984703
O O2 0.801601 0.293501 0.006230
O O3 0.431169 0.231222 0.891837
O O4 0.771232 0.231764 0.079471
O O5 0.384087 0.740823 0.141220
O O6 0.200968 0.000000 0.033893
O O7 0.000000 0.763165 0.000000
O O8 0.608007 0.777664 0.381617
O O9 0.000000 0.729266 0.500000
O O10 0.907158 0.723397 0.552982
O O11 0.889505 0.000000 0.501296
O O12 0.830986 0.500000 0.322584
O O13 0.863633 0.236230 0.283683
O O14 0.707511 0.211418 0.307463
O O15 0.972124 0.500000 0.178328
O O16 0.949838 0.753558 0.225471
O O17 0.185600 0.767269 0.237524
O O18 0.788195 0.500000 0.207635
O O19 0.595139 0.500000 0.693420
O O20 0.631425 0.287806 0.773248
O O21 0.600808 0.000000 0.801148
#
# Coordination Sequence:
#
# PCOD9143772 Si02
#       8
#     4   4   4   4   4   4   4   4
#     4  10  18  32  57  85 111 147 192 235 274 322
#     4  10  21  34  48  72 112 157 191 225 276 333
#     4  11  23  39  60  84 112 150 184 223 284 346
#     4  11  21  35  59  88 112 140 184 234 277 327
#     4   9  19  35  56  85 118 149 186 233 285 330
#     4   9  18  34  57  86 117 149 187 232 281 328
#     4  11  22  36  58  86 114 146 186 235 280 332
#     4  11  21  34  53  77 113 153 184 225 282 336
#
# _framework density 21.122042
#
# number of rings (size 3 to 8) (size 9 to 14) (size 15 to 20)
#    0.000    1.750    2.500    2.625    0.000    2.750 
#    0.000    1.250    0.000   11.250    0.000    0.000 
#    0.000    0.000    0.000    0.000    0.000    0.000 
#
# Total GULP energy -178673.451726 kJ/mol
# GULP energy per Si atom -5583.545366 kJ/mol
# Density = 2.107397 g / cm^3
# Si number density = 21.122042 Si / 1000 Ang^3
#
#
#
# Elastic Constant Matrix: (Units=GPa)
#
#
# Indices 1 2 3 4 5 6 
#
# 1 138.1394 3.8762 42.3755 0.0000 -13.6396 0.0000
# 2 3.8762 30.1615 5.0998 0.0000 -1.5431 0.0000
# 3 42.3755 5.0998 85.7371 0.0000 -17.4542 0.0000
# 4 0.0000 0.0000 0.0000 11.9126 0.0000 9.5923
# 5 -13.6396 -1.5431 -17.4542 0.0000 26.1968 0.0000
# 6 0.0000 0.0000 0.0000 9.5923 0.0000 -82.8554
#
#
#
# Elastic Compliance Matrix: (Units=1/GPa)
#
#
# Indices 1 2 3 4 5 6 
#
# 1 0.008618 -0.000359 -0.003851 0.000000 0.001900 0.000000
# 2 -0.000359 0.033519 -0.001680 0.000000 0.000668 0.000000
# 3 -0.003851 -0.001680 0.015316 0.000000 0.008100 0.000000
# 4 0.000000 0.000000 0.000000 0.076787 0.000000 0.008890
# 5 0.001900 0.000668 0.008100 0.000000 0.044598 0.000000
# 6 0.000000 0.000000 0.000000 0.008890 0.000000 -0.011040
#
#
# Mechanical properties :
#
#
# Convention : Reuss Voigt Hill
#
# Bulk Modulus (GPa) = 21.89531 39.63789 30.76660
# Shear Modulus (GPa) = 25.66680 4.56323 15.11501
#
# Velocity S-wave (km/s) = 3.48971 1.47143 2.67798
# Velocity P-wave (km/s) = 5.16004 4.65765 4.91526
#
# Compressibility (1/GPa) = 0.04567188
#
# Stress axis : x y z
#
# Youngs Moduli (GPa) = 116.03373 29.83354 65.29061
#
# Poissons Ratio (x) = 0.01071 0.25146
# Poissons Ratio (y) = 0.04167 0.10971
# Poissons Ratio (z) = 0.44689 0.05013
#
# Static dielectric constant tensor:
#      x y z
#    x 1.752160 0.000000 0.006700 
#    y 0.000000 1.760210 0.000000 
#    z 0.006700 0.000000 1.810580 
# 
# From -- ./inp_files/95093.got.cif
#   From: 2010.05.17/outbox.cif.g08.bks.cpg/sg10_48_cif.got.tgz:95093.got - 2010.06.03 11:33:40.
