data_PCOD9143915
_publ_section_title
;
Structure prediction by ZEFSAII (Michael W. Deem and Ramdas Pophale) SiO2 
 PCOD9143915
Probable space group: P 2/M
;
_chemical_formula_sum "Si O2"
_cell_formula_units_Z 32
_cell_length_a 12.645835
_cell_length_b 8.588726
_cell_length_c 20.721204
_cell_angle_alpha 90.000000
_cell_angle_beta 53.885612
_cell_angle_gamma 90.000000
_cell_volume 1818.099387
_symmetry_space_group_name_H-M "P 2/M"
_symmetry_group_IT_number 10
_symmetry_cell_setting 'monoclinic'
loop_
_space_group_symop_operation_xyz
x,y,z
-x,y,-z
-x,-y,-z
x,-y,z
loop_
_atom_site_type_symbol
_atom_site_label
_atom_site_fract_x
_atom_site_fract_y
_atom_site_fract_z
Si Si1 0.145736 0.310013 0.209382
Si Si2 0.677614 0.688294 0.737621
Si Si3 0.391382 0.184738 0.875204
Si Si4 0.383874 0.312908 0.381555
Si Si5 0.643737 0.688112 0.973526
Si Si6 0.319795 0.687390 0.766636
Si Si7 0.645566 0.185770 0.468777
Si Si8 0.850260 0.311765 0.291870
O O1 0.144223 0.500000 0.209885
O O2 0.207875 0.261307 0.255431
O O3 0.245365 0.262068 0.116968
O O4 0.998101 0.256843 0.250472
O O5 0.670654 0.500000 0.741445
O O6 0.538587 0.748648 0.813777
O O7 0.688375 0.734258 0.658759
O O8 0.313768 0.240107 0.839654
O O9 0.397011 0.000000 0.874749
O O10 0.335647 0.248689 0.962225
O O11 0.374855 0.500000 0.391618
O O12 0.537147 0.273649 0.314524
O O13 0.334856 0.234975 0.464258
O O14 0.643638 0.500000 0.975892
O O15 0.500000 0.737221 0.000000
O O16 0.315915 0.500000 0.774620
O O17 0.210444 0.738227 0.754981
O O18 0.500000 0.240325 0.500000
O O19 0.753271 0.257137 0.382896
O O20 0.649156 0.000000 0.461674
O O21 0.850651 0.500000 0.291514
#
# Coordination Sequence:
#
# PCOD9143915 Si02
#       8
#     4   4   4   4   4   4   4   4
#     4   9  18  34  58  83 105 135 177 220 267 317
#     4   9  17  34  55  79 108 138 174 217 268 316
#     4  11  21  31  50  80 110 139 177 220 260 310
#     4   9  17  30  53  79 102 133 174 222 263 304
#     4  10  18  33  57  80 106 140 176 221 268 310
#     4   9  18  33  53  77 105 137 174 218 269 312
#     4  11  22  34  51  77 109 141 176 216 263 319
#     4  10  20  36  58  81 105 136 178 224 264 313
#
# _framework density 17.600798999999999
#
# number of rings (size 3 to 8) (size 9 to 14) (size 15 to 20)
#    0.000    2.250    2.500    2.250    0.000    3.250 
#    0.000    2.500    0.000    7.500    0.000    0.000 
#    0.000    0.000    0.000    0.000    0.000    0.000 
#
# Total GULP energy -178528.209827 kJ/mol
# GULP energy per Si atom -5579.006557 kJ/mol
# Density = 1.756074 g / cm^3
# Si number density = 17.600799 Si / 1000 Ang^3
#
#
#
# Elastic Constant Matrix: (Units=GPa)
#
#
# Indices 1 2 3 4 5 6 
#
# 1 168.5110 26.8318 94.5673 0.0000 15.9869 0.0000
# 2 26.8318 10.0222 19.6510 0.0000 3.7649 0.0000
# 3 94.5673 19.6510 122.0094 0.0000 15.2773 0.0000
# 4 0.0000 0.0000 0.0000 -13.5440 0.0000 -10.8583
# 5 15.9869 3.7649 15.2773 0.0000 31.2001 0.0000
# 6 0.0000 0.0000 0.0000 -10.8583 0.0000 0.3024
#
#
#
# Elastic Compliance Matrix: (Units=1/GPa)
#
#
# Indices 1 2 3 4 5 6 
#
# 1 0.013252 -0.022251 -0.006577 0.000000 -0.000885 0.000000
# 2 -0.022251 0.184441 -0.011826 0.000000 -0.005064 0.000000
# 3 -0.006577 -0.011826 0.015551 0.000000 -0.002818 0.000000
# 4 0.000000 0.000000 0.000000 -0.002479 0.000000 -0.089003
# 5 -0.000885 -0.005064 -0.002818 0.000000 0.034495 0.000000
# 6 0.000000 0.000000 0.000000 -0.089003 0.000000 0.111017
#
#
# Mechanical properties :
#
#
# Convention : Reuss Voigt Hill
#
# Bulk Modulus (GPa) = 7.57940 64.73808 36.15874
# Shear Modulus (GPa) = 10.38282 14.22455 12.30368
#
# Velocity S-wave (km/s) = 2.43143 2.84593 2.64681
# Velocity P-wave (km/s) = 3.49258 6.90364 5.47076
#
# Compressibility (1/GPa) = 0.13193656
#
# Stress axis : x y z
#
# Youngs Moduli (GPa) = 75.45872 5.42179 64.30362
#
# Poissons Ratio (x) = 0.12064 0.42292
# Poissons Ratio (y) = 1.67906 0.76043
# Poissons Ratio (z) = 0.49629 0.06412
#
# Static dielectric constant tensor:
#      x y z
#    x 1.611960 0.000000 0.016050 
#    y 0.000000 1.588290 0.000000 
#    z 0.016050 0.000000 1.572790 
# 
# From -- ./inp_files/79990.got.cif
#   From: 2010.05.17/outbox.cif.g08.bks.cpg/sg10_40_cif.got.tgz:79990.got - 2010.06.03 11:33:40.
