data_PCOD9143815
_publ_section_title
;
Structure prediction by ZEFSAII (Michael W. Deem and Ramdas Pophale) SiO2 
 PCOD9143815
Probable space group: P 2/M
;
_chemical_formula_sum "Si O2"
_cell_formula_units_Z 32
_cell_length_a 10.475988
_cell_length_b 16.059742
_cell_length_c 15.793904
_cell_angle_alpha 90.000000
_cell_angle_beta 35.881172
_cell_angle_gamma 90.000000
_cell_volume 1557.396947
_symmetry_space_group_name_H-M "P 2/M"
_symmetry_group_IT_number 10
_symmetry_cell_setting 'monoclinic'
loop_
_space_group_symop_operation_xyz
x,y,z
-x,y,-z
-x,-y,-z
x,-y,z
loop_
_atom_site_type_symbol
_atom_site_label
_atom_site_fract_x
_atom_site_fract_y
_atom_site_fract_z
Si Si1 0.134135 0.223121 0.723711
Si Si2 0.219626 0.091655 0.062088
Si Si3 0.991892 0.593680 0.819069
Si Si4 0.422787 0.237953 0.419563
Si Si5 0.493984 0.591963 0.846311
Si Si6 0.774677 0.259527 0.654919
Si Si7 0.717722 0.908145 0.769144
Si Si8 0.562759 0.588236 0.325677
O O1 0.249982 0.194444 0.574011
O O2 0.331587 0.217309 0.685183
O O3 0.944022 0.166613 0.862923
O O4 0.041952 0.315572 0.753105
O O5 0.252210 0.090228 0.146130
O O6 0.135541 0.000000 0.082112
O O7 0.458055 0.102474 0.894145
O O8 0.009311 0.500000 0.769470
O O9 0.182011 0.593289 0.788726
O O10 0.745376 0.599398 0.985498
O O11 0.365133 0.232672 0.352422
O O12 0.427174 0.336987 0.437522
O O13 0.582571 0.500000 0.823519
O O14 0.646220 0.672093 0.779541
O O15 0.464809 0.591535 0.760253
O O16 0.827928 0.174100 0.674083
O O17 0.000000 0.297996 0.500000
O O18 0.783950 0.000000 0.701029
O O19 0.480413 0.500000 0.402177
#
# Coordination Sequence:
#
# PCOD9143815 Si02
#       8
#     4   4   4   4   4   4   4   4
#     4  10  18  33  51  71 105 137 166 210 251 292
#     4   9  18  35  59  81 100 129 164 198 245 299
#     4   9  16  26  46  73  97 128 167 207 252 294
#     4   9  20  32  46  73 104 135 172 207 247 298
#     4   9  17  29  45  69 100 130 166 208 247 296
#     4  11  21  34  52  74 100 135 172 206 250 299
#     4   9  19  36  58  82 102 123 163 210 244 288
#     4   8  14  26  44  66  96 133 169 206 247 291
#
# _framework density 20.547105999999999
#
# number of rings (size 3 to 8) (size 9 to 14) (size 15 to 20)
#    0.000    2.750    0.000    2.625    0.000    2.500 
#    0.000    6.875    0.000    3.750    0.000    8.750 
#    0.000    0.000    0.000    0.000    0.000    0.000 
#
# Total GULP energy -178167.373191 kJ/mol
# GULP energy per Si atom -5567.730412 kJ/mol
# Density = 2.050034 g / cm^3
# Si number density = 20.547106 Si / 1000 Ang^3
#
#
#
# Elastic Constant Matrix: (Units=GPa)
#
#
# Indices 1 2 3 4 5 6 
#
# 1 31.4391 3.9778 -1.9052 0.0000 -7.2442 0.0000
# 2 3.9778 77.6954 19.3189 0.0000 -14.4132 0.0000
# 3 -1.9052 19.3189 56.1027 0.0000 -12.8636 0.0000
# 4 0.0000 0.0000 0.0000 12.5875 0.0000 12.0329
# 5 -7.2442 -14.4132 -12.8636 0.0000 15.8936 0.0000
# 6 0.0000 0.0000 0.0000 12.0329 0.0000 6.5431
#
#
#
# Elastic Compliance Matrix: (Units=1/GPa)
#
#
# Indices 1 2 3 4 5 6 
#
# 1 0.037327 0.000760 0.006219 0.000000 0.022737 0.000000
# 2 0.000760 0.015803 -0.002518 0.000000 0.012640 0.000000
# 3 0.006219 -0.002518 0.023365 0.000000 0.019462 0.000000
# 4 0.000000 0.000000 0.000000 -0.104806 0.000000 0.192742
# 5 0.022737 0.012640 0.019462 0.000000 0.100496 0.000000
# 6 0.000000 0.000000 0.000000 0.192742 0.000000 -0.201626
#
#
# Mechanical properties :
#
#
# Convention : Reuss Voigt Hill
#
# Bulk Modulus (GPa) = 11.70711 23.11337 17.41024
# Shear Modulus (GPa) = -45.49904 16.59455 -14.45225
#
# Velocity S-wave (km/s) = -4.71082 2.84497 -2.65499
# Velocity P-wave (km/s) = 4.88662 4.69736 0.95233
#
# Compressibility (1/GPa) = 0.08541821
#
# Stress axis : x y z
#
# Youngs Moduli (GPa) = 26.79012 63.28058 42.79906
#
# Poissons Ratio (x) = -0.04812 -0.26616
# Poissons Ratio (y) = -0.02037 0.10776
# Poissons Ratio (z) = -0.16661 0.15932
#
# Static dielectric constant tensor:
#      x y z
#    x 1.749210 0.000000 -0.001070 
#    y 0.000000 1.793000 0.000000 
#    z -0.001070 0.000000 1.701970 
# 
# From -- ./inp_files/77135.got.cif
#   From: 2010.05.17/outbox.cif.g08.bks.cpg/sg10_39_cif.got.tgz:77135.got - 2010.06.03 11:33:40.
