data_PCOD9143023
_publ_section_title
;
Structure prediction by ZEFSAII (Michael W. Deem and Ramdas Pophale) SiO2 
 PCOD9143023
Probable space group: P 2/M
;
_chemical_formula_sum "Si O2"
_cell_formula_units_Z 24
_cell_length_a 9.941919
_cell_length_b 11.727747
_cell_length_c 26.281489
_cell_angle_alpha 90.000000
_cell_angle_beta 28.080756
_cell_angle_gamma 90.000000
_cell_volume 1442.425339
_symmetry_space_group_name_H-M "P 2/M"
_symmetry_group_IT_number 10
_symmetry_cell_setting 'monoclinic'
loop_
_space_group_symop_operation_xyz
x,y,z
-x,y,-z
-x,-y,-z
x,-y,z
loop_
_atom_site_type_symbol
_atom_site_label
_atom_site_fract_x
_atom_site_fract_y
_atom_site_fract_z
Si Si1 0.286027 0.265384 0.933686
Si Si2 0.645933 0.500000 0.034079
Si Si3 0.236998 0.864115 0.051919
Si Si4 0.804772 0.630399 0.514763
Si Si5 0.372177 0.636107 0.270244
Si Si6 0.919042 0.500000 0.831649
Si Si7 0.289704 0.290543 0.739804
O O1 0.246648 0.387987 0.973740
O O2 0.524386 0.288889 0.811636
O O3 0.324858 0.177430 0.966368
O O4 0.000000 0.232668 0.000000
O O5 0.303613 0.500000 0.140400
O O6 0.761016 0.500000 0.938740
O O7 0.938097 0.806639 0.169328
O O8 0.210753 0.000000 0.062880
O O9 0.500000 0.826444 0.000000
O O10 0.693955 0.500000 0.543513
O O11 0.558241 0.720382 0.611371
O O12 0.000000 0.623185 0.500000
O O13 0.038728 0.657449 0.393879
O O14 0.408565 0.500000 0.248388
O O15 0.565428 0.665718 0.255576
O O16 0.106983 0.387598 0.772768
#
# Coordination Sequence:
#
# PCOD9143023 Si02
#       7
#     4   2   4   4   4   2   4
#     4  12  21  33  54  80 110 139 170 216 269 323
#     4  11  21  28  45  79 110 139 165 208 268 319
#     4  11  25  41  55  74 103 141 183 225 268 312
#     4   8  15  27  48  78 112 142 169 206 255 316
#     4  10  18  30  50  84 119 141 165 207 267 321
#     4  11  18  28  48  75 107 137 177 210 251 322
#     4  11  17  32  54  78 105 141 182 214 257 313
#
# _framework density 16.638642999999998
#
# number of rings (size 3 to 8) (size 9 to 14) (size 15 to 20)
#    0.000    1.500    5.833    2.250    0.000    0.333 
#    0.000    0.000    0.000   10.500    0.000    2.333 
#    0.000    0.000    0.000    0.000    0.000    0.000 
#
# Total GULP energy -133669.111958 kJ/mol
# GULP energy per Si atom -5569.546332 kJ/mol
# Density = 1.660077 g / cm^3
# Si number density = 16.638643 Si / 1000 Ang^3
#
#
#
# Elastic Constant Matrix: (Units=GPa)
#
#
# Indices 1 2 3 4 5 6 
#
# 1 76.6100 16.3414 30.9515 0.0000 -2.6977 0.0000
# 2 16.3414 41.1845 34.8600 0.0000 -3.8286 0.0000
# 3 30.9515 34.8600 146.5839 0.0000 8.9622 0.0000
# 4 0.0000 0.0000 0.0000 9.7945 0.0000 -22.4832
# 5 -2.6977 -3.8286 8.9622 0.0000 20.1486 0.0000
# 6 0.0000 0.0000 0.0000 -22.4832 0.0000 -24.3677
#
#
#
# Elastic Compliance Matrix: (Units=1/GPa)
#
#
# Indices 1 2 3 4 5 6 
#
# 1 0.014892 -0.003634 -0.002426 0.000000 0.002382 0.000000
# 2 -0.003634 0.033060 -0.007657 0.000000 0.009201 0.000000
# 3 -0.002426 -0.007657 0.009523 0.000000 -0.006016 0.000000
# 4 0.000000 0.000000 0.000000 0.032745 0.000000 -0.030213
# 5 0.002382 0.009201 -0.006016 0.000000 0.054374 0.000000
# 6 0.000000 0.000000 0.000000 -0.030213 0.000000 -0.013162
#
#
# Mechanical properties :
#
#
# Convention : Reuss Voigt Hill
#
# Bulk Modulus (GPa) = 33.28862 47.63159 40.46010
# Shear Modulus (GPa) = 29.60657 13.26346 21.43502
#
# Velocity S-wave (km/s) = 4.22285 2.82644 3.59314
# Velocity P-wave (km/s) = 6.62019 6.27224 6.44856
#
# Compressibility (1/GPa) = 0.03004030
#
# Stress axis : x y z
#
# Youngs Moduli (GPa) = 67.14860 30.24821 105.00753
#
# Poissons Ratio (x) = 0.10993 0.25474
# Poissons Ratio (y) = 0.24403 0.80408
# Poissons Ratio (z) = 0.16290 0.23162
#
# Static dielectric constant tensor:
#      x y z
#    x 1.561990 0.000000 -0.003850 
#    y 0.000000 1.541220 0.000000 
#    z -0.003850 0.000000 1.639570 
# 
# From -- ./inp_files/32104.got.cif
#   From: 2010.05.17/outbox.cif.g08.bks.cpg/sg10_17_cif.got.tgz:32104.got - 2010.06.03 11:33:40.
