data_PCOD9143873
_publ_section_title
;
Structure prediction by ZEFSAII (Michael W. Deem and Ramdas Pophale) SiO2 
 PCOD9143873
Probable space group: P 2/M
;
_chemical_formula_sum "Si O2"
_cell_formula_units_Z 22
_cell_length_a 18.402508
_cell_length_b 7.216611
_cell_length_c 15.029960
_cell_angle_alpha 90.000000
_cell_angle_beta 23.293497
_cell_angle_gamma 90.000000
_cell_volume 789.314561
_symmetry_space_group_name_H-M "P 2/M"
_symmetry_group_IT_number 10
_symmetry_cell_setting 'monoclinic'
loop_
_space_group_symop_operation_xyz
x,y,z
-x,y,-z
-x,-y,-z
x,-y,z
loop_
_atom_site_type_symbol
_atom_site_label
_atom_site_fract_x
_atom_site_fract_y
_atom_site_fract_z
Si Si1 0.740475 0.722984 0.142777
Si Si2 0.868236 0.713961 0.575287
Si Si3 0.419154 0.203156 0.961632
Si Si4 0.809892 0.287925 0.451249
Si Si5 0.161929 0.000000 0.110595
Si Si6 0.314127 0.724373 0.596680
O O1 0.750392 0.500000 0.123619
O O2 0.868677 0.836451 0.933054
O O3 0.529281 0.778774 0.357194
O O4 0.769703 0.771750 0.213407
O O5 0.922000 0.500000 0.501788
O O6 0.677746 0.715627 0.842440
O O7 0.878887 0.806213 0.466721
O O8 0.000000 0.802294 0.500000
O O9 0.491277 0.000000 0.905375
O O10 0.592046 0.304960 0.725859
O O11 0.265245 0.160489 0.059753
O O12 0.878921 0.500000 0.366380
O O13 0.785488 0.208534 0.379851
O O14 0.312066 0.500000 0.595008
#
# Coordination Sequence:
#
# PCOD9143873 Si02
#       6
#     4   4   4   4   2   4
#     4   9  16  28  45  71 113 146 172 215 267 321
#     4  10  22  38  56  77 102 140 185 225 273 330
#     4  10  21  34  49  79 106 139 176 221 267 323
#     4  10  18  33  55  78 109 140 175 227 274 316
#     4  10  20  31  48  80 110 144 182 215 266 327
#     4   8  14  25  44  72 105 142 175 211 268 318
#
# _framework density 27.872285000000002
#
# number of rings (size 3 to 8) (size 9 to 14) (size 15 to 20)
#    0.545    2.000    1.818    2.182    0.000    5.455 
#    1.636    0.000    0.000    0.000    0.000    2.545 
#    0.000    7.273    0.000    0.000    0.000    0.000 
#
# Total GULP energy -122567.397326 kJ/mol
# GULP energy per Si atom -5571.245333 kJ/mol
# Density = 2.780885 g / cm^3
# Si number density = 27.872285 Si / 1000 Ang^3
#
#
#
# Elastic Constant Matrix: (Units=GPa)
#
#
# Indices 1 2 3 4 5 6 
#
# 1 269.8696 -4.7535 35.1972 0.0000 31.4027 0.0000
# 2 -4.7535 152.0046 -48.4034 0.0000 20.1277 0.0000
# 3 35.1972 -48.4034 57.5709 0.0000 27.5120 0.0000
# 4 0.0000 0.0000 0.0000 95.2845 0.0000 26.6675
# 5 31.4027 20.1277 27.5120 0.0000 62.6082 0.0000
# 6 0.0000 0.0000 0.0000 26.6675 0.0000 27.5817
#
#
#
# Elastic Compliance Matrix: (Units=1/GPa)
#
#
# Indices 1 2 3 4 5 6 
#
# 1 0.004131 -0.000679 -0.002799 0.000000 -0.000624 0.000000
# 2 -0.000679 0.013722 0.017592 0.000000 -0.011801 0.000000
# 3 -0.002799 0.017592 0.045447 0.000000 -0.024223 0.000000
# 4 0.000000 0.000000 0.000000 0.014388 0.000000 -0.013911
# 5 -0.000624 -0.011801 -0.024223 0.000000 0.030723 0.000000
# 6 0.000000 0.000000 0.000000 -0.013911 0.000000 0.049706
#
#
# Mechanical properties :
#
#
# Convention : Reuss Voigt Hill
#
# Bulk Modulus (GPa) = 10.92571 49.28063 30.10317
# Shear Modulus (GPa) = 31.17199 70.25518 50.71359
#
# Velocity S-wave (km/s) = 3.34786 5.02602 4.27019
# Velocity P-wave (km/s) = 4.34426 7.16940 5.92760
#
# Compressibility (1/GPa) = 0.09152721
#
# Stress axis : x y z
#
# Youngs Moduli (GPa) = 242.06386 72.87578 22.00358
#
# Poissons Ratio (x) = 0.04952 0.06159
# Poissons Ratio (y) = 0.16448 -0.38708
# Poissons Ratio (z) = 0.67751 -1.28202
#
# Static dielectric constant tensor:
#      x y z
#    x 2.195560 0.000000 -0.114200 
#    y 0.000000 -35.441230 0.000000 
#    z -0.114200 0.000000 2.382300 
# 
# From -- ./inp_files/68509.got.cif
#   From: 2010.05.17/outbox.cif.g08.bks.cpg/sg10_35_cif.got.tgz:68509.got - 2010.06.03 11:33:40.
