data_PCOD9143861
_publ_section_title
;
Structure prediction by ZEFSAII (Michael W. Deem and Ramdas Pophale) SiO2 
 PCOD9143861
Probable space group: P 2/M
;
_chemical_formula_sum "Si O2"
_cell_formula_units_Z 32
_cell_length_a 26.766566
_cell_length_b 7.380476
_cell_length_c 20.772479
_cell_angle_alpha 90.000000
_cell_angle_beta 21.090747
_cell_angle_gamma 90.000000
_cell_volume 1476.665749
_symmetry_space_group_name_H-M "P 2/M"
_symmetry_group_IT_number 10
_symmetry_cell_setting 'monoclinic'
loop_
_space_group_symop_operation_xyz
x,y,z
-x,y,-z
-x,-y,-z
x,-y,z
loop_
_atom_site_type_symbol
_atom_site_label
_atom_site_fract_x
_atom_site_fract_y
_atom_site_fract_z
Si Si1 0.846255 0.208910 0.193715
Si Si2 0.334036 0.720703 0.097651
Si Si3 0.669147 0.278610 0.139398
Si Si4 0.170677 0.721380 0.420764
Si Si5 0.853153 0.279093 0.798120
Si Si6 0.621392 0.709157 0.568668
Si Si7 0.642670 0.721328 0.687490
Si Si8 0.659100 0.719259 0.296078
O O1 0.749846 0.287417 0.365677
O O2 0.761089 0.219604 0.229700
O O3 0.864597 0.000000 0.190050
O O4 0.000000 0.288623 0.000000
O O5 0.334301 0.500000 0.097559
O O6 0.266613 0.778723 0.245779
O O7 0.238822 0.778176 0.152155
O O8 0.492381 0.775688 0.895647
O O9 0.668135 0.500000 0.142408
O O10 0.516165 0.215771 0.300625
O O11 0.699274 0.221101 0.176004
O O12 0.779217 0.223371 0.953192
O O13 0.169765 0.500000 0.421228
O O14 0.237768 0.779950 0.407397
O O15 0.012123 0.779798 0.602832
O O16 0.852838 0.500000 0.797830
O O17 0.584435 0.500000 0.625376
O O18 0.653822 0.784588 0.600295
O O19 0.647144 0.500000 0.682381
O O20 0.500000 0.775771 0.500000
O O21 0.660344 0.500000 0.296697
#
# Coordination Sequence:
#
# PCOD9143861 Si02
#       8
#     4   4   4   4   4   4   4   4
#     4  11  25  41  55  77 109 139 168 209 263 318
#     4   9  14  22  35  52  84 129 166 197 240 294
#     4   9  16  28  47  71  98 127 166 215 254 294
#     4   9  16  22  31  55  90 126 166 203 238 294
#     4   9  15  23  35  54  85 127 166 198 242 295
#     4  10  18  33  55  75  99 133 172 212 256 306
#     4   9  16  25  40  62  88 124 166 205 247 294
#     4  10  19  34  58  83 104 132 174 218 257 305
#
# _framework density 21.670442999999999
#
# number of rings (size 3 to 8) (size 9 to 14) (size 15 to 20)
#    0.000    2.500    2.500    1.125    0.000    5.250 
#    0.000    2.500    0.000    0.000    0.000    0.000 
#    0.000    2.000    0.000    1.625    0.000    2.250 
#
# Total GULP energy -178767.100194 kJ/mol
# GULP energy per Si atom -5586.471881 kJ/mol
# Density = 2.162112 g / cm^3
# Si number density = 21.670443 Si / 1000 Ang^3
#
#
#
# Elastic Constant Matrix: (Units=GPa)
#
#
# Indices 1 2 3 4 5 6 
#
# 1 93.0565 -10.0997 24.0887 0.0000 9.4038 0.0000
# 2 -10.0997 70.4445 -9.9223 0.0000 0.1335 0.0000
# 3 24.0887 -9.9223 68.3481 0.0000 -2.9941 0.0000
# 4 0.0000 0.0000 0.0000 -35.0706 0.0000 -38.7857
# 5 9.4038 0.1335 -2.9941 0.0000 43.4526 0.0000
# 6 0.0000 0.0000 0.0000 -38.7857 0.0000 -42.1328
#
#
#
# Elastic Compliance Matrix: (Units=1/GPa)
#
#
# Indices 1 2 3 4 5 6 
#
# 1 0.012281 0.001162 -0.004289 0.000000 -0.002957 0.000000
# 2 0.001162 0.014602 0.001702 0.000000 -0.000179 0.000000
# 3 -0.004289 0.001702 0.016480 0.000000 0.002059 0.000000
# 4 0.000000 0.000000 0.000000 1.577576 0.000000 -1.452251
# 5 -0.002957 -0.000179 0.002059 0.000000 0.023796 0.000000
# 6 0.000000 0.000000 0.000000 -1.452251 0.000000 1.313147
#
#
# Mechanical properties :
#
#
# Convention : Reuss Voigt Hill
#
# Bulk Modulus (GPa) = 24.68251 26.66471 25.67361
# Shear Modulus (GPa) = 1.68110 8.43532 5.05821
#
# Velocity S-wave (km/s) = 0.88173 1.97509 1.52945
# Velocity P-wave (km/s) = 3.52863 4.18720 3.87195
#
# Compressibility (1/GPa) = 0.04051452
#
# Stress axis : x y z
#
# Youngs Moduli (GPa) = 81.42366 68.48217 60.67950
#
# Poissons Ratio (x) = -0.07959 0.26027
# Poissons Ratio (y) = -0.09464 -0.10330
# Poissons Ratio (z) = 0.34925 -0.11658
#
# Static dielectric constant tensor:
#      x y z
#    x 1.743330 0.000000 0.001900 
#    y 0.000000 1.853770 0.000000 
#    z 0.001900 0.000000 1.740400 
# 
# From -- ./inp_files/86753.got.cif
#   From: 2010.05.17/outbox.cif.g08.bks.cpg/sg10_44_cif.got.tgz:86753.got - 2010.06.03 11:33:40.
