data_PCOD9143200
_publ_section_title
;
Structure prediction by ZEFSAII (Michael W. Deem and Ramdas Pophale) SiO2 
 PCOD9143200
Probable space group: P 2/M
;
_chemical_formula_sum "Si O2"
_cell_formula_units_Z 28
_cell_length_a 18.333330
_cell_length_b 7.510626
_cell_length_c 20.118763
_cell_angle_alpha 90.000000
_cell_angle_beta 150.459228
_cell_angle_gamma 90.000000
_cell_volume 1365.851157
_symmetry_space_group_name_H-M "P 2/M"
_symmetry_group_IT_number 10
_symmetry_cell_setting 'monoclinic'
loop_
_space_group_symop_operation_xyz
x,y,z
-x,y,-z
-x,-y,-z
x,-y,z
loop_
_atom_site_type_symbol
_atom_site_label
_atom_site_fract_x
_atom_site_fract_y
_atom_site_fract_z
Si Si1 0.146760 0.214684 0.077096
Si Si2 0.246243 0.713815 0.004696
Si Si3 0.580444 0.294939 0.257689
Si Si4 0.680079 0.295628 0.489836
Si Si5 0.898994 0.281748 0.481599
Si Si6 0.003649 0.282405 0.294027
Si Si7 0.424755 0.800058 0.377397
O O1 0.176656 0.254117 0.022900
O O2 0.286404 0.283115 0.230339
O O3 0.146492 0.000000 0.079821
O O4 0.000000 0.276122 0.000000
O O5 0.255609 0.500000 0.007337
O O6 0.414548 0.782771 0.127848
O O7 0.137832 0.777054 0.859963
O O8 0.565871 0.500000 0.222520
O O9 0.634086 0.298631 0.376486
O O10 0.727987 0.218960 0.339673
O O11 0.676468 0.500000 0.510936
O O12 0.556784 0.189442 0.429982
O O13 0.846964 0.228177 0.626062
O O14 0.893043 0.500000 0.478332
O O15 0.000000 0.228478 0.500000
O O16 0.972195 0.227144 0.610185
O O17 0.003165 0.500000 0.294321
O O18 0.500000 0.709433 0.500000
O O19 0.377845 0.000000 0.361512
#
# Coordination Sequence:
#
# PCOD9143200 Si02
#       7
#     4   4   4   4   4   4   4
#     4  10  22  37  49  65  93 125 155 194 242 283
#     4  10  18  31  49  69  95 124 157 197 234 273
#     4   8  14  25  43  64  88 120 153 186 225 266
#     4   9  16  30  47  64  87 118 153 188 227 272
#     4   8  13  24  42  65  97 132 156 179 225 283
#     4   8  16  27  43  68  95 122 154 191 229 268
#     4  10  21  34  47  65  89 115 149 193 237 276
#
# _framework density 20.500036999999999
#
# number of rings (size 3 to 8) (size 9 to 14) (size 15 to 20)
#    0.000    3.000    1.429    1.714    2.000    0.571 
#    0.000    0.714    0.000    4.286    0.000    0.000 
#    0.000   21.714    0.000    0.000    0.000    0.000 
#
# Total GULP energy -155930.208161 kJ/mol
# GULP energy per Si atom -5568.936006 kJ/mol
# Density = 2.045338 g / cm^3
# Si number density = 20.500037 Si / 1000 Ang^3
#
#
#
# Elastic Constant Matrix: (Units=GPa)
#
#
# Indices 1 2 3 4 5 6 
#
# 1 137.0640 6.1543 93.9661 0.0000 29.4896 0.0000
# 2 6.1543 54.8243 10.5755 0.0000 3.2197 0.0000
# 3 93.9661 10.5755 192.7782 0.0000 22.4294 0.0000
# 4 0.0000 0.0000 0.0000 31.3158 0.0000 8.7102
# 5 29.4896 3.2197 22.4294 0.0000 31.1280 0.0000
# 6 0.0000 0.0000 0.0000 8.7102 0.0000 17.1074
#
#
#
# Elastic Compliance Matrix: (Units=1/GPa)
#
#
# Indices 1 2 3 4 5 6 
#
# 1 0.012629 0.000069 -0.005203 0.000000 -0.008222 0.000000
# 2 0.000069 0.018483 -0.000892 0.000000 -0.001334 0.000000
# 3 -0.005203 -0.000892 0.007846 0.000000 -0.000632 0.000000
# 4 0.000000 0.000000 0.000000 0.037201 0.000000 -0.018941
# 5 -0.008222 -0.001334 -0.000632 0.000000 0.040508 0.000000
# 6 0.000000 0.000000 0.000000 -0.018941 0.000000 0.068098
#
#
# Mechanical properties :
#
#
# Convention : Reuss Voigt Hill
#
# Bulk Modulus (GPa) = 37.16796 67.33981 52.25389
# Shear Modulus (GPa) = 24.29720 34.17494 29.23607
#
# Velocity S-wave (km/s) = 3.44645 4.08740 3.78053
# Velocity P-wave (km/s) = 5.83158 7.42938 6.67844
#
# Compressibility (1/GPa) = 0.02690489
#
# Stress axis : x y z
#
# Youngs Moduli (GPa) = 79.18549 54.10433 127.45730
#
# Poissons Ratio (x) = -0.00373 0.66312
# Poissons Ratio (y) = -0.00545 0.11373
# Poissons Ratio (z) = 0.41198 0.04828
#
# Static dielectric constant tensor:
#      x y z
#    x 1.731670 0.000000 0.019690 
#    y 0.000000 1.817980 0.000000 
#    z 0.019690 0.000000 1.747740 
# 
# From -- ./inp_files/34412.got.cif
#   From: 2010.05.17/outbox.cif.g08.bks.cpg/sg10_18_cif.got.tgz:34412.got - 2010.06.03 11:33:40.
