data_PCOD9143161
_publ_section_title
;
Structure prediction by ZEFSAII (Michael W. Deem and Ramdas Pophale) SiO2 
 PCOD9143161
Probable space group: P 2/M
;
_chemical_formula_sum "Si O2"
_cell_formula_units_Z 32
_cell_length_a 23.260909
_cell_length_b 13.237431
_cell_length_c 23.191590
_cell_angle_alpha 90.000000
_cell_angle_beta 161.685443
_cell_angle_gamma 90.000000
_cell_volume 2243.952325
_symmetry_space_group_name_H-M "P 2/M"
_symmetry_group_IT_number 10
_symmetry_cell_setting 'monoclinic'
loop_
_space_group_symop_operation_xyz
x,y,z
-x,y,-z
-x,-y,-z
x,-y,z
loop_
_atom_site_type_symbol
_atom_site_label
_atom_site_fract_x
_atom_site_fract_y
_atom_site_fract_z
Si Si1 0.284363 0.613894 0.281290
Si Si2 0.293365 0.272081 0.173887
Si Si3 0.872029 0.622506 0.212214
Si Si4 0.714960 0.622602 0.375817
Si Si5 0.533859 0.623153 0.967082
Si Si6 0.553488 0.885610 0.483748
Si Si7 0.927600 0.196083 0.868729
Si Si8 0.624254 0.621704 0.867420
O O1 0.500000 0.621177 0.500000
O O2 0.223279 0.500000 0.235491
O O3 0.268362 0.641862 0.198918
O O4 0.171359 0.697488 0.208891
O O5 0.447783 0.195925 0.344848
O O6 0.342505 0.320356 0.160029
O O7 0.100417 0.213933 0.992716
O O8 0.877210 0.500000 0.219353
O O9 0.078892 0.659195 0.417695
O O10 0.728488 0.654422 0.125066
O O11 0.779318 0.647134 0.062630
O O12 0.720826 0.500000 0.380186
O O13 0.623607 0.654082 0.228172
O O14 0.570262 0.648164 0.288247
O O15 0.533738 0.500000 0.967578
O O16 0.500000 0.657399 0.000000
O O17 0.500000 0.869064 0.500000
O O18 0.771000 0.870366 0.690960
O O19 0.502539 0.000000 0.419718
O O20 0.000000 0.156131 0.000000
O O21 0.627748 0.500000 0.861849
#
# Coordination Sequence:
#
# PCOD9143161 Si02
#       8
#     4   4   4   4   4   4   4   4
#     4  10  18  31  46  61  88 114 131 162 208 252
#     4  11  20  32  48  66  84 106 139 171 209 258
#     4   8  14  25  36  50  75 108 143 176 210 244
#     4   8  14  25  38  51  75 110 143 174 210 244
#     4   8  13  20  32  52  75 100 138 186 222 244
#     4  11  21  36  52  67  85 102 128 169 218 266
#     4  10  19  33  47  67  85 104 133 163 204 259
#     4   9  18  29  41  59  83 110 142 177 206 243
#
# _framework density 14.260552000000001
#
# number of rings (size 3 to 8) (size 9 to 14) (size 15 to 20)
#    0.000    2.625    3.750    1.875    0.000    5.000 
#    0.000    2.500    0.000    0.000    0.000    0.000 
#    0.000    0.000    0.000    0.000    0.000   10.000 
#
# Total GULP energy -178180.969012 kJ/mol
# GULP energy per Si atom -5568.155282 kJ/mol
# Density = 1.422809 g / cm^3
# Si number density = 14.260552 Si / 1000 Ang^3
#
#
#
# Elastic Constant Matrix: (Units=GPa)
#
#
# Indices 1 2 3 4 5 6 
#
# 1 107.2523 21.9458 53.6224 0.0000 -3.0872 0.0000
# 2 21.9458 30.1166 13.1094 0.0000 -3.8860 0.0000
# 3 53.6224 13.1094 116.1055 0.0000 12.3076 0.0000
# 4 0.0000 0.0000 0.0000 5.1557 0.0000 -1.9414
# 5 -3.0872 -3.8860 12.3076 0.0000 9.7053 0.0000
# 6 0.0000 0.0000 0.0000 -1.9414 0.0000 4.4168
#
#
#
# Elastic Compliance Matrix: (Units=1/GPa)
#
#
# Indices 1 2 3 4 5 6 
#
# 1 0.014478 -0.005936 -0.007223 0.000000 0.011389 0.000000
# 2 -0.005936 0.041923 -0.004126 0.000000 0.020130 0.000000
# 3 -0.007223 -0.004126 0.014827 0.000000 -0.022752 0.000000
# 4 0.000000 0.000000 0.000000 0.232432 0.000000 0.102169
# 5 0.011389 0.020130 -0.022752 0.000000 0.143571 0.000000
# 6 0.000000 0.000000 0.000000 0.102169 0.000000 0.271319
#
#
# Mechanical properties :
#
#
# Convention : Reuss Voigt Hill
#
# Bulk Modulus (GPa) = 27.28008 47.86995 37.57501
# Shear Modulus (GPa) = 6.53304 14.84200 10.68752
#
# Velocity S-wave (km/s) = 2.14270 3.22960 2.74057
# Velocity P-wave (km/s) = 5.02919 6.89551 6.03493
#
# Compressibility (1/GPa) = 0.03665679
#
# Stress axis : x y z
#
# Youngs Moduli (GPa) = 69.07162 23.85318 67.44650
#
# Poissons Ratio (x) = 0.14159 0.48720
# Poissons Ratio (y) = 0.41001 0.27827
# Poissons Ratio (z) = 0.49894 0.09841
#
# Static dielectric constant tensor:
#      x y z
#    x 1.456960 0.000000 0.011360 
#    y 0.000000 1.453960 0.000000 
#    z 0.011360 0.000000 1.508670 
# 
# From -- ./inp_files/86358.got.cif
#   From: 2010.05.17/outbox.cif.g08.bks.cpg/sg10_44_cif.got.tgz:86358.got - 2010.06.03 11:33:40.
