data_PCOD9143156
_publ_section_title
;
Structure prediction by ZEFSAII (Michael W. Deem and Ramdas Pophale) SiO2 
 PCOD9143156
Probable space group: P 2/M
;
_chemical_formula_sum "Si O2"
_cell_formula_units_Z 30
_cell_length_a 14.865337
_cell_length_b 9.235709
_cell_length_c 11.377376
_cell_angle_alpha 90.000000
_cell_angle_beta 67.747182
_cell_angle_gamma 90.000000
_cell_volume 1445.685419
_symmetry_space_group_name_H-M "P 2/M"
_symmetry_group_IT_number 10
_symmetry_cell_setting 'monoclinic'
loop_
_space_group_symop_operation_xyz
x,y,z
-x,y,-z
-x,-y,-z
x,-y,z
loop_
_atom_site_type_symbol
_atom_site_label
_atom_site_fract_x
_atom_site_fract_y
_atom_site_fract_z
Si Si1 0.215774 0.175076 0.402696
Si Si2 0.500000 0.751689 0.000000
Si Si3 0.958962 0.667798 0.151864
Si Si4 0.217912 0.173080 0.664610
Si Si5 0.437917 0.165341 0.285698
Si Si6 0.612200 0.668375 0.306606
Si Si7 0.700064 0.340359 0.002479
Si Si8 0.130019 0.173631 0.201462
O O1 0.183479 0.211875 0.549759
O O2 0.327845 0.221659 0.334462
O O3 0.151811 0.222175 0.324432
O O4 0.217519 0.000000 0.394819
O O5 0.521924 0.835008 0.868077
O O6 0.599007 0.666754 0.980456
O O7 0.944573 0.500000 0.191563
O O8 0.858230 0.753367 0.210686
O O9 0.037162 0.746837 0.195081
O O10 0.000000 0.672801 0.000000
O O11 0.324076 0.238809 0.635092
O O12 0.219925 0.000000 0.676233
O O13 0.507794 0.263177 0.330134
O O14 0.437616 0.000000 0.329941
O O15 0.605644 0.500000 0.343181
O O16 0.669356 0.676927 0.153178
O O17 0.745240 0.500000 0.965478
O O18 0.774900 0.221073 0.919833
O O19 0.117635 0.000000 0.203104
#
# Coordination Sequence:
#
# PCOD9143156 Si02
#       8
#     4   2   4   4   4   4   4   4
#     4   9  21  40  60  88 126 162 197 249 306 351
#     4  10  18  30  56  86 120 158 202 248 294 348
#     4  11  25  45  67  92 124 156 190 246 311 363
#     4  11  23  42  66  88 116 159 207 250 299 361
#     4  10  19  35  58  87 121 162 209 250 297 354
#     4  10  22  38  56  85 124 162 203 256 308 353
#     4  10  20  34  54  83 122 161 195 241 305 359
#     4  11  22  39  63  92 123 157 202 250 296 358
#
# _framework density 20.751403
#
# number of rings (size 3 to 8) (size 9 to 14) (size 15 to 20)
#    0.000    1.733    1.333    2.800    0.000    8.533 
#    0.000    9.333    0.000    0.000    0.000    0.000 
#    0.000    0.000    0.000    0.000    0.000    0.000 
#
# Total GULP energy -167627.689581 kJ/mol
# GULP energy per Si atom -5587.589653 kJ/mol
# Density = 2.070417 g / cm^3
# Si number density = 20.751403 Si / 1000 Ang^3
#
#
#
# Elastic Constant Matrix: (Units=GPa)
#
#
# Indices 1 2 3 4 5 6 
#
# 1 108.6884 41.6575 8.6410 0.0000 18.5031 0.0000
# 2 41.6575 107.4185 22.0071 0.0000 12.0617 0.0000
# 3 8.6410 22.0071 38.0629 0.0000 3.8728 0.0000
# 4 0.0000 0.0000 0.0000 50.8895 0.0000 -38.5592
# 5 18.5031 12.0617 3.8728 0.0000 28.6036 0.0000
# 6 0.0000 0.0000 0.0000 -38.5592 0.0000 46.4602
#
#
#
# Elastic Compliance Matrix: (Units=1/GPa)
#
#
# Indices 1 2 3 4 5 6 
#
# 1 0.011695 -0.003911 0.000211 0.000000 -0.005945 0.000000
# 2 -0.003911 0.012264 -0.006017 0.000000 -0.001827 0.000000
# 3 0.000211 -0.006017 0.029871 0.000000 -0.001644 0.000000
# 4 0.000000 0.000000 0.000000 0.052944 0.000000 0.043941
# 5 -0.005945 -0.001827 -0.001644 0.000000 0.039799 0.000000
# 6 0.000000 0.000000 0.000000 0.043941 0.000000 0.057992
#
#
# Mechanical properties :
#
#
# Convention : Reuss Voigt Hill
#
# Bulk Modulus (GPa) = 29.07354 44.30899 36.69127
# Shear Modulus (GPa) = 21.23471 37.31495 29.27483
#
# Velocity S-wave (km/s) = 3.20236 4.24511 3.76006
# Velocity P-wave (km/s) = 5.26444 6.73992 6.04735
#
# Compressibility (1/GPa) = 0.03439554
#
# Stress axis : x y z
#
# Youngs Moduli (GPa) = 85.50772 81.53964 33.47784
#
# Poissons Ratio (x) = 0.31891 -0.00707
# Poissons Ratio (y) = 0.33443 0.20144
# Poissons Ratio (z) = -0.01806 0.49062
#
# Static dielectric constant tensor:
#      x y z
#    x 1.729540 0.000000 0.004680 
#    y 0.000000 1.709310 0.000000 
#    z 0.004680 0.000000 1.764180 
# 
# From -- ./inp_files/49765.got.cif
#   From: 2010.05.17/outbox.cif.g08.bks.cpg/sg10_25_cif.got.tgz:49765.got - 2010.06.03 11:33:40.
