data_PCOD9143276
_publ_section_title
;
Structure prediction by ZEFSAII (Michael W. Deem and Ramdas Pophale) SiO2 
 PCOD9143276
Probable space group: P 2/M
;
_chemical_formula_sum "Si O2"
_cell_formula_units_Z 32
_cell_length_a 12.121660
_cell_length_b 8.932114
_cell_length_c 24.686874
_cell_angle_alpha 90.000000
_cell_angle_beta 43.139274
_cell_angle_gamma 90.000000
_cell_volume 1827.658747
_symmetry_space_group_name_H-M "P 2/M"
_symmetry_group_IT_number 10
_symmetry_cell_setting 'monoclinic'
loop_
_space_group_symop_operation_xyz
x,y,z
-x,y,-z
-x,-y,-z
x,-y,z
loop_
_atom_site_type_symbol
_atom_site_label
_atom_site_fract_x
_atom_site_fract_y
_atom_site_fract_z
Si Si1 0.158758 0.678755 0.684297
Si Si2 0.583064 0.321036 0.220301
Si Si3 0.813216 0.180611 0.827583
Si Si4 0.253828 0.818211 0.029521
Si Si5 0.464194 0.181143 0.153488
Si Si6 0.481006 0.680065 0.634894
Si Si7 0.067895 0.823029 0.914780
Si Si8 0.666754 0.828424 0.474684
O O1 0.146788 0.500000 0.688703
O O2 0.305830 0.721282 0.672110
O O3 0.209460 0.736846 0.606654
O O4 0.990277 0.750644 0.761533
O O5 0.577942 0.500000 0.218188
O O6 0.490437 0.249221 0.202987
O O7 0.515302 0.277233 0.303557
O O8 0.767995 0.266268 0.151097
O O9 0.727015 0.225232 0.914874
O O10 0.701684 0.222844 0.816853
O O11 0.826613 0.000000 0.823225
O O12 0.076360 0.772914 0.072805
O O13 0.257871 0.000000 0.026114
O O14 0.390276 0.768546 0.938571
O O15 0.471858 0.000000 0.154465
O O16 0.494592 0.500000 0.625438
O O17 0.617734 0.755236 0.549078
O O18 0.099946 0.000000 0.894189
O O19 0.000000 0.808333 0.000000
O O20 0.500000 0.827421 0.500000
O O21 0.719224 0.000000 0.461972
#
# Coordination Sequence:
#
# PCOD9143276 Si02
#       8
#     4   4   4   4   4   4   4   4
#     4  10  19  33  53  76 108 140 164 199 252 310
#     4  11  22  34  50  74 105 138 173 211 252 304
#     4  10  20  33  53  76  98 130 175 222 256 296
#     4   9  17  32  53  75  98 129 171 217 263 305
#     4  10  20  36  53  70  97 135 178 218 260 302
#     4   9  19  34  51  76 108 140 168 198 249 310
#     4  10  18  31  51  73 100 132 168 209 255 307
#     4   9  17  30  52  81 108 132 164 205 247 297
#
# _framework density 17.508738999999998
#
# number of rings (size 3 to 8) (size 9 to 14) (size 15 to 20)
#    0.000    2.250    1.250    2.250    0.000    5.250 
#    0.000    0.625    0.000    2.250    0.000    5.250 
#    0.000    0.000    0.000    0.000    0.000    0.000 
#
# Total GULP energy -178541.492522 kJ/mol
# GULP energy per Si atom -5579.421641 kJ/mol
# Density = 1.746889 g / cm^3
# Si number density = 17.508739 Si / 1000 Ang^3
#
#
#
# Elastic Constant Matrix: (Units=GPa)
#
#
# Indices 1 2 3 4 5 6 
#
# 1 78.5881 25.8707 44.3897 0.0000 22.8283 0.0000
# 2 25.8707 26.1739 29.4925 0.0000 11.2525 0.0000
# 3 44.3897 29.4925 103.2076 0.0000 28.9041 0.0000
# 4 0.0000 0.0000 0.0000 -1.8001 0.0000 11.8633
# 5 22.8283 11.2525 28.9041 0.0000 22.0810 0.0000
# 6 0.0000 0.0000 0.0000 11.8633 0.0000 14.6864
#
#
#
# Elastic Compliance Matrix: (Units=1/GPa)
#
#
# Indices 1 2 3 4 5 6 
#
# 1 0.022349 -0.014321 -0.001726 0.000000 -0.013549 0.000000
# 2 -0.014321 0.067637 -0.012096 0.000000 -0.003828 0.000000
# 3 -0.001726 -0.012096 0.018412 0.000000 -0.016153 0.000000
# 4 0.000000 0.000000 0.000000 -0.087851 0.000000 0.070963
# 5 -0.013549 -0.003828 -0.016153 0.000000 0.082390 0.000000
# 6 0.000000 0.000000 0.000000 0.070963 0.000000 0.010768
#
#
# Mechanical properties :
#
#
# Convention : Reuss Voigt Hill
#
# Bulk Modulus (GPa) = 19.18951 45.27503 32.23227
# Shear Modulus (GPa) = 26.68625 14.20789 20.44707
#
# Velocity S-wave (km/s) = 3.90829 2.85173 3.42105
# Velocity P-wave (km/s) = 5.59912 6.06282 5.83558
#
# Compressibility (1/GPa) = 0.05211180
#
# Stress axis : x y z
#
# Youngs Moduli (GPa) = 44.74398 14.78480 54.31319
#
# Poissons Ratio (x) = 0.21174 0.09372
# Poissons Ratio (y) = 0.64079 0.65699
# Poissons Ratio (z) = 0.07721 0.17884
#
# Static dielectric constant tensor:
#      x y z
#    x 1.590700 0.000000 0.015930 
#    y 0.000000 1.588910 0.000000 
#    z 0.015930 0.000000 1.584930 
# 
# From -- ./inp_files/83572.got.cif
#   From: 2010.05.17/outbox.cif.g08.bks.cpg/sg10_42_cif.got.tgz:83572.got - 2010.06.03 11:33:40.
