data_PCOD9143112
_publ_section_title
;
Structure prediction by ZEFSAII (Michael W. Deem and Ramdas Pophale) SiO2 
 PCOD9143112
Probable space group: P 2/M
;
_chemical_formula_sum "Si O2"
_cell_formula_units_Z 32
_cell_length_a 15.711354
_cell_length_b 12.669251
_cell_length_c 22.570649
_cell_angle_alpha 90.000000
_cell_angle_beta 20.825638
_cell_angle_gamma 90.000000
_cell_volume 1597.272552
_symmetry_space_group_name_H-M "P 2/M"
_symmetry_group_IT_number 10
_symmetry_cell_setting 'monoclinic'
loop_
_space_group_symop_operation_xyz
x,y,z
-x,y,-z
-x,-y,-z
x,-y,z
loop_
_atom_site_type_symbol
_atom_site_label
_atom_site_fract_x
_atom_site_fract_y
_atom_site_fract_z
Si Si1 0.343245 0.120609 0.965007
Si Si2 0.792615 0.619572 0.553775
Si Si3 0.159208 0.621911 0.162989
Si Si4 0.875235 0.378184 0.139031
Si Si5 0.769727 0.839202 0.834203
Si Si6 0.105584 0.175140 0.370296
Si Si7 0.356924 0.621657 0.487533
Si Si8 0.305756 0.668371 0.940431
O O1 0.609167 0.165149 0.807597
O O2 0.260601 0.205742 0.971163
O O3 0.360869 0.000000 0.934584
O O4 0.182743 0.127172 0.129204
O O5 0.878614 0.500000 0.508106
O O6 0.712577 0.627162 0.536951
O O7 0.550538 0.639897 0.748377
O O8 0.985993 0.708903 0.443619
O O9 0.158525 0.500000 0.184424
O O10 0.236095 0.710955 0.159433
O O11 0.887579 0.657274 0.322563
O O12 0.313258 0.630897 0.003496
O O13 0.815448 0.500000 0.160768
O O14 0.619784 0.329841 0.323735
O O15 0.000000 0.328728 0.000000
O O16 0.076563 0.380516 0.057742
O O17 0.928659 0.870861 0.674240
O O18 0.500000 0.879051 0.000000
O O19 0.000000 0.127704 0.500000
O O20 0.375853 0.500000 0.494730
#
# Coordination Sequence:
#
# PCOD9143112 Si02
#       8
#     4   4   4   4   4   4   4   4
#     4  10  23  43  60  76 103 140 185 240 293 328
#     4  11  20  34  52  79 122 158 179 209 259 329
#     4  10  19  32  49  75 114 150 183 223 259 314
#     4  10  18  30  52  84 116 149 184 216 261 326
#     4   9  20  35  54  77 107 141 185 218 272 332
#     4  11  21  36  54  86 110 139 182 224 266 332
#     4   9  18  31  51  76 111 156 185 210 256 310
#     4  11  21  36  54  81 106 146 192 228 272 326
#
# _framework density 20.034151000000001
#
# number of rings (size 3 to 8) (size 9 to 14) (size 15 to 20)
#    0.000    1.875    3.750    1.125    0.000    3.500 
#    0.000    3.750    0.000    0.375    0.000    7.000 
#    0.000    0.000    0.000    0.000    0.000    0.000 
#
# Total GULP energy -178200.865918 kJ/mol
# GULP energy per Si atom -5568.777060 kJ/mol
# Density = 1.998855 g / cm^3
# Si number density = 20.034151 Si / 1000 Ang^3
#
#
#
# Elastic Constant Matrix: (Units=GPa)
#
#
# Indices 1 2 3 4 5 6 
#
# 1 27.2443 5.7991 10.0433 0.0000 11.8230 0.0000
# 2 5.7991 101.8377 21.3320 0.0000 -11.5583 0.0000
# 3 10.0433 21.3320 102.6500 0.0000 19.4933 0.0000
# 4 0.0000 0.0000 0.0000 -0.5238 0.0000 2.0839
# 5 11.8230 -11.5583 19.4933 0.0000 36.4288 0.0000
# 6 0.0000 0.0000 0.0000 2.0839 0.0000 -7.3471
#
#
#
# Elastic Compliance Matrix: (Units=1/GPa)
#
#
# Indices 1 2 3 4 5 6 
#
# 1 0.044513 -0.004177 -0.000548 0.000000 -0.015479 0.000000
# 2 -0.004177 0.011508 -0.003266 0.000000 0.006754 0.000000
# 3 -0.000548 -0.003266 0.011840 0.000000 -0.007194 0.000000
# 4 0.000000 0.000000 0.000000 14.862538 0.000000 4.215629
# 5 -0.015479 0.006754 -0.007194 0.000000 0.038467 0.000000
# 6 0.000000 0.000000 0.000000 4.215629 0.000000 1.059618
#
#
# Mechanical properties :
#
#
# Convention : Reuss Voigt Hill
#
# Bulk Modulus (GPa) = 19.27478 34.00898 26.64188
# Shear Modulus (GPa) = 0.31130 18.68209 9.49670
#
# Velocity S-wave (km/s) = 0.39462 3.05702 2.17957
# Velocity P-wave (km/s) = 3.13839 5.42889 4.43409
#
# Compressibility (1/GPa) = 0.05188126
#
# Stress axis : x y z
#
# Youngs Moduli (GPa) = 22.46524 86.89588 84.45797
#
# Poissons Ratio (x) = 0.36296 0.04626
# Poissons Ratio (y) = 0.09384 0.27580
# Poissons Ratio (z) = 0.01230 0.28376
#
# Static dielectric constant tensor:
#      x y z
#    x 1.746660 0.000000 0.019900 
#    y 0.000000 1.740010 0.000000 
#    z 0.019900 0.000000 1.773340 
# 
# From -- ./inp_files/90197.got.cif
#   From: 2010.05.17/outbox.cif.g08.bks.cpg/sg10_46_cif.got.tgz:90197.got - 2010.06.03 11:33:40.
