data_PCOD9143323
_publ_section_title
;
Structure prediction by ZEFSAII (Michael W. Deem and Ramdas Pophale) SiO2 
 PCOD9143323
Probable space group: P 2/M
;
_chemical_formula_sum "Si O2"
_cell_formula_units_Z 32
_cell_length_a 19.360353
_cell_length_b 7.302760
_cell_length_c 14.512548
_cell_angle_alpha 90.000000
_cell_angle_beta 42.280206
_cell_angle_gamma 90.000000
_cell_volume 1380.391141
_symmetry_space_group_name_H-M "P 2/M"
_symmetry_group_IT_number 10
_symmetry_cell_setting 'monoclinic'
loop_
_space_group_symop_operation_xyz
x,y,z
-x,y,-z
-x,-y,-z
x,-y,z
loop_
_atom_site_type_symbol
_atom_site_label
_atom_site_fract_x
_atom_site_fract_y
_atom_site_fract_z
Si Si1 0.791550 0.220898 0.846360
Si Si2 0.602841 0.776842 0.583308
Si Si3 0.176477 0.208327 0.571838
Si Si4 0.666074 0.222801 0.324562
Si Si5 0.892655 0.287969 0.563161
Si Si6 0.618977 0.223423 0.161195
Si Si7 0.957345 0.221908 0.820750
Si Si8 0.111667 0.220912 0.917064
O O1 0.804569 0.274507 0.727799
O O2 0.897442 0.284005 0.790164
O O3 0.790095 0.000000 0.850111
O O4 0.697584 0.283340 0.003768
O O5 0.711055 0.714108 0.519420
O O6 0.599152 0.722877 0.478756
O O7 0.499180 0.720976 0.737033
O O8 0.602030 0.000000 0.586170
O O9 0.146943 0.203903 0.492994
O O10 0.073042 0.290623 0.718106
O O11 0.182234 0.000000 0.602125
O O12 0.643625 0.281412 0.242269
O O13 0.783083 0.280459 0.232189
O O14 0.661805 0.000000 0.326151
O O15 0.911638 0.500000 0.523395
O O16 0.000000 0.212113 0.500000
O O17 0.625098 0.000000 0.155740
O O18 0.965093 0.000000 0.808891
O O19 0.884599 0.261895 0.978280
O O20 0.108867 0.000000 0.908347
O O21 0.000000 0.289804 0.000000
#
# Coordination Sequence:
#
# PCOD9143323 Si02
#       8
#     4   4   4   4   4   4   4   4
#     4  10  18  31  52  75  99 129 164 202 244 292
#     4   9  17  27  42  69 104 139 170 201 241 288
#     4  10  19  32  51  74 102 133 165 204 248 296
#     4   9  14  22  37  63 102 141 167 194 239 288
#     4  11  23  37  54  76  99 124 159 206 258 308
#     4   9  16  27  44  69 103 139 171 201 239 287
#     4   9  15  24  40  65  96 128 161 196 238 287
#     4   9  14  19  30  55  96 137 165 192 234 287
#
# _framework density 23.181835
#
# number of rings (size 3 to 8) (size 9 to 14) (size 15 to 20)
#    0.000    2.500    2.500    1.500    0.000    5.000 
#    0.000    0.625    0.000    4.500    0.000    0.875 
#    0.000    6.000    0.000    0.000    0.000    0.000 
#
# Total GULP energy -178628.966714 kJ/mol
# GULP energy per Si atom -5582.155210 kJ/mol
# Density = 2.312907 g / cm^3
# Si number density = 23.181835 Si / 1000 Ang^3
#
#
#
# Elastic Constant Matrix: (Units=GPa)
#
#
# Indices 1 2 3 4 5 6 
#
# 1 72.6485 -2.4905 44.1605 0.0000 -12.8865 0.0000
# 2 -2.4905 95.4019 -0.8052 0.0000 -2.3543 0.0000
# 3 44.1605 -0.8052 166.4946 0.0000 -17.9384 0.0000
# 4 0.0000 0.0000 0.0000 146.3107 0.0000 89.1486
# 5 -12.8865 -2.3543 -17.9384 0.0000 37.0495 0.0000
# 6 0.0000 0.0000 0.0000 89.1486 0.0000 32.6270
#
#
#
# Elastic Compliance Matrix: (Units=1/GPa)
#
#
# Indices 1 2 3 4 5 6 
#
# 1 0.016958 0.000506 -0.004069 0.000000 0.003960 0.000000
# 2 0.000506 0.010516 0.000008 0.000000 0.000848 0.000000
# 3 -0.004069 0.000008 0.007315 0.000000 0.002127 0.000000
# 4 0.000000 0.000000 0.000000 -0.010280 0.000000 0.028089
# 5 0.003960 0.000848 0.002127 0.000000 0.029452 0.000000
# 6 0.000000 0.000000 0.000000 0.028089 0.000000 -0.046100
#
#
# Mechanical properties :
#
#
# Convention : Reuss Voigt Hill
#
# Bulk Modulus (GPa) = 36.12782 46.25274 41.19028
# Shear Modulus (GPa) = 206.63769 62.77611 134.70690
#
# Velocity S-wave (km/s) = 9.45152 5.20948 7.63118
# Velocity P-wave (km/s) = 11.60718 7.49535 9.77003
#
# Compressibility (1/GPa) = 0.02767950
#
# Stress axis : x y z
#
# Youngs Moduli (GPa) = 58.96912 95.09156 136.71346
#
# Poissons Ratio (x) = -0.04813 0.55625
# Poissons Ratio (y) = -0.02984 -0.00109
# Poissons Ratio (z) = 0.23993 -0.00076
#
# Static dielectric constant tensor:
#      x y z
#    x 1.881900 0.000000 -0.009210 
#    y 0.000000 1.932300 0.000000 
#    z -0.009210 0.000000 1.853270 
# 
# From -- ./inp_files/69966.got.cif
#   From: 2010.05.17/outbox.cif.g08.bks.cpg/sg10_35_cif.got.tgz:69966.got - 2010.06.03 11:33:40.
