data_PCOD9143284
_publ_section_title
;
Structure prediction by ZEFSAII (Michael W. Deem and Ramdas Pophale) SiO2 
 PCOD9143284
Probable space group: P 2/M
;
_chemical_formula_sum "Si O2"
_cell_formula_units_Z 28
_cell_length_a 25.781406
_cell_length_b 7.352564
_cell_length_c 19.231705
_cell_angle_alpha 90.000000
_cell_angle_beta 17.408716
_cell_angle_gamma 90.000000
_cell_volume 1090.697697
_symmetry_space_group_name_H-M "P 2/M"
_symmetry_group_IT_number 10
_symmetry_cell_setting 'monoclinic'
loop_
_space_group_symop_operation_xyz
x,y,z
-x,y,-z
-x,-y,-z
x,-y,z
loop_
_atom_site_type_symbol
_atom_site_label
_atom_site_fract_x
_atom_site_fract_y
_atom_site_fract_z
Si Si1 0.825028 0.278899 0.762638
Si Si2 0.741431 0.786981 0.481644
Si Si3 0.403940 0.718137 0.821474
Si Si4 0.078671 0.295932 0.968478
Si Si5 0.242549 0.722751 0.892809
Si Si6 0.097190 0.709447 0.590568
Si Si7 0.666008 0.722004 0.829255
O O1 0.836529 0.500000 0.751858
O O2 0.679153 0.227430 0.892521
O O3 0.000000 0.219310 0.500000
O O4 0.757608 0.217643 0.923876
O O5 0.576214 0.760939 0.644088
O O6 0.906469 0.692363 0.235592
O O7 0.743562 0.716440 0.558049
O O8 0.776795 0.000000 0.440334
O O9 0.393199 0.500000 0.832833
O O10 0.390960 0.778145 0.757704
O O11 0.139162 0.500000 0.870592
O O12 0.220238 0.216754 0.841265
O O13 0.000000 0.205239 0.000000
O O14 0.243821 0.500000 0.885896
O O15 0.069080 0.783243 0.156424
O O16 0.051766 0.500000 0.635000
O O17 0.167024 0.783896 0.428899
O O18 0.667367 0.500000 0.825574
O O19 0.500000 0.785898 0.000000
#
# Coordination Sequence:
#
# PCOD9143284 Si02
#       7
#     4   4   4   4   4   4   4
#     4   9  16  25  42  71 100 126 162 212 264 301
#     4  11  22  34  50  74 104 137 172 207 245 296
#     4  10  18  31  51  74 104 137 169 209 255 303
#     4   9  18  36  61  84 104 127 159 201 250 304
#     4   8  15  28  50  77  98 123 162 203 244 294
#     4   9  16  30  50  70  95 128 169 214 256 299
#     4   9  15  22  37  64  93 120 156 204 253 295
#
# _framework density 25.671644000000001
#
# number of rings (size 3 to 8) (size 9 to 14) (size 15 to 20)
#    0.000    2.714    0.000    3.857    0.000    6.000 
#    0.000    3.571    0.000    8.571    0.000    0.000 
#    0.000    0.000    0.000    0.000    0.000    0.000 
#
# Total GULP energy -156265.637940 kJ/mol
# GULP energy per Si atom -5580.915641 kJ/mol
# Density = 2.561321 g / cm^3
# Si number density = 25.671644 Si / 1000 Ang^3
#
#
#
# Elastic Constant Matrix: (Units=GPa)
#
#
# Indices 1 2 3 4 5 6 
#
# 1 208.1081 -2.2887 -2.3004 0.0000 -10.1205 0.0000
# 2 -2.2887 106.8606 -10.1032 0.0000 3.2553 0.0000
# 3 -2.3004 -10.1032 28.1120 0.0000 -11.4544 0.0000
# 4 0.0000 0.0000 0.0000 19.7722 0.0000 -11.8444
# 5 -10.1205 3.2553 -11.4544 0.0000 37.4768 0.0000
# 6 0.0000 0.0000 0.0000 -11.8444 0.0000 31.4798
#
#
#
# Elastic Compliance Matrix: (Units=1/GPa)
#
#
# Indices 1 2 3 4 5 6 
#
# 1 0.004900 0.000162 0.001134 0.000000 0.001656 0.000000
# 2 0.000162 0.009695 0.003623 0.000000 0.000309 0.000000
# 3 0.001134 0.003623 0.042222 0.000000 0.012896 0.000000
# 4 0.000000 0.000000 0.000000 0.065292 0.000000 0.024566
# 5 0.001656 0.000309 0.012896 0.000000 0.031045 0.000000
# 6 0.000000 0.000000 0.000000 0.024566 0.000000 0.041010
#
#
# Mechanical properties :
#
#
# Convention : Reuss Voigt Hill
#
# Bulk Modulus (GPa) = 15.00295 34.85511 24.92903
# Shear Modulus (GPa) = 24.20798 41.59728 32.90263
#
# Velocity S-wave (km/s) = 3.07414 4.02974 3.58393
# Velocity P-wave (km/s) = 4.29619 5.93788 5.18246
#
# Compressibility (1/GPa) = 0.06665356
#
# Stress axis : x y z
#
# Youngs Moduli (GPa) = 204.08062 103.15012 23.68461
#
# Poissons Ratio (x) = -0.01668 -0.02685
# Poissons Ratio (y) = -0.03300 -0.08582
# Poissons Ratio (z) = -0.23137 -0.37375
#
# Static dielectric constant tensor:
#      x y z
#    x 2.089230 0.000000 -0.057290 
#    y 0.000000 2.043220 0.000000 
#    z -0.057290 0.000000 2.030190 
# 
# From -- ./inp_files/86670.got.cif
#   From: 2010.05.17/outbox.cif.g08.bks.cpg/sg10_44_cif.got.tgz:86670.got - 2010.06.03 11:33:40.
