data_PCOD9143221
_publ_section_title
;
Structure prediction by ZEFSAII (Michael W. Deem and Ramdas Pophale) SiO2 
 PCOD9143221
Probable space group: P 2/M
;
_chemical_formula_sum "Si O2"
_cell_formula_units_Z 28
_cell_length_a 19.730897
_cell_length_b 9.085394
_cell_length_c 18.269482
_cell_angle_alpha 90.000000
_cell_angle_beta 31.887976
_cell_angle_gamma 90.000000
_cell_volume 1730.074030
_symmetry_space_group_name_H-M "P 2/M"
_symmetry_group_IT_number 10
_symmetry_cell_setting 'monoclinic'
loop_
_space_group_symop_operation_xyz
x,y,z
-x,y,-z
-x,-y,-z
x,-y,z
loop_
_atom_site_type_symbol
_atom_site_label
_atom_site_fract_x
_atom_site_fract_y
_atom_site_fract_z
Si Si1 0.654180 0.831071 0.343287
Si Si2 0.284238 0.678572 0.407931
Si Si3 0.563154 0.175813 0.134341
Si Si4 0.695822 0.669067 0.449293
Si Si5 0.139254 0.678776 0.396564
Si Si6 0.611749 0.669392 0.236951
Si Si7 0.632491 0.676303 0.922131
O O1 0.500000 0.826485 0.500000
O O2 0.718682 0.766126 0.356976
O O3 0.676026 0.736853 0.250233
O O4 0.689433 0.000000 0.299084
O O5 0.303792 0.500000 0.388074
O O6 0.419522 0.755445 0.266483
O O7 0.245289 0.716380 0.526875
O O8 0.183843 0.720193 0.437242
O O9 0.629112 0.236027 0.147851
O O10 0.557131 0.000000 0.140448
O O11 0.629912 0.237616 0.000495
O O12 0.731140 0.500000 0.401769
O O13 0.542015 0.671500 0.605822
O O14 0.135530 0.500000 0.399580
O O15 0.249794 0.720306 0.237796
O O16 0.000000 0.733118 0.500000
O O17 0.648311 0.500000 0.191745
O O18 0.639130 0.500000 0.929873
O O19 0.500000 0.703302 0.000000
#
# Coordination Sequence:
#
# PCOD9143221 Si02
#       7
#     4   4   4   4   4   4   4
#     4   9  15  22  33  52  81 113 146 182 222 266
#     4   9  16  29  45  63  88 118 153 191 233 274
#     4  11  20  28  42  65  91 117 153 192 229 271
#     4   8  14  22  35  53  77 112 149 181 217 268
#     4   9  17  30  50  72  91 116 155 198 234 271
#     4   9  16  26  39  55  81 115 150 184 226 272
#     4  10  18  31  50  68  90 120 154 191 233 277
#
# _framework density 16.184277999999999
#
# number of rings (size 3 to 8) (size 9 to 14) (size 15 to 20)
#    0.000    2.714    1.429    3.000    0.000    5.429 
#    0.000    0.000    0.000    1.714    0.000    0.000 
#    0.000    1.143    0.000   13.429    0.000    5.714 
#
# Total GULP energy -155959.291600 kJ/mol
# GULP energy per Si atom -5569.974700 kJ/mol
# Density = 1.614744 g / cm^3
# Si number density = 16.184278 Si / 1000 Ang^3
#
#
#
# Elastic Constant Matrix: (Units=GPa)
#
#
# Indices 1 2 3 4 5 6 
#
# 1 145.3791 55.3865 57.9471 0.0000 32.9301 0.0000
# 2 55.3865 67.8035 26.7593 0.0000 18.2295 0.0000
# 3 57.9471 26.7593 48.0622 0.0000 7.9582 0.0000
# 4 0.0000 0.0000 0.0000 8.0486 0.0000 3.5855
# 5 32.9301 18.2295 7.9582 0.0000 24.2906 0.0000
# 6 0.0000 0.0000 0.0000 3.5855 0.0000 4.3644
#
#
#
# Elastic Compliance Matrix: (Units=1/GPa)
#
#
# Indices 1 2 3 4 5 6 
#
# 1 0.020019 -0.004086 -0.018901 0.000000 -0.017880 0.000000
# 2 -0.004086 0.023247 -0.006392 0.000000 -0.009813 0.000000
# 3 -0.018901 -0.006392 0.044532 0.000000 0.015830 0.000000
# 4 0.000000 0.000000 0.000000 0.195966 0.000000 -0.160993
# 5 -0.017880 -0.009813 0.015830 0.000000 0.067586 0.000000
# 6 0.000000 0.000000 0.000000 -0.160993 0.000000 0.361387
#
#
# Mechanical properties :
#
#
# Convention : Reuss Voigt Hill
#
# Bulk Modulus (GPa) = 34.43427 60.15897 47.29662
# Shear Modulus (GPa) = 6.40061 15.41750 10.90905
#
# Velocity S-wave (km/s) = 1.99083 3.08981 2.59907
# Velocity P-wave (km/s) = 5.15821 7.06973 6.18822
#
# Compressibility (1/GPa) = 0.02904084
#
# Stress axis : x y z
#
# Youngs Moduli (GPa) = 49.95185 43.01578 22.45576
#
# Poissons Ratio (x) = 0.17578 0.42443
# Poissons Ratio (y) = 0.20412 0.14353
# Poissons Ratio (z) = 0.94413 0.27494
#
# Static dielectric constant tensor:
#      x y z
#    x 1.562550 0.000000 0.015560 
#    y 0.000000 1.536450 0.000000 
#    z 0.015560 0.000000 1.517100 
# 
# From -- ./inp_files/54535.got.cif
#   From: 2010.05.17/outbox.cif.g08.bks.cpg/sg10_28_cif.got.tgz:54535.got - 2010.06.03 11:33:40.
