data_PCOD9143271
_publ_section_title
;
Structure prediction by ZEFSAII (Michael W. Deem and Ramdas Pophale) SiO2 
 PCOD9143271
Probable space group: P 2/M
;
_chemical_formula_sum "Si O2"
_cell_formula_units_Z 20
_cell_length_a 14.641514
_cell_length_b 10.769672
_cell_length_c 11.508367
_cell_angle_alpha 90.000000
_cell_angle_beta 152.247390
_cell_angle_gamma 90.000000
_cell_volume 845.018627
_symmetry_space_group_name_H-M "P 2/M"
_symmetry_group_IT_number 10
_symmetry_cell_setting 'monoclinic'
loop_
_space_group_symop_operation_xyz
x,y,z
-x,y,-z
-x,-y,-z
x,-y,z
loop_
_atom_site_type_symbol
_atom_site_label
_atom_site_fract_x
_atom_site_fract_y
_atom_site_fract_z
Si Si1 0.256314 0.240248 0.535697
Si Si2 0.254160 0.500000 0.426466
Si Si3 0.228511 0.500000 0.120404
Si Si4 0.180454 0.249990 0.971806
Si Si5 0.715728 0.856230 0.690852
Si Si6 0.256191 0.000000 0.666236
Si Si7 0.790656 0.000000 0.112428
O O1 0.322924 0.379096 0.576495
O O2 0.267907 0.175635 0.423466
O O3 0.031663 0.263019 0.325310
O O4 0.339065 0.131739 0.712630
O O5 0.298085 0.500000 0.334866
O O6 0.012351 0.500000 0.151249
O O7 0.287281 0.379975 0.110451
O O8 0.278719 0.128233 0.025710
O O9 0.142868 0.216636 0.064241
O O10 0.500000 0.828707 0.500000
O O11 0.755076 0.000000 0.752119
O O12 0.253884 0.000000 0.802159
O O13 0.028176 0.000000 0.366222
#
# Coordination Sequence:
#
# PCOD9143271 Si02
#       7
#     4   2   2   4   4   2   2
#     4  10  18  31  51  71  97 131 161 192 240 291
#     4   9  16  26  45  75 103 122 155 196 233 291
#     4   9  16  26  45  75 103 122 155 196 233 291
#     4  10  18  31  51  71  97 131 161 192 240 291
#     4  11  21  30  45  74 106 124 153 204 248 285
#     4   9  18  31  49  72  94 123 170 211 232 269
#     4   9  18  31  49  72  94 123 170 211 232 269
#
# _framework density 23.668116000000001
#
# number of rings (size 3 to 8) (size 9 to 14) (size 15 to 20)
#    0.000    2.200    4.000    0.600    0.000    0.800 
#    0.000    3.000    0.000    8.400    0.000    0.000 
#    0.000    3.200    0.000    0.000    0.000    0.000 
#
# Total GULP energy -111562.421895 kJ/mol
# GULP energy per Si atom -5578.121095 kJ/mol
# Density = 2.361425 g / cm^3
# Si number density = 23.668116 Si / 1000 Ang^3
#
#
#
# Elastic Constant Matrix: (Units=GPa)
#
#
# Indices 1 2 3 4 5 6 
#
# 1 94.1684 48.9101 15.2075 0.0000 -8.0031 0.0000
# 2 48.9101 237.2418 25.1192 0.0000 -20.0641 0.0000
# 3 15.2075 25.1192 54.2744 0.0000 8.1857 0.0000
# 4 0.0000 0.0000 0.0000 3.6984 0.0000 -7.3752
# 5 -8.0031 -20.0641 8.1857 0.0000 35.7099 0.0000
# 6 0.0000 0.0000 0.0000 -7.3752 0.0000 33.1401
#
#
#
# Elastic Compliance Matrix: (Units=1/GPa)
#
#
# Indices 1 2 3 4 5 6 
#
# 1 0.012337 -0.002050 -0.002850 0.000000 0.002266 0.000000
# 2 -0.002050 0.005123 -0.002239 0.000000 0.002932 0.000000
# 3 -0.002850 -0.002239 0.021281 0.000000 -0.006775 0.000000
# 4 0.000000 0.000000 0.000000 0.486133 0.000000 0.108187
# 5 0.002266 0.002932 -0.006775 0.000000 0.031712 0.000000
# 6 0.000000 0.000000 0.000000 0.108187 0.000000 0.054252
#
#
# Mechanical properties :
#
#
# Convention : Reuss Voigt Hill
#
# Bulk Modulus (GPa) = 40.87653 62.68425 51.78039
# Shear Modulus (GPa) = 7.89554 34.27287 21.08420
#
# Velocity S-wave (km/s) = 1.82844 3.80947 2.98791
# Velocity P-wave (km/s) = 4.66538 6.77433 5.81624
#
# Compressibility (1/GPa) = 0.02446391
#
# Stress axis : x y z
#
# Youngs Moduli (GPa) = 81.05807 195.20812 46.98964
#
# Poissons Ratio (x) = 0.40017 0.13391
# Poissons Ratio (y) = 0.16617 0.10520
# Poissons Ratio (z) = 0.23100 0.43701
#
# Static dielectric constant tensor:
#      x y z
#    x 1.856420 0.000000 0.092200 
#    y 0.000000 2.007150 0.000000 
#    z 0.092200 0.000000 1.956830 
# 
# From -- ./inp_files/23700.got.cif
#   From: 2010.05.17/outbox.cif.g08.bks.cpg/sg10_12_cif.got.tgz:23700.got - 2010.06.03 11:33:40.
