data_PCOD9143027
_publ_section_title
;
Structure prediction by ZEFSAII (Michael W. Deem and Ramdas Pophale) SiO2 
 PCOD9143027
Probable space group: P 2/M
;
_chemical_formula_sum "Si O2"
_cell_formula_units_Z 32
_cell_length_a 19.799926
_cell_length_b 8.111419
_cell_length_c 12.115714
_cell_angle_alpha 90.000000
_cell_angle_beta 120.648630
_cell_angle_gamma 90.000000
_cell_volume 1674.033784
_symmetry_space_group_name_H-M "P 2/M"
_symmetry_group_IT_number 10
_symmetry_cell_setting 'monoclinic'
loop_
_space_group_symop_operation_xyz
x,y,z
-x,y,-z
-x,-y,-z
x,-y,z
loop_
_atom_site_type_symbol
_atom_site_label
_atom_site_fract_x
_atom_site_fract_y
_atom_site_fract_z
Si Si1 0.236295 0.702661 0.096759
Si Si2 0.449870 0.808412 0.068430
Si Si3 0.719819 0.310686 0.102454
Si Si4 0.660428 0.307780 0.626106
Si Si5 0.181057 0.308656 0.391337
Si Si6 0.084906 0.701682 0.111345
Si Si7 0.283633 0.184945 0.658562
Si Si8 0.430778 0.691758 0.654870
O O1 0.239811 0.500000 0.100802
O O2 0.311096 0.761183 0.232528
O O3 0.155455 0.751074 0.088591
O O4 0.239239 0.757038 0.973146
O O5 0.501789 0.780115 0.220221
O O6 0.426544 0.000000 0.041106
O O7 0.500000 0.770151 0.000000
O O8 0.372469 0.699552 0.002001
O O9 0.743581 0.500000 0.138596
O O10 0.731704 0.218470 0.226876
O O11 0.639264 0.500000 0.625452
O O12 0.741704 0.304718 0.623411
O O13 0.595351 0.239221 0.487178
O O14 0.167586 0.500000 0.408926
O O15 0.110634 0.246299 0.255860
O O16 0.206584 0.212320 0.520814
O O17 0.085026 0.500000 0.113293
O O18 0.000000 0.756818 0.000000
O O19 0.352537 0.298643 0.666338
O O20 0.313609 0.000000 0.668425
O O21 0.452183 0.500000 0.659571
#
# Coordination Sequence:
#
# PCOD9143027 Si02
#       8
#     4   4   4   4   4   4   4   4
#     4   8  15  28  46  72 102 127 156 193 238 291
#     4  11  22  34  47  66  95 128 162 206 250 288
#     4  11  21  32  49  69  93 129 167 202 239 288
#     4   7  12  25  45  68  93 119 150 193 236 277
#     4   8  14  26  46  73 100 125 158 195 232 282
#     4   8  13  25  51  84 110 127 149 193 246 285
#     4  11  20  30  45  67  96 128 163 204 246 282
#     4  10  18  30  51  73  92 119 159 205 248 291
#
# _framework density 19.115503
#
# number of rings (size 3 to 8) (size 9 to 14) (size 15 to 20)
#    0.000    2.750    1.250    4.500    0.000    0.500 
#    0.000    0.625    0.000   19.875    0.000    5.250 
#    0.000    0.000    0.000    0.000    0.000    0.000 
#
# Total GULP energy -178334.917549 kJ/mol
# GULP energy per Si atom -5572.966173 kJ/mol
# Density = 1.907200 g / cm^3
# Si number density = 19.115503 Si / 1000 Ang^3
#
#
#
# Elastic Constant Matrix: (Units=GPa)
#
#
# Indices 1 2 3 4 5 6 
#
# 1 28.5607 0.7049 26.9989 0.0000 -2.6634 0.0000
# 2 0.7049 18.8465 5.1145 0.0000 0.7860 0.0000
# 3 26.9989 5.1145 123.3715 0.0000 6.0307 0.0000
# 4 0.0000 0.0000 0.0000 -35.8402 0.0000 -0.1680
# 5 -2.6634 0.7860 6.0307 0.0000 22.2195 0.0000
# 6 0.0000 0.0000 0.0000 -0.1680 0.0000 -7.5803
#
#
#
# Elastic Compliance Matrix: (Units=1/GPa)
#
#
# Indices 1 2 3 4 5 6 
#
# 1 0.045614 0.000776 -0.010419 0.000000 0.008268 0.000000
# 2 0.000776 0.053715 -0.002339 0.000000 -0.001172 0.000000
# 3 -0.010419 -0.002339 0.010681 0.000000 -0.004065 0.000000
# 4 0.000000 0.000000 0.000000 -0.027904 0.000000 0.000618
# 5 0.008268 -0.001172 -0.004065 0.000000 0.047141 0.000000
# 6 0.000000 0.000000 0.000000 0.000618 0.000000 -0.131935
#
#
# Mechanical properties :
#
#
# Convention : Reuss Voigt Hill
#
# Bulk Modulus (GPa) = 11.62154 26.26837 18.94495
# Shear Modulus (GPa) = 100.08395 4.95716 52.52055
#
# Velocity S-wave (km/s) = 7.24370 1.61211 5.24738
# Velocity P-wave (km/s) = 8.72092 4.15174 6.82976
#
# Compressibility (1/GPa) = 0.08604709
#
# Stress axis : x y z
#
# Youngs Moduli (GPa) = 21.92311 18.61677 93.62131
#
# Poissons Ratio (x) = -0.01445 0.97540
# Poissons Ratio (y) = -0.01702 0.21902
# Poissons Ratio (z) = 0.22841 0.04355
#
# Static dielectric constant tensor:
#      x y z
#    x 1.652870 0.000000 -0.010780 
#    y 0.000000 1.650470 0.000000 
#    z -0.010780 0.000000 1.708720 
# 
# From -- ./inp_files/54881.got.cif
#   From: 2010.05.17/outbox.cif.g08.bks.cpg/sg10_28_cif.got.tgz:54881.got - 2010.06.03 11:33:40.
