data_PCOD9143250
_publ_section_title
;
Structure prediction by ZEFSAII (Michael W. Deem and Ramdas Pophale) SiO2 
 PCOD9143250
Probable space group: P 2/M
;
_chemical_formula_sum "Si O2"
_cell_formula_units_Z 32
_cell_length_a 24.797056
_cell_length_b 7.321303
_cell_length_c 10.253175
_cell_angle_alpha 90.000000
_cell_angle_beta 48.846740
_cell_angle_gamma 90.000000
_cell_volume 1401.567965
_symmetry_space_group_name_H-M "P 2/M"
_symmetry_group_IT_number 10
_symmetry_cell_setting 'monoclinic'
loop_
_space_group_symop_operation_xyz
x,y,z
-x,y,-z
-x,-y,-z
x,-y,z
loop_
_atom_site_type_symbol
_atom_site_label
_atom_site_fract_x
_atom_site_fract_y
_atom_site_fract_z
Si Si1 0.683809 0.722908 0.013158
Si Si2 0.378430 0.723108 0.410643
Si Si3 0.744854 0.721023 0.189356
Si Si4 0.010070 0.222842 0.632388
Si Si5 0.479131 0.722302 0.679524
Si Si6 0.127454 0.220048 0.644226
Si Si7 0.904378 0.209397 0.024536
Si Si8 0.711721 0.286501 0.683079
O O1 0.685567 0.500000 0.014228
O O2 0.712447 0.787377 0.828271
O O3 0.728311 0.781544 0.068579
O O4 0.601023 0.778981 0.159026
O O5 0.378741 0.500000 0.408844
O O6 0.321083 0.775806 0.613000
O O7 0.457884 0.781250 0.323668
O O8 0.347271 0.788076 0.322582
O O9 0.747626 0.500000 0.187899
O O10 0.820791 0.787707 0.120300
O O11 0.084102 0.276832 0.584815
O O12 0.000000 0.285919 0.500000
O O13 0.008084 0.000000 0.630214
O O14 0.949244 0.285222 0.831770
O O15 0.500000 0.777926 0.500000
O O16 0.478763 0.500000 0.680864
O O17 0.091695 0.288107 0.835607
O O18 0.210190 0.272739 0.504739
O O19 0.125546 0.000000 0.652101
O O20 0.929455 0.000000 0.996392
O O21 0.694361 0.500000 0.724473
#
# Coordination Sequence:
#
# PCOD9143250 Si02
#       8
#     4   4   4   4   4   4   4   4
#     4   9  18  29  45  71 103 134 165 206 253 293
#     4   9  16  27  46  69  98 132 165 202 245 292
#     4  10  18  31  50  74 102 133 165 201 249 298
#     4   9  19  35  54  76 101 128 162 204 246 287
#     4   9  14  24  43  68  97 130 168 207 246 290
#     4  10  20  35  55  76  99 131 167 202 242 292
#     4  10  20  34  54  78 100 128 166 205 242 289
#     4  10  20  33  48  74 107 133 161 205 254 293
#
# _framework density 22.831572999999999
#
# number of rings (size 3 to 8) (size 9 to 14) (size 15 to 20)
#    0.000    2.500    2.500    0.375    1.750    2.000 
#    0.000    3.125    0.000    2.250    0.000    5.250 
#    0.000    0.000    0.000    0.000    0.000    0.000 
#
# Total GULP energy -178802.045053 kJ/mol
# GULP energy per Si atom -5587.563908 kJ/mol
# Density = 2.277961 g / cm^3
# Si number density = 22.831573 Si / 1000 Ang^3
#
#
#
# Elastic Constant Matrix: (Units=GPa)
#
#
# Indices 1 2 3 4 5 6 
#
# 1 142.9971 -4.4231 20.9708 0.0000 31.7396 0.0000
# 2 -4.4231 89.6021 -5.6911 0.0000 8.7704 0.0000
# 3 20.9708 -5.6911 75.3354 0.0000 31.5168 0.0000
# 4 0.0000 0.0000 0.0000 1.2242 0.0000 -9.6256
# 5 31.7396 8.7704 31.5168 0.0000 46.4308 0.0000
# 6 0.0000 0.0000 0.0000 -9.6256 0.0000 -2.8215
#
#
#
# Elastic Compliance Matrix: (Units=1/GPa)
#
#
# Indices 1 2 3 4 5 6 
#
# 1 0.008334 0.001028 0.000311 0.000000 -0.006102 0.000000
# 2 0.001028 0.011832 0.002565 0.000000 -0.004679 0.000000
# 3 0.000311 0.002565 0.019095 0.000000 -0.013659 0.000000
# 4 0.000000 0.000000 0.000000 0.029358 0.000000 -0.100156
# 5 -0.006102 -0.004679 -0.013659 0.000000 0.035864 0.000000
# 6 0.000000 0.000000 0.000000 -0.100156 0.000000 -0.012738
#
#
# Mechanical properties :
#
#
# Convention : Reuss Voigt Hill
#
# Bulk Modulus (GPa) = 21.24512 36.62753 28.93633
# Shear Modulus (GPa) = 50.18728 28.77191 39.47959
#
# Velocity S-wave (km/s) = 4.69353 3.55375 4.16284
# Velocity P-wave (km/s) = 6.22075 5.73726 5.98389
#
# Compressibility (1/GPa) = 0.04706963
#
# Stress axis : x y z
#
# Youngs Moduli (GPa) = 119.99328 84.51556 52.36856
#
# Poissons Ratio (x) = -0.08691 -0.01627
# Poissons Ratio (y) = -0.12340 -0.13433
# Poissons Ratio (z) = -0.03727 -0.21679
#
# Static dielectric constant tensor:
#      x y z
#    x 1.810950 0.000000 0.026630 
#    y 0.000000 1.909970 0.000000 
#    z 0.026630 0.000000 1.807410 
# 
# From -- ./inp_files/34607.got.cif
#   From: 2010.05.17/outbox.cif.g08.bks.cpg/sg10_18_cif.got.tgz:34607.got - 2010.06.03 11:33:40.
