data_PCOD9143964
_publ_section_title
;
Structure prediction by ZEFSAII (Michael W. Deem and Ramdas Pophale) SiO2 
 PCOD9143964
Probable space group: P 2/M
;
_chemical_formula_sum "Si O2"
_cell_formula_units_Z 28
_cell_length_a 9.216281
_cell_length_b 13.711375
_cell_length_c 11.878041
_cell_angle_alpha 90.000000
_cell_angle_beta 69.084270
_cell_angle_gamma 90.000000
_cell_volume 1402.096582
_symmetry_space_group_name_H-M "P 2/M"
_symmetry_group_IT_number 10
_symmetry_cell_setting 'monoclinic'
loop_
_space_group_symop_operation_xyz
x,y,z
-x,y,-z
-x,-y,-z
x,-y,z
loop_
_atom_site_type_symbol
_atom_site_label
_atom_site_fract_x
_atom_site_fract_y
_atom_site_fract_z
Si Si1 0.441474 0.277130 0.298526
Si Si2 0.170799 0.892691 0.985739
Si Si3 0.278226 0.614424 0.887234
Si Si4 0.326062 0.112757 0.702292
Si Si5 0.101418 0.713317 0.746234
Si Si6 0.829933 0.385926 0.496290
Si Si7 0.259792 0.270449 0.119067
O O1 0.574504 0.355499 0.230344
O O2 0.521583 0.182449 0.334637
O O3 0.306599 0.322656 0.411475
O O4 0.369208 0.259397 0.195388
O O5 0.273721 0.896877 0.846366
O O6 0.141457 0.000000 0.040346
O O7 0.257643 0.828761 0.050857
O O8 0.000000 0.854486 0.000000
O O9 0.248299 0.500000 0.893130
O O10 0.146207 0.675647 0.858445
O O11 0.297062 0.649669 0.011621
O O12 0.187182 0.183365 0.694968
O O13 0.340464 0.000000 0.654957
O O14 0.162716 0.636661 0.637889
O O15 0.916467 0.715866 0.789983
O O16 0.802394 0.500000 0.526262
O O17 0.000000 0.360943 0.500000
#
# Coordination Sequence:
#
# PCOD9143964 Si02
#       7
#     4   4   4   4   4   4   4
#     4  11  24  41  62  88 129 163 207 256 312 366
#     4  10  18  33  59  90 123 161 200 242 298 370
#     4  11  24  38  57  91 127 163 201 252 324 379
#     4  10  22  40  64  94 128 164 205 254 316 377
#     4  11  22  41  66  89 124 161 214 260 303 359
#     4  11  24  44  67  91 118 164 218 257 303 367
#     4  12  21  37  60  93 128 161 197 258 310 369
#
# _framework density 19.970094
#
# number of rings (size 3 to 8) (size 9 to 14) (size 15 to 20)
#    0.000    1.143    5.714    1.714    0.000    6.286 
#    0.000    6.429    0.000    0.857    0.000    0.000 
#    0.000    0.000    0.000    0.000    0.000    0.000 
#
# Total GULP energy -156221.058882 kJ/mol
# GULP energy per Si atom -5579.323532 kJ/mol
# Density = 1.992464 g / cm^3
# Si number density = 19.970094 Si / 1000 Ang^3
#
#
#
# Elastic Constant Matrix: (Units=GPa)
#
#
# Indices 1 2 3 4 5 6 
#
# 1 66.0587 26.3594 7.5336 0.0000 -20.1933 0.0000
# 2 26.3594 123.6802 10.4652 0.0000 -19.3514 0.0000
# 3 7.5336 10.4652 46.8848 0.0000 -13.7879 0.0000
# 4 0.0000 0.0000 0.0000 17.5702 0.0000 8.9907
# 5 -20.1933 -19.3514 -13.7879 0.0000 31.2325 0.0000
# 6 0.0000 0.0000 0.0000 8.9907 0.0000 -36.4943
#
#
#
# Elastic Compliance Matrix: (Units=1/GPa)
#
#
# Indices 1 2 3 4 5 6 
#
# 1 0.019523 -0.002434 0.000776 0.000000 0.011457 0.000000
# 2 -0.002434 0.009264 -0.000519 0.000000 0.003937 0.000000
# 3 0.000776 -0.000519 0.024562 0.000000 0.011023 0.000000
# 4 0.000000 0.000000 0.000000 0.050543 0.000000 0.012452
# 5 0.011457 0.003937 0.011023 0.000000 0.046731 0.000000
# 6 0.000000 0.000000 0.000000 0.012452 0.000000 -0.024334
#
#
# Mechanical properties :
#
#
# Convention : Reuss Voigt Hill
#
# Bulk Modulus (GPa) = 20.41059 36.14891 28.27975
# Shear Modulus (GPa) = 34.01945 15.27938 24.64942
#
# Velocity S-wave (km/s) = 4.13185 2.76907 3.51710
# Velocity P-wave (km/s) = 5.74506 5.32583 5.53941
#
# Compressibility (1/GPa) = 0.04899417
#
# Stress axis : x y z
#
# Youngs Moduli (GPa) = 51.22153 107.94440 40.71380
#
# Poissons Ratio (x) = 0.26273 -0.03157
# Poissons Ratio (y) = 0.12467 0.02113
# Poissons Ratio (z) = -0.03972 0.05601
#
# Static dielectric constant tensor:
#      x y z
#    x 1.847570 0.000000 -0.014240 
#    y 0.000000 1.737690 0.000000 
#    z -0.014240 0.000000 1.709740 
# 
# From -- ./inp_files/42651.got.cif
#   From: 2010.05.17/outbox.cif.g08.bks.cpg/sg10_22_cif.got.tgz:42651.got - 2010.06.03 11:33:40.
