data_PCOD9143635
_publ_section_title
;
Structure prediction by ZEFSAII (Michael W. Deem and Ramdas Pophale) SiO2 
 PCOD9143635
Probable space group: P 2/M
;
_chemical_formula_sum "Si O2"
_cell_formula_units_Z 30
_cell_length_a 7.968045
_cell_length_b 19.417653
_cell_length_c 14.663523
_cell_angle_alpha 90.000000
_cell_angle_beta 131.856697
_cell_angle_gamma 90.000000
_cell_volume 1689.802218
_symmetry_space_group_name_H-M "P 2/M"
_symmetry_group_IT_number 10
_symmetry_cell_setting 'monoclinic'
loop_
_space_group_symop_operation_xyz
x,y,z
-x,y,-z
-x,-y,-z
x,-y,z
loop_
_atom_site_type_symbol
_atom_site_label
_atom_site_fract_x
_atom_site_fract_y
_atom_site_fract_z
Si Si1 0.552267 0.678998 0.816798
Si Si2 0.500000 0.630926 0.500000
Si Si3 0.810287 0.920716 0.850660
Si Si4 0.120793 0.685924 0.232279
Si Si5 0.876218 0.829385 0.149545
Si Si6 0.840603 0.578829 0.033063
Si Si7 0.502934 0.169348 0.146037
Si Si8 0.731169 0.576277 0.406001
O O1 0.757429 0.696239 0.821638
O O2 0.644873 0.631582 0.932179
O O3 0.457108 0.752073 0.810952
O O4 0.377692 0.633501 0.697221
O O5 0.312657 0.674316 0.377162
O O6 0.631887 0.587697 0.471084
O O7 0.597147 0.878780 0.811739
O O8 0.924582 0.879481 0.809553
O O9 0.758928 0.000000 0.811147
O O10 0.000000 0.920916 0.000000
O O11 0.971677 0.752629 0.198004
O O12 0.977015 0.616228 0.163684
O O13 0.731409 0.856145 0.182065
O O14 0.695357 0.826540 0.001529
O O15 0.774970 0.500000 0.029951
O O16 0.000000 0.575435 0.000000
O O17 0.661190 0.500000 0.348975
O O18 0.000000 0.580746 0.500000
#
# Coordination Sequence:
#
# PCOD9143635 Si02
#       8
#     4   2   4   4   4   4   4   4
#     4  10  18  32  54  75 103 137 178 222 263 316
#     4  10  23  36  54  72 101 134 180 228 265 318
#     4   9  18  32  51  77 112 145 171 203 252 316
#     4  10  19  33  52  74 102 138 178 219 267 314
#     4  10  19  31  51  77 108 141 172 210 261 308
#     4   9  17  28  49  77 100 133 177 223 268 314
#     4  10  19  30  52  79 107 138 174 213 259 308
#     4  10  22  38  54  73 102 141 181 226 275 314
#
# _framework density 17.753554999999999
#
# number of rings (size 3 to 8) (size 9 to 14) (size 15 to 20)
#    0.000    2.267    2.667    0.600    1.867    4.267 
#    0.000    2.667    0.000    0.800    0.000    0.467 
#    0.000    1.600    0.000    0.000    0.000    0.000 
#
# Total GULP energy -167296.324378 kJ/mol
# GULP energy per Si atom -5576.544146 kJ/mol
# Density = 1.771315 g / cm^3
# Si number density = 17.753555 Si / 1000 Ang^3
#
#
#
# Elastic Constant Matrix: (Units=GPa)
#
#
# Indices 1 2 3 4 5 6 
#
# 1 109.0226 68.6089 26.1111 0.0000 14.9799 0.0000
# 2 68.6089 130.9799 24.1406 0.0000 6.1522 0.0000
# 3 26.1111 24.1406 51.9804 0.0000 -2.0687 0.0000
# 4 0.0000 0.0000 0.0000 7.0734 0.0000 1.5619
# 5 14.9799 6.1522 -2.0687 0.0000 13.1302 0.0000
# 6 0.0000 0.0000 0.0000 1.5619 0.0000 11.1345
#
#
#
# Elastic Compliance Matrix: (Units=1/GPa)
#
#
# Indices 1 2 3 4 5 6 
#
# 1 0.017679 -0.007284 -0.006203 0.000000 -0.017733 0.000000
# 2 -0.007284 0.011630 -0.001639 0.000000 0.002603 0.000000
# 3 -0.006203 -0.001639 0.023575 0.000000 0.011559 0.000000
# 4 0.000000 0.000000 0.000000 0.145894 0.000000 -0.020465
# 5 -0.017733 0.002603 0.011559 0.000000 0.096994 0.000000
# 6 0.000000 0.000000 0.000000 -0.020465 0.000000 0.092682
#
#
# Mechanical properties :
#
#
# Convention : Reuss Voigt Hill
#
# Bulk Modulus (GPa) = 44.18566 58.85599 51.52082
# Shear Modulus (GPa) = 11.73022 17.80910 14.76966
#
# Velocity S-wave (km/s) = 2.57325 3.17066 2.88744
# Velocity P-wave (km/s) = 5.81130 6.82845 6.34030
#
# Compressibility (1/GPa) = 0.02263178
#
# Stress axis : x y z
#
# Youngs Moduli (GPa) = 56.56555 85.98475 42.41751
#
# Poissons Ratio (x) = 0.62631 0.26313
# Poissons Ratio (y) = 0.41202 0.06951
# Poissons Ratio (z) = 0.35090 0.14090
#
# Static dielectric constant tensor:
#      x y z
#    x 1.655570 0.000000 0.004610 
#    y 0.000000 1.588240 0.000000 
#    z 0.004610 0.000000 1.582060 
# 
# From -- ./inp_files/75448.got.cif
#   From: 2010.05.17/outbox.cif.g08.bks.cpg/sg10_38_cif.got.tgz:75448.got - 2010.06.03 11:33:40.
