data_PCOD9143826
_publ_section_title
;
Structure prediction by ZEFSAII (Michael W. Deem and Ramdas Pophale) SiO2 
 PCOD9143826
Probable space group: P 2/M
;
_chemical_formula_sum "Si O2"
_cell_formula_units_Z 32
_cell_length_a 24.762316
_cell_length_b 7.377071
_cell_length_c 10.212587
_cell_angle_alpha 90.000000
_cell_angle_beta 51.983153
_cell_angle_gamma 90.000000
_cell_volume 1469.749562
_symmetry_space_group_name_H-M "P 2/M"
_symmetry_group_IT_number 10
_symmetry_cell_setting 'monoclinic'
loop_
_space_group_symop_operation_xyz
x,y,z
-x,y,-z
-x,-y,-z
x,-y,z
loop_
_atom_site_type_symbol
_atom_site_label
_atom_site_fract_x
_atom_site_fract_y
_atom_site_fract_z
Si Si1 0.452073 0.207224 0.961031
Si Si2 0.301943 0.280837 0.262263
Si Si3 0.562086 0.216877 0.315030
Si Si4 0.796774 0.720537 0.822834
Si Si5 0.715706 0.282846 0.191581
Si Si6 0.938545 0.278759 0.187800
Si Si7 0.783648 0.278636 0.357395
Si Si8 0.940916 0.721315 0.487876
O O1 0.445288 0.285520 0.824015
O O2 0.476924 0.000000 0.905610
O O3 0.500000 0.294317 0.000000
O O4 0.377462 0.206605 0.136658
O O5 0.306626 0.500000 0.258749
O O6 0.261033 0.228658 0.194108
O O7 0.258003 0.222853 0.452130
O O8 0.500000 0.283942 0.500000
O O9 0.637554 0.248712 0.263380
O O10 0.555790 0.000000 0.317821
O O11 0.799976 0.500000 0.822032
O O12 0.869236 0.780610 0.658192
O O13 0.770059 0.783566 0.002555
O O14 0.721395 0.500000 0.186504
O O15 0.741276 0.217135 0.294130
O O16 0.939015 0.500000 0.187333
O O17 0.863174 0.222704 0.249347
O O18 0.947954 0.222046 0.325664
O O19 0.000000 0.220916 0.000000
O O20 0.784881 0.500000 0.354953
O O21 0.940999 0.500000 0.484627
O O22 0.000000 0.777483 0.500000
#
# Coordination Sequence:
#
# PCOD9143826 Si02
#       8
#     4   4   4   4   4   4   4   4
#     4  10  22  38  55  76 100 127 162 204 246 293
#     4  10  18  33  53  72  99 133 165 203 250 293
#     4  10  22  39  55  73 101 132 160 199 250 297
#     4   9  16  28  45  65  95 130 165 205 245 286
#     4  10  20  33  51  75 100 131 168 205 246 293
#     4   9  16  25  37  58  94 135 167 198 242 293
#     4   9  18  30  45  69 101 133 166 206 249 290
#     4   9  16  24  37  60  92 133 171 199 238 293
#
# _framework density 21.772414999999999
#
# number of rings (size 3 to 8) (size 9 to 14) (size 15 to 20)
#    0.000    2.500    2.500    0.000    3.500    0.500 
#    0.000    0.000    0.000    0.000    0.000    0.000 
#    0.000    6.000    0.000    0.000    0.000    0.000 
#
# Total GULP energy -178658.508259 kJ/mol
# GULP energy per Si atom -5583.078383 kJ/mol
# Density = 2.172286 g / cm^3
# Si number density = 21.772415 Si / 1000 Ang^3
#
#
#
# Elastic Constant Matrix: (Units=GPa)
#
#
# Indices 1 2 3 4 5 6 
#
# 1 126.8967 0.8178 33.3849 0.0000 -3.5838 0.0000
# 2 0.8178 76.7212 -0.1228 0.0000 4.3311 0.0000
# 3 33.3849 -0.1228 120.0083 0.0000 -6.3186 0.0000
# 4 0.0000 0.0000 0.0000 -6.7463 0.0000 -7.0233
# 5 -3.5838 4.3311 -6.3186 0.0000 41.3385 0.0000
# 6 0.0000 0.0000 0.0000 -7.0233 0.0000 11.5723
#
#
#
# Elastic Compliance Matrix: (Units=1/GPa)
#
#
# Indices 1 2 3 4 5 6 
#
# 1 0.008510 -0.000117 -0.002347 0.000000 0.000391 0.000000
# 2 -0.000117 0.013114 -0.000027 0.000000 -0.001388 0.000000
# 3 -0.002347 -0.000027 0.009048 0.000000 0.001182 0.000000
# 4 0.000000 0.000000 0.000000 -0.090837 0.000000 -0.055129
# 5 0.000391 -0.001388 0.001182 0.000000 0.024551 0.000000
# 6 0.000000 0.000000 0.000000 -0.055129 0.000000 0.052955
#
#
# Mechanical properties :
#
#
# Convention : Reuss Voigt Hill
#
# Bulk Modulus (GPa) = 38.92558 43.53177 41.22867
# Shear Modulus (GPa) = 161.89357 28.53600 95.21479
#
# Velocity S-wave (km/s) = 8.63242 3.62422 6.62018
# Velocity P-wave (km/s) = 10.82937 6.12786 8.79847
#
# Compressibility (1/GPa) = 0.02569005
#
# Stress axis : x y z
#
# Youngs Moduli (GPa) = 117.51379 76.25574 110.52364
#
# Poissons Ratio (x) = 0.00889 0.25938
# Poissons Ratio (y) = 0.01370 0.00301
# Poissons Ratio (z) = 0.27578 0.00208
#
# Static dielectric constant tensor:
#      x y z
#    x 1.806370 0.000000 -0.038550 
#    y 0.000000 1.859680 0.000000 
#    z -0.038550 0.000000 1.817060 
# 
# From -- ./inp_files/34632.got.cif
#   From: 2010.05.17/outbox.cif.g08.bks.cpg/sg10_18_cif.got.tgz:34632.got - 2010.06.03 11:33:40.
