data_PCOD9143898
_publ_section_title
;
Structure prediction by ZEFSAII (Michael W. Deem and Ramdas Pophale) SiO2 
 PCOD9143898
Probable space group: P 2/M
;
_chemical_formula_sum "Si O2"
_cell_formula_units_Z 32
_cell_length_a 12.381798
_cell_length_b 7.424185
_cell_length_c 19.871169
_cell_angle_alpha 90.000000
_cell_angle_beta 127.219565
_cell_angle_gamma 90.000000
_cell_volume 1454.606097
_symmetry_space_group_name_H-M "P 2/M"
_symmetry_group_IT_number 10
_symmetry_cell_setting 'monoclinic'
loop_
_space_group_symop_operation_xyz
x,y,z
-x,y,-z
-x,-y,-z
x,-y,z
loop_
_atom_site_type_symbol
_atom_site_label
_atom_site_fract_x
_atom_site_fract_y
_atom_site_fract_z
Si Si1 0.636766 0.216527 0.085934
Si Si2 0.105482 0.295732 0.092883
Si Si3 0.652120 0.285167 0.250888
Si Si4 0.918603 0.794013 0.141823
Si Si5 0.901073 0.718060 0.666414
Si Si6 0.601480 0.719600 0.597527
Si Si7 0.598262 0.720816 0.751538
Si Si8 0.051607 0.720080 0.591565
O O1 0.640331 0.253648 0.166730
O O2 0.769483 0.284714 0.096683
O O3 0.640890 0.000000 0.080761
O O4 0.500000 0.283351 0.000000
O O5 0.131352 0.500000 0.077868
O O6 0.254072 0.218472 0.165246
O O7 0.021224 0.301023 0.130158
O O8 0.000000 0.211244 0.000000
O O9 0.653631 0.500000 0.261080
O O10 0.523400 0.219608 0.245499
O O11 0.797387 0.217757 0.332220
O O12 0.987541 0.789939 0.240504
O O13 0.907632 0.000000 0.113858
O O14 0.905074 0.500000 0.671563
O O15 0.752707 0.775009 0.633636
O O16 0.944879 0.772207 0.608616
O O17 0.500000 0.778531 0.500000
O O18 0.597040 0.500000 0.596268
O O19 0.575409 0.775786 0.664996
O O20 0.602185 0.500000 0.752472
O O21 0.055374 0.500000 0.592412
O O22 0.000000 0.780211 0.500000
#
# Coordination Sequence:
#
# PCOD9143898 Si02
#       8
#     4   4   4   4   4   4   4   4
#     4  10  23  41  57  76 107 145 181 223 275 328
#     4  10  21  37  57  81 110 142 175 218 273 324
#     4  10  20  34  55  82 110 140 178 224 269 320
#     4  11  22  37  58  80 106 141 185 230 270 317
#     4  10  18  33  56  79 107 143 183 224 275 325
#     4   9  17  28  49  80 109 139 175 217 265 319
#     4   9  18  32  49  77 112 138 169 216 264 314
#     4   9  18  30  49  81 113 139 173 223 274 319
#
# _framework density 21.999082000000001
#
# number of rings (size 3 to 8) (size 9 to 14) (size 15 to 20)
#    0.000    2.250    2.500    0.375    3.500    1.000 
#    0.000    0.625    0.000    1.875    0.000    0.000 
#    0.000    0.000    0.000    0.000    0.000    0.000 
#
# Total GULP energy -178728.466532 kJ/mol
# GULP energy per Si atom -5585.264579 kJ/mol
# Density = 2.194901 g / cm^3
# Si number density = 21.999082 Si / 1000 Ang^3
#
#
#
# Elastic Constant Matrix: (Units=GPa)
#
#
# Indices 1 2 3 4 5 6 
#
# 1 120.0303 1.2311 17.1725 0.0000 10.5150 0.0000
# 2 1.2311 70.1615 -5.3789 0.0000 3.7297 0.0000
# 3 17.1725 -5.3789 105.4798 0.0000 6.5146 0.0000
# 4 0.0000 0.0000 0.0000 -6.2625 0.0000 20.9533
# 5 10.5150 3.7297 6.5146 0.0000 41.9096 0.0000
# 6 0.0000 0.0000 0.0000 20.9533 0.0000 -13.6318
#
#
#
# Elastic Compliance Matrix: (Units=1/GPa)
#
#
# Indices 1 2 3 4 5 6 
#
# 1 0.008691 -0.000148 -0.001301 0.000000 -0.001965 0.000000
# 2 -0.000148 0.014393 0.000843 0.000000 -0.001375 0.000000
# 3 -0.001301 0.000843 0.009814 0.000000 -0.001274 0.000000
# 4 0.000000 0.000000 0.000000 0.038544 0.000000 0.059245
# 5 -0.001965 -0.001375 -0.001274 0.000000 0.024674 0.000000
# 6 0.000000 0.000000 0.000000 0.059245 0.000000 0.017707
#
#
# Mechanical properties :
#
#
# Convention : Reuss Voigt Hill
#
# Bulk Modulus (GPa) = 31.55939 35.74679 33.65309
# Shear Modulus (GPa) = 39.80987 23.24619 31.52803
#
# Velocity S-wave (km/s) = 4.25857 3.25420 3.78981
# Velocity P-wave (km/s) = 6.20947 5.51401 5.87204
#
# Compressibility (1/GPa) = 0.03168629
#
# Stress axis : x y z
#
# Youngs Moduli (GPa) = 115.06093 69.47757 101.89540
#
# Poissons Ratio (x) = 0.01027 0.13258
# Poissons Ratio (y) = 0.01700 -0.08589
# Poissons Ratio (z) = 0.14971 -0.05857
#
# Static dielectric constant tensor:
#      x y z
#    x 1.782590 0.000000 0.004050 
#    y 0.000000 1.874300 0.000000 
#    z 0.004050 0.000000 1.779620 
# 
# From -- ./inp_files/49886.got.cif
#   From: 2010.05.17/outbox.cif.g08.bks.cpg/sg10_25_cif.got.tgz:49886.got - 2010.06.03 11:33:40.
