data_PCOD9143603
_publ_section_title
;
Structure prediction by ZEFSAII (Michael W. Deem and Ramdas Pophale) SiO2 
 PCOD9143603
Probable space group: P 2/M
;
_chemical_formula_sum "Si O2"
_cell_formula_units_Z 32
_cell_length_a 21.119135
_cell_length_b 14.261024
_cell_length_c 9.333722
_cell_angle_alpha 90.000000
_cell_angle_beta 35.477528
_cell_angle_gamma 90.000000
_cell_volume 1631.536656
_symmetry_space_group_name_H-M "P 2/M"
_symmetry_group_IT_number 10
_symmetry_cell_setting 'monoclinic'
loop_
_space_group_symop_operation_xyz
x,y,z
-x,y,-z
-x,-y,-z
x,-y,z
loop_
_atom_site_type_symbol
_atom_site_label
_atom_site_fract_x
_atom_site_fract_y
_atom_site_fract_z
Si Si1 0.781936 0.608024 0.166553
Si Si2 0.347291 0.670875 0.161820
Si Si3 0.046018 0.809869 0.761592
Si Si4 0.243899 0.159971 0.200275
Si Si5 0.132715 0.601569 0.669108
Si Si6 0.103320 0.767430 0.213098
Si Si7 0.515773 0.102407 0.299904
Si Si8 0.423172 0.289972 0.329874
O O1 0.771744 0.500000 0.142755
O O2 0.848509 0.610512 0.194609
O O3 0.666136 0.655569 0.414753
O O4 0.838178 0.673904 0.947313
O O5 0.290932 0.737278 0.150523
O O6 0.254304 0.599665 0.378454
O O7 0.373109 0.725337 0.263561
O O8 0.467797 0.646479 0.886422
O O9 0.153544 0.857937 0.491906
O O10 0.077564 0.698253 0.718400
O O11 0.947459 0.817893 0.831203
O O12 0.000000 0.841087 0.000000
O O13 0.180176 0.167516 0.168135
O O14 0.355614 0.103244 0.978104
O O15 0.080922 0.500000 0.730835
O O16 0.000000 0.741235 0.500000
O O17 0.500000 0.113395 0.500000
O O18 0.458838 0.190660 0.329144
O O19 0.470474 0.000000 0.342673
#
# Coordination Sequence:
#
# PCOD9143603 Si02
#       8
#     4   4   4   4   4   4   4   4
#     4  10  19  30  47  74 107 148 190 228 269 313
#     4   8  16  31  50  73 103 144 177 212 276 325
#     4  10  18  32  53  77 102 142 192 228 276 319
#     4   9  19  35  53  79 109 139 179 226 272 332
#     4   9  17  28  46  73 106 140 186 238 271 310
#     4  10  20  33  50  71 103 145 190 230 274 315
#     4  10  20  36  61  88 113 142 174 216 277 338
#     4   9  17  32  53  78 108 140 178 225 265 326
#
# _framework density 19.613412
#
# number of rings (size 3 to 8) (size 9 to 14) (size 15 to 20)
#    0.000    2.625    1.250    0.750    0.000    1.500 
#    0.000   12.500    0.000   10.875    0.000    0.000 
#    0.000    0.000    0.000    0.000    0.000    0.000 
#
# Total GULP energy -178244.207371 kJ/mol
# GULP energy per Si atom -5570.131480 kJ/mol
# Density = 1.956877 g / cm^3
# Si number density = 19.613412 Si / 1000 Ang^3
#
#
#
# Elastic Constant Matrix: (Units=GPa)
#
#
# Indices 1 2 3 4 5 6 
#
# 1 58.4509 -12.8340 18.4545 0.0000 -0.1060 0.0000
# 2 -12.8340 20.5548 4.7336 0.0000 0.3060 0.0000
# 3 18.4545 4.7336 86.9177 0.0000 4.0291 0.0000
# 4 0.0000 0.0000 0.0000 -6.9289 0.0000 -12.3584
# 5 -0.1060 0.3060 4.0291 0.0000 26.7786 0.0000
# 6 0.0000 0.0000 0.0000 -12.3584 0.0000 4.8676
#
#
#
# Elastic Compliance Matrix: (Units=1/GPa)
#
#
# Indices 1 2 3 4 5 6 
#
# 1 0.022190 0.015126 -0.005570 0.000000 0.000753 0.000000
# 2 0.015126 0.059581 -0.006473 0.000000 0.000353 0.000000
# 3 -0.005570 -0.006473 0.013129 0.000000 -0.001924 0.000000
# 4 0.000000 0.000000 0.000000 -0.026106 0.000000 -0.066280
# 5 0.000753 0.000353 -0.001924 0.000000 0.037632 0.000000
# 6 0.000000 0.000000 0.000000 -0.066280 0.000000 0.037161
#
#
# Mechanical properties :
#
#
# Convention : Reuss Voigt Hill
#
# Bulk Modulus (GPa) = 9.89448 20.73684 15.31566
# Shear Modulus (GPa) = 29.22129 15.31474 22.26801
#
# Velocity S-wave (km/s) = 3.86406 2.79736 3.37315
# Velocity P-wave (km/s) = 4.99636 4.58578 4.79547
#
# Compressibility (1/GPa) = 0.10106650
#
# Stress axis : x y z
#
# Youngs Moduli (GPa) = 45.06609 16.78401 76.16453
#
# Poissons Ratio (x) = -0.25388 0.42424
# Poissons Ratio (y) = -0.68168 0.49300
# Poissons Ratio (z) = 0.25102 0.10864
#
# Static dielectric constant tensor:
#      x y z
#    x 1.708000 0.000000 -0.009970 
#    y 0.000000 1.657720 0.000000 
#    z -0.009970 0.000000 1.733620 
# 
# From -- ./inp_files/35121.got.cif
#   From: 2010.05.17/outbox.cif.g08.bks.cpg/sg10_18_cif.got.tgz:35121.got - 2010.06.03 11:33:40.
