data_PCOD9143816
_publ_section_title
;
Structure prediction by ZEFSAII (Michael W. Deem and Ramdas Pophale) SiO2 
 PCOD9143816
Probable space group: P 2/M
;
_chemical_formula_sum "Si O2"
_cell_formula_units_Z 32
_cell_length_a 18.077039
_cell_length_b 14.142290
_cell_length_c 15.074445
_cell_angle_alpha 90.000000
_cell_angle_beta 30.307496
_cell_angle_gamma 90.000000
_cell_volume 1944.780242
_symmetry_space_group_name_H-M "P 2/M"
_symmetry_group_IT_number 10
_symmetry_cell_setting 'monoclinic'
loop_
_space_group_symop_operation_xyz
x,y,z
-x,y,-z
-x,-y,-z
x,-y,z
loop_
_atom_site_type_symbol
_atom_site_label
_atom_site_fract_x
_atom_site_fract_y
_atom_site_fract_z
Si Si1 0.516271 0.610102 0.728278
Si Si2 0.829527 0.226316 0.660109
Si Si3 0.406066 0.107627 0.188659
Si Si4 0.341502 0.893356 0.823206
Si Si5 0.414131 0.751362 0.497232
Si Si6 0.173084 0.891756 0.813414
Si Si7 0.345655 0.223535 0.976167
Si Si8 0.642707 0.608412 0.794069
O O1 0.485588 0.500000 0.739650
O O2 0.589355 0.665222 0.569487
O O3 0.376613 0.674411 0.900918
O O4 0.607128 0.611454 0.726444
O O5 0.749950 0.150745 0.678123
O O6 0.781401 0.327221 0.670434
O O7 0.000000 0.212603 0.500000
O O8 0.749421 0.224593 0.837806
O O9 0.497946 0.175187 0.159070
O O10 0.396005 0.000000 0.231731
O O11 0.500000 0.106190 0.000000
O O12 0.481874 0.831403 0.652786
O O13 0.238035 0.892908 0.845330
O O14 0.272232 0.843588 0.979661
O O15 0.383443 0.000000 0.800404
O O16 0.500000 0.723898 0.500000
O O17 0.262635 0.807074 0.673325
O O18 0.197887 0.000000 0.751739
O O19 0.000000 0.875623 0.000000
O O20 0.665585 0.500000 0.797341
O O21 0.500000 0.642645 0.000000
#
# Coordination Sequence:
#
# PCOD9143816 Si02
#       8
#     4   4   4   4   4   4   4   4
#     4  10  19  32  56  79  97 127 173 220 258 301
#     4  11  21  33  48  73 106 136 169 216 266 317
#     4   9  17  31  50  67  90 130 172 205 246 301
#     4   9  17  30  51  77 101 129 168 213 249 289
#     4   9  18  32  52  80 105 130 165 209 252 300
#     4   9  17  32  53  78 108 139 167 199 248 305
#     4  10  18  33  51  74  99 132 176 213 258 306
#     4  10  18  34  57  75  96 131 178 224 262 302
#
# _framework density 16.454301999999998
#
# number of rings (size 3 to 8) (size 9 to 14) (size 15 to 20)
#    0.000    2.375    2.500    1.125    0.000    2.750 
#    2.250    0.000    0.000    0.375    0.000    0.000 
#    0.000    0.000    0.000    0.000    0.000    0.000 
#
# Total GULP energy -178160.241999 kJ/mol
# GULP energy per Si atom -5567.507562 kJ/mol
# Density = 1.641685 g / cm^3
# Si number density = 16.454302 Si / 1000 Ang^3
#
#
#
# Elastic Constant Matrix: (Units=GPa)
#
#
# Indices 1 2 3 4 5 6 
#
# 1 51.7155 41.4430 39.0630 0.0000 3.7570 0.0000
# 2 41.4430 127.2403 41.4197 0.0000 -0.9184 0.0000
# 3 39.0630 41.4197 62.3569 0.0000 -9.2956 0.0000
# 4 0.0000 0.0000 0.0000 16.3406 0.0000 5.4057
# 5 3.7570 -0.9184 -9.2956 0.0000 32.7958 0.0000
# 6 0.0000 0.0000 0.0000 5.4057 0.0000 25.0934
#
#
#
# Elastic Compliance Matrix: (Units=1/GPa)
#
#
# Indices 1 2 3 4 5 6 
#
# 1 0.044702 -0.006283 -0.025706 0.000000 -0.012583 0.000000
# 2 -0.006283 0.011000 -0.003359 0.000000 0.000076 0.000000
# 3 -0.025706 -0.003359 0.036331 0.000000 0.013148 0.000000
# 4 0.000000 0.000000 0.000000 0.065893 0.000000 -0.014195
# 5 -0.012583 0.000076 0.013148 0.000000 0.035662 0.000000
# 6 0.000000 0.000000 0.000000 -0.014195 0.000000 0.042909
#
#
# Mechanical properties :
#
#
# Convention : Reuss Voigt Hill
#
# Bulk Modulus (GPa) = 46.86615 53.90713 50.38664
# Shear Modulus (GPa) = 15.90809 22.80509 19.35659
#
# Velocity S-wave (km/s) = 3.11272 3.72689 3.43357
# Velocity P-wave (km/s) = 6.43919 7.16607 6.81233
#
# Compressibility (1/GPa) = 0.02133736
#
# Stress axis : x y z
#
# Youngs Moduli (GPa) = 22.37029 90.91300 27.52444
#
# Poissons Ratio (x) = 0.57118 0.70754
# Poissons Ratio (y) = 0.14055 0.09246
# Poissons Ratio (z) = 0.57505 0.30540
#
# Static dielectric constant tensor:
#      x y z
#    x 1.573790 0.000000 0.021910 
#    y 0.000000 1.581290 0.000000 
#    z 0.021910 0.000000 1.547580 
# 
# From -- ./inp_files/69303.got.cif
#   From: 2010.05.17/outbox.cif.g08.bks.cpg/sg10_35_cif.got.tgz:69303.got - 2010.06.03 11:33:40.
