data_PCOD9143391
_publ_section_title
;
Structure prediction by ZEFSAII (Michael W. Deem and Ramdas Pophale) SiO2 
 PCOD9143391
Probable space group: P 2/M
;
_chemical_formula_sum "Si O2"
_cell_formula_units_Z 28
_cell_length_a 18.468875
_cell_length_b 7.620513
_cell_length_c 11.346735
_cell_angle_alpha 90.000000
_cell_angle_beta 126.295837
_cell_angle_gamma 90.000000
_cell_volume 1287.108436
_symmetry_space_group_name_H-M "P 2/M"
_symmetry_group_IT_number 10
_symmetry_cell_setting 'monoclinic'
loop_
_space_group_symop_operation_xyz
x,y,z
-x,y,-z
-x,-y,-z
x,-y,z
loop_
_atom_site_type_symbol
_atom_site_label
_atom_site_fract_x
_atom_site_fract_y
_atom_site_fract_z
Si Si1 0.219292 0.795512 0.282844
Si Si2 0.304267 0.708349 0.030556
Si Si3 0.602251 0.715894 0.117988
Si Si4 0.593936 0.788010 0.642756
Si Si5 0.863004 0.500000 0.404015
Si Si6 0.263060 0.300175 0.574602
Si Si7 0.883903 0.201144 0.033625
Si Si8 0.032672 0.500000 0.736706
O O1 0.317765 0.724225 0.342935
O O2 0.213288 0.783018 0.416853
O O3 0.220764 0.000000 0.252045
O O4 0.141737 0.726496 0.121836
O O5 0.287383 0.500000 0.008113
O O6 0.383557 0.738961 0.201634
O O7 0.339360 0.770755 0.938448
O O8 0.212849 0.792873 0.991933
O O9 0.604704 0.500000 0.124065
O O10 0.647304 0.779066 0.283291
O O11 0.500000 0.768649 0.000000
O O12 0.500000 0.722305 0.500000
O O13 0.591790 0.000000 0.632698
O O14 0.802407 0.331936 0.377113
O O15 0.897928 0.500000 0.306399
O O16 0.939318 0.500000 0.577447
O O17 0.282952 0.500000 0.553777
O O18 0.949515 0.329929 0.166516
O O19 0.916793 0.000000 0.061315
#
# Coordination Sequence:
#
# PCOD9143391 Si02
#       8
#     4   4   4   4   2   4   4   2
#     4   9  19  35  54  81 115 156 199 240 292 353
#     4  10  18  31  53  79 111 144 195 243 297 345
#     4   9  18  31  49  77 111 153 196 242 284 338
#     4   9  19  33  48  69 108 153 195 253 301 332
#     4   9  22  39  60  97 113 154 191 233 297 364
#     4   9  19  35  56  77 116 150 188 230 292 351
#     4  10  21  37  62  92 116 154 199 241 298 354
#     4  11  20  41  71  87 125 147 188 250 297 351
#
# _framework density 21.754187999999999
#
# number of rings (size 3 to 8) (size 9 to 14) (size 15 to 20)
#    0.429    2.143    0.714    2.143    3.000    0.857 
#    0.000    7.143    0.000    3.857    0.000    0.000 
#    0.000    0.000    0.000    0.000    0.000    0.000 
#
# Total GULP energy -156141.399766 kJ/mol
# GULP energy per Si atom -5576.478563 kJ/mol
# Density = 2.170467 g / cm^3
# Si number density = 21.754188 Si / 1000 Ang^3
#
#
#
# Elastic Constant Matrix: (Units=GPa)
#
#
# Indices 1 2 3 4 5 6 
#
# 1 18.0757 -4.9370 8.1748 0.0000 -7.8958 0.0000
# 2 -4.9370 61.8777 14.9699 0.0000 5.8449 0.0000
# 3 8.1748 14.9699 130.1614 0.0000 10.6113 0.0000
# 4 0.0000 0.0000 0.0000 45.6839 0.0000 -5.8478
# 5 -7.8958 5.8449 10.6113 0.0000 27.8328 0.0000
# 6 0.0000 0.0000 0.0000 -5.8478 0.0000 6.5554
#
#
#
# Elastic Compliance Matrix: (Units=1/GPa)
#
#
# Indices 1 2 3 4 5 6 
#
# 1 0.068888 0.005116 -0.006626 0.000000 0.020994 0.000000
# 2 0.005116 0.017226 -0.002194 0.000000 -0.001329 0.000000
# 3 -0.006626 -0.002194 0.008739 0.000000 -0.004751 0.000000
# 4 0.000000 0.000000 0.000000 0.024711 0.000000 0.022044
# 5 0.020994 -0.001329 -0.004751 0.000000 0.043975 0.000000
# 6 0.000000 0.000000 0.000000 0.022044 0.000000 0.172210
#
#
# Mechanical properties :
#
#
# Convention : Reuss Voigt Hill
#
# Bulk Modulus (GPa) = 11.43596 27.39224 19.41410
# Shear Modulus (GPa) = 13.42986 28.80824 21.11905
#
# Velocity S-wave (km/s) = 2.48734 3.64299 3.11915
# Velocity P-wave (km/s) = 3.67661 5.50583 4.68143
#
# Compressibility (1/GPa) = 0.08744344
#
# Stress axis : x y z
#
# Youngs Moduli (GPa) = 14.51635 58.05342 114.43506
#
# Poissons Ratio (x) = -0.29702 0.75830
# Poissons Ratio (y) = -0.07427 0.25108
# Poissons Ratio (z) = 0.09619 0.12737
#
# Static dielectric constant tensor:
#      x y z
#    x 1.804220 0.000000 0.003100 
#    y 0.000000 1.811440 0.000000 
#    z 0.003100 0.000000 1.815650 
# 
# From -- ./inp_files/55033.got.cif
#   From: 2010.05.17/outbox.cif.g08.bks.cpg/sg10_28_cif.got.tgz:55033.got - 2010.06.03 11:33:40.
