data_PCOD9143457
_publ_section_title
;
Structure prediction by ZEFSAII (Michael W. Deem and Ramdas Pophale) SiO2 
 PCOD9143457
Probable space group: P 2/M
;
_chemical_formula_sum "Si O2"
_cell_formula_units_Z 32
_cell_length_a 12.965165
_cell_length_b 7.578951
_cell_length_c 15.230668
_cell_angle_alpha 90.000000
_cell_angle_beta 78.936819
_cell_angle_gamma 90.000000
_cell_volume 1468.788663
_symmetry_space_group_name_H-M "P 2/M"
_symmetry_group_IT_number 10
_symmetry_cell_setting 'monoclinic'
loop_
_space_group_symop_operation_xyz
x,y,z
-x,y,-z
-x,-y,-z
x,-y,z
loop_
_atom_site_type_symbol
_atom_site_label
_atom_site_fract_x
_atom_site_fract_y
_atom_site_fract_z
Si Si1 0.012643 0.283554 0.711809
Si Si2 0.461631 0.713999 0.910991
Si Si3 0.787104 0.711830 0.428645
Si Si4 0.404051 0.706114 0.276496
Si Si5 0.027962 0.700854 0.902060
Si Si6 0.399677 0.208408 0.655296
Si Si7 0.262789 0.206481 0.841685
Si Si8 0.180895 0.283597 0.378531
O O1 0.014925 0.500000 0.714376
O O2 0.125796 0.225120 0.655734
O O3 0.992562 0.221373 0.814473
O O4 0.920763 0.230835 0.660264
O O5 0.462086 0.500000 0.909169
O O6 0.535870 0.779219 0.818915
O O7 0.344068 0.773339 0.907930
O O8 0.500000 0.771566 0.000000
O O9 0.792676 0.500000 0.428173
O O10 0.668611 0.758438 0.419937
O O11 0.818491 0.773679 0.520346
O O12 0.387948 0.500000 0.260660
O O13 0.484511 0.718818 0.345459
O O14 0.289854 0.778840 0.317440
O O15 0.985639 0.500000 0.911780
O O16 0.153809 0.698566 0.874621
O O17 0.000000 0.785904 0.000000
O O18 0.325900 0.277821 0.746761
O O19 0.410108 0.000000 0.664746
O O20 0.240154 0.000000 0.831226
O O21 0.181054 0.500000 0.379352
#
# Coordination Sequence:
#
# PCOD9143457 Si02
#       8
#     4   4   4   4   4   4   4   4
#     4   9  17  31  52  78 107 135 168 215 261 306
#     4   9  18  32  53  78 101 133 175 217 263 312
#     4  10  18  31  55  79 100 133 176 216 258 313
#     4   9  18  33  52  75 106 137 170 216 263 310
#     4  10  20  33  53  81 107 134 170 214 262 309
#     4  10  20  34  53  75 102 137 175 216 258 306
#     4  10  20  34  52  73 102 138 173 213 257 309
#     4   9  18  31  50  78 106 134 171 215 264 313
#
# _framework density 21.786660000000001
#
# number of rings (size 3 to 8) (size 9 to 14) (size 15 to 20)
#    0.000    2.500    1.250    1.125    0.000    4.500 
#    0.000    6.875    0.000    3.750    0.000    0.000 
#    0.000    0.000    0.000    0.000    0.000    0.000 
#
# Total GULP energy -178625.751779 kJ/mol
# GULP energy per Si atom -5582.054743 kJ/mol
# Density = 2.173707 g / cm^3
# Si number density = 21.786660 Si / 1000 Ang^3
#
#
#
# Elastic Constant Matrix: (Units=GPa)
#
#
# Indices 1 2 3 4 5 6 
#
# 1 70.5551 -10.7872 15.3149 0.0000 19.0862 0.0000
# 2 -10.7872 53.1562 -1.0685 0.0000 -4.9183 0.0000
# 3 15.3149 -1.0685 103.8155 0.0000 26.6168 0.0000
# 4 0.0000 0.0000 0.0000 -17.6537 0.0000 -33.4076
# 5 19.0862 -4.9183 26.6168 0.0000 37.2582 0.0000
# 6 0.0000 0.0000 0.0000 -33.4076 0.0000 -76.4743
#
#
#
# Elastic Compliance Matrix: (Units=1/GPa)
#
#
# Indices 1 2 3 4 5 6 
#
# 1 0.016828 0.002669 -0.000410 0.000000 -0.007975 0.000000
# 2 0.002669 0.019494 -0.000615 0.000000 0.001645 0.000000
# 3 -0.000410 -0.000615 0.011818 0.000000 -0.008314 0.000000
# 4 0.000000 0.000000 0.000000 -0.326833 0.000000 0.142776
# 5 -0.007975 0.001645 -0.008314 0.000000 0.037081 0.000000
# 6 0.000000 0.000000 0.000000 0.142776 0.000000 -0.075448
#
#
# Mechanical properties :
#
#
# Convention : Reuss Voigt Hill
#
# Bulk Modulus (GPa) = 19.44504 26.04946 22.74725
# Shear Modulus (GPa) = -16.49052 3.56390 -6.46331
#
# Velocity S-wave (km/s) = -2.75418 1.28038 -1.72426
# Velocity P-wave (km/s) = 1.08141 3.76409 2.54941
#
# Compressibility (1/GPa) = 0.05142698
#
# Stress axis : x y z
#
# Youngs Moduli (GPa) = 59.42569 51.29796 84.61520
#
# Poissons Ratio (x) = -0.13690 0.03472
# Poissons Ratio (y) = -0.15860 0.05203
# Poissons Ratio (z) = 0.02438 0.03155
#
# Static dielectric constant tensor:
#      x y z
#    x 1.755290 0.000000 -0.001080 
#    y 0.000000 1.816710 0.000000 
#    z -0.001080 0.000000 1.813970 
# 
# From -- ./inp_files/49808.got.cif
#   From: 2010.05.17/outbox.cif.g08.bks.cpg/sg10_25_cif.got.tgz:49808.got - 2010.06.03 11:33:40.
