data_PCOD9143427
_publ_section_title
;
Structure prediction by ZEFSAII (Michael W. Deem and Ramdas Pophale) SiO2 
 PCOD9143427
Probable space group: P 2/M
;
_chemical_formula_sum "Si O2"
_cell_formula_units_Z 28
_cell_length_a 15.467716
_cell_length_b 7.746050
_cell_length_c 17.737549
_cell_angle_alpha 90.000000
_cell_angle_beta 44.599927
_cell_angle_gamma 90.000000
_cell_volume 1492.214724
_symmetry_space_group_name_H-M "P 2/M"
_symmetry_group_IT_number 10
_symmetry_cell_setting 'monoclinic'
loop_
_space_group_symop_operation_xyz
x,y,z
-x,y,-z
-x,-y,-z
x,-y,z
loop_
_atom_site_type_symbol
_atom_site_label
_atom_site_fract_x
_atom_site_fract_y
_atom_site_fract_z
Si Si1 0.573539 0.788799 0.841134
Si Si2 0.603841 0.206717 0.493488
Si Si3 0.546635 0.200306 0.693705
Si Si4 0.832876 0.293530 0.251695
Si Si5 0.686781 0.210095 0.922846
Si Si6 0.271500 0.298783 0.843216
Si Si7 0.115888 0.203786 0.081622
O O1 0.593008 0.724378 0.744208
O O2 0.667021 0.732966 0.848839
O O3 0.574812 0.000000 0.838350
O O4 0.436716 0.740517 0.954789
O O5 0.500000 0.275058 0.500000
O O6 0.587578 0.277155 0.588156
O O7 0.736429 0.239879 0.375344
O O8 0.584425 0.000000 0.510169
O O9 0.398028 0.207269 0.787345
O O10 0.585660 0.000000 0.669056
O O11 0.836224 0.500000 0.245728
O O12 0.781442 0.229591 0.202827
O O13 0.971256 0.232422 0.178980
O O14 0.805261 0.268990 0.895845
O O15 0.688864 0.000000 0.919522
O O16 0.302626 0.500000 0.813603
O O17 0.170805 0.283712 0.971285
O O18 0.139304 0.000000 0.060585
#
# Coordination Sequence:
#
# PCOD9143427 Si02
#       7
#     4   4   4   4   4   4   4
#     4   8  13  25  47  77 106 128 159 202 252 302
#     4  10  20  34  54  78 102 129 170 220 255 288
#     4  10  18  31  54  79 104 133 167 208 254 296
#     4  11  24  38  51  70 102 142 176 206 250 305
#     4   8  14  25  47  77 104 129 159 203 253 301
#     4  11  22  34  49  73 106 139 169 202 249 307
#     4  11  21  34  54  77 102 134 172 211 254 298
#
# _framework density 18.764054999999999
#
# number of rings (size 3 to 8) (size 9 to 14) (size 15 to 20)
#    0.000    2.143    2.857    2.571    0.000    4.286 
#    0.000    0.000    0.000    3.429    0.000    6.000 
#    0.000    0.000    0.000    0.000    0.000    0.000 
#
# Total GULP energy -156242.082187 kJ/mol
# GULP energy per Si atom -5580.074364 kJ/mol
# Density = 1.872135 g / cm^3
# Si number density = 18.764055 Si / 1000 Ang^3
#
#
#
# Elastic Constant Matrix: (Units=GPa)
#
#
# Indices 1 2 3 4 5 6 
#
# 1 93.4478 -8.1584 84.4100 0.0000 64.7851 0.0000
# 2 -8.1584 27.6958 -4.7150 0.0000 17.2563 0.0000
# 3 84.4100 -4.7150 108.2833 0.0000 7.0217 0.0000
# 4 0.0000 0.0000 0.0000 9.6327 0.0000 11.8743
# 5 64.7851 17.2563 7.0217 0.0000 5.8794 0.0000
# 6 0.0000 0.0000 0.0000 11.8743 0.0000 -19.3757
#
#
#
# Elastic Compliance Matrix: (Units=1/GPa)
#
#
# Indices 1 2 3 4 5 6 
#
# 1 0.001441 -0.009641 -0.002546 0.000000 0.015460 0.000000
# 2 -0.009641 0.030462 0.008401 0.000000 0.006797 0.000000
# 3 -0.002546 0.008401 0.012319 0.000000 -0.011321 0.000000
# 4 0.000000 0.000000 0.000000 0.059137 0.000000 0.036242
# 5 0.015460 0.006797 -0.011321 0.000000 -0.006693 0.000000
# 6 0.000000 0.000000 0.000000 0.036242 0.000000 -0.029400
#
#
# Mechanical properties :
#
#
# Convention : Reuss Voigt Hill
#
# Bulk Modulus (GPa) = 27.28412 41.38889 34.33651
# Shear Modulus (GPa) = 57.43521 9.75331 33.59426
#
# Velocity S-wave (km/s) = 5.53856 2.28236 4.23585
# Velocity P-wave (km/s) = 7.44802 5.38989 6.50092
#
# Compressibility (1/GPa) = 0.03665135
#
# Stress axis : x y z
#
# Youngs Moduli (GPa) = 693.96662 32.82769 81.17297
#
# Poissons Ratio (x) = 0.31650 0.20663
# Poissons Ratio (y) = 6.69077 -0.68197
# Poissons Ratio (z) = 1.76657 -0.27580
#
# Static dielectric constant tensor:
#      x y z
#    x 1.675590 0.000000 0.035980 
#    y 0.000000 1.690080 0.000000 
#    z 0.035980 0.000000 1.621250 
# 
# From -- ./inp_files/63215.got.cif
#   From: 2010.05.17/outbox.cif.g08.bks.cpg/sg10_32_cif.got.tgz:63215.got - 2010.06.03 11:33:40.
