data_PCOD9143184
_publ_section_title
;
Structure prediction by ZEFSAII (Michael W. Deem and Ramdas Pophale) SiO2 
 PCOD9143184
Probable space group: P 2/M
;
_chemical_formula_sum "Si O2"
_cell_formula_units_Z 24
_cell_length_a 21.275728
_cell_length_b 8.104549
_cell_length_c 12.327812
_cell_angle_alpha 90.000000
_cell_angle_beta 39.327338
_cell_angle_gamma 90.000000
_cell_volume 1347.154099
_symmetry_space_group_name_H-M "P 2/M"
_symmetry_group_IT_number 10
_symmetry_cell_setting 'monoclinic'
loop_
_space_group_symop_operation_xyz
x,y,z
-x,y,-z
-x,-y,-z
x,-y,z
loop_
_atom_site_type_symbol
_atom_site_label
_atom_site_fract_x
_atom_site_fract_y
_atom_site_fract_z
Si Si1 0.144269 0.801098 0.090615
Si Si2 0.386836 0.298443 0.154385
Si Si3 0.773056 0.695449 0.808247
Si Si4 0.229375 0.691375 0.536065
Si Si5 0.922091 0.193144 0.438125
Si Si6 0.892842 0.195676 0.101552
O O1 0.224581 0.733712 0.067797
O O2 0.035776 0.755352 0.282121
O O3 0.152872 0.000000 0.079892
O O4 0.142105 0.740791 0.969183
O O5 0.387249 0.500000 0.157100
O O6 0.323095 0.251569 0.133026
O O7 0.325270 0.242922 0.342865
O O8 0.500000 0.241879 0.000000
O O9 0.784438 0.500000 0.777231
O O10 0.866498 0.782560 0.625660
O O11 0.246069 0.500000 0.539096
O O12 0.141496 0.708482 0.565238
O O13 0.189510 0.777202 0.696874
O O14 0.918271 0.000000 0.412483
O O15 0.907943 0.000000 0.066349
O O16 0.000000 0.262821 0.000000
#
# Coordination Sequence:
#
# PCOD9143184 Si02
#       6
#     4   4   4   4   4   4
#     4  10  20  32  47  66  95 138 171 190 228 293
#     4   8  16  33  54  73  96 125 156 198 254 306
#     4  10  20  31  47  74  99 121 159 209 253 285
#     4  10  19  30  49  78 101 123 163 212 251 276
#     4  10  18  31  48  66  96 137 170 192 230 295
#     4  10  19  34  50  67  97 140 177 194 225 291
#
# _framework density 17.815334
#
# number of rings (size 3 to 8) (size 9 to 14) (size 15 to 20)
#    0.000    2.333    1.667    3.000    0.000    4.333 
#    0.000    0.000    0.000   19.000    0.000    7.000 
#    0.000    0.000    0.000    0.000    0.000    0.000 
#
# Total GULP energy -133797.124545 kJ/mol
# GULP energy per Si atom -5574.880189 kJ/mol
# Density = 1.777479 g / cm^3
# Si number density = 17.815334 Si / 1000 Ang^3
#
#
#
# Elastic Constant Matrix: (Units=GPa)
#
#
# Indices 1 2 3 4 5 6 
#
# 1 111.1699 2.5559 79.4153 0.0000 17.8123 0.0000
# 2 2.5559 14.1096 1.7425 0.0000 -1.7212 0.0000
# 3 79.4153 1.7425 98.4480 0.0000 1.6668 0.0000
# 4 0.0000 0.0000 0.0000 19.2046 0.0000 5.9791
# 5 17.8123 -1.7212 1.6668 0.0000 28.4602 0.0000
# 6 0.0000 0.0000 0.0000 5.9791 0.0000 21.7946
#
#
#
# Elastic Compliance Matrix: (Units=1/GPa)
#
#
# Indices 1 2 3 4 5 6 
#
# 1 0.026857 -0.004160 -0.021323 0.000000 -0.015812 0.000000
# 2 -0.004160 0.072222 0.001962 0.000000 0.006857 0.000000
# 3 -0.021323 0.001962 0.027123 0.000000 0.011876 0.000000
# 4 0.000000 0.000000 0.000000 0.056934 0.000000 -0.015619
# 5 -0.015812 0.006857 0.011876 0.000000 0.044752 0.000000
# 6 0.000000 0.000000 0.000000 -0.015619 0.000000 0.050168
#
#
# Mechanical properties :
#
#
# Convention : Reuss Voigt Hill
#
# Bulk Modulus (GPa) = 12.63309 43.46165 28.04737
# Shear Modulus (GPa) = 14.22538 23.22615 18.72576
#
# Velocity S-wave (km/s) = 2.82882 3.61462 3.24559
# Velocity P-wave (km/s) = 4.21618 6.47064 5.46102
#
# Compressibility (1/GPa) = 0.07915721
#
# Stress axis : x y z
#
# Youngs Moduli (GPa) = 37.23452 13.84627 36.86941
#
# Poissons Ratio (x) = 0.05761 0.78618
# Poissons Ratio (y) = 0.15491 -0.07232
# Poissons Ratio (z) = 0.79396 -0.02716
#
# Static dielectric constant tensor:
#      x y z
#    x 1.622600 0.000000 0.020120 
#    y 0.000000 1.635230 0.000000 
#    z 0.020120 0.000000 1.610010 
# 
# From -- ./inp_files/45184.got.cif
#   From: 2010.05.17/outbox.cif.g08.bks.cpg/sg10_23_cif.got.tgz:45184.got - 2010.06.03 11:33:40.
