data_PCOD9143909
_publ_section_title
;
Structure prediction by ZEFSAII (Michael W. Deem and Ramdas Pophale) SiO2 
 PCOD9143909
Probable space group: P 2/M
;
_chemical_formula_sum "Si O2"
_cell_formula_units_Z 30
_cell_length_a 16.899592
_cell_length_b 14.987492
_cell_length_c 11.984965
_cell_angle_alpha 90.000000
_cell_angle_beta 28.910803
_cell_angle_gamma 90.000000
_cell_volume 1467.544302
_symmetry_space_group_name_H-M "P 2/M"
_symmetry_group_IT_number 10
_symmetry_cell_setting 'monoclinic'
loop_
_space_group_symop_operation_xyz
x,y,z
-x,y,-z
-x,-y,-z
x,-y,z
loop_
_atom_site_type_symbol
_atom_site_label
_atom_site_fract_x
_atom_site_fract_y
_atom_site_fract_z
Si Si1 0.625082 0.719469 0.243358
Si Si2 0.575326 0.395484 0.665626
Si Si3 0.261892 0.103101 0.996341
Si Si4 0.894869 0.096559 0.399483
Si Si5 0.804918 0.095285 0.262628
Si Si6 0.189038 0.292354 0.792718
Si Si7 0.500000 0.331654 0.000000
Si Si8 0.181573 0.776197 0.309283
O O1 0.500000 0.704041 0.500000
O O2 0.578432 0.657060 0.198228
O O3 0.788066 0.686150 0.104776
O O4 0.629654 0.821653 0.197045
O O5 0.568293 0.500000 0.649778
O O6 0.721381 0.350736 0.412375
O O7 0.576800 0.381652 0.797223
O O8 0.219837 0.148606 0.167595
O O9 0.090336 0.101008 0.139886
O O10 0.319122 0.000000 0.934514
O O11 0.795637 0.099389 0.407993
O O12 0.848953 0.174496 0.536987
O O13 0.865562 0.000000 0.490358
O O14 0.745410 0.190103 0.294341
O O15 0.734661 0.000000 0.309187
O O16 0.000000 0.091998 0.000000
O O17 0.000000 0.291414 0.000000
O O18 0.654082 0.279646 0.867023
O O19 0.000000 0.736289 0.500000
#
# Coordination Sequence:
#
# PCOD9143909 Si02
#       8
#     4   4   4   4   4   4   2   4
#     4  10  22  39  61  88 124 168 208 252 318 386
#     4  11  25  46  68  91 121 163 212 268 342 402
#     4  10  18  33  56  86 127 170 212 260 310 371
#     4   9  17  30  52  84 123 171 217 256 309 367
#     4   9  16  28  49  85 126 164 203 248 304 371
#     4  10  21  38  66  97 128 163 216 265 318 383
#     4  12  23  44  73  94 130 170 215 274 335 404
#     4  10  21  37  63  93 128 170 219 264 317 379
#
# _framework density 20.442312999999999
#
# number of rings (size 3 to 8) (size 9 to 14) (size 15 to 20)
#    0.000    2.000    1.333    3.000    0.000    7.200 
#    0.000    3.333    0.000    0.800    0.000    0.000 
#    0.000    0.000    0.000    0.000    0.000    0.000 
#
# Total GULP energy -167048.345895 kJ/mol
# GULP energy per Si atom -5568.278196 kJ/mol
# Density = 2.039579 g / cm^3
# Si number density = 20.442313 Si / 1000 Ang^3
#
#
#
# Elastic Constant Matrix: (Units=GPa)
#
#
# Indices 1 2 3 4 5 6 
#
# 1 105.0364 41.4764 30.9392 0.0000 5.8695 0.0000
# 2 41.4764 130.8815 37.9848 0.0000 5.3862 0.0000
# 3 30.9392 37.9848 60.2311 0.0000 4.1357 0.0000
# 4 0.0000 0.0000 0.0000 22.0675 0.0000 -3.8704
# 5 5.8695 5.3862 4.1357 0.0000 35.9102 0.0000
# 6 0.0000 0.0000 0.0000 -3.8704 0.0000 28.2115
#
#
#
# Elastic Compliance Matrix: (Units=1/GPa)
#
#
# Indices 1 2 3 4 5 6 
#
# 1 0.011856 -0.002408 -0.004499 0.000000 -0.001059 0.000000
# 2 -0.002408 0.009860 -0.004946 0.000000 -0.000516 0.000000
# 3 -0.004499 -0.004946 0.022106 0.000000 -0.001069 0.000000
# 4 0.000000 0.000000 0.000000 0.046433 0.000000 0.006370
# 5 -0.001059 -0.000516 -0.001069 0.000000 0.028221 0.000000
# 6 0.000000 0.000000 0.000000 0.006370 0.000000 0.036320
#
#
# Mechanical properties :
#
#
# Convention : Reuss Voigt Hill
#
# Bulk Modulus (GPa) = 49.70990 57.43889 53.57439
# Shear Modulus (GPa) = 26.99685 29.62110 28.30897
#
# Velocity S-wave (km/s) = 3.63800 3.81072 3.72536
# Velocity P-wave (km/s) = 6.48203 6.89356 6.69095
#
# Compressibility (1/GPa) = 0.02011672
#
# Stress axis : x y z
#
# Youngs Moduli (GPa) = 84.34838 101.41732 45.23608
#
# Poissons Ratio (x) = 0.24420 0.20350
# Poissons Ratio (y) = 0.20310 0.22374
# Poissons Ratio (z) = 0.37946 0.50162
#
# Static dielectric constant tensor:
#      x y z
#    x 1.809310 0.000000 -0.043110 
#    y 0.000000 1.727350 0.000000 
#    z -0.043110 0.000000 1.787520 
# 
# From -- ./inp_files/53912.got.cif
#   From: 2010.05.17/outbox.cif.g08.bks.cpg/sg10_27_cif.got.tgz:53912.got - 2010.06.03 11:33:40.
