data_PCOD9143548
_publ_section_title
;
Structure prediction by ZEFSAII (Michael W. Deem and Ramdas Pophale) SiO2 
 PCOD9143548
Probable space group: P 2/M
;
_chemical_formula_sum "Si O2"
_cell_formula_units_Z 32
_cell_length_a 20.900536
_cell_length_b 7.526431
_cell_length_c 30.180394
_cell_angle_alpha 90.000000
_cell_angle_beta 19.882925
_cell_angle_gamma 90.000000
_cell_volume 1614.645442
_symmetry_space_group_name_H-M "P 2/M"
_symmetry_group_IT_number 10
_symmetry_cell_setting 'monoclinic'
loop_
_space_group_symop_operation_xyz
x,y,z
-x,y,-z
-x,-y,-z
x,-y,z
loop_
_atom_site_type_symbol
_atom_site_label
_atom_site_fract_x
_atom_site_fract_y
_atom_site_fract_z
Si Si1 0.997066 0.217404 0.881513
Si Si2 0.023748 0.796738 0.202438
Si Si3 0.451859 0.295273 0.914906
Si Si4 0.437930 0.782661 0.350715
Si Si5 0.564448 0.786060 0.173560
Si Si6 0.668716 0.211439 0.859392
Si Si7 0.940888 0.218541 0.353777
Si Si8 0.175585 0.216865 0.854961
O O1 0.034361 0.281888 0.807258
O O2 0.134543 0.272712 0.831311
O O3 0.997432 0.000000 0.880022
O O4 0.783483 0.270277 0.032956
O O5 0.955638 0.719486 0.293239
O O6 0.956112 0.000000 0.246085
O O7 0.252265 0.800386 0.053324
O O8 0.408158 0.500000 0.950484
O O9 0.509326 0.268355 0.826541
O O10 0.608608 0.241268 0.848031
O O11 0.456176 0.724849 0.287718
O O12 0.248643 0.725393 0.498310
O O13 0.626344 0.726022 0.253777
O O14 0.437930 0.000000 0.350680
O O15 0.564960 0.000000 0.173927
O O16 0.871672 0.278014 0.742441
O O17 0.674135 0.000000 0.863152
O O18 0.500000 0.283434 0.000000
O O19 0.941909 0.000000 0.352500
O O20 0.175781 0.000000 0.855353
O O21 0.000000 0.271827 0.000000
#
# Coordination Sequence:
#
# PCOD9143548 Si02
#       8
#     4   4   4   4   4   4   4   4
#     4   8  13  21  39  65  93 126 158 187 227 282
#     4   9  16  30  48  68  97 131 161 193 238 286
#     4  11  21  31  48  74  98 119 155 206 246 282
#     4   9  16  26  44  71 100 128 160 198 235 280
#     4   9  16  29  48  69  95 128 161 192 235 285
#     4  10  18  32  52  71  93 127 162 196 239 285
#     4   9  17  29  46  68  94 125 163 199 233 279
#     4   9  13  20  36  66 102 129 154 192 240 280
#
# _framework density 19.818593
#
# number of rings (size 3 to 8) (size 9 to 14) (size 15 to 20)
#    0.000    2.750    2.500    1.875    0.000    0.250 
#    0.000    1.250    0.000    9.000    0.000    7.000 
#    0.000    4.000    0.000    0.000    0.000    0.000 
#
# Total GULP energy -178492.108862 kJ/mol
# GULP energy per Si atom -5577.878402 kJ/mol
# Density = 1.977348 g / cm^3
# Si number density = 19.818593 Si / 1000 Ang^3
#
#
#
# Elastic Constant Matrix: (Units=GPa)
#
#
# Indices 1 2 3 4 5 6 
#
# 1 174.8732 -12.1350 113.9226 0.0000 13.2188 0.0000
# 2 -12.1350 45.4260 7.1604 0.0000 -2.7166 0.0000
# 3 113.9226 7.1604 142.2262 0.0000 13.1471 0.0000
# 4 0.0000 0.0000 0.0000 -17.6453 0.0000 4.4924
# 5 13.2188 -2.7166 13.1471 0.0000 28.9209 0.0000
# 6 0.0000 0.0000 0.0000 4.4924 0.0000 -41.5423
#
#
#
# Elastic Compliance Matrix: (Units=1/GPa)
#
#
# Indices 1 2 3 4 5 6 
#
# 1 0.013077 0.005138 -0.010674 0.000000 -0.000642 0.000000
# 2 0.005138 0.024413 -0.005573 0.000000 0.002479 0.000000
# 3 -0.010674 -0.005573 0.016137 0.000000 -0.002980 0.000000
# 4 0.000000 0.000000 0.000000 -0.058277 0.000000 -0.006302
# 5 -0.000642 0.002479 -0.002980 0.000000 0.036458 0.000000
# 6 0.000000 0.000000 0.000000 -0.006302 0.000000 -0.024753
#
#
# Mechanical properties :
#
#
# Convention : Reuss Voigt Hill
#
# Bulk Modulus (GPa) = 31.83952 64.49125 48.16539
# Shear Modulus (GPa) = 125.80414 10.85182 68.32798
#
# Velocity S-wave (km/s) = 7.97594 2.34253 5.87806
# Velocity P-wave (km/s) = 10.04596 6.31886 8.39194
#
# Compressibility (1/GPa) = 0.03140751
#
# Stress axis : x y z
#
# Youngs Moduli (GPa) = 76.46908 40.96179 61.96930
#
# Poissons Ratio (x) = -0.21044 0.66146
# Poissons Ratio (y) = -0.39286 0.34538
# Poissons Ratio (z) = 0.81623 0.22829
#
# Static dielectric constant tensor:
#      x y z
#    x 1.709110 0.000000 0.013790 
#    y 0.000000 1.728080 0.000000 
#    z 0.013790 0.000000 1.654790 
# 
# From -- ./inp_files/52769.got.cif
#   From: 2010.05.17/outbox.cif.g08.bks.cpg/sg10_27_cif.got.tgz:52769.got - 2010.06.03 11:33:40.
