data_PCOD9143239
_publ_section_title
;
Structure prediction by ZEFSAII (Michael W. Deem and Ramdas Pophale) SiO2 
 PCOD9143239
Probable space group: P 2/M
;
_chemical_formula_sum "Si O2"
_cell_formula_units_Z 32
_cell_length_a 15.985388
_cell_length_b 17.555590
_cell_length_c 15.463308
_cell_angle_alpha 90.000000
_cell_angle_beta 154.049680
_cell_angle_gamma 90.000000
_cell_volume 1898.934786
_symmetry_space_group_name_H-M "P 2/M"
_symmetry_group_IT_number 10
_symmetry_cell_setting 'monoclinic'
loop_
_space_group_symop_operation_xyz
x,y,z
-x,y,-z
-x,-y,-z
x,-y,z
loop_
_atom_site_type_symbol
_atom_site_label
_atom_site_fract_x
_atom_site_fract_y
_atom_site_fract_z
Si Si1 0.040051 0.182172 0.636983
Si Si2 0.739454 0.300134 0.439324
Si Si3 0.769748 0.809137 0.608077
Si Si4 0.457116 0.915880 0.263961
Si Si5 0.075450 0.915303 0.818966
Si Si6 0.381876 0.297967 0.980174
Si Si7 0.225839 0.086682 0.228517
Si Si8 0.034310 0.409402 0.633791
O O1 0.032906 0.103082 0.680914
O O2 0.241256 0.224664 0.843916
O O3 0.000000 0.174065 0.500000
O O4 0.873449 0.236292 0.519170
O O5 0.749442 0.275799 0.550660
O O6 0.856008 0.376521 0.523038
O O7 0.533317 0.298951 0.200267
O O8 0.617976 0.853886 0.408160
O O9 0.726990 0.842876 0.663924
O O10 0.973127 0.848078 0.776857
O O11 0.341135 0.907830 0.246371
O O12 0.542483 0.000000 0.340385
O O13 0.299179 0.909836 0.044085
O O14 0.015768 0.000000 0.791785
O O15 0.230053 0.367525 0.843396
O O16 0.500000 0.302934 0.000000
O O17 0.266413 0.000000 0.300542
O O18 0.000000 0.089028 0.000000
O O19 0.048995 0.500000 0.655025
O O20 0.000000 0.390034 0.500000
#
# Coordination Sequence:
#
# PCOD9143239 Si02
#       8
#     4   4   4   4   4   4   4   4
#     4  10  19  31  46  64  89 127 171 208 239 284
#     4  10  20  33  48  71  99 129 159 194 237 288
#     4  11  20  31  49  69  95 128 161 196 244 299
#     4  10  19  31  48  69  94 126 162 205 252 299
#     4  10  20  32  45  63  90 124 166 214 254 286
#     4  11  17  31  51  68  93 129 162 193 236 284
#     4  10  18  31  50  71  99 131 162 202 256 305
#     4  10  20  33  52  79 104 127 160 195 233 290
#
# _framework density 16.851552000000002
#
# number of rings (size 3 to 8) (size 9 to 14) (size 15 to 20)
#    0.000    1.750    3.750    3.000    0.000    2.000 
#    0.000    0.000    0.000    0.375    0.000    0.000 
#    0.000    2.500    0.000    0.000    0.000    0.000 
#
# Total GULP energy -178240.287953 kJ/mol
# GULP energy per Si atom -5570.008999 kJ/mol
# Density = 1.681320 g / cm^3
# Si number density = 16.851552 Si / 1000 Ang^3
#
#
#
# Elastic Constant Matrix: (Units=GPa)
#
#
# Indices 1 2 3 4 5 6 
#
# 1 34.9090 12.4067 3.3329 0.0000 -9.1607 0.0000
# 2 12.4067 53.4748 19.5510 0.0000 -6.9737 0.0000
# 3 3.3329 19.5510 94.7973 0.0000 5.5415 0.0000
# 4 0.0000 0.0000 0.0000 12.5035 0.0000 3.4023
# 5 -9.1607 -6.9737 5.5415 0.0000 27.9413 0.0000
# 6 0.0000 0.0000 0.0000 3.4023 0.0000 6.6836
#
#
#
# Elastic Compliance Matrix: (Units=1/GPa)
#
#
# Indices 1 2 3 4 5 6 
#
# 1 0.033430 -0.006372 -0.000414 0.000000 0.009452 0.000000
# 2 -0.006372 0.022465 -0.004669 0.000000 0.004444 0.000000
# 3 -0.000414 -0.004669 0.011738 0.000000 -0.003629 0.000000
# 4 0.000000 0.000000 0.000000 0.092837 0.000000 -0.047258
# 5 0.009452 0.004444 -0.003629 0.000000 0.040717 0.000000
# 6 0.000000 0.000000 0.000000 -0.047258 0.000000 0.173677
#
#
# Mechanical properties :
#
#
# Convention : Reuss Voigt Hill
#
# Bulk Modulus (GPa) = 22.35919 28.19582 25.27750
# Shear Modulus (GPa) = 12.11584 19.28506 15.70045
#
# Velocity S-wave (km/s) = 2.68428 3.38658 3.05567
# Velocity P-wave (km/s) = 4.78584 5.66216 5.24235
#
# Compressibility (1/GPa) = 0.04472433
#
# Stress axis : x y z
#
# Youngs Moduli (GPa) = 29.91283 44.51290 85.19025
#
# Poissons Ratio (x) = 0.28365 0.03524
# Poissons Ratio (y) = 0.19062 0.39775
# Poissons Ratio (z) = 0.01237 0.20783
#
# Static dielectric constant tensor:
#      x y z
#    x 1.607390 0.000000 -0.008110 
#    y 0.000000 1.596830 0.000000 
#    z -0.008110 0.000000 1.602600 
# 
# From -- ./inp_files/67751.got.cif
#   From: 2010.05.17/outbox.cif.g08.bks.cpg/sg10_34_cif.got.tgz:67751.got - 2010.06.03 11:33:40.
