data_PCOD9143919
_publ_section_title
;
Structure prediction by ZEFSAII (Michael W. Deem and Ramdas Pophale) SiO2 
 PCOD9143919
Probable space group: P 2/M
;
_chemical_formula_sum "Si O2"
_cell_formula_units_Z 32
_cell_length_a 20.566844
_cell_length_b 8.383127
_cell_length_c 20.845840
_cell_angle_alpha 90.000000
_cell_angle_beta 150.372833
_cell_angle_gamma 90.000000
_cell_volume 1776.770058
_symmetry_space_group_name_H-M "P 2/M"
_symmetry_group_IT_number 10
_symmetry_cell_setting 'monoclinic'
loop_
_space_group_symop_operation_xyz
x,y,z
-x,y,-z
-x,-y,-z
x,-y,z
loop_
_atom_site_type_symbol
_atom_site_label
_atom_site_fract_x
_atom_site_fract_y
_atom_site_fract_z
Si Si1 0.862845 0.307493 0.646333
Si Si2 0.683559 0.692483 0.104425
Si Si3 0.614603 0.305812 0.184648
Si Si4 0.618704 0.810557 0.684256
Si Si5 0.629844 0.806752 0.837823
Si Si6 0.844149 0.809858 0.125154
Si Si7 0.656093 0.692958 0.362197
Si Si8 0.327731 0.310268 0.404777
O O1 0.865348 0.500000 0.647195
O O2 0.770208 0.252286 0.508064
O O3 0.790098 0.259053 0.649783
O O4 0.010155 0.247681 0.765545
O O5 0.687545 0.500000 0.107003
O O6 0.687790 0.745381 0.182358
O O7 0.794043 0.755363 0.151832
O O8 0.538930 0.740819 0.954096
O O9 0.616297 0.500000 0.185887
O O10 0.669680 0.251772 0.300165
O O11 0.659801 0.756686 0.790454
O O12 0.689983 0.729794 0.685139
O O13 0.463641 0.771812 0.543210
O O14 0.636749 0.000000 0.694607
O O15 0.486044 0.746227 0.734251
O O16 0.626743 0.000000 0.835985
O O17 0.738390 0.750117 0.981777
O O18 0.841797 0.000000 0.120995
O O19 0.657827 0.500000 0.363697
O O20 0.346423 0.500000 0.428003
#
# Coordination Sequence:
#
# PCOD9143919 Si02
#       8
#     4   4   4   4   4   4   4   4
#     4  10  22  37  54  78 107 141 178 217 264 317
#     4   9  16  31  54  79 107 137 173 217 266 316
#     4   8  15  28  53  84 106 131 171 220 267 313
#     4  10  19  32  53  79 107 138 172 212 262 316
#     4  10  21  35  52  79 109 137 178 220 259 312
#     4  11  23  37  53  76 108 146 181 216 262 316
#     4  10  18  33  57  82 105 134 177 223 266 309
#     4  10  19  33  53  80 109 134 171 219 263 309
#
# _framework density 18.010210000000001
#
# number of rings (size 3 to 8) (size 9 to 14) (size 15 to 20)
#    0.000    2.250    2.500    2.625    0.000    2.500 
#    0.000    3.125    0.000    7.500    0.000    0.000 
#    0.000    0.000    0.000    0.000    0.000    0.000 
#
# Total GULP energy -178503.953315 kJ/mol
# GULP energy per Si atom -5578.248541 kJ/mol
# Density = 1.796922 g / cm^3
# Si number density = 18.010210 Si / 1000 Ang^3
#
#
#
# Elastic Constant Matrix: (Units=GPa)
#
#
# Indices 1 2 3 4 5 6 
#
# 1 154.0204 9.0270 59.0829 0.0000 -7.1572 0.0000
# 2 9.0270 7.9357 5.3825 0.0000 -0.7135 0.0000
# 3 59.0829 5.3825 87.2664 0.0000 -1.3792 0.0000
# 4 0.0000 0.0000 0.0000 26.5208 0.0000 44.1433
# 5 -7.1572 -0.7135 -1.3792 0.0000 29.1261 0.0000
# 6 0.0000 0.0000 0.0000 44.1433 0.0000 249.3437
#
#
#
# Elastic Compliance Matrix: (Units=1/GPa)
#
#
# Indices 1 2 3 4 5 6 
#
# 1 0.009169 -0.006340 -0.005788 0.000000 0.001824 0.000000
# 2 -0.006340 0.136135 -0.004079 0.000000 0.001584 0.000000
# 3 -0.005788 -0.004079 0.015617 0.000000 -0.000783 0.000000
# 4 0.000000 0.000000 0.000000 0.053460 0.000000 -0.009464
# 5 0.001824 0.001584 -0.000783 0.000000 0.034783 0.000000
# 6 0.000000 0.000000 0.000000 -0.009464 0.000000 0.005686
#
#
# Mechanical properties :
#
#
# Convention : Reuss Voigt Hill
#
# Bulk Modulus (GPa) = 7.78171 44.02302 25.90237
# Shear Modulus (GPa) = 15.14689 72.71344 43.93016
#
# Velocity S-wave (km/s) = 2.90318 6.36090 4.94416
# Velocity P-wave (km/s) = 3.94563 8.85689 6.85611
#
# Compressibility (1/GPa) = 0.12850643
#
# Stress axis : x y z
#
# Youngs Moduli (GPa) = 109.05887 7.34566 64.03210
#
# Poissons Ratio (x) = 0.04658 0.37063
# Poissons Ratio (y) = 0.69149 0.26118
# Poissons Ratio (z) = 0.63125 0.02996
#
# Static dielectric constant tensor:
#      x y z
#    x 1.627330 0.000000 -0.036700 
#    y 0.000000 1.622350 0.000000 
#    z -0.036700 0.000000 1.600090 
# 
# From -- ./inp_files/86135.got.cif
#   From: 2010.05.17/outbox.cif.g08.bks.cpg/sg10_44_cif.got.tgz:86135.got - 2010.06.03 11:33:40.
