data_PCOD9143459
_publ_section_title
;
Structure prediction by ZEFSAII (Michael W. Deem and Ramdas Pophale) SiO2 
 PCOD9143459
Probable space group: P 2/M
;
_chemical_formula_sum "Si O2"
_cell_formula_units_Z 32
_cell_length_a 30.777207
_cell_length_b 8.373299
_cell_length_c 21.350963
_cell_angle_alpha 90.000000
_cell_angle_beta 161.141811
_cell_angle_gamma 90.000000
_cell_volume 1778.487506
_symmetry_space_group_name_H-M "P 2/M"
_symmetry_group_IT_number 10
_symmetry_cell_setting 'monoclinic'
loop_
_space_group_symop_operation_xyz
x,y,z
-x,y,-z
-x,-y,-z
x,-y,z
loop_
_atom_site_type_symbol
_atom_site_label
_atom_site_fract_x
_atom_site_fract_y
_atom_site_fract_z
Si Si1 0.147272 0.192384 0.525466
Si Si2 0.563987 0.307570 0.273452
Si Si3 0.569902 0.306597 0.780244
Si Si4 0.840280 0.190314 0.602213
Si Si5 0.583379 0.692266 0.053161
Si Si6 0.586310 0.305121 0.557193
Si Si7 0.865129 0.309155 0.990089
Si Si8 0.154695 0.808538 0.895280
O O1 0.173623 0.246113 0.489407
O O2 0.262592 0.259613 0.726902
O O3 0.993839 0.239090 0.331243
O O4 0.154513 0.000000 0.536283
O O5 0.557193 0.500000 0.264225
O O6 0.496782 0.251004 0.246101
O O7 0.718756 0.259600 0.476449
O O8 0.483539 0.248829 0.102310
O O9 0.570190 0.500000 0.780307
O O10 0.483604 0.252383 0.602218
O O11 0.721941 0.249275 0.977995
O O12 0.989261 0.238800 0.826871
O O13 0.831056 0.000000 0.589305
O O14 0.575035 0.500000 0.041649
O O15 0.500000 0.751456 0.000000
O O16 0.500000 0.254332 0.500000
O O17 0.585251 0.500000 0.555715
O O18 0.740368 0.254591 0.777343
O O19 0.873727 0.500000 0.998483
O O20 0.831643 0.261605 0.016063
O O21 0.156595 0.000000 0.903004
#
# Coordination Sequence:
#
# PCOD9143459 Si02
#       8
#     4   4   4   4   4   4   4   4
#     4   9  19  33  51  76 103 135 172 212 255 307
#     4  10  21  36  54  78 106 138 175 214 263 314
#     4  10  20  36  56  77 105 140 176 215 258 311
#     4  10  20  34  52  77 109 139 174 215 260 312
#     4  10  19  32  52  79 105 129 170 221 259 301
#     4   9  16  30  53  81 104 129 175 220 254 302
#     4  10  18  31  55  80 105 136 174 219 264 302
#     4  10  20  34  51  78 111 138 173 214 260 313
#
# _framework density 17.992818
#
# number of rings (size 3 to 8) (size 9 to 14) (size 15 to 20)
#    0.000    2.250    2.500    1.875    0.000    3.750 
#    0.000    3.125    0.000    7.500    0.000    0.000 
#    0.000    0.000    0.000    0.000    0.000    0.000 
#
# Total GULP energy -178531.295210 kJ/mol
# GULP energy per Si atom -5579.102975 kJ/mol
# Density = 1.795187 g / cm^3
# Si number density = 17.992818 Si / 1000 Ang^3
#
#
#
# Elastic Constant Matrix: (Units=GPa)
#
#
# Indices 1 2 3 4 5 6 
#
# 1 129.6731 13.4688 78.2352 0.0000 12.9222 0.0000
# 2 13.4688 3.0394 2.9932 0.0000 -2.3959 0.0000
# 3 78.2352 2.9932 138.5314 0.0000 12.3384 0.0000
# 4 0.0000 0.0000 0.0000 197.4926 0.0000 6.4010
# 5 12.9222 -2.3959 12.3384 0.0000 26.9540 0.0000
# 6 0.0000 0.0000 0.0000 6.4010 0.0000 11.9991
#
#
#
# Elastic Compliance Matrix: (Units=1/GPa)
#
#
# Indices 1 2 3 4 5 6 
#
# 1 0.036684 -0.168328 -0.014784 0.000000 -0.025782 0.000000
# 2 -0.168328 1.142684 0.056440 0.000000 0.156433 0.000000
# 3 -0.014784 0.056440 0.013834 0.000000 0.005772 0.000000
# 4 0.000000 0.000000 0.000000 0.005153 0.000000 -0.002749
# 5 -0.025782 0.156433 0.005772 0.000000 0.060723 0.000000
# 6 0.000000 0.000000 0.000000 -0.002749 0.000000 0.084806
#
#
# Mechanical properties :
#
#
# Convention : Reuss Voigt Hill
#
# Bulk Modulus (GPa) = 1.06399 51.18203 26.12301
# Shear Modulus (GPa) = 2.61710 59.05890 30.83800
#
# Velocity S-wave (km/s) = 1.20734 5.73540 4.14443
# Velocity P-wave (km/s) = 1.59254 8.50690 6.11979
#
# Compressibility (1/GPa) = 0.93985889
#
# Stress axis : x y z
#
# Youngs Moduli (GPa) = 27.25968 0.87513 72.28444
#
# Poissons Ratio (x) = 0.14731 1.06865
# Poissons Ratio (y) = 4.58857 -4.07974
# Poissons Ratio (z) = 0.40301 -0.04939
#
# Static dielectric constant tensor:
#      x y z
#    x 1.600370 0.000000 -0.002350 
#    y 0.000000 1.616070 0.000000 
#    z -0.002350 0.000000 1.619950 
# 
# From -- ./inp_files/55318.got.cif
#   From: 2010.05.17/outbox.cif.g08.bks.cpg/sg10_28_cif.got.tgz:55318.got - 2010.06.03 11:33:40.
