data_PCOD9143831
_publ_section_title
;
Structure prediction by ZEFSAII (Michael W. Deem and Ramdas Pophale) SiO2 
 PCOD9143831
Probable space group: P 2/M
;
_chemical_formula_sum "Si O2"
_cell_formula_units_Z 26
_cell_length_a 12.417948
_cell_length_b 13.458605
_cell_length_c 9.122693
_cell_angle_alpha 90.000000
_cell_angle_beta 51.789733
_cell_angle_gamma 90.000000
_cell_volume 1197.995425
_symmetry_space_group_name_H-M "P 2/M"
_symmetry_group_IT_number 10
_symmetry_cell_setting 'monoclinic'
loop_
_space_group_symop_operation_xyz
x,y,z
-x,y,-z
-x,-y,-z
x,-y,z
loop_
_atom_site_type_symbol
_atom_site_label
_atom_site_fract_x
_atom_site_fract_y
_atom_site_fract_z
Si Si1 0.849345 0.161708 0.154746
Si Si2 0.596079 0.111400 0.556640
Si Si3 0.859960 0.500000 0.292388
Si Si4 0.571288 0.500000 0.696978
Si Si5 0.229826 0.274922 0.065786
Si Si6 0.071211 0.702850 0.655784
Si Si7 0.740627 0.500000 0.079192
Si Si8 0.356726 0.718104 0.253520
O O1 0.745759 0.108113 0.352805
O O2 0.888733 0.256297 0.218557
O O3 0.772714 0.202687 0.074211
O O4 0.000000 0.114119 0.000000
O O5 0.500000 0.135884 0.500000
O O6 0.584145 0.197011 0.688634
O O7 0.563506 0.000000 0.638949
O O8 0.701935 0.500000 0.480438
O O9 0.937978 0.588842 0.301984
O O10 0.840856 0.500000 0.134662
O O11 0.422688 0.500000 0.747181
O O12 0.586668 0.605655 0.770137
O O13 0.344246 0.255550 0.092587
O O14 0.076911 0.256410 0.258817
O O15 0.240854 0.392417 0.015365
O O16 0.198203 0.716489 0.442335
#
# Coordination Sequence:
#
# PCOD9143831 Si02
#       8
#     4   4   2   2   4   4   2   4
#     4   9  19  36  60  90 120 151 195 252 305 351
#     4  10  23  44  68  89 113 157 210 254 297 359
#     4  10  18  33  53  77 110 166 213 245 274 346
#     4  10  24  37  51  83 122 165 201 235 298 362
#     4  11  21  33  55  88 122 158 192 245 304 355
#     4   9  18  34  55  80 114 160 206 238 282 355
#     4  12  23  32  51  84 128 161 199 248 292 356
#     4  10  22  39  60  84 124 159 199 242 299 364
#
# _framework density 21.702919999999999
#
# number of rings (size 3 to 8) (size 9 to 14) (size 15 to 20)
#    0.000    2.000    1.538    1.615    2.154    2.154 
#    0.000    3.846    0.000   13.846    0.000    0.000 
#    0.000    0.000    0.000    0.000    0.000    0.000 
#
# Total GULP energy -144885.261968 kJ/mol
# GULP energy per Si atom -5572.510076 kJ/mol
# Density = 2.165352 g / cm^3
# Si number density = 21.702920 Si / 1000 Ang^3
#
#
#
# Elastic Constant Matrix: (Units=GPa)
#
#
# Indices 1 2 3 4 5 6 
#
# 1 107.1021 39.8736 26.2139 0.0000 24.6347 0.0000
# 2 39.8736 119.3827 27.7497 0.0000 33.0059 0.0000
# 3 26.2139 27.7497 78.5809 0.0000 1.4021 0.0000
# 4 0.0000 0.0000 0.0000 -13.0643 0.0000 -33.9844
# 5 24.6347 33.0059 1.4021 0.0000 47.6673 0.0000
# 6 0.0000 0.0000 0.0000 -33.9844 0.0000 -25.1060
#
#
#
# Elastic Compliance Matrix: (Units=1/GPa)
#
#
# Indices 1 2 3 4 5 6 
#
# 1 0.011931 -0.001928 -0.003215 0.000000 -0.004736 0.000000
# 2 -0.001928 0.011754 -0.003382 0.000000 -0.007042 0.000000
# 3 -0.003215 -0.003382 0.014929 0.000000 0.003564 0.000000
# 4 0.000000 0.000000 0.000000 0.030360 0.000000 -0.041096
# 5 -0.004736 -0.007042 0.003564 0.000000 0.028198 0.000000
# 6 0.000000 0.000000 0.000000 -0.041096 0.000000 0.015798
#
#
# Mechanical properties :
#
#
# Convention : Reuss Voigt Hill
#
# Bulk Modulus (GPa) = 46.37345 54.74890 50.56118
# Shear Modulus (GPa) = 36.44144 15.98130 26.21137
#
# Velocity S-wave (km/s) = 4.10213 2.71655 3.47902
# Velocity P-wave (km/s) = 6.62196 5.92628 6.28376
#
# Compressibility (1/GPa) = 0.02156406
#
# Stress axis : x y z
#
# Youngs Moduli (GPa) = 83.81561 85.08085 66.98496
#
# Poissons Ratio (x) = 0.16406 0.21533
# Poissons Ratio (y) = 0.16162 0.22652
# Poissons Ratio (z) = 0.26944 0.28772
#
# Static dielectric constant tensor:
#      x y z
#    x 1.820020 0.000000 -0.039600 
#    y 0.000000 1.489640 0.000000 
#    z -0.039600 0.000000 1.880070 
# 
# From -- ./inp_files/24860.got.cif
#   From: 2010.05.17/outbox.cif.g08.bks.cpg/sg10_13_cif.got.tgz:24860.got - 2010.06.03 11:33:40.
