data_PCOD9143756
_publ_section_title
;
Structure prediction by ZEFSAII (Michael W. Deem and Ramdas Pophale) SiO2 
 PCOD9143756
Probable space group: P 2/M
;
_chemical_formula_sum "Si O2"
_cell_formula_units_Z 28
_cell_length_a 13.407307
_cell_length_b 18.752029
_cell_length_c 5.731849
_cell_angle_alpha 90.000000
_cell_angle_beta 68.154061
_cell_angle_gamma 90.000000
_cell_volume 1337.581960
_symmetry_space_group_name_H-M "P 2/M"
_symmetry_group_IT_number 10
_symmetry_cell_setting 'monoclinic'
loop_
_space_group_symop_operation_xyz
x,y,z
-x,y,-z
-x,-y,-z
x,-y,z
loop_
_atom_site_type_symbol
_atom_site_label
_atom_site_fract_x
_atom_site_fract_y
_atom_site_fract_z
Si Si1 0.470734 0.278175 0.766036
Si Si2 0.879274 0.863835 0.318934
Si Si3 0.899339 0.711508 0.424549
Si Si4 0.843197 0.580911 0.196468
Si Si5 0.873952 0.915553 0.828313
Si Si6 0.614167 0.421321 0.651959
Si Si7 0.737185 0.655910 0.909061
O O1 0.500000 0.238834 0.500000
O O2 0.536710 0.353665 0.694697
O O3 0.500000 0.249374 0.000000
O O4 0.344853 0.296591 0.874310
O O5 0.886822 0.779062 0.269442
O O6 0.833071 0.878712 0.622004
O O7 0.000314 0.894386 0.246753
O O8 0.828207 0.896083 0.126777
O O9 0.909458 0.634686 0.297237
O O10 0.789388 0.704057 0.665000
O O11 0.000000 0.727116 0.500000
O O12 0.879553 0.500000 0.166254
O O13 0.717996 0.581139 0.392603
O O14 0.833928 0.618706 0.957350
O O15 0.866016 0.000000 0.799896
O O16 0.564645 0.500000 0.678734
O O17 0.667649 0.407603 0.856934
#
# Coordination Sequence:
#
# PCOD9143756 Si02
#       7
#     4   4   4   4   4   4   4
#     4  10  19  33  53  79 103 129 157 212 290 362
#     4  10  19  32  53  78 108 143 176 215 261 326
#     4  11  24  39  52  70 102 148 200 240 272 322
#     4  10  21  36  55  72  95 132 191 253 300 330
#     4  10  18  32  56  86 111 130 169 219 266 323
#     4   9  18  32  51  77 101 123 156 220 300 366
#     4  10  21  34  52  73 101 131 181 231 284 340
#
# _framework density 20.933299000000002
#
# number of rings (size 3 to 8) (size 9 to 14) (size 15 to 20)
#    0.000    2.000    2.857    2.571    2.000    4.857 
#    0.000    0.714    0.000    0.000    0.000    0.000 
#    0.000    0.000    0.000    0.000    0.000  247.143 
#
# Total GULP energy -156088.569402 kJ/mol
# GULP energy per Si atom -5574.591764 kJ/mol
# Density = 2.088565 g / cm^3
# Si number density = 20.933299 Si / 1000 Ang^3
#
#
#
# Elastic Constant Matrix: (Units=GPa)
#
#
# Indices 1 2 3 4 5 6 
#
# 1 39.3823 6.9571 26.3555 0.0000 1.2670 0.0000
# 2 6.9571 73.8162 8.7351 0.0000 1.0908 0.0000
# 3 26.3555 8.7351 100.5830 0.0000 26.9143 0.0000
# 4 0.0000 0.0000 0.0000 25.3842 0.0000 4.9381
# 5 1.2670 1.0908 26.9143 0.0000 33.6499 0.0000
# 6 0.0000 0.0000 0.0000 4.9381 0.0000 -14.7736
#
#
#
# Elastic Compliance Matrix: (Units=1/GPa)
#
#
# Indices 1 2 3 4 5 6 
#
# 1 0.032314 -0.001946 -0.010165 0.000000 0.006977 0.000000
# 2 -0.001946 0.013816 -0.000750 0.000000 0.000226 0.000000
# 3 -0.010165 -0.000750 0.015982 0.000000 -0.012376 0.000000
# 4 0.000000 0.000000 0.000000 0.036989 0.000000 0.012364
# 5 0.006977 0.000226 -0.012376 0.000000 0.039347 0.000000
# 6 0.000000 0.000000 0.000000 0.012364 0.000000 -0.063556
#
#
# Mechanical properties :
#
#
# Convention : Reuss Voigt Hill
#
# Bulk Modulus (GPa) = 27.47998 33.09743 30.28870
# Shear Modulus (GPa) = 44.34778 20.30100 32.32439
#
# Velocity S-wave (km/s) = 4.60774 3.11753 3.93384
# Velocity P-wave (km/s) = 6.43927 5.36693 5.92740
#
# Compressibility (1/GPa) = 0.03639013
#
# Stress axis : x y z
#
# Youngs Moduli (GPa) = 30.94628 72.37974 62.56890
#
# Poissons Ratio (x) = 0.14084 0.63601
# Poissons Ratio (y) = 0.06021 0.04695
# Poissons Ratio (z) = 0.31457 0.05431
#
# Static dielectric constant tensor:
#      x y z
#    x 1.782660 0.000000 0.060410 
#    y 0.000000 1.718080 0.000000 
#    z 0.060410 0.000000 1.928080 
# 
# From -- ./inp_files/9754.got.cif
#   From: 2010.05.17/outbox.cif.g08.bks.cpg/sg10_5_cif.got.tgz:9754.got - 2010.06.03 11:33:40.
