data_PCOD9143146
_publ_section_title
;
Structure prediction by ZEFSAII (Michael W. Deem and Ramdas Pophale) SiO2 
 PCOD9143146
Probable space group: P 2/M
;
_chemical_formula_sum "Si O2"
_cell_formula_units_Z 32
_cell_length_a 16.649873
_cell_length_b 9.478223
_cell_length_c 25.199842
_cell_angle_alpha 90.000000
_cell_angle_beta 26.430418
_cell_angle_gamma 90.000000
_cell_volume 1770.123818
_symmetry_space_group_name_H-M "P 2/M"
_symmetry_group_IT_number 10
_symmetry_cell_setting 'monoclinic'
loop_
_space_group_symop_operation_xyz
x,y,z
-x,y,-z
-x,-y,-z
x,-y,z
loop_
_atom_site_type_symbol
_atom_site_label
_atom_site_fract_x
_atom_site_fract_y
_atom_site_fract_z
Si Si1 0.509134 0.164914 0.860756
Si Si2 0.857760 0.838618 0.709836
Si Si3 0.941873 0.658096 0.263532
Si Si4 0.323637 0.255716 0.076855
Si Si5 0.905564 0.665561 0.160578
Si Si6 0.315578 0.667328 0.881895
Si Si7 0.788092 0.169295 0.449199
Si Si8 0.391319 0.830913 0.728881
O O1 0.710168 0.220483 0.756534
O O2 0.415545 0.261381 0.872538
O O3 0.515948 0.000000 0.840473
O O4 0.398725 0.173703 0.981393
O O5 0.761783 0.834218 0.824502
O O6 0.055498 0.776310 0.602938
O O7 0.882378 0.000000 0.678772
O O8 0.870793 0.500000 0.312730
O O9 0.927261 0.695222 0.210363
O O10 0.833855 0.762060 0.365727
O O11 0.152242 0.658968 0.156647
O O12 0.500000 0.326788 0.000000
O O13 0.853504 0.500000 0.185238
O O14 0.760520 0.766704 0.219688
O O15 0.100911 0.682777 0.018095
O O16 0.354090 0.500000 0.855622
O O17 0.371466 0.750876 0.796316
O O18 0.588676 0.198045 0.587742
O O19 0.809399 0.000000 0.432505
O O20 0.371128 0.000000 0.746983
#
# Coordination Sequence:
#
# PCOD9143146 Si02
#       8
#     4   4   4   4   4   4   4   4
#     4  10  18  30  54  85 113 145 188 230 271 327
#     4   8  15  30  52  80 113 149 183 220 274 331
#     4  10  20  35  55  84 117 150 187 223 270 337
#     4   9  16  28  49  81 118 150 181 222 274 325
#     4  10  22  40  59  82 115 149 181 224 284 343
#     4  11  23  40  59  81 115 151 184 227 284 340
#     4   9  20  39  59  81 114 149 186 234 281 327
#     4  11  24  41  61  84 106 140 194 244 284 327
#
# _framework density 18.077832000000001
#
# number of rings (size 3 to 8) (size 9 to 14) (size 15 to 20)
#    0.000    2.250    1.250    1.500    0.000    6.750 
#    0.000    8.125    0.000    3.750    0.000    0.000 
#    0.000    0.000    0.000    0.000    0.000    0.000 
#
# Total GULP energy -178309.756541 kJ/mol
# GULP energy per Si atom -5572.179892 kJ/mol
# Density = 1.803669 g / cm^3
# Si number density = 18.077832 Si / 1000 Ang^3
#
#
#
# Elastic Constant Matrix: (Units=GPa)
#
#
# Indices 1 2 3 4 5 6 
#
# 1 119.2237 61.1943 78.2207 0.0000 -24.5179 0.0000
# 2 61.1943 81.9331 75.9580 0.0000 -15.7956 0.0000
# 3 78.2207 75.9580 139.2572 0.0000 -31.7070 0.0000
# 4 0.0000 0.0000 0.0000 -0.8979 0.0000 44.7929
# 5 -24.5179 -15.7956 -31.7070 0.0000 42.8565 0.0000
# 6 0.0000 0.0000 0.0000 44.7929 0.0000 -52.6652
#
#
#
# Elastic Compliance Matrix: (Units=1/GPa)
#
#
# Indices 1 2 3 4 5 6 
#
# 1 0.015320 -0.007126 -0.003993 0.000000 0.003183 0.000000
# 2 -0.007126 0.028044 -0.011868 0.000000 -0.002521 0.000000
# 3 -0.003993 -0.011868 0.017294 0.000000 0.006137 0.000000
# 4 0.000000 0.000000 0.000000 0.026882 0.000000 0.022864
# 5 0.003183 -0.002521 0.006137 0.000000 0.028766 0.000000
# 6 0.000000 0.000000 0.000000 0.022864 0.000000 0.000458
#
#
# Mechanical properties :
#
#
# Convention : Reuss Voigt Hill
#
# Bulk Modulus (GPa) = 68.10341 85.68445 76.89393
# Shear Modulus (GPa) = 29.82692 6.19474 18.01083
#
# Velocity S-wave (km/s) = 4.06632 1.85314 3.15984
# Velocity P-wave (km/s) = 7.73310 7.21660 7.47931
#
# Compressibility (1/GPa) = 0.01468355
#
# Stress axis : x y z
#
# Youngs Moduli (GPa) = 65.27419 35.65844 57.82208
#
# Poissons Ratio (x) = 0.25412 0.23090
# Poissons Ratio (y) = 0.46517 0.68621
# Poissons Ratio (z) = 0.26066 0.42318
#
# Static dielectric constant tensor:
#      x y z
#    x 1.625130 0.000000 -0.027780 
#    y 0.000000 1.611760 0.000000 
#    z -0.027780 0.000000 1.615290 
# 
# From -- ./inp_files/89497.got.cif
#   From: 2010.05.17/outbox.cif.g08.bks.cpg/sg10_45_cif.got.tgz:89497.got - 2010.06.03 11:33:40.
