data_PCOD9143985
_publ_section_title
;
Structure prediction by ZEFSAII (Michael W. Deem and Ramdas Pophale) SiO2 
 PCOD9143985
Probable space group: P 2/M
;
_chemical_formula_sum "Si O2"
_cell_formula_units_Z 32
_cell_length_a 21.580303
_cell_length_b 17.322612
_cell_length_c 8.773261
_cell_angle_alpha 90.000000
_cell_angle_beta 153.918907
_cell_angle_gamma 90.000000
_cell_volume 1441.889360
_symmetry_space_group_name_H-M "P 2/M"
_symmetry_group_IT_number 10
_symmetry_cell_setting 'monoclinic'
loop_
_space_group_symop_operation_xyz
x,y,z
-x,y,-z
-x,-y,-z
x,-y,z
loop_
_atom_site_type_symbol
_atom_site_label
_atom_site_fract_x
_atom_site_fract_y
_atom_site_fract_z
Si Si1 0.721763 0.171112 0.786333
Si Si2 0.135319 0.913919 0.656712
Si Si3 0.890665 0.187592 0.646875
Si Si4 0.855115 0.408188 0.843455
Si Si5 0.821550 0.650450 0.440254
Si Si6 0.171485 0.659810 0.890501
Si Si7 0.446923 0.086366 0.193620
Si Si8 0.288161 0.088294 0.541964
O O1 0.564435 0.148084 0.492534
O O2 0.712671 0.153124 0.588032
O O3 0.831582 0.109574 0.099558
O O4 0.769213 0.254459 0.946494
O O5 0.053765 0.847751 0.386156
O O6 0.082664 0.000000 0.520345
O O7 0.294119 0.909183 0.933932
O O8 0.788670 0.257739 0.379705
O O9 0.839495 0.114692 0.631422
O O10 0.000000 0.226817 0.000000
O O11 0.872039 0.500000 0.874903
O O12 0.779721 0.383669 0.515810
O O13 0.792072 0.385633 0.871151
O O14 0.011262 0.370178 0.192691
O O15 0.777797 0.630111 0.166685
O O16 0.000000 0.662627 0.500000
O O17 0.504885 0.000000 0.349445
O O18 0.414957 0.091165 0.943374
O O19 0.274857 0.000000 0.457823
#
# Coordination Sequence:
#
# PCOD9143985 Si02
#       8
#     4   4   4   4   4   4   4   4
#     4  12  20  32  55  74 104 145 178 231 291 331
#     4  10  21  34  51  76 103 142 192 235 276 318
#     4  11  20  35  53  69 105 151 184 225 273 330
#     4  10  20  35  59  84 109 145 182 215 265 338
#     4  10  18  34  54  77 111 148 178 215 268 330
#     4  10  23  36  52  84 119 148 177 220 282 333
#     4   9  19  36  53  73 101 138 188 243 291 323
#     4  10  22  34  50  75 103 142 196 246 285 322
#
# _framework density 22.193104000000002
#
# number of rings (size 3 to 8) (size 9 to 14) (size 15 to 20)
#    0.000    1.750    2.500    4.500    1.750    5.750 
#    0.000    0.000    0.000    4.125    0.000    0.000 
#    0.000   24.000    0.000    0.625    0.000    0.000 
#
# Total GULP energy -178222.818261 kJ/mol
# GULP energy per Si atom -5569.463071 kJ/mol
# Density = 2.214259 g / cm^3
# Si number density = 22.193104 Si / 1000 Ang^3
#
#
#
# Elastic Constant Matrix: (Units=GPa)
#
#
# Indices 1 2 3 4 5 6 
#
# 1 123.3474 15.9241 42.3840 0.0000 -42.1788 0.0000
# 2 15.9241 101.1850 25.8946 0.0000 -17.2472 0.0000
# 3 42.3840 25.8946 61.1088 0.0000 -39.3023 0.0000
# 4 0.0000 0.0000 0.0000 1.4872 0.0000 -20.0238
# 5 -42.1788 -17.2472 -39.3023 0.0000 48.2735 0.0000
# 6 0.0000 0.0000 0.0000 -20.0238 0.0000 18.1516
#
#
#
# Elastic Compliance Matrix: (Units=1/GPa)
#
#
# Indices 1 2 3 4 5 6 
#
# 1 0.011876 0.000319 -0.003411 0.000000 0.007713 0.000000
# 2 0.000319 0.011095 -0.004606 0.000000 0.000493 0.000000
# 3 -0.003411 -0.004606 0.037170 0.000000 0.025636 0.000000
# 4 0.000000 0.000000 0.000000 -0.048539 0.000000 -0.053546
# 5 0.007713 0.000493 0.025636 0.000000 0.048502 0.000000
# 6 0.000000 0.000000 0.000000 -0.053546 0.000000 -0.003977
#
#
# Mechanical properties :
#
#
# Convention : Reuss Voigt Hill
#
# Bulk Modulus (GPa) = 22.34918 50.44963 36.39940
# Shear Modulus (GPa) = 57.84478 27.01169 42.42824
#
# Velocity S-wave (km/s) = 5.11086 3.49251 4.37713
# Velocity P-wave (km/s) = 6.70224 6.24860 6.47939
#
# Compressibility (1/GPa) = 0.04474438
#
# Stress axis : x y z
#
# Youngs Moduli (GPa) = 84.20629 90.12746 26.90358
#
# Poissons Ratio (x) = -0.02872 0.09177
# Poissons Ratio (y) = -0.02684 0.12391
# Poissons Ratio (z) = 0.28725 0.41510
#
# Static dielectric constant tensor:
#      x y z
#    x 1.970460 0.000000 -0.031660 
#    y 0.000000 1.759010 0.000000 
#    z -0.031660 0.000000 1.905140 
# 
# From -- ./inp_files/36377.got.cif
#   From: 2010.05.17/outbox.cif.g08.bks.cpg/sg10_19_cif.got.tgz:36377.got - 2010.06.03 11:33:40.
