data_PCOD9143710
_publ_section_title
;
Structure prediction by ZEFSAII (Michael W. Deem and Ramdas Pophale) SiO2 
 PCOD9143710
Probable space group: P 2/M
;
_chemical_formula_sum "Si O2"
_cell_formula_units_Z 30
_cell_length_a 9.305178
_cell_length_b 33.362981
_cell_length_c 5.126177
_cell_angle_alpha 90.000000
_cell_angle_beta 73.828277
_cell_angle_gamma 90.000000
_cell_volume 1528.443598
_symmetry_space_group_name_H-M "P 2/M"
_symmetry_group_IT_number 10
_symmetry_cell_setting 'monoclinic'
loop_
_space_group_symop_operation_xyz
x,y,z
-x,y,-z
-x,-y,-z
x,-y,z
loop_
_atom_site_type_symbol
_atom_site_label
_atom_site_fract_x
_atom_site_fract_y
_atom_site_fract_z
Si Si1 0.662807 0.871048 0.276093
Si Si2 0.500000 0.181279 0.000000
Si Si3 0.834732 0.198627 0.482260
Si Si4 0.296494 0.239203 0.928571
Si Si5 0.818450 0.454494 0.587854
Si Si6 0.392525 0.044137 0.804998
Si Si7 0.397620 0.670677 0.808602
Si Si8 0.819509 0.596987 0.087624
O O1 0.500000 0.871416 0.500000
O O2 0.630926 0.850268 0.011909
O O3 0.764845 0.842512 0.401638
O O4 0.708102 0.916806 0.198515
O O5 0.450327 0.213898 0.804961
O O6 0.818152 0.227969 0.241859
O O7 0.000000 0.191076 0.500000
O O8 0.755521 0.220988 0.766828
O O9 0.330596 0.285810 0.912125
O O10 0.762652 0.500000 0.642957
O O11 0.777713 0.433560 0.338847
O O12 0.000000 0.456717 0.500000
O O13 0.776032 0.425100 0.842798
O O14 0.500000 0.041562 0.500000
O O15 0.321370 0.000000 0.876068
O O16 0.500000 0.051583 0.000000
O O17 0.500000 0.674073 0.500000
O O18 0.267140 0.638408 0.834977
O O19 0.500000 0.657864 0.000000
O O20 0.000000 0.602946 0.000000
#
# Coordination Sequence:
#
# PCOD9143710 Si02
#       8
#     4   2   4   4   4   4   4   4
#     4  10  18  32  55  79 111 144 191 233 288 339
#     4  10  18  32  55  82 102 134 193 240 276 326
#     4  11  24  38  56  83 115 147 186 244 299 350
#     4  11  23  39  60  80 111 148 199 236 289 345
#     4   9  17  33  60  91 120 155 201 247 291 346
#     4   9  17  28  46  77 112 142 181 232 287 335
#     4  12  25  42  64  87 117 159 201 242 292 357
#     4  10  21  37  60  91 123 155 196 249 299 346
#
# _framework density 19.627811000000001
#
# number of rings (size 3 to 8) (size 9 to 14) (size 15 to 20)
#    0.000    1.733    2.667    2.400    0.000    2.667 
#    0.000    1.333    0.000    8.400    0.000    0.000 
#    0.000    9.333    0.000    0.000    0.000    1.333 
#
# Total GULP energy -167051.963563 kJ/mol
# GULP energy per Si atom -5568.398785 kJ/mol
# Density = 1.958314 g / cm^3
# Si number density = 19.627811 Si / 1000 Ang^3
#
#
#
# Elastic Constant Matrix: (Units=GPa)
#
#
# Indices 1 2 3 4 5 6 
#
# 1 81.1409 41.0123 26.6646 0.0000 15.5475 0.0000
# 2 41.0123 171.2442 24.1479 0.0000 -10.7915 0.0000
# 3 26.6646 24.1479 109.8214 0.0000 10.5456 0.0000
# 4 0.0000 0.0000 0.0000 23.0278 0.0000 6.0472
# 5 15.5475 -10.7915 10.5456 0.0000 19.5847 0.0000
# 6 0.0000 0.0000 0.0000 6.0472 0.0000 14.9181
#
#
#
# Elastic Compliance Matrix: (Units=1/GPa)
#
#
# Indices 1 2 3 4 5 6 
#
# 1 0.018850 -0.005332 -0.001777 0.000000 -0.016945 0.000000
# 2 -0.005332 0.007891 -0.001333 0.000000 0.009298 0.000000
# 3 -0.001777 -0.001333 0.010298 0.000000 -0.004869 0.000000
# 4 0.000000 0.000000 0.000000 0.048599 0.000000 -0.019700
# 5 -0.016945 0.009298 -0.004869 0.000000 0.072258 0.000000
# 6 0.000000 0.000000 0.000000 -0.019700 0.000000 0.075018
#
#
# Mechanical properties :
#
#
# Convention : Reuss Voigt Hill
#
# Bulk Modulus (GPa) = 49.61833 60.65067 55.13450
# Shear Modulus (GPa) = 19.49192 29.53156 24.51174
#
# Velocity S-wave (km/s) = 3.15473 3.88310 3.53771
# Velocity P-wave (km/s) = 6.21323 7.14647 6.69613
#
# Compressibility (1/GPa) = 0.02015384
#
# Stress axis : x y z
#
# Youngs Moduli (GPa) = 53.05010 126.73399 97.10702
#
# Poissons Ratio (x) = 0.67572 0.17259
# Poissons Ratio (y) = 0.28285 0.12948
# Poissons Ratio (z) = 0.09428 0.16898
#
# Static dielectric constant tensor:
#      x y z
#    x 1.749180 0.000000 -0.090490 
#    y 0.000000 1.707070 0.000000 
#    z -0.090490 0.000000 1.789750 
# 
# From -- ./inp_files/5470.got.cif
#   From: 2010.05.17/outbox.cif.g08.bks.cpg/sg10_3_cif.got.tgz:5470.got - 2010.06.03 11:33:40.
