data_PCOD9143681
_publ_section_title
;
Structure prediction by ZEFSAII (Michael W. Deem and Ramdas Pophale) SiO2 
 PCOD9143681
Probable space group: P 2/M
;
_chemical_formula_sum "Si O2"
_cell_formula_units_Z 32
_cell_length_a 12.106105
_cell_length_b 7.475039
_cell_length_c 29.004783
_cell_angle_alpha 90.000000
_cell_angle_beta 31.076021
_cell_angle_gamma 90.000000
_cell_volume 1354.828810
_symmetry_space_group_name_H-M "P 2/M"
_symmetry_group_IT_number 10
_symmetry_cell_setting 'monoclinic'
loop_
_space_group_symop_operation_xyz
x,y,z
-x,y,-z
-x,-y,-z
x,-y,z
loop_
_atom_site_type_symbol
_atom_site_label
_atom_site_fract_x
_atom_site_fract_y
_atom_site_fract_z
Si Si1 0.663257 0.205066 0.403523
Si Si2 0.151795 0.281617 0.330152
Si Si3 0.286128 0.715740 0.477459
Si Si4 0.641467 0.281696 0.648217
Si Si5 0.921355 0.208270 0.978427
Si Si6 0.835076 0.705915 0.200112
Si Si7 0.423393 0.282380 0.145171
Si Si8 0.073985 0.706209 0.203196
O O1 0.500000 0.285568 0.500000
O O2 0.513707 0.211919 0.411763
O O3 0.888127 0.290391 0.308944
O O4 0.705214 0.000000 0.401267
O O5 0.151194 0.500000 0.329824
O O6 0.259981 0.221447 0.339092
O O7 0.287604 0.222860 0.238106
O O8 0.904464 0.225625 0.420894
O O9 0.299632 0.500000 0.474415
O O10 0.237477 0.765498 0.442187
O O11 0.642639 0.500000 0.650399
O O12 0.398167 0.218697 0.727975
O O13 0.666990 0.224689 0.063462
O O14 0.983040 0.000000 0.955220
O O15 0.032436 0.293925 0.894412
O O16 0.000000 0.280408 0.000000
O O17 0.792186 0.500000 0.229875
O O18 0.970996 0.787224 0.193741
O O19 0.423016 0.500000 0.144657
O O20 0.290241 0.218398 0.148173
O O21 0.124006 0.500000 0.174232
#
# Coordination Sequence:
#
# PCOD9143681 Si02
#       8
#     4   4   4   4   4   4   4   4
#     4  11  23  36  52  78 116 162 204 240 283 343
#     4   9  17  29  52  85 115 147 189 239 293 344
#     4  10  18  32  54  81 112 147 192 245 291 339
#     4   9  16  29  52  84 116 146 185 234 291 346
#     4  11  25  43  62  87 118 154 195 237 289 354
#     4  10  20  37  62  89 118 152 193 245 299 349
#     4  10  21  38  61  88 117 150 192 242 294 347
#     4  10  21  39  62  90 118 149 195 245 295 347
#
# _framework density 23.619221
#
# number of rings (size 3 to 8) (size 9 to 14) (size 15 to 20)
#    0.000    2.000    1.250    2.625    0.000    7.000 
#    0.000    3.125    0.000    2.250    0.000    0.000 
#    0.000    0.000    0.000    0.000    0.000    0.000 
#
# Total GULP energy -178863.607077 kJ/mol
# GULP energy per Si atom -5589.487721 kJ/mol
# Density = 2.356546 g / cm^3
# Si number density = 23.619221 Si / 1000 Ang^3
#
#
#
# Elastic Constant Matrix: (Units=GPa)
#
#
# Indices 1 2 3 4 5 6 
#
# 1 115.1062 0.4994 23.7407 0.0000 -12.3327 0.0000
# 2 0.4994 71.2529 -10.9223 0.0000 1.7820 0.0000
# 3 23.7407 -10.9223 98.3366 0.0000 -7.7741 0.0000
# 4 0.0000 0.0000 0.0000 -243.7175 0.0000 27.6201
# 5 -12.3327 1.7820 -7.7741 0.0000 39.9340 0.0000
# 6 0.0000 0.0000 0.0000 27.6201 0.0000 12.0310
#
#
#
# Elastic Compliance Matrix: (Units=1/GPa)
#
#
# Indices 1 2 3 4 5 6 
#
# 1 0.009396 -0.000454 -0.002120 0.000000 0.002509 0.000000
# 2 -0.000454 0.014304 0.001662 0.000000 -0.000455 0.000000
# 3 -0.002120 0.001662 0.010977 0.000000 0.001408 0.000000
# 4 0.000000 0.000000 0.000000 -0.003256 0.000000 0.007475
# 5 0.002509 -0.000455 0.001408 0.000000 0.026111 0.000000
# 6 0.000000 0.000000 0.000000 0.007475 0.000000 0.065958
#
#
# Mechanical properties :
#
#
# Convention : Reuss Voigt Hill
#
# Bulk Modulus (GPa) = 30.43841 34.59237 32.51539
# Shear Modulus (GPa) = 36.69351 -20.25863 8.21744
#
# Velocity S-wave (km/s) = 3.94578 -2.93186 1.86727
# Velocity P-wave (km/s) = 5.80293 1.79348 4.29480
#
# Compressibility (1/GPa) = 0.03285323
#
# Stress axis : x y z
#
# Youngs Moduli (GPa) = 106.43099 69.91110 91.09963
#
# Poissons Ratio (x) = 0.03171 0.19317
# Poissons Ratio (y) = 0.04828 -0.15144
# Poissons Ratio (z) = 0.22567 -0.11621
#
# Static dielectric constant tensor:
#      x y z
#    x 1.916850 0.000000 0.010960 
#    y 0.000000 1.923910 0.000000 
#    z 0.010960 0.000000 1.843100 
# 
# From -- ./inp_files/58147.got.cif
#   From: 2010.05.17/outbox.cif.g08.bks.cpg/sg10_30_cif.got.tgz:58147.got - 2010.06.03 11:33:40.
