data_PCOD9143658
_publ_section_title
;
Structure prediction by ZEFSAII (Michael W. Deem and Ramdas Pophale) SiO2 
 PCOD9143658
Probable space group: P 2/M
;
_chemical_formula_sum "Si O2"
_cell_formula_units_Z 32
_cell_length_a 16.550334
_cell_length_b 7.440296
_cell_length_c 25.530236
_cell_angle_alpha 90.000000
_cell_angle_beta 153.403295
_cell_angle_gamma 90.000000
_cell_volume 1407.493299
_symmetry_space_group_name_H-M "P 2/M"
_symmetry_group_IT_number 10
_symmetry_cell_setting 'monoclinic'
loop_
_space_group_symop_operation_xyz
x,y,z
-x,y,-z
-x,-y,-z
x,-y,z
loop_
_atom_site_type_symbol
_atom_site_label
_atom_site_fract_x
_atom_site_fract_y
_atom_site_fract_z
Si Si1 0.557971 0.279933 0.285523
Si Si2 0.124586 0.280528 0.739107
Si Si3 0.146803 0.282869 0.043413
Si Si4 0.016044 0.209429 0.163518
Si Si5 0.616279 0.718984 0.201237
Si Si6 0.271793 0.287081 0.509393
Si Si7 0.294771 0.295774 0.941657
Si Si8 0.424889 0.216367 0.400529
O O1 0.561512 0.500000 0.287840
O O2 0.349917 0.225117 0.173288
O O3 0.615457 0.220511 0.260794
O O4 0.676227 0.216898 0.403004
O O5 0.126148 0.500000 0.744155
O O6 0.210918 0.233784 0.733353
O O7 0.251426 0.214587 0.859981
O O8 0.918223 0.217279 0.622861
O O9 0.146330 0.500000 0.044197
O O10 0.000000 0.218149 0.000000
O O11 0.087355 0.227786 0.951158
O O12 0.219293 0.280257 0.274534
O O13 0.895254 0.299106 0.137947
O O14 0.027238 0.000000 0.184355
O O15 0.606113 0.500000 0.197920
O O16 0.442189 0.782749 0.066939
O O17 0.245263 0.500000 0.500236
O O18 0.437877 0.263693 0.566100
O O19 0.357689 0.500000 0.968770
O O20 0.500000 0.279370 0.500000
O O21 0.419123 0.000000 0.398293
#
# Coordination Sequence:
#
# PCOD9143658 Si02
#       8
#     4   4   4   4   4   4   4   4
#     4   9  17  30  49  76 108 141 170 206 259 314
#     4   9  18  30  50  82 108 133 173 225 267 300
#     4  10  19  33  53  76 103 137 175 211 256 313
#     4  11  22  34  52  78 105 134 173 217 262 307
#     4   9  16  29  51  78 108 139 174 213 261 317
#     4  10  20  34  53  80 109 134 174 222 261 302
#     4  10  18  32  54  78 107 139 175 214 262 318
#     4  10  22  39  55  73 103 143 179 209 256 319
#
# _framework density 22.735454000000001
#
# number of rings (size 3 to 8) (size 9 to 14) (size 15 to 20)
#    0.000    2.250    1.250    2.250    0.000    4.500 
#    0.000    3.125    0.000    2.250    0.000    0.875 
#    0.000    0.000    0.000    0.000    0.000    0.000 
#
# Total GULP energy -178835.181716 kJ/mol
# GULP energy per Si atom -5588.599429 kJ/mol
# Density = 2.268371 g / cm^3
# Si number density = 22.735454 Si / 1000 Ang^3
#
#
#
# Elastic Constant Matrix: (Units=GPa)
#
#
# Indices 1 2 3 4 5 6 
#
# 1 116.0281 -6.6354 11.0668 0.0000 -11.1443 0.0000
# 2 -6.6354 71.1586 -0.9896 0.0000 -2.1569 0.0000
# 3 11.0668 -0.9896 83.7891 0.0000 -10.7344 0.0000
# 4 0.0000 0.0000 0.0000 -17.5516 0.0000 -59.3257
# 5 -11.1443 -2.1569 -10.7344 0.0000 43.4168 0.0000
# 6 0.0000 0.0000 0.0000 -59.3257 0.0000 -137.8960
#
#
#
# Elastic Compliance Matrix: (Units=1/GPa)
#
#
# Indices 1 2 3 4 5 6 
#
# 1 0.008959 0.000887 -0.000901 0.000000 0.002121 0.000000
# 2 0.000887 0.014168 0.000175 0.000000 0.000975 0.000000
# 3 -0.000901 0.000175 0.012421 0.000000 0.002848 0.000000
# 4 0.000000 0.000000 0.000000 0.125447 0.000000 -0.053970
# 5 0.002121 0.000975 0.002848 0.000000 0.024330 0.000000
# 6 0.000000 0.000000 0.000000 -0.053970 0.000000 0.015967
#
#
# Mechanical properties :
#
#
# Convention : Reuss Voigt Hill
#
# Bulk Modulus (GPa) = 27.87866 30.87326 29.37596
# Shear Modulus (GPa) = 23.48234 -4.57057 9.45589
#
# Velocity S-wave (km/s) = 3.21729 -1.41940 2.04160
# Velocity P-wave (km/s) = 5.10784 3.30493 4.30190
#
# Compressibility (1/GPa) = 0.03586973
#
# Stress axis : x y z
#
# Youngs Moduli (GPa) = 111.61969 70.58249 80.51066
#
# Poissons Ratio (x) = -0.06262 0.07255
# Poissons Ratio (y) = -0.09902 -0.01409
# Poissons Ratio (z) = 0.10058 -0.01235
#
# Static dielectric constant tensor:
#      x y z
#    x 1.801510 0.000000 0.003780 
#    y 0.000000 1.958530 0.000000 
#    z 0.003780 0.000000 1.827810 
# 
# From -- ./inp_files/89499.got.cif
#   From: 2010.05.17/outbox.cif.g08.bks.cpg/sg10_45_cif.got.tgz:89499.got - 2010.06.03 11:33:40.
