data_PCOD9143807
_publ_section_title
;
Structure prediction by ZEFSAII (Michael W. Deem and Ramdas Pophale) SiO2 
 PCOD9143807
Probable space group: P 2/M
;
_chemical_formula_sum "Si O2"
_cell_formula_units_Z 30
_cell_length_a 5.213778
_cell_length_b 19.924132
_cell_length_c 17.121949
_cell_angle_alpha 90.000000
_cell_angle_beta 94.605240
_cell_angle_gamma 90.000000
_cell_volume 1772.885851
_symmetry_space_group_name_H-M "P 2/M"
_symmetry_group_IT_number 10
_symmetry_cell_setting 'monoclinic'
loop_
_space_group_symop_operation_xyz
x,y,z
-x,y,-z
-x,-y,-z
x,-y,z
loop_
_atom_site_type_symbol
_atom_site_label
_atom_site_fract_x
_atom_site_fract_y
_atom_site_fract_z
Si Si1 0.793804 0.673858 0.301575
Si Si2 0.000000 0.745706 0.000000
Si Si3 0.208546 0.422161 0.851033
Si Si4 0.501470 0.920196 0.907348
Si Si5 0.733654 0.577265 0.446239
Si Si6 0.716392 0.356955 0.905492
Si Si7 0.993804 0.846058 0.856791
Si Si8 0.279095 0.736880 0.249360
O O1 0.790268 0.623858 0.226698
O O2 0.737009 0.629356 0.375680
O O3 0.572130 0.730687 0.286296
O O4 0.078628 0.705128 0.305753
O O5 0.955876 0.791260 0.074022
O O6 0.231950 0.695859 0.025037
O O7 0.207934 0.500000 0.830002
O O8 0.464744 0.401328 0.902680
O O9 0.962728 0.403617 0.896794
O O10 0.268478 0.882846 0.856568
O O11 0.777952 0.897302 0.882468
O O12 0.468026 0.000000 0.900277
O O13 0.500000 0.902553 0.000000
O O14 0.500000 0.589576 0.500000
O O15 0.708462 0.500000 0.416648
O O16 0.000000 0.581873 0.500000
O O17 0.709789 0.310136 0.827558
O O18 0.855863 0.805602 0.783127
#
# Coordination Sequence:
#
# PCOD9143807 Si02
#       8
#     4   2   4   4   4   4   4   4
#     4  10  18  33  49  69  92 121 155 202 235 273
#     4  10  20  34  48  62  84 114 146 198 246 268
#     4  10  19  33  47  61  80 109 145 188 239 290
#     4  11  21  33  48  73 100 127 160 196 240 289
#     4  10  20  32  48  73 101 130 164 196 238 297
#     4   9  20  31  45  63  81 103 145 193 237 288
#     4  11  20  34  51  70  92 126 163 200 240 277
#     4   9  19  31  49  69  89 118 163 198 234 282
#
# _framework density 16.921562000000002
#
# number of rings (size 3 to 8) (size 9 to 14) (size 15 to 20)
#    0.000    2.000    1.333    2.800    0.000    5.867 
#    0.000    6.000    0.000    0.000    0.000    0.000 
#    0.000    0.000    0.000    0.000    0.000  168.000 
#
# Total GULP energy -167368.686501 kJ/mol
# GULP energy per Si atom -5578.956217 kJ/mol
# Density = 1.688305 g / cm^3
# Si number density = 16.921562 Si / 1000 Ang^3
#
#
#
# Elastic Constant Matrix: (Units=GPa)
#
#
# Indices 1 2 3 4 5 6 
#
# 1 100.4281 9.7387 3.0004 0.0000 -0.0520 0.0000
# 2 9.7387 46.6534 7.6223 0.0000 1.7256 0.0000
# 3 3.0004 7.6223 35.6774 0.0000 -2.7028 0.0000
# 4 0.0000 0.0000 0.0000 14.4633 0.0000 -0.9344
# 5 -0.0520 1.7256 -2.7028 0.0000 12.2704 0.0000
# 6 0.0000 0.0000 0.0000 -0.9344 0.0000 -31.3837
#
#
#
# Elastic Compliance Matrix: (Units=1/GPa)
#
#
# Indices 1 2 3 4 5 6 
#
# 1 0.010170 -0.002068 -0.000395 0.000000 0.000247 0.000000
# 2 -0.002068 0.022849 -0.005036 0.000000 -0.004331 0.000000
# 3 -0.000395 -0.005036 0.029687 0.000000 0.007246 0.000000
# 4 0.000000 0.000000 0.000000 0.069008 0.000000 -0.002055
# 5 0.000247 -0.004331 0.007246 0.000000 0.083703 0.000000
# 6 0.000000 0.000000 0.000000 -0.002055 0.000000 -0.031803
#
#
# Mechanical properties :
#
#
# Convention : Reuss Voigt Hill
#
# Bulk Modulus (GPa) = 20.96021 24.83132 22.89577
# Shear Modulus (GPa) = 23.30851 9.89651 16.60251
#
# Velocity S-wave (km/s) = 3.71542 2.42098 3.13572
# Velocity P-wave (km/s) = 5.55152 4.74564 5.16432
#
# Compressibility (1/GPa) = 0.04770943
#
# Stress axis : x y z
#
# Youngs Moduli (GPa) = 98.33043 43.76516 33.68486
#
# Poissons Ratio (x) = 0.09049 0.01330
# Poissons Ratio (y) = 0.20330 0.16963
# Poissons Ratio (z) = 0.03882 0.22040
#
# Static dielectric constant tensor:
#      x y z
#    x 1.598580 0.000000 0.009930 
#    y 0.000000 1.569130 0.000000 
#    z 0.009930 0.000000 1.565960 
# 
# From -- ./inp_files/59323.got.cif
#   From: 2010.05.17/outbox.cif.g08.bks.cpg/sg10_30_cif.got.tgz:59323.got - 2010.06.03 11:33:40.
