data_PCOD9143642
_publ_section_title
;
Structure prediction by ZEFSAII (Michael W. Deem and Ramdas Pophale) SiO2 
 PCOD9143642
Probable space group: P 2/M
;
_chemical_formula_sum "Si O2"
_cell_formula_units_Z 22
_cell_length_a 5.392091
_cell_length_b 13.984260
_cell_length_c 13.072795
_cell_angle_alpha 90.000000
_cell_angle_beta 114.359887
_cell_angle_gamma 90.000000
_cell_volume 897.987919
_symmetry_space_group_name_H-M "P 2/M"
_symmetry_group_IT_number 10
_symmetry_cell_setting 'monoclinic'
loop_
_space_group_symop_operation_xyz
x,y,z
-x,y,-z
-x,-y,-z
x,-y,z
loop_
_atom_site_type_symbol
_atom_site_label
_atom_site_fract_x
_atom_site_fract_y
_atom_site_fract_z
Si Si1 0.850535 0.687326 0.100535
Si Si2 0.869482 0.103125 0.119481
Si Si3 0.518129 0.895439 0.268128
Si Si4 0.324682 0.500000 0.574682
Si Si5 0.324318 0.288254 0.574318
Si Si6 0.602872 0.611618 0.852872
O O1 0.806335 0.796108 0.056335
O O2 0.679910 0.664673 0.172547
O O3 0.165184 0.664673 0.172547
O O4 0.740807 0.621380 0.990807
O O5 0.694202 0.106305 0.193805
O O6 0.193409 0.106305 0.193806
O O7 0.808692 0.000000 0.058692
O O8 0.597984 0.804450 0.347984
O O9 0.576867 0.000000 0.326866
O O10 0.500000 0.500000 0.500000
O O11 0.380936 0.394724 0.630936
O O12 0.000000 0.500000 0.500000
O O13 0.500000 0.284548 0.500000
O O14 0.000000 0.284548 0.500000
O O15 0.577052 0.500000 0.827052
#
# Coordination Sequence:
#
# PCOD9143642 Si02
#       6
#     4   4   4   2   4   4
#     4  10  18  32  54  77 100 140 176 212 254 314
#     4  10  21  37  54  73 104 147 179 209 262 320
#     4  10  21  36  54  76 107 142 174 218 268 315
#     4   8  16  30  50  72  96 130 160 194 256 312
#     4  10  19  33  56  80 102 134 172 219 265 313
#     4  10  19  33  55  80 107 136 173 215 272 314
#
# _framework density 24.499217999999999
#
# number of rings (size 3 to 8) (size 9 to 14) (size 15 to 20)
#    0.000    2.182    0.000    4.909    0.000    0.727 
#    0.000    3.636   16.000    0.000    0.000    0.000 
#    0.000    0.000    0.000    0.000    0.000    0.000 
#
# Total GULP energy -123000.650995 kJ/mol
# GULP energy per Si atom -5590.938682 kJ/mol
# Density = 2.444346 g / cm^3
# Si number density = 24.499218 Si / 1000 Ang^3
#
#
#
# Elastic Constant Matrix: (Units=GPa)
#
#
# Indices 1 2 3 4 5 6 
#
# 1 252.5136 54.7493 34.6628 0.0000 0.7199 0.0000
# 2 54.7493 256.1085 52.6666 0.0000 0.0106 0.0000
# 3 34.6628 52.6666 42.6526 0.0000 0.3679 0.0000
# 4 0.0000 0.0000 0.0000 190.8690 0.0000 -0.8215
# 5 0.7199 0.0106 0.3679 0.0000 39.4780 0.0000
# 6 0.0000 0.0000 0.0000 -0.8215 0.0000 32.4961
#
#
#
# Elastic Compliance Matrix: (Units=1/GPa)
#
#
# Indices 1 2 3 4 5 6 
#
# 1 0.004472 -0.000280 -0.003289 0.000000 -0.000051 0.000000
# 2 -0.000280 0.005251 -0.006257 0.000000 0.000062 0.000000
# 3 -0.003289 -0.006257 0.033846 0.000000 -0.000254 0.000000
# 4 0.000000 0.000000 0.000000 0.005240 0.000000 0.000132
# 5 -0.000051 0.000062 -0.000254 0.000000 0.025334 0.000000
# 6 0.000000 0.000000 0.000000 0.000132 0.000000 0.030776
#
#
# Mechanical properties :
#
#
# Convention : Reuss Voigt Hill
#
# Bulk Modulus (GPa) = 41.80854 92.82578 67.31716
# Shear Modulus (GPa) = 37.72330 79.84834 58.78582
#
# Velocity S-wave (km/s) = 3.92825 5.71515 4.90378
# Velocity P-wave (km/s) = 6.13818 9.02896 7.72008
#
# Compressibility (1/GPa) = 0.02391856
#
# Stress axis : x y z
#
# Youngs Moduli (GPa) = 223.59159 190.43482 29.54526
#
# Poissons Ratio (x) = 0.05328 0.09717
# Poissons Ratio (y) = 0.06256 0.18487
# Poissons Ratio (z) = 0.73534 1.19158
#
# Static dielectric constant tensor:
#      x y z
#    x 1.078140 0.000000 -0.004910 
#    y 0.000000 1.929740 0.000000 
#    z -0.004910 0.000000 2.026570 
# 
# From -- ./inp_files/73224.got.cif
#   From: 2010.05.17/outbox.cif.g08.bks.cpg/sg10_37_cif.got.tgz:73224.got - 2010.06.03 11:33:40.
