data_PCOD9143549
_publ_section_title
;
Structure prediction by ZEFSAII (Michael W. Deem and Ramdas Pophale) SiO2 
 PCOD9143549
Probable space group: P 2/M
;
_chemical_formula_sum "Si O2"
_cell_formula_units_Z 28
_cell_length_a 23.638769
_cell_length_b 12.060796
_cell_length_c 12.037717
_cell_angle_alpha 90.000000
_cell_angle_beta 154.409565
_cell_angle_gamma 90.000000
_cell_volume 1482.393648
_symmetry_space_group_name_H-M "P 2/M"
_symmetry_group_IT_number 10
_symmetry_cell_setting 'monoclinic'
loop_
_space_group_symop_operation_xyz
x,y,z
-x,y,-z
-x,-y,-z
x,-y,z
loop_
_atom_site_type_symbol
_atom_site_label
_atom_site_fract_x
_atom_site_fract_y
_atom_site_fract_z
Si Si1 0.839650 0.500000 0.709604
Si Si2 0.289566 0.128844 0.097659
Si Si3 0.550186 0.262269 0.962095
Si Si4 0.791195 0.869157 0.448691
Si Si5 0.151712 0.257144 0.228348
Si Si6 0.625949 0.500000 0.140615
Si Si7 0.078608 0.133949 0.878731
Si Si8 0.480828 0.869397 0.649189
O O1 0.797870 0.383402 0.690107
O O2 0.761546 0.500000 0.452500
O O3 0.000000 0.500000 0.000000
O O4 0.382891 0.172193 0.166076
O O5 0.377260 0.132661 0.365120
O O6 0.269964 0.000000 0.032603
O O7 0.149601 0.172602 0.891429
O O8 0.666751 0.173611 0.163145
O O9 0.606985 0.385028 0.041725
O O10 0.500000 0.261135 0.000000
O O11 0.449436 0.213848 0.693863
O O12 0.787178 0.808578 0.560416
O O13 0.925190 0.841348 0.621161
O O14 0.788934 0.000000 0.462419
O O15 0.146828 0.190217 0.105743
O O16 0.000000 0.265690 0.000000
O O17 0.500000 0.500000 0.000000
O O18 0.093758 0.000000 0.913203
O O19 0.488866 0.000000 0.697165
#
# Coordination Sequence:
#
# PCOD9143549 Si02
#       8
#     2   4   4   4   4   2   4   4
#     4  10  18  32  52  71  97 143 188 215 252 305
#     4   8  16  32  54  76 103 137 174 213 254 302
#     4  11  23  36  52  73 104 139 170 209 261 318
#     4  10  19  30  45  73 106 133 165 206 258 313
#     4   9  17  28  45  70 102 133 169 210 251 302
#     4  10  22  38  52  72 104 142 179 210 262 320
#     4   9  17  29  48  74 104 136 167 209 263 307
#     4   9  18  33  53  79 105 135 174 213 254 309
#
# _framework density 18.888369999999998
#
# number of rings (size 3 to 8) (size 9 to 14) (size 15 to 20)
#    0.000    2.571    1.429    1.714    2.000    2.857 
#    0.000    0.714    0.000    6.000    0.000    1.000 
#    0.000    0.000    0.000    0.000    0.000    0.000 
#
# Total GULP energy -155924.172678 kJ/mol
# GULP energy per Si atom -5568.720453 kJ/mol
# Density = 1.884538 g / cm^3
# Si number density = 18.888370 Si / 1000 Ang^3
#
#
#
# Elastic Constant Matrix: (Units=GPa)
#
#
# Indices 1 2 3 4 5 6 
#
# 1 72.9182 16.7424 -2.5334 0.0000 12.8066 0.0000
# 2 16.7424 58.8556 17.3329 0.0000 -0.3284 0.0000
# 3 -2.5334 17.3329 48.6447 0.0000 4.7360 0.0000
# 4 0.0000 0.0000 0.0000 8.4130 0.0000 7.3502
# 5 12.8066 -0.3284 4.7360 0.0000 26.3743 0.0000
# 6 0.0000 0.0000 0.0000 7.3502 0.0000 9.6173
#
#
#
# Elastic Compliance Matrix: (Units=1/GPa)
#
#
# Indices 1 2 3 4 5 6 
#
# 1 0.016784 -0.005963 0.003867 0.000000 -0.008918 0.000000
# 2 -0.005963 0.021158 -0.008302 0.000000 0.004650 0.000000
# 3 0.003867 -0.008302 0.024335 0.000000 -0.006351 0.000000
# 4 0.000000 0.000000 0.000000 0.357721 0.000000 -0.273396
# 5 -0.008918 0.004650 -0.006351 0.000000 0.043445 0.000000
# 6 0.000000 0.000000 0.000000 -0.273396 0.000000 0.312929
#
#
# Mechanical properties :
#
#
# Convention : Reuss Voigt Hill
#
# Bulk Modulus (GPa) = 24.10759 27.05581 25.58170
# Shear Modulus (GPa) = 6.16527 18.80602 12.48564
#
# Velocity S-wave (km/s) = 1.80863 3.15880 2.57383
# Velocity P-wave (km/s) = 4.14155 5.25920 4.73348
#
# Compressibility (1/GPa) = 0.04148072
#
# Stress axis : x y z
#
# Youngs Moduli (GPa) = 59.58109 47.26353 41.09279
#
# Poissons Ratio (x) = 0.28184 -0.15891
# Poissons Ratio (y) = 0.35529 0.34116
# Poissons Ratio (z) = -0.23041 0.39239
#
# Static dielectric constant tensor:
#      x y z
#    x 1.687090 0.000000 0.035630 
#    y 0.000000 1.638260 0.000000 
#    z 0.035630 0.000000 1.746670 
# 
# From -- ./inp_files/56895.got.cif
#   From: 2010.05.17/outbox.cif.g08.bks.cpg/sg10_29_cif.got.tgz:56895.got - 2010.06.03 11:33:40.
