data_PCOD9143656
_publ_section_title
;
Structure prediction by ZEFSAII (Michael W. Deem and Ramdas Pophale) SiO2 
 PCOD9143656
Probable space group: P 2/M
;
_chemical_formula_sum "Si O2"
_cell_formula_units_Z 28
_cell_length_a 22.848648
_cell_length_b 7.901683
_cell_length_c 18.709850
_cell_angle_alpha 90.000000
_cell_angle_beta 26.004325
_cell_angle_gamma 90.000000
_cell_volume 1481.015438
_symmetry_space_group_name_H-M "P 2/M"
_symmetry_group_IT_number 10
_symmetry_cell_setting 'monoclinic'
loop_
_space_group_symop_operation_xyz
x,y,z
-x,y,-z
-x,-y,-z
x,-y,z
loop_
_atom_site_type_symbol
_atom_site_label
_atom_site_fract_x
_atom_site_fract_y
_atom_site_fract_z
Si Si1 0.599639 0.000000 0.496797
Si Si2 0.778515 0.705591 0.790783
Si Si3 0.205683 0.705032 0.385812
Si Si4 0.944405 0.194783 0.748061
Si Si5 0.520549 0.705313 0.846945
Si Si6 0.766662 0.686877 0.067785
Si Si7 0.468403 0.697240 0.331451
Si Si8 0.293933 0.000000 0.773264
O O1 0.608572 0.831333 0.534995
O O2 0.447919 0.000000 0.632168
O O3 0.696749 0.000000 0.322344
O O4 0.782377 0.500000 0.789144
O O5 0.828070 0.758389 0.658042
O O6 0.863278 0.768627 0.764380
O O7 0.624970 0.762199 0.968201
O O8 0.204151 0.500000 0.388238
O O9 0.353925 0.762797 0.244398
O O10 0.096708 0.765921 0.561699
O O11 0.927165 0.000000 0.786229
O O12 0.880704 0.297875 0.882894
O O13 0.517666 0.500000 0.855037
O O14 0.541772 0.745764 0.740443
O O15 0.767709 0.500000 0.099235
O O16 0.624892 0.706249 0.181854
O O17 0.772263 0.833987 0.119961
O O18 0.427618 0.500000 0.384988
#
# Coordination Sequence:
#
# PCOD9143656 Si02
#       8
#     2   4   4   4   4   4   4   2
#     4   9  18  30  50  77 116 142 171 212 267 321
#     4  10  19  34  56  77  99 138 186 231 281 329
#     4  10  21  35  52  76 106 138 181 235 282 320
#     4  12  23  35  51  73 107 146 187 229 272 322
#     4   9  17  33  55  78 104 137 181 230 275 325
#     4  10  18  32  54  78 106 142 181 219 266 321
#     4   9  17  30  52  79 106 141 181 218 264 324
#     4   9  18  32  48  81 112 142 173 214 263 323
#
# _framework density 18.905949
#
# number of rings (size 3 to 8) (size 9 to 14) (size 15 to 20)
#    0.000    2.143    2.143    2.143    0.000    4.571 
#    1.286    2.857    0.000    1.714    0.000    2.000 
#    0.000    4.571    0.000    0.000    0.000    0.000 
#
# Total GULP energy -156302.002772 kJ/mol
# GULP energy per Si atom -5582.214385 kJ/mol
# Density = 1.886292 g / cm^3
# Si number density = 18.905949 Si / 1000 Ang^3
#
#
#
# Elastic Constant Matrix: (Units=GPa)
#
#
# Indices 1 2 3 4 5 6 
#
# 1 12.6445 9.7547 12.4176 0.0000 6.2910 0.0000
# 2 9.7547 72.4403 19.3130 0.0000 16.9127 0.0000
# 3 12.4176 19.3130 69.7986 0.0000 16.1840 0.0000
# 4 0.0000 0.0000 0.0000 25.7219 0.0000 1.1196
# 5 6.2910 16.9127 16.1840 0.0000 33.5837 0.0000
# 6 0.0000 0.0000 0.0000 1.1196 0.0000 18.7926
#
#
#
# Elastic Compliance Matrix: (Units=1/GPa)
#
#
# Indices 1 2 3 4 5 6 
#
# 1 0.103543 -0.008189 -0.014201 0.000000 -0.008428 0.000000
# 2 -0.008189 0.016799 -0.001785 0.000000 -0.006066 0.000000
# 3 -0.014201 -0.001785 0.018600 0.000000 -0.005405 0.000000
# 4 0.000000 0.000000 0.000000 0.038978 0.000000 -0.002322
# 5 -0.008428 -0.006066 -0.005405 0.000000 0.037014 0.000000
# 6 0.000000 0.000000 0.000000 -0.002322 0.000000 0.053351
#
#
# Mechanical properties :
#
#
# Convention : Reuss Voigt Hill
#
# Bulk Modulus (GPa) = 11.03838 26.42821 18.73329
# Shear Modulus (GPa) = 14.41614 23.17954 18.79784
#
# Velocity S-wave (km/s) = 2.76437 3.50529 3.15664
# Velocity P-wave (km/s) = 4.00503 5.51288 4.81830
#
# Compressibility (1/GPa) = 0.09059304
#
# Stress axis : x y z
#
# Youngs Moduli (GPa) = 9.65782 59.52626 53.76246
#
# Poissons Ratio (x) = 0.48747 0.76347
# Poissons Ratio (y) = 0.07909 0.09596
# Poissons Ratio (z) = 0.13715 0.10625
#
# Static dielectric constant tensor:
#      x y z
#    x 1.628300 0.000000 -0.008530 
#    y 0.000000 1.689030 0.000000 
#    z -0.008530 0.000000 1.638130 
# 
# From -- ./inp_files/70251.got.cif
#   From: 2010.05.17/outbox.cif.g08.bks.cpg/sg10_36_cif.got.tgz:70251.got - 2010.06.03 11:33:40.
