data_PCOD9143028
_publ_section_title
;
Structure prediction by ZEFSAII (Michael W. Deem and Ramdas Pophale) SiO2 
 PCOD9143028
Probable space group: P 2/M
;
_chemical_formula_sum "Si O2"
_cell_formula_units_Z 28
_cell_length_a 35.778779
_cell_length_b 7.461963
_cell_length_c 9.779033
_cell_angle_alpha 90.000000
_cell_angle_beta 148.402131
_cell_angle_gamma 90.000000
_cell_volume 1367.942577
_symmetry_space_group_name_H-M "P 2/M"
_symmetry_group_IT_number 10
_symmetry_cell_setting 'monoclinic'
loop_
_space_group_symop_operation_xyz
x,y,z
-x,y,-z
-x,-y,-z
x,-y,z
loop_
_atom_site_type_symbol
_atom_site_label
_atom_site_fract_x
_atom_site_fract_y
_atom_site_fract_z
Si Si1 0.068309 0.785620 0.623356
Si Si2 0.200461 0.796529 0.566662
Si Si3 0.763967 0.716134 0.804638
Si Si4 0.418937 0.281268 0.266199
Si Si5 0.690896 0.282416 0.859887
Si Si6 0.064878 0.781087 0.299493
Si Si7 0.690419 0.701959 0.306167
O O1 0.062600 0.718535 0.448772
O O2 0.000000 0.719391 0.500000
O O3 0.060269 0.000000 0.594072
O O4 0.150687 0.756085 0.928780
O O5 0.132217 0.714682 0.424727
O O6 0.237718 0.696165 0.559908
O O7 0.185339 0.000000 0.473415
O O8 0.256311 0.796026 0.863448
O O9 0.760785 0.500000 0.789852
O O10 0.722201 0.774871 0.811626
O O11 0.717912 0.786039 0.532565
O O12 0.500000 0.223021 0.500000
O O13 0.417148 0.500000 0.255511
O O14 0.385360 0.233414 0.309863
O O15 0.368537 0.219297 0.982237
O O16 0.694906 0.500000 0.874745
O O17 0.070002 0.000000 0.322090
O O18 0.000000 0.735546 0.000000
O O19 0.665372 0.500000 0.259152
#
# Coordination Sequence:
#
# PCOD9143028 Si02
#       7
#     4   4   4   4   4   4   4
#     4  10  21  35  52  72  97 130 168 211 254 290
#     4  10  18  30  51  73  93 124 166 207 246 290
#     4  10  20  34  51  71 103 138 166 201 247 301
#     4   8  14  28  51  75  99 128 164 203 241 288
#     4   9  17  31  51  72  98 131 162 196 245 295
#     4   9  18  31  46  68  95 120 155 205 252 289
#     4   9  19  33  49  72 102 132 163 200 246 292
#
# _framework density 20.468696000000001
#
# number of rings (size 3 to 8) (size 9 to 14) (size 15 to 20)
#    0.000    2.714    1.429    1.286    2.000    0.857 
#    0.000    0.714    0.000   13.286    0.000    0.000 
#    0.000   10.286    0.000    0.000    0.000    0.000 
#
# Total GULP energy -155888.801270 kJ/mol
# GULP energy per Si atom -5567.457188 kJ/mol
# Density = 2.042211 g / cm^3
# Si number density = 20.468696 Si / 1000 Ang^3
#
#
#
# Elastic Constant Matrix: (Units=GPa)
#
#
# Indices 1 2 3 4 5 6 
#
# 1 128.6220 0.3584 79.6432 0.0000 15.4326 0.0000
# 2 0.3584 60.4860 -2.6871 0.0000 -0.1542 0.0000
# 3 79.6432 -2.6871 109.7161 0.0000 8.9982 0.0000
# 4 0.0000 0.0000 0.0000 12.8900 0.0000 8.6842
# 5 15.4326 -0.1542 8.9982 0.0000 42.9740 0.0000
# 6 0.0000 0.0000 0.0000 8.6842 0.0000 4.0884
#
#
#
# Elastic Compliance Matrix: (Units=1/GPa)
#
#
# Indices 1 2 3 4 5 6 
#
# 1 0.014525 -0.000552 -0.010306 0.000000 -0.003060 0.000000
# 2 -0.000552 0.016572 0.000799 0.000000 0.000090 0.000000
# 3 -0.010306 0.000799 0.016597 0.000000 0.000229 0.000000
# 4 0.000000 0.000000 0.000000 -0.179978 0.000000 0.382292
# 5 -0.003060 0.000090 0.000229 0.000000 0.024321 0.000000
# 6 0.000000 0.000000 0.000000 0.382292 0.000000 -0.567436
#
#
# Mechanical properties :
#
#
# Convention : Reuss Voigt Hill
#
# Bulk Modulus (GPa) = 36.26444 50.38369 43.32407
# Shear Modulus (GPa) = -7.73887 26.75778 9.50945
#
# Velocity S-wave (km/s) = -1.94655 3.61952 2.15776
# Velocity P-wave (km/s) = 3.56419 6.49125 5.23640
#
# Compressibility (1/GPa) = 0.02757522
#
# Stress axis : x y z
#
# Youngs Moduli (GPa) = 68.84593 60.34373 60.25306
#
# Poissons Ratio (x) = 0.03329 0.62099
# Poissons Ratio (y) = 0.03798 -0.04814
# Poissons Ratio (z) = 0.70955 -0.04821
#
# Static dielectric constant tensor:
#      x y z
#    x 1.849220 0.000000 0.142500 
#    y 0.000000 1.774820 0.000000 
#    z 0.142500 0.000000 1.907420 
# 
# From -- ./inp_files/31911.got.cif
#   From: 2010.05.17/outbox.cif.g08.bks.cpg/sg10_16_cif.got.tgz:31911.got - 2010.06.03 11:33:40.
