data_PCOD9143550
_publ_section_title
;
Structure prediction by ZEFSAII (Michael W. Deem and Ramdas Pophale) SiO2 
 PCOD9143550
Probable space group: P 2/M
;
_chemical_formula_sum "Si O2"
_cell_formula_units_Z 32
_cell_length_a 14.352264
_cell_length_b 7.405205
_cell_length_c 14.539901
_cell_angle_alpha 90.000000
_cell_angle_beta 62.164422
_cell_angle_gamma 90.000000
_cell_volume 1366.514527
_symmetry_space_group_name_H-M "P 2/M"
_symmetry_group_IT_number 10
_symmetry_cell_setting 'monoclinic'
loop_
_space_group_symop_operation_xyz
x,y,z
-x,y,-z
-x,-y,-z
x,-y,z
loop_
_atom_site_type_symbol
_atom_site_label
_atom_site_fract_x
_atom_site_fract_y
_atom_site_fract_z
Si Si1 0.179498 0.783410 0.644369
Si Si2 0.017170 0.778513 0.386830
Si Si3 0.906830 0.718570 0.975138
Si Si4 0.399958 0.218539 0.982238
Si Si5 0.815343 0.792174 0.829406
Si Si6 0.472300 0.203064 0.752647
Si Si7 0.408703 0.221304 0.471318
Si Si8 0.745599 0.711451 0.196370
O O1 0.292992 0.719737 0.555109
O O2 0.177594 0.736443 0.752836
O O3 0.081617 0.718881 0.629731
O O4 0.179656 0.000000 0.638246
O O5 0.124474 0.716607 0.287066
O O6 0.000000 0.724052 0.500000
O O7 0.019148 0.000000 0.384529
O O8 0.909974 0.500000 0.969745
O O9 0.801534 0.776018 0.077909
O O10 0.898728 0.787248 0.875520
O O11 0.000000 0.777012 0.000000
O O12 0.432163 0.287254 0.866145
O O13 0.386561 0.000000 0.979769
O O14 0.500000 0.253381 0.000000
O O15 0.292469 0.288023 0.079133
O O16 0.790474 0.000000 0.818520
O O17 0.559649 0.283659 0.645694
O O18 0.366202 0.194998 0.739787
O O19 0.508036 0.000000 0.759302
O O20 0.500000 0.278614 0.500000
O O21 0.409828 0.000000 0.469542
O O22 0.724898 0.500000 0.197715
#
# Coordination Sequence:
#
# PCOD9143550 Si02
#       8
#     4   4   4   4   4   4   4   4
#     4  10  19  33  53  75 103 140 177 212 254 310
#     4   9  19  34  53  80 109 135 169 217 264 301
#     4  10  21  35  51  74 106 141 174 212 263 318
#     4   9  18  31  50  78 106 132 169 217 260 301
#     4  10  19  33  55  80 105 136 175 216 259 310
#     4  10  18  32  52  72 101 137 172 211 256 308
#     4   9  16  27  47  73  99 132 174 208 245 304
#     4  11  21  32  50  76 106 135 169 215 266 311
#
# _framework density 23.417242999999999
#
# number of rings (size 3 to 8) (size 9 to 14) (size 15 to 20)
#    0.000    2.250    2.500    1.125    0.000    1.750 
#    0.000    6.250    0.000    3.000    0.000    0.000 
#    0.000    0.000    0.000    0.000    0.000    0.000 
#
# Total GULP energy -178763.009737 kJ/mol
# GULP energy per Si atom -5586.344054 kJ/mol
# Density = 2.336394 g / cm^3
# Si number density = 23.417243 Si / 1000 Ang^3
#
#
#
# Elastic Constant Matrix: (Units=GPa)
#
#
# Indices 1 2 3 4 5 6 
#
# 1 74.0159 1.0490 45.1980 0.0000 5.6664 0.0000
# 2 1.0490 82.3030 4.4893 0.0000 -4.1405 0.0000
# 3 45.1980 4.4893 203.3518 0.0000 2.2250 0.0000
# 4 0.0000 0.0000 0.0000 -115.4500 0.0000 -27.2759
# 5 5.6664 -4.1405 2.2250 0.0000 33.9854 0.0000
# 6 0.0000 0.0000 0.0000 -27.2759 0.0000 -41.4412
#
#
#
# Elastic Compliance Matrix: (Units=1/GPa)
#
#
# Indices 1 2 3 4 5 6 
#
# 1 0.015829 -0.000134 -0.003489 0.000000 -0.002427 0.000000
# 2 -0.000134 0.012243 -0.000257 0.000000 0.001531 0.000000
# 3 -0.003489 -0.000257 0.005697 0.000000 0.000177 0.000000
# 4 0.000000 0.000000 0.000000 -0.010257 0.000000 0.006751
# 5 -0.002427 0.001531 0.000177 0.000000 0.030004 0.000000
# 6 0.000000 0.000000 0.000000 0.006751 0.000000 -0.028574
#
#
# Mechanical properties :
#
#
# Convention : Reuss Voigt Hill
#
# Bulk Modulus (GPa) = 38.44783 51.23813 44.84298
# Shear Modulus (GPa) = 120.85848 -3.98555 58.43646
#
# Velocity S-wave (km/s) = 7.19187 -1.30601 5.00086
# Velocity P-wave (km/s) = 9.24219 4.43326 7.24817
#
# Compressibility (1/GPa) = 0.02600927
#
# Stress axis : x y z
#
# Youngs Moduli (GPa) = 63.17657 81.67948 175.53917
#
# Poissons Ratio (x) = 0.01091 0.61240
# Poissons Ratio (y) = 0.00844 0.04517
# Poissons Ratio (z) = 0.22040 0.02102
#
# Static dielectric constant tensor:
#      x y z
#    x 1.868000 0.000000 -0.012060 
#    y 0.000000 1.869690 0.000000 
#    z -0.012060 0.000000 1.885890 
# 
# From -- ./inp_files/66506.got.cif
#   From: 2010.05.17/outbox.cif.g08.bks.cpg/sg10_34_cif.got.tgz:66506.got - 2010.06.03 11:33:40.
