data_PCOD9143698
_publ_section_title
;
Structure prediction by ZEFSAII (Michael W. Deem and Ramdas Pophale) SiO2 
 PCOD9143698
Probable space group: P 2/M
;
_chemical_formula_sum "Si O2"
_cell_formula_units_Z 24
_cell_length_a 17.249140
_cell_length_b 7.631833
_cell_length_c 23.983318
_cell_angle_alpha 90.000000
_cell_angle_beta 22.858608
_cell_angle_gamma 90.000000
_cell_volume 1226.450554
_symmetry_space_group_name_H-M "P 2/M"
_symmetry_group_IT_number 10
_symmetry_cell_setting 'monoclinic'
loop_
_space_group_symop_operation_xyz
x,y,z
-x,y,-z
-x,-y,-z
x,-y,z
loop_
_atom_site_type_symbol
_atom_site_label
_atom_site_fract_x
_atom_site_fract_y
_atom_site_fract_z
Si Si1 0.430800 0.286277 0.803160
Si Si2 0.133126 0.710317 0.097787
Si Si3 0.773497 0.285879 0.657276
Si Si4 0.215897 0.708351 0.839734
Si Si5 0.476223 0.714161 0.952181
Si Si6 0.706345 0.207074 0.339429
O O1 0.437662 0.500000 0.799244
O O2 0.633815 0.228962 0.698355
O O3 0.381507 0.225445 0.773608
O O4 0.249205 0.233503 0.964551
O O5 0.141180 0.500000 0.092894
O O6 0.902196 0.758139 0.246763
O O7 0.269877 0.770529 0.058883
O O8 0.776424 0.500000 0.655742
O O9 0.657061 0.233777 0.790992
O O10 0.000000 0.225927 0.500000
O O11 0.206894 0.500000 0.855291
O O12 0.256354 0.732270 0.748218
O O13 0.000000 0.781496 0.000000
O O14 0.475244 0.500000 0.953587
O O15 0.500000 0.773535 0.000000
O O16 0.500000 0.282668 0.500000
O O17 0.684175 0.000000 0.350790
#
# Coordination Sequence:
#
# PCOD9143698 Si02
#       6
#     4   4   4   4   4   4
#     4   8  14  26  45  70  97 125 155 193 240 288
#     4   9  16  31  53  72  97 131 164 202 248 293
#     4   8  13  22  37  59  95 130 148 176 232 290
#     4  10  18  32  55  77  98 124 163 208 247 296
#     4   8  14  25  43  68  96 124 156 195 238 286
#     4  11  24  38  49  68 102 136 168 208 254 298
#
# _framework density 19.568663999999998
#
# number of rings (size 3 to 8) (size 9 to 14) (size 15 to 20)
#    0.000    3.000    1.667    2.500    0.000    1.667 
#    3.000    0.000    0.000    0.500    0.000    0.000 
#    0.000    4.000    0.000    0.000    0.000    0.000 
#
# Total GULP energy -133766.959376 kJ/mol
# GULP energy per Si atom -5573.623307 kJ/mol
# Density = 1.952413 g / cm^3
# Si number density = 19.568664 Si / 1000 Ang^3
#
#
#
# Elastic Constant Matrix: (Units=GPa)
#
#
# Indices 1 2 3 4 5 6 
#
# 1 130.8268 -30.9234 50.0000 0.0000 -2.9188 0.0000
# 2 -30.9234 9.7425 -34.3063 0.0000 1.5108 0.0000
# 3 50.0000 -34.3063 110.8085 0.0000 -18.8858 0.0000
# 4 0.0000 0.0000 0.0000 5.7256 0.0000 6.5588
# 5 -2.9188 1.5108 -18.8858 0.0000 27.8101 0.0000
# 6 0.0000 0.0000 0.0000 6.5588 0.0000 -19.9361
#
#
#
# Elastic Compliance Matrix: (Units=1/GPa)
#
#
# Indices 1 2 3 4 5 6 
#
# 1 0.004271 -0.037568 -0.014853 0.000000 -0.007598 0.000000
# 2 -0.037568 -0.278052 -0.076031 0.000000 -0.040469 0.000000
# 3 -0.014853 -0.076031 -0.008339 0.000000 -0.003092 0.000000
# 4 0.000000 0.000000 0.000000 0.126849 0.000000 0.041733
# 5 -0.007598 -0.040469 -0.003092 0.000000 0.035260 0.000000
# 6 0.000000 0.000000 0.000000 0.041733 0.000000 -0.036431
#
#
# Mechanical properties :
#
#
# Convention : Reuss Voigt Hill
#
# Bulk Modulus (GPa) = -1.85521 24.54649 11.34564
# Shear Modulus (GPa) = -63.12120 20.49374 -21.31373
#
# Velocity S-wave (km/s) = -5.68562 3.23967 -3.30385
# Velocity P-wave (km/s) = 6.63715 5.15412 2.95693
#
# Compressibility (1/GPa) = -0.53902301
#
# Stress axis : x y z
#
# Youngs Moduli (GPa) = 234.14070 -3.59645 -119.91531
#
# Poissons Ratio (x) = -0.13511 -1.78111
# Poissons Ratio (y) = 8.79618 -9.11722
# Poissons Ratio (z) = 3.47771 -0.27344
#
# Static dielectric constant tensor:
#      x y z
#    x 1.700560 0.000000 -0.015040 
#    y 0.000000 1.721800 0.000000 
#    z -0.015040 0.000000 1.680580 
# 
# From -- ./inp_files/80043.got.cif
#   From: 2010.05.17/outbox.cif.g08.bks.cpg/sg10_41_cif.got.tgz:80043.got - 2010.06.03 11:33:40.
