data_PCOD9143166
_publ_section_title
;
Structure prediction by ZEFSAII (Michael W. Deem and Ramdas Pophale) SiO2 
 PCOD9143166
Probable space group: P 2/M
;
_chemical_formula_sum "Si O2"
_cell_formula_units_Z 32
_cell_length_a 14.118016
_cell_length_b 14.835445
_cell_length_c 17.015065
_cell_angle_alpha 90.000000
_cell_angle_beta 23.600592
_cell_angle_gamma 90.000000
_cell_volume 1426.779676
_symmetry_space_group_name_H-M "P 2/M"
_symmetry_group_IT_number 10
_symmetry_cell_setting 'monoclinic'
loop_
_space_group_symop_operation_xyz
x,y,z
-x,y,-z
-x,-y,-z
x,-y,z
loop_
_atom_site_type_symbol
_atom_site_label
_atom_site_fract_x
_atom_site_fract_y
_atom_site_fract_z
Si Si1 0.457964 0.838374 0.234125
Si Si2 0.955052 0.607579 0.788103
Si Si3 0.994919 0.400532 0.419086
Si Si4 0.754523 0.894621 0.762386
Si Si5 0.552599 0.900901 0.585926
Si Si6 0.521404 0.361892 0.234012
Si Si7 0.084972 0.104760 0.200790
Si Si8 0.547777 0.304176 0.552280
O O1 0.278454 0.855666 0.299119
O O2 0.456268 0.900969 0.312113
O O3 0.436778 0.739761 0.283787
O O4 0.717501 0.845074 0.998023
O O5 0.021146 0.500000 0.735824
O O6 0.884941 0.635243 0.751869
O O7 0.174384 0.672403 0.643756
O O8 0.739427 0.615983 0.012482
O O9 0.104566 0.500000 0.348485
O O10 0.000000 0.352819 0.500000
O O11 0.720463 0.410712 0.604286
O O12 0.928430 0.860722 0.698887
O O13 0.802816 0.000000 0.713402
O O14 0.500000 0.885645 0.000000
O O15 0.468228 0.801796 0.621596
O O16 0.830856 0.896082 0.354786
O O17 0.459068 0.000000 0.630103
O O18 0.578247 0.362639 0.283471
O O19 0.165406 0.000000 0.144614
O O20 0.500000 0.332249 0.500000
#
# Coordination Sequence:
#
# PCOD9143166 Si02
#       8
#     4   4   4   4   4   4   4   4
#     4  10  18  31  46  72 109 146 184 236 284 325
#     4  10  21  40  66  90 118 156 196 243 298 358
#     4   9  19  38  59  84 121 158 192 231 278 339
#     4   8  14  26  42  63  95 138 180 218 267 319
#     4  10  20  34  56  81 105 147 196 234 287 356
#     4  10  21  37  56  86 115 152 197 239 292 349
#     4   9  17  30  47  68 101 142 186 232 278 333
#     4  10  23  42  60  85 121 151 189 253 314 361
#
# _framework density 22.428128999999998
#
# number of rings (size 3 to 8) (size 9 to 14) (size 15 to 20)
#    0.000    2.500    0.000    3.000    0.000    2.500 
#   13.500    4.375    0.000    0.000    0.000    7.000 
#    0.000    0.000    0.000    0.000    0.000    0.000 
#
# Total GULP energy -178343.301068 kJ/mol
# GULP energy per Si atom -5573.228158 kJ/mol
# Density = 2.237708 g / cm^3
# Si number density = 22.428129 Si / 1000 Ang^3
#
#
#
# Elastic Constant Matrix: (Units=GPa)
#
#
# Indices 1 2 3 4 5 6 
#
# 1 116.9501 5.6184 24.2928 0.0000 44.6510 0.0000
# 2 5.6184 85.9804 -2.0686 0.0000 9.2574 0.0000
# 3 24.2928 -2.0686 92.3734 0.0000 36.4696 0.0000
# 4 0.0000 0.0000 0.0000 -17.2617 0.0000 -4.6230
# 5 44.6510 9.2574 36.4696 0.0000 30.4065 0.0000
# 6 0.0000 0.0000 0.0000 -4.6230 0.0000 11.6416
#
#
#
# Elastic Compliance Matrix: (Units=1/GPa)
#
#
# Indices 1 2 3 4 5 6 
#
# 1 0.032682 0.006529 0.021433 0.000000 -0.075688 0.000000
# 2 0.006529 0.013868 0.007685 0.000000 -0.023028 0.000000
# 3 0.021433 0.007685 0.035541 0.000000 -0.076442 0.000000
# 4 0.000000 0.000000 0.000000 -0.052363 0.000000 -0.020794
# 5 -0.075688 -0.023028 -0.076442 0.000000 0.242729 0.000000
# 6 0.000000 0.000000 0.000000 -0.020794 0.000000 0.077641
#
#
# Mechanical properties :
#
#
# Convention : Reuss Voigt Hill
#
# Bulk Modulus (GPa) = 6.51948 38.99878 22.75913
# Shear Modulus (GPa) = 15.15464 22.78804 18.97134
#
# Velocity S-wave (km/s) = 2.60224 3.19101 2.91154
# Velocity P-wave (km/s) = 3.45572 5.56801 4.63383
#
# Compressibility (1/GPa) = 0.15338651
#
# Stress axis : x y z
#
# Youngs Moduli (GPa) = 30.59767 72.10766 28.13670
#
# Poissons Ratio (x) = -0.47081 -0.60307
# Poissons Ratio (y) = -0.19978 -0.21623
# Poissons Ratio (z) = -0.65581 -0.55414
#
# Static dielectric constant tensor:
#      x y z
#    x 1.871260 0.000000 0.023370 
#    y 0.000000 1.916050 0.000000 
#    z 0.023370 0.000000 1.836580 
# 
# From -- ./inp_files/65375.got.cif
#   From: 2010.05.17/outbox.cif.g08.bks.cpg/sg10_33_cif.got.tgz:65375.got - 2010.06.03 11:33:40.
