data_PCOD9143297
_publ_section_title
;
Structure prediction by ZEFSAII (Michael W. Deem and Ramdas Pophale) SiO2 
 PCOD9143297
Probable space group: P 2/M
;
_chemical_formula_sum "Si O2"
_cell_formula_units_Z 30
_cell_length_a 19.597505
_cell_length_b 18.652032
_cell_length_c 9.247637
_cell_angle_alpha 90.000000
_cell_angle_beta 152.065175
_cell_angle_gamma 90.000000
_cell_volume 1583.567614
_symmetry_space_group_name_H-M "P 2/M"
_symmetry_group_IT_number 10
_symmetry_cell_setting 'monoclinic'
loop_
_space_group_symop_operation_xyz
x,y,z
-x,y,-z
-x,-y,-z
x,-y,z
loop_
_atom_site_type_symbol
_atom_site_label
_atom_site_fract_x
_atom_site_fract_y
_atom_site_fract_z
Si Si1 0.042582 0.708042 0.731372
Si Si2 0.913650 0.917106 0.559256
Si Si3 0.770564 0.322219 0.667766
Si Si4 0.806621 0.139743 0.046977
Si Si5 0.562913 0.714377 0.886710
Si Si6 0.186559 0.218018 0.485410
Si Si7 0.500000 0.189926 0.500000
Si Si8 0.341968 0.580928 0.784430
O O1 0.135123 0.778852 0.860910
O O2 0.000000 0.673096 0.500000
O O3 0.907060 0.738591 0.569586
O O4 0.138267 0.661151 0.019458
O O5 0.839106 0.889203 0.269639
O O6 0.855728 0.864019 0.573827
O O7 0.086358 0.905201 0.855995
O O8 0.881805 0.000000 0.522329
O O9 0.605961 0.301315 0.399367
O O10 0.837751 0.251964 0.716751
O O11 0.763873 0.383309 0.532831
O O12 0.634962 0.142724 0.695853
O O13 0.567642 0.758012 0.747824
O O14 0.646625 0.763579 0.160269
O O15 0.639934 0.636821 0.050092
O O16 0.303162 0.500000 0.750973
O O17 0.500000 0.579442 0.000000
#
# Coordination Sequence:
#
# PCOD9143297 Si02
#       8
#     4   4   4   4   4   4   2   4
#     4  11  18  32  51  82 108 136 180 229 271 315
#     4  10  19  35  55  75 104 148 188 222 274 330
#     4  10  20  32  56  85 107 141 181 231 270 322
#     4  10  18  31  51  77 104 141 177 225 269 330
#     4  10  19  31  55  84 110 139 183 234 274 315
#     4  10  19  34  53  79 107 140 184 230 275 318
#     4  12  18  30  52  86 112 132 178 242 282 308
#     4   8  16  33  53  78 112 148 182 216 268 330
#
# _framework density 18.944565000000001
#
# number of rings (size 3 to 8) (size 9 to 14) (size 15 to 20)
#    0.000    2.000    5.333    2.400    0.000    0.000 
#    0.000    1.667    0.000   15.600    0.000    0.000 
#    0.000    5.333    0.000    0.000    0.000    0.000 
#
# Total GULP energy -167253.131254 kJ/mol
# GULP energy per Si atom -5575.104375 kJ/mol
# Density = 1.890145 g / cm^3
# Si number density = 18.944565 Si / 1000 Ang^3
#
#
#
# Elastic Constant Matrix: (Units=GPa)
#
#
# Indices 1 2 3 4 5 6 
#
# 1 39.5300 17.8566 23.4071 0.0000 -9.4751 0.0000
# 2 17.8566 106.4185 26.6322 0.0000 -2.5597 0.0000
# 3 23.4071 26.6322 97.8227 0.0000 -9.7420 0.0000
# 4 0.0000 0.0000 0.0000 8.0213 0.0000 -2.8965
# 5 -9.4751 -2.5597 -9.7420 0.0000 32.9343 0.0000
# 6 0.0000 0.0000 0.0000 -2.8965 0.0000 19.8565
#
#
#
# Elastic Compliance Matrix: (Units=1/GPa)
#
#
# Indices 1 2 3 4 5 6 
#
# 1 0.032260 -0.003743 -0.005981 0.000000 0.007221 0.000000
# 2 -0.003743 0.010518 -0.002054 0.000000 -0.000867 0.000000
# 3 -0.005981 -0.002054 0.012391 0.000000 0.001785 0.000000
# 4 0.000000 0.000000 0.000000 0.131599 0.000000 0.019197
# 5 0.007221 -0.000867 0.001785 0.000000 0.032901 0.000000
# 6 0.000000 0.000000 0.000000 0.019197 0.000000 0.053161
#
#
# Mechanical properties :
#
#
# Convention : Reuss Voigt Hill
#
# Bulk Modulus (GPa) = 31.63264 42.17367 36.90315
# Shear Modulus (GPa) = 16.29058 23.88746 20.08902
#
# Velocity S-wave (km/s) = 2.93560 3.55479 3.25993
# Velocity P-wave (km/s) = 5.31263 6.25769 5.80442
#
# Compressibility (1/GPa) = 0.03161292
#
# Stress axis : x y z
#
# Youngs Moduli (GPa) = 30.99775 95.07397 80.70500
#
# Poissons Ratio (x) = 0.35583 0.48272
# Poissons Ratio (y) = 0.11601 0.16580
# Poissons Ratio (z) = 0.18540 0.19532
#
# Static dielectric constant tensor:
#      x y z
#    x 1.680820 0.000000 0.006410 
#    y 0.000000 1.640960 0.000000 
#    z 0.006410 0.000000 1.722930 
# 
# From -- ./inp_files/33107.got.cif
#   From: 2010.05.17/outbox.cif.g08.bks.cpg/sg10_17_cif.got.tgz:33107.got - 2010.06.03 11:33:40.
