data_PCOD9143800
_publ_section_title
;
Structure prediction by ZEFSAII (Michael W. Deem and Ramdas Pophale) SiO2 
 PCOD9143800
Probable space group: P 2/M
;
_chemical_formula_sum "Si O2"
_cell_formula_units_Z 32
_cell_length_a 22.676325
_cell_length_b 14.318227
_cell_length_c 15.573300
_cell_angle_alpha 90.000000
_cell_angle_beta 18.593160
_cell_angle_gamma 90.000000
_cell_volume 1612.217977
_symmetry_space_group_name_H-M "P 2/M"
_symmetry_group_IT_number 10
_symmetry_cell_setting 'monoclinic'
loop_
_space_group_symop_operation_xyz
x,y,z
-x,y,-z
-x,-y,-z
x,-y,z
loop_
_atom_site_type_symbol
_atom_site_label
_atom_site_fract_x
_atom_site_fract_y
_atom_site_fract_z
Si Si1 0.237533 0.610154 0.882003
Si Si2 0.581227 0.895661 0.291186
Si Si3 0.537598 0.695295 0.584643
Si Si4 0.192506 0.303033 0.284901
Si Si5 0.559001 0.392119 0.736575
Si Si6 0.194302 0.099025 0.282211
Si Si7 0.145414 0.301900 0.554828
Si Si8 0.021825 0.897333 0.708822
O O1 0.273552 0.500000 0.822832
O O2 0.344551 0.649475 0.818052
O O3 0.322703 0.666835 0.684336
O O4 0.022510 0.631690 0.186080
O O5 0.500000 0.892612 0.500000
O O6 0.494671 0.806118 0.364672
O O7 0.542536 0.000000 0.309951
O O8 0.804024 0.885171 0.987905
O O9 0.600446 0.650848 0.586469
O O10 0.278190 0.199737 0.146045
O O11 0.158282 0.305625 0.433908
O O12 0.000000 0.311627 0.500000
O O13 0.341014 0.378795 0.052824
O O14 0.610931 0.500000 0.667874
O O15 0.668177 0.336262 0.658832
O O16 0.000000 0.097757 0.500000
O O17 0.136481 0.099102 0.461746
O O18 0.291405 0.000000 0.128926
O O19 0.092760 0.196292 0.655608
O O20 0.041292 0.000000 0.723876
#
# Coordination Sequence:
#
# PCOD9143800 Si02
#       8
#     4   4   4   4   4   4   4   4
#     4  11  21  37  63  87 114 155 206 259 298 343
#     4  10  18  32  59  93 123 152 189 240 302 356
#     4  11  21  39  59  91 122 152 198 251 300 350
#     4  10  22  39  64  88 115 155 204 256 304 357
#     4  12  27  42  58  83 122 164 202 251 304 361
#     4   8  15  28  51  84 113 139 176 230 292 347
#     4  11  22  40  60  86 120 162 203 249 309 365
#     4   9  17  32  56  84 114 151 191 235 294 357
#
# _framework density 19.848433
#
# number of rings (size 3 to 8) (size 9 to 14) (size 15 to 20)
#    0.000    1.750    2.500    3.000    3.500    2.250 
#    0.000    2.500    0.000    3.000    0.000    4.375 
#    0.000    0.000    0.000    0.000    0.000    0.000 
#
# Total GULP energy -178586.641236 kJ/mol
# GULP energy per Si atom -5580.832539 kJ/mol
# Density = 1.980326 g / cm^3
# Si number density = 19.848433 Si / 1000 Ang^3
#
#
#
# Elastic Constant Matrix: (Units=GPa)
#
#
# Indices 1 2 3 4 5 6 
#
# 1 85.6907 36.7221 22.1614 0.0000 -9.7445 0.0000
# 2 36.7221 166.2592 13.2136 0.0000 -7.3487 0.0000
# 3 22.1614 13.2136 23.7452 0.0000 -1.9847 0.0000
# 4 0.0000 0.0000 0.0000 23.2624 0.0000 -4.3303
# 5 -9.7445 -7.3487 -1.9847 0.0000 17.2392 0.0000
# 6 0.0000 0.0000 0.0000 -4.3303 0.0000 5.7484
#
#
#
# Elastic Compliance Matrix: (Units=1/GPa)
#
#
# Indices 1 2 3 4 5 6 
#
# 1 0.017121 -0.002351 -0.014082 0.000000 0.007055 0.000000
# 2 -0.002351 0.006708 -0.001424 0.000000 0.001367 0.000000
# 3 -0.014082 -0.001424 0.055870 0.000000 -0.002135 0.000000
# 4 0.000000 0.000000 0.000000 0.049999 0.000000 0.037664
# 5 0.007055 0.001367 -0.002135 0.000000 0.062332 0.000000
# 6 0.000000 0.000000 0.000000 0.037664 0.000000 0.202335
#
#
# Mechanical properties :
#
#
# Convention : Reuss Voigt Hill
#
# Bulk Modulus (GPa) = 22.73464 46.65436 34.69450
# Shear Modulus (GPa) = 11.24253 22.82321 17.03287
#
# Velocity S-wave (km/s) = 2.38254 3.39466 2.93259
# Velocity P-wave (km/s) = 4.36436 6.23869 5.38372
#
# Compressibility (1/GPa) = 0.04398575
#
# Stress axis : x y z
#
# Youngs Moduli (GPa) = 58.40696 149.08655 17.89859
#
# Poissons Ratio (x) = 0.35045 0.25204
# Poissons Ratio (y) = 0.13729 0.02550
# Poissons Ratio (z) = 0.82246 0.21237
#
# Static dielectric constant tensor:
#      x y z
#    x 1.693240 0.000000 0.004470 
#    y 0.000000 1.770280 0.000000 
#    z 0.004470 0.000000 1.833550 
# 
# From -- ./inp_files/70747.got.cif
#   From: 2010.05.17/outbox.cif.g08.bks.cpg/sg10_36_cif.got.tgz:70747.got - 2010.06.03 11:33:40.
