data_PCOD9143766
_publ_section_title
;
Structure prediction by ZEFSAII (Michael W. Deem and Ramdas Pophale) SiO2 
 PCOD9143766
Probable space group: P 2/M
;
_chemical_formula_sum "Si O2"
_cell_formula_units_Z 24
_cell_length_a 10.383743
_cell_length_b 13.256072
_cell_length_c 11.773461
_cell_angle_alpha 90.000000
_cell_angle_beta 37.307164
_cell_angle_gamma 90.000000
_cell_volume 982.219424
_symmetry_space_group_name_H-M "P 2/M"
_symmetry_group_IT_number 10
_symmetry_cell_setting 'monoclinic'
loop_
_space_group_symop_operation_xyz
x,y,z
-x,y,-z
-x,-y,-z
x,-y,z
loop_
_atom_site_type_symbol
_atom_site_label
_atom_site_fract_x
_atom_site_fract_y
_atom_site_fract_z
Si Si1 0.232165 0.739835 0.824935
Si Si2 0.633887 0.614525 0.560453
Si Si3 0.475535 0.110755 0.790518
Si Si4 0.236712 0.606901 0.279922
Si Si5 0.168297 0.823615 0.635593
Si Si6 0.185943 0.175513 0.272020
O O1 0.408477 0.656206 0.675441
O O2 0.312534 0.800104 0.878450
O O3 0.212068 0.822574 0.738134
O O4 0.000000 0.694664 0.000000
O O5 0.684669 0.500000 0.489617
O O6 0.620767 0.613377 0.707139
O O7 0.802923 0.702859 0.413173
O O8 0.647249 0.124231 0.567353
O O9 0.615363 0.123527 0.806545
O O10 0.381272 0.000000 0.852918
O O11 0.267923 0.500000 0.197647
O O12 0.254390 0.709626 0.200117
O O13 0.000000 0.604288 0.500000
O O14 0.944868 0.863652 0.744043
O O15 0.000000 0.176971 0.500000
#
# Coordination Sequence:
#
# PCOD9143766 Si02
#       6
#     4   4   4   4   4   4
#     4  11  24  39  52  74 112 153 185 217 262 318
#     4  10  18  32  57  83 108 142 184 224 263 311
#     4  10  20  37  61  83 106 134 174 227 277 324
#     4   9  13  23  49  82 110 132 162 215 271 316
#     4  10  20  34  56  86 111 135 178 222 271 319
#     4   9  15  30  52  84 112 128 168 220 276 319
#
# _framework density 24.434459
#
# number of rings (size 3 to 8) (size 9 to 14) (size 15 to 20)
#    0.000    2.167    6.667    2.000    0.000    6.333 
#    0.000    0.833    0.000    1.000    0.000    2.333 
#    0.000    0.000    0.000    0.000    0.000    0.000 
#
# Total GULP energy -134024.825250 kJ/mol
# GULP energy per Si atom -5584.367719 kJ/mol
# Density = 2.437885 g / cm^3
# Si number density = 24.434459 Si / 1000 Ang^3
#
#
#
# Elastic Constant Matrix: (Units=GPa)
#
#
# Indices 1 2 3 4 5 6 
#
# 1 116.8263 0.6397 32.3474 0.0000 -26.2335 0.0000
# 2 0.6397 109.2360 -2.2335 0.0000 -9.7169 0.0000
# 3 32.3474 -2.2335 63.5480 0.0000 -1.0871 0.0000
# 4 0.0000 0.0000 0.0000 -19.1075 0.0000 16.2337
# 5 -26.2335 -9.7169 -1.0871 0.0000 37.8278 0.0000
# 6 0.0000 0.0000 0.0000 16.2337 0.0000 -4.1364
#
#
#
# Elastic Compliance Matrix: (Units=1/GPa)
#
#
# Indices 1 2 3 4 5 6 
#
# 1 0.012092 0.000550 -0.005993 0.000000 0.008355 0.000000
# 2 0.000550 0.009402 0.000098 0.000000 0.002799 0.000000
# 3 -0.005993 0.000098 0.018729 0.000000 -0.003593 0.000000
# 4 0.000000 0.000000 0.000000 0.022420 0.000000 0.087989
# 5 0.008355 0.002799 -0.003593 0.000000 0.032846 0.000000
# 6 0.000000 0.000000 0.000000 0.087989 0.000000 0.103565
#
#
# Mechanical properties :
#
#
# Convention : Reuss Voigt Hill
#
# Bulk Modulus (GPa) = 33.85942 39.01305 36.43624
# Shear Modulus (GPa) = 22.76996 20.17389 21.47192
#
# Velocity S-wave (km/s) = 3.05598 2.87650 2.96760
# Velocity P-wave (km/s) = 5.13219 5.19937 5.16589
#
# Compressibility (1/GPa) = 0.02953388
#
# Stress axis : x y z
#
# Youngs Moduli (GPa) = 82.69804 106.35704 53.39401
#
# Poissons Ratio (x) = -0.05848 0.31999
# Poissons Ratio (y) = -0.04547 -0.00526
# Poissons Ratio (z) = 0.49561 -0.01047
#
# Static dielectric constant tensor:
#      x y z
#    x 1.998590 0.000000 0.021710 
#    y 0.000000 1.890470 0.000000 
#    z 0.021710 0.000000 2.010540 
# 
# From -- ./inp_files/65020.got.cif
#   From: 2010.05.17/outbox.cif.g08.bks.cpg/sg10_33_cif.got.tgz:65020.got - 2010.06.03 11:33:40.
