data_PCOD9143321
_publ_section_title
;
Structure prediction by ZEFSAII (Michael W. Deem and Ramdas Pophale) SiO2 
 PCOD9143321
Probable space group: P 2/M
;
_chemical_formula_sum "Si O2"
_cell_formula_units_Z 32
_cell_length_a 12.986344
_cell_length_b 7.329171
_cell_length_c 20.612063
_cell_angle_alpha 90.000000
_cell_angle_beta 45.663479
_cell_angle_gamma 90.000000
_cell_volume 1403.199795
_symmetry_space_group_name_H-M "P 2/M"
_symmetry_group_IT_number 10
_symmetry_cell_setting 'monoclinic'
loop_
_space_group_symop_operation_xyz
x,y,z
-x,y,-z
-x,-y,-z
x,-y,z
loop_
_atom_site_type_symbol
_atom_site_label
_atom_site_fract_x
_atom_site_fract_y
_atom_site_fract_z
Si Si1 0.581384 0.706254 0.274954
Si Si2 0.893609 0.720074 0.874531
Si Si3 0.367256 0.722656 0.603869
Si Si4 0.941325 0.277550 0.595653
Si Si5 0.430317 0.722492 0.962289
Si Si6 0.104431 0.211352 0.898805
Si Si7 0.064642 0.722362 0.676542
Si Si8 0.389767 0.723352 0.242613
O O1 0.528063 0.500000 0.309956
O O2 0.603762 0.789328 0.336018
O O3 0.740327 0.699557 0.174261
O O4 0.473621 0.787043 0.269913
O O5 0.891148 0.500000 0.875924
O O6 0.018056 0.775674 0.869600
O O7 0.939174 0.776821 0.782093
O O8 0.736087 0.782503 0.965979
O O9 0.500000 0.771644 0.500000
O O10 0.358992 0.500000 0.610343
O O11 0.216252 0.782474 0.639857
O O12 0.943667 0.500000 0.593756
O O13 0.776456 0.223150 0.680922
O O14 0.000000 0.217309 0.500000
O O15 0.035104 0.218839 0.616261
O O16 0.429549 0.500000 0.961647
O O17 0.525007 0.781700 0.859320
O O18 0.500000 0.777018 0.000000
O O19 0.131483 0.000000 0.902396
O O20 0.000000 0.288085 0.000000
O O21 0.065886 0.500000 0.675276
O O22 0.393662 0.500000 0.240438
#
# Coordination Sequence:
#
# PCOD9143321 Si02
#       8
#     4   4   4   4   4   4   4   4
#     4  10  19  33  52  75 103 133 169 209 252 302
#     4  10  18  31  52  75  98 131 173 212 252 298
#     4   9  17  27  44  70  99 132 166 207 253 297
#     4   9  17  26  39  64 103 141 164 195 251 307
#     4   9  16  26  43  68  97 127 160 204 251 291
#     4  11  23  36  50  72 103 136 169 208 258 310
#     4   9  16  27  43  67  98 132 169 203 243 298
#     4   9  17  27  40  64  95 127 163 201 241 292
#
# _framework density 22.805018
#
# number of rings (size 3 to 8) (size 9 to 14) (size 15 to 20)
#    0.000    2.500    1.250    1.875    1.750    5.000 
#    0.000    0.000    0.000    0.750    0.000    2.625 
#    0.000    1.000    0.000    0.000    0.000    0.000 
#
# Total GULP energy -178879.664621 kJ/mol
# GULP energy per Si atom -5589.989519 kJ/mol
# Density = 2.275311 g / cm^3
# Si number density = 22.805018 Si / 1000 Ang^3
#
#
#
# Elastic Constant Matrix: (Units=GPa)
#
#
# Indices 1 2 3 4 5 6 
#
# 1 168.2767 1.3138 77.9157 0.0000 18.6000 0.0000
# 2 1.3138 89.8654 4.1309 0.0000 1.1705 0.0000
# 3 77.9157 4.1309 166.2296 0.0000 16.1171 0.0000
# 4 0.0000 0.0000 0.0000 4.2525 0.0000 -54.7987
# 5 18.6000 1.1705 16.1171 0.0000 42.4831 0.0000
# 6 0.0000 0.0000 0.0000 -54.7987 0.0000 196.6929
#
#
#
# Elastic Compliance Matrix: (Units=1/GPa)
#
#
# Indices 1 2 3 4 5 6 
#
# 1 0.007766 0.000072 -0.003439 0.000000 -0.002098 0.000000
# 2 0.000072 0.011143 -0.000288 0.000000 -0.000229 0.000000
# 3 -0.003439 -0.000288 0.007774 0.000000 -0.001436 0.000000
# 4 0.000000 0.000000 0.000000 -0.090790 0.000000 -0.025294
# 5 -0.002098 -0.000229 -0.001436 0.000000 0.025008 0.000000
# 6 0.000000 0.000000 0.000000 -0.025294 0.000000 -0.001963
#
#
# Mechanical properties :
#
#
# Convention : Reuss Voigt Hill
#
# Bulk Modulus (GPa) = 51.61899 65.67695 58.64797
# Shear Modulus (GPa) = -183.18546 71.41979 -55.88283
#
# Velocity S-wave (km/s) = -8.97225 5.60228 -4.95558
# Velocity P-wave (km/s) = 9.20059 8.40888 2.64023
#
# Compressibility (1/GPa) = 0.01937272
#
# Stress axis : x y z
#
# Youngs Moduli (GPa) = 128.76660 89.74291 128.63622
#
# Poissons Ratio (x) = -0.00645 0.44232
# Poissons Ratio (y) = -0.00925 0.03710
# Poissons Ratio (z) = 0.44276 0.02588
#
# Static dielectric constant tensor:
#      x y z
#    x 1.811410 0.000000 -0.030910 
#    y 0.000000 1.863850 0.000000 
#    z -0.030910 0.000000 1.924700 
# 
# From -- ./inp_files/83564.got.cif
#   From: 2010.05.17/outbox.cif.g08.bks.cpg/sg10_42_cif.got.tgz:83564.got - 2010.06.03 11:33:40.
