data_PCOD9143570
_publ_section_title
;
Structure prediction by ZEFSAII (Michael W. Deem and Ramdas Pophale) SiO2 
 PCOD9143570
Probable space group: P 2/M
;
_chemical_formula_sum "Si O2"
_cell_formula_units_Z 28
_cell_length_a 28.548780
_cell_length_b 9.054315
_cell_length_c 9.812085
_cell_angle_alpha 90.000000
_cell_angle_beta 140.523493
_cell_angle_gamma 90.000000
_cell_volume 1612.496829
_symmetry_space_group_name_H-M "P 2/M"
_symmetry_group_IT_number 10
_symmetry_cell_setting 'monoclinic'
loop_
_space_group_symop_operation_xyz
x,y,z
-x,y,-z
-x,-y,-z
x,-y,z
loop_
_atom_site_type_symbol
_atom_site_label
_atom_site_fract_x
_atom_site_fract_y
_atom_site_fract_z
Si Si1 0.240159 0.823034 0.577293
Si Si2 0.917403 0.322813 0.281473
Si Si3 0.790501 0.323506 0.213502
Si Si4 0.684353 0.824130 0.767342
Si Si5 0.395184 0.324027 0.875822
Si Si6 0.555671 0.324448 0.326937
Si Si7 0.186790 0.823621 0.160025
O O1 0.203526 0.748122 0.625359
O O2 0.324268 0.767268 0.758830
O O3 0.202112 0.778559 0.349306
O O4 0.238099 0.000000 0.583438
O O5 0.918240 0.500000 0.268086
O O6 0.861191 0.287542 0.278331
O O7 0.000000 0.272643 0.500000
O O8 0.881872 0.252792 0.067146
O O9 0.783555 0.500000 0.206748
O O10 0.719769 0.255974 0.976891
O O11 0.605306 0.763684 0.544448
O O12 0.741046 0.790261 0.770006
O O13 0.683201 0.000000 0.784919
O O14 0.381710 0.500000 0.861687
O O15 0.413548 0.298489 0.757323
O O16 0.469251 0.286202 0.125515
O O17 0.561925 0.500000 0.366658
O O18 0.176939 0.000000 0.134316
#
# Coordination Sequence:
#
# PCOD9143570 Si02
#       7
#     4   4   4   4   4   4   4
#     4  11  21  35  52  77 110 141 176 217 259 311
#     4   9  19  37  60  84 106 131 170 215 255 303
#     4  10  21  36  55  78 105 139 173 212 264 315
#     4  10  18  32  52  76 104 137 178 222 262 308
#     4   9  18  31  49  74 105 140 177 219 265 309
#     4   9  17  30  49  75 104 136 178 223 264 309
#     4   9  19  33  52  79 107 138 174 209 253 309
#
# _framework density 17.364374999999999
#
# number of rings (size 3 to 8) (size 9 to 14) (size 15 to 20)
#    0.000    2.429    1.429    2.143    0.000    3.143 
#    0.000    2.857    0.000    8.571    0.000    0.000 
#    0.000    0.000    0.000    0.000    0.000    0.000 
#
# Total GULP energy -156219.996559 kJ/mol
# GULP energy per Si atom -5579.285591 kJ/mol
# Density = 1.732485 g / cm^3
# Si number density = 17.364375 Si / 1000 Ang^3
#
#
#
# Elastic Constant Matrix: (Units=GPa)
#
#
# Indices 1 2 3 4 5 6 
#
# 1 59.0467 35.3819 59.6391 0.0000 -11.2509 0.0000
# 2 35.3819 38.0411 50.1178 0.0000 -3.5311 0.0000
# 3 59.6391 50.1178 143.2679 0.0000 1.1740 0.0000
# 4 0.0000 0.0000 0.0000 28.3827 0.0000 -8.4199
# 5 -11.2509 -3.5311 1.1740 0.0000 29.0651 0.0000
# 6 0.0000 0.0000 0.0000 -8.4199 0.0000 14.8591
#
#
#
# Elastic Compliance Matrix: (Units=1/GPa)
#
#
# Indices 1 2 3 4 5 6 
#
# 1 0.047367 -0.030654 -0.009117 0.000000 0.014980 0.000000
# 2 -0.030654 0.069902 -0.011669 0.000000 -0.002902 0.000000
# 3 -0.009117 -0.011669 0.014903 0.000000 -0.005549 0.000000
# 4 0.000000 0.000000 0.000000 0.042352 0.000000 0.023999
# 5 0.014980 -0.002902 -0.005549 0.000000 0.040076 0.000000
# 6 0.000000 0.000000 0.000000 0.023999 0.000000 0.080898
#
#
# Mechanical properties :
#
#
# Convention : Reuss Voigt Hill
#
# Bulk Modulus (GPa) = 34.13888 58.95926 46.54907
# Shear Modulus (GPa) = 12.25065 20.80918 16.52992
#
# Velocity S-wave (km/s) = 2.65902 3.46552 3.08871
# Velocity P-wave (km/s) = 5.39723 7.07397 6.29171
#
# Compressibility (1/GPa) = 0.02929212
#
# Stress axis : x y z
#
# Youngs Moduli (GPa) = 21.11173 14.30570 67.10185
#
# Poissons Ratio (x) = 0.43852 0.61179
# Poissons Ratio (y) = 0.64715 0.78300
# Poissons Ratio (z) = 0.19248 0.16693
#
# Static dielectric constant tensor:
#      x y z
#    x 1.588090 0.000000 -0.003620 
#    y 0.000000 1.573310 0.000000 
#    z -0.003620 0.000000 1.576330 
# 
# From -- ./inp_files/31526.got.cif
#   From: 2010.05.17/outbox.cif.g08.bks.cpg/sg10_16_cif.got.tgz:31526.got - 2010.06.03 11:33:40.
