data_PCOD9143785
_publ_section_title
;
Structure prediction by ZEFSAII (Michael W. Deem and Ramdas Pophale) SiO2 
 PCOD9143785
Probable space group: P 2/M
;
_chemical_formula_sum "Si O2"
_cell_formula_units_Z 32
_cell_length_a 25.781433
_cell_length_b 13.422317
_cell_length_c 9.179817
_cell_angle_alpha 90.000000
_cell_angle_beta 149.078096
_cell_angle_gamma 90.000000
_cell_volume 1632.379749
_symmetry_space_group_name_H-M "P 2/M"
_symmetry_group_IT_number 10
_symmetry_cell_setting 'monoclinic'
loop_
_space_group_symop_operation_xyz
x,y,z
-x,y,-z
-x,-y,-z
x,-y,z
loop_
_atom_site_type_symbol
_atom_site_label
_atom_site_fract_x
_atom_site_fract_y
_atom_site_fract_z
Si Si1 0.608391 0.888535 0.185318
Si Si2 0.106328 0.888091 0.217277
Si Si3 0.199412 0.244020 0.654845
Si Si4 0.113145 0.879761 0.707963
Si Si5 0.426749 0.223864 0.196383
Si Si6 0.795498 0.614459 0.585817
Si Si7 0.448750 0.614040 0.026441
Si Si8 0.204622 0.797715 0.209151
O O1 0.683830 0.822468 0.464155
O O2 0.651901 0.000000 0.288781
O O3 0.500000 0.890361 0.000000
O O4 0.588857 0.851859 0.974453
O O5 0.196643 0.834189 0.514990
O O6 0.128724 0.876442 0.103169
O O7 0.102245 0.000000 0.258957
O O8 0.000000 0.838959 0.000000
O O9 0.128514 0.188623 0.600740
O O10 0.170088 0.342551 0.490421
O O11 0.314741 0.251262 0.984909
O O12 0.000000 0.872441 0.500000
O O13 0.134427 0.000000 0.737875
O O14 0.188355 0.824180 0.002724
O O15 0.500000 0.189111 0.500000
O O16 0.473059 0.319548 0.224626
O O17 0.827163 0.500000 0.684340
O O18 0.823525 0.690489 0.785562
O O19 0.672824 0.616454 0.283093
O O20 0.480941 0.500000 0.124736
O O21 0.500000 0.650051 0.000000
#
# Coordination Sequence:
#
# PCOD9143785 Si02
#       8
#     4   4   4   4   4   4   4   4
#     4  11  23  38  55  80 115 161 204 238 278 346
#     4  10  18  32  58  84 106 140 189 242 294 347
#     4  10  21  37  56  84 118 160 185 245 296 353
#     4  11  24  40  61  92 124 152 192 247 303 356
#     4  11  23  36  54  81 119 157 196 236 285 347
#     4   9  19  37  61  88 114 151 201 248 297 348
#     4   9  17  33  58  84 111 147 196 252 296 336
#     4  11  21  37  61  85 115 154 194 244 293 348
#
# _framework density 19.603283000000001
#
# number of rings (size 3 to 8) (size 9 to 14) (size 15 to 20)
#    0.000    1.750    3.750    2.625    1.750    3.000 
#    0.000    0.625    0.000   14.250    0.000    0.000 
#    0.000    0.000    0.000    0.000    0.000    0.000 
#
# Total GULP energy -178189.819490 kJ/mol
# GULP energy per Si atom -5568.431859 kJ/mol
# Density = 1.955866 g / cm^3
# Si number density = 19.603283 Si / 1000 Ang^3
#
#
#
# Elastic Constant Matrix: (Units=GPa)
#
#
# Indices 1 2 3 4 5 6 
#
# 1 88.9225 23.0479 15.3493 0.0000 -3.8937 0.0000
# 2 23.0479 123.5728 26.4241 0.0000 -9.0630 0.0000
# 3 15.3493 26.4241 73.1054 0.0000 -13.0614 0.0000
# 4 0.0000 0.0000 0.0000 -25.1659 0.0000 5.5451
# 5 -3.8937 -9.0630 -13.0614 0.0000 27.8117 0.0000
# 6 0.0000 0.0000 0.0000 5.5451 0.0000 28.0361
#
#
#
# Elastic Compliance Matrix: (Units=1/GPa)
#
#
# Indices 1 2 3 4 5 6 
#
# 1 0.012048 -0.001840 -0.001823 0.000000 0.000231 0.000000
# 2 -0.001840 0.009109 -0.002643 0.000000 0.001469 0.000000
# 3 -0.001823 -0.002643 0.016175 0.000000 0.006480 0.000000
# 4 0.000000 0.000000 0.000000 -0.038077 0.000000 0.007531
# 5 0.000231 0.001469 0.006480 0.000000 0.039510 0.000000
# 6 0.000000 0.000000 0.000000 0.007531 0.000000 0.034179
#
#
# Mechanical properties :
#
#
# Convention : Reuss Voigt Hill
#
# Bulk Modulus (GPa) = 40.45748 46.13816 43.29782
# Shear Modulus (GPa) = 53.30728 20.85501 37.08115
#
# Velocity S-wave (km/s) = 5.22035 3.26521 4.35395
# Velocity P-wave (km/s) = 7.55109 6.14838 6.88555
#
# Compressibility (1/GPa) = 0.02471731
#
# Stress axis : x y z
#
# Youngs Moduli (GPa) = 83.00461 109.78583 61.82448
#
# Poissons Ratio (x) = 0.20203 0.11271
# Poissons Ratio (y) = 0.15275 0.16343
# Poissons Ratio (z) = 0.15133 0.29022
#
# Static dielectric constant tensor:
#      x y z
#    x 1.754780 0.000000 0.016650 
#    y 0.000000 1.731040 0.000000 
#    z 0.016650 0.000000 1.721580 
# 
# From -- ./inp_files/37729.got.cif
#   From: 2010.05.17/outbox.cif.g08.bks.cpg/sg10_19_cif.got.tgz:37729.got - 2010.06.03 11:33:40.
