data_PCOD9143099
_publ_section_title
;
Structure prediction by ZEFSAII (Michael W. Deem and Ramdas Pophale) SiO2 
 PCOD9143099
Probable space group: P 2/M
;
_chemical_formula_sum "Si O2"
_cell_formula_units_Z 28
_cell_length_a 21.368965
_cell_length_b 13.658990
_cell_length_c 11.148603
_cell_angle_alpha 90.000000
_cell_angle_beta 19.865803
_cell_angle_gamma 90.000000
_cell_volume 1105.781350
_symmetry_space_group_name_H-M "P 2/M"
_symmetry_group_IT_number 10
_symmetry_cell_setting 'monoclinic'
loop_
_space_group_symop_operation_xyz
x,y,z
-x,y,-z
-x,-y,-z
x,-y,z
loop_
_atom_site_type_symbol
_atom_site_label
_atom_site_fract_x
_atom_site_fract_y
_atom_site_fract_z
Si Si1 0.222899 0.116611 0.220572
Si Si2 0.195224 0.196466 0.021661
Si Si3 0.208802 0.611631 0.542846
Si Si4 0.694308 0.610180 0.082033
Si Si5 0.234496 0.888901 0.703631
Si Si6 0.507414 0.389190 0.186738
Si Si7 0.174539 0.822222 0.557545
O O1 0.291852 0.150679 0.965321
O O2 0.289193 0.159392 0.229425
O O3 0.008643 0.150823 0.610304
O O4 0.234511 0.000000 0.205134
O O5 0.183193 0.312335 0.067658
O O6 0.285623 0.172069 0.730471
O O7 0.134678 0.500000 0.675571
O O8 0.308009 0.634503 0.491452
O O9 0.102867 0.709812 0.697340
O O10 0.363752 0.609026 0.161238
O O11 0.500000 0.605702 0.500000
O O12 0.771866 0.500000 0.933866
O O13 0.633165 0.654773 0.064149
O O14 0.280793 0.848397 0.488261
O O15 0.300529 0.000000 0.597629
O O16 0.010284 0.886811 0.110397
O O17 0.481105 0.500000 0.280766
#
# Coordination Sequence:
#
# PCOD9143099 Si02
#       7
#     4   4   4   4   4   4   4
#     4  10  19  35  58  81 102 133 178 223 260 309
#     4  10  19  33  55  81 101 135 177 213 262 308
#     4   9  17  30  51  77 103 131 169 211 250 300
#     4  10  21  35  52  76 108 142 175 210 251 310
#     4  10  20  35  51  74 103 132 170 211 255 314
#     4   8  16  32  50  70  98 134 172 205 243 289
#     4  10  18  30  52  79  99 135 172 203 258 308
#
# _framework density 25.321463000000001
#
# number of rings (size 3 to 8) (size 9 to 14) (size 15 to 20)
#    0.000    2.429    0.000    6.000    2.000    0.000 
#    0.000    5.714    0.000    3.857    0.000   15.000 
#    0.000    0.000    0.000    0.000    0.000    0.000 
#
# Total GULP energy -156192.236465 kJ/mol
# GULP energy per Si atom -5578.294159 kJ/mol
# Density = 2.526383 g / cm^3
# Si number density = 25.321463 Si / 1000 Ang^3
#
#
#
# Elastic Constant Matrix: (Units=GPa)
#
#
# Indices 1 2 3 4 5 6 
#
# 1 211.6711 62.8675 25.6357 0.0000 50.9174 0.0000
# 2 62.8675 186.2285 -5.1330 0.0000 1.3996 0.0000
# 3 25.6357 -5.1330 38.6353 0.0000 0.7753 0.0000
# 4 0.0000 0.0000 0.0000 -6.4540 0.0000 12.5168
# 5 50.9174 1.3996 0.7753 0.0000 33.7537 0.0000
# 6 0.0000 0.0000 0.0000 12.5168 0.0000 32.7625
#
#
#
# Elastic Compliance Matrix: (Units=1/GPa)
#
#
# Indices 1 2 3 4 5 6 
#
# 1 0.010282 -0.003549 -0.006989 0.000000 -0.015202 0.000000
# 2 -0.003549 0.006617 0.003134 0.000000 0.005008 0.000000
# 3 -0.006989 0.003134 0.030742 0.000000 0.009707 0.000000
# 4 0.000000 0.000000 0.000000 -0.089000 0.000000 0.034002
# 5 -0.015202 0.005008 0.009707 0.000000 0.052129 0.000000
# 6 0.000000 0.000000 0.000000 0.034002 0.000000 0.017532
#
#
# Mechanical properties :
#
#
# Convention : Reuss Voigt Hill
#
# Bulk Modulus (GPa) = 30.45859 67.03061 48.74460
# Shear Modulus (GPa) = 92.49874 35.55674 64.02774
#
# Velocity S-wave (km/s) = 6.05054 3.75135 5.03397
# Velocity P-wave (km/s) = 7.80173 6.72999 7.28560
#
# Compressibility (1/GPa) = 0.03283146
#
# Stress axis : x y z
#
# Youngs Moduli (GPa) = 97.25858 151.13313 32.52891
#
# Poissons Ratio (x) = 0.53642 0.22734
# Poissons Ratio (y) = 0.34520 -0.10194
# Poissons Ratio (z) = 0.67972 -0.47360
#
# Static dielectric constant tensor:
#      x y z
#    x 2.127960 0.000000 -0.012700 
#    y 0.000000 1.991540 0.000000 
#    z -0.012700 0.000000 1.993050 
# 
# From -- ./inp_files/55795.got.cif
#   From: 2010.05.17/outbox.cif.g08.bks.cpg/sg10_28_cif.got.tgz:55795.got - 2010.06.03 11:33:40.
