data_PCOD9143060
_publ_section_title
;
Structure prediction by ZEFSAII (Michael W. Deem and Ramdas Pophale) SiO2 
 PCOD9143060
Probable space group: P 2/M
;
_chemical_formula_sum "Si O2"
_cell_formula_units_Z 32
_cell_length_a 24.887334
_cell_length_b 13.994335
_cell_length_c 9.563811
_cell_angle_alpha 90.000000
_cell_angle_beta 149.849654
_cell_angle_gamma 90.000000
_cell_volume 1673.013784
_symmetry_space_group_name_H-M "P 2/M"
_symmetry_group_IT_number 10
_symmetry_cell_setting 'monoclinic'
loop_
_space_group_symop_operation_xyz
x,y,z
-x,y,-z
-x,-y,-z
x,-y,z
loop_
_atom_site_type_symbol
_atom_site_label
_atom_site_fract_x
_atom_site_fract_y
_atom_site_fract_z
Si Si1 0.776472 0.111258 0.043936
Si Si2 0.947980 0.112114 0.657629
Si Si3 0.276531 0.393510 0.331184
Si Si4 0.178421 0.805464 0.150461
Si Si5 0.484336 0.642961 0.622942
Si Si6 0.584640 0.845348 0.791178
Si Si7 0.746988 0.819798 0.379490
Si Si8 0.684121 0.603641 0.257181
O O1 0.888833 0.126228 0.375547
O O2 0.747203 0.000000 0.001851
O O3 0.786730 0.134421 0.905555
O O4 0.686057 0.173473 0.917536
O O5 0.857648 0.141579 0.565493
O O6 0.973403 0.000000 0.730461
O O7 0.056011 0.171262 0.910006
O O8 0.231074 0.500000 0.209146
O O9 0.194924 0.305650 0.149404
O O10 0.367877 0.375490 0.422207
O O11 0.328164 0.391190 0.602936
O O12 0.249293 0.830656 0.445595
O O13 0.500000 0.607208 0.500000
O O14 0.515432 0.754581 0.683449
O O15 0.571515 0.602243 0.925246
O O16 0.500000 0.899245 0.500000
O O17 0.649680 0.872692 0.078722
O O18 0.738231 0.704388 0.334293
O O19 0.738313 0.500000 0.349523
#
# Coordination Sequence:
#
# PCOD9143060 Si02
#       8
#     4   4   4   4   4   4   4   4
#     4  10  21  37  58  82 107 139 176 216 270 331
#     4  10  21  38  59  81 106 137 173 219 277 329
#     4  10  21  35  50  73 108 146 179 214 262 315
#     4  11  20  34  56  80 107 137 179 230 267 307
#     4  10  18  30  51  78 105 137 180 224 259 300
#     4   9  18  35  54  75 109 146 176 210 263 322
#     4   9  20  34  53  82 109 137 177 225 269 309
#     4   9  18  33  51  73 106 145 179 213 259 314
#
# _framework density 19.127158999999999
#
# number of rings (size 3 to 8) (size 9 to 14) (size 15 to 20)
#    0.000    2.250    0.000    3.375    0.000    4.750 
#    0.000    2.500    0.000    5.250    0.000    0.000 
#    0.000    0.000    0.000    0.000    0.000    0.000 
#
# Total GULP energy -178229.616321 kJ/mol
# GULP energy per Si atom -5569.675510 kJ/mol
# Density = 1.908363 g / cm^3
# Si number density = 19.127159 Si / 1000 Ang^3
#
#
#
# Elastic Constant Matrix: (Units=GPa)
#
#
# Indices 1 2 3 4 5 6 
#
# 1 62.2419 29.2416 28.8529 0.0000 -9.8100 0.0000
# 2 29.2416 94.6430 38.3201 0.0000 3.3230 0.0000
# 3 28.8529 38.3201 86.3065 0.0000 -2.8934 0.0000
# 4 0.0000 0.0000 0.0000 22.8273 0.0000 2.4826
# 5 -9.8100 3.3230 -2.8934 0.0000 26.8480 0.0000
# 6 0.0000 0.0000 0.0000 2.4826 0.0000 3.7522
#
#
#
# Elastic Compliance Matrix: (Units=1/GPa)
#
#
# Indices 1 2 3 4 5 6 
#
# 1 0.021989 -0.005138 -0.004796 0.000000 0.008154 0.000000
# 2 -0.005138 0.014215 -0.004733 0.000000 -0.004147 0.000000
# 3 -0.004796 -0.004733 0.015308 0.000000 0.000483 0.000000
# 4 0.000000 0.000000 0.000000 0.047204 0.000000 -0.031232
# 5 0.008154 -0.004147 0.000483 0.000000 0.040791 0.000000
# 6 0.000000 0.000000 0.000000 -0.031232 0.000000 0.287175
#
#
# Mechanical properties :
#
#
# Convention : Reuss Voigt Hill
#
# Bulk Modulus (GPa) = 45.09163 48.44673 46.76918
# Shear Modulus (GPa) = 10.78959 20.47063 15.63011
#
# Velocity S-wave (km/s) = 2.37765 3.27500 2.86172
# Velocity P-wave (km/s) = 5.58243 6.29957 5.95181
#
# Compressibility (1/GPa) = 0.02217707
#
# Stress axis : x y z
#
# Youngs Moduli (GPa) = 45.47788 70.34581 65.32658
#
# Poissons Ratio (x) = 0.36144 0.31333
# Poissons Ratio (y) = 0.23367 0.30919
# Poissons Ratio (z) = 0.21813 0.33295
#
# Static dielectric constant tensor:
#      x y z
#    x 1.643220 0.000000 -0.039780 
#    y 0.000000 1.712900 0.000000 
#    z -0.039780 0.000000 1.685430 
# 
# From -- ./inp_files/36338.got.cif
#   From: 2010.05.17/outbox.cif.g08.bks.cpg/sg10_19_cif.got.tgz:36338.got - 2010.06.03 11:33:40.
