data_PCOD9143851
_publ_section_title
;
Structure prediction by ZEFSAII (Michael W. Deem and Ramdas Pophale) SiO2 
 PCOD9143851
Probable space group: P 2/M
;
_chemical_formula_sum "Si O2"
_cell_formula_units_Z 28
_cell_length_a 9.683141
_cell_length_b 11.871178
_cell_length_c 16.536356
_cell_angle_alpha 90.000000
_cell_angle_beta 53.561488
_cell_angle_gamma 90.000000
_cell_volume 1529.231011
_symmetry_space_group_name_H-M "P 2/M"
_symmetry_group_IT_number 10
_symmetry_cell_setting 'monoclinic'
loop_
_space_group_symop_operation_xyz
x,y,z
-x,y,-z
-x,-y,-z
x,-y,z
loop_
_atom_site_type_symbol
_atom_site_label
_atom_site_fract_x
_atom_site_fract_y
_atom_site_fract_z
Si Si1 0.716089 0.500000 0.336813
Si Si2 0.443976 0.636446 0.834818
Si Si3 0.102564 0.867471 0.675732
Si Si4 0.844052 0.628371 0.934225
Si Si5 0.808690 0.280558 0.212211
Si Si6 0.182251 0.694341 0.240237
Si Si7 0.899626 0.294124 0.459298
Si Si8 0.322079 0.500000 0.457208
O O1 0.805662 0.388460 0.273387
O O2 0.522255 0.500000 0.371130
O O3 0.701399 0.500000 0.437679
O O4 0.454108 0.500000 0.819467
O O5 0.344840 0.697924 0.796138
O O6 0.632016 0.685879 0.784866
O O7 0.323347 0.654728 0.955263
O O8 0.190090 0.825414 0.728359
O O9 0.181466 0.799274 0.571695
O O10 0.907132 0.816820 0.743774
O O11 0.108081 0.000000 0.664484
O O12 0.893857 0.500000 0.937512
O O13 0.807208 0.637628 0.851293
O O14 0.006913 0.707695 0.895152
O O15 0.041110 0.645355 0.351991
O O16 0.769518 0.386303 0.538395
O O17 0.000000 0.241754 0.500000
#
# Coordination Sequence:
#
# PCOD9143851 Si02
#       8
#     2   4   4   4   4   4   4   2
#     4  11  20  32  55  79 115 160 172 228 289 351
#     4  11  21  30  54  93 121 150 184 231 284 348
#     4   9  21  41  63  78 105 159 201 236 280 332
#     4  10  18  33  54  80 121 158 190 219 280 353
#     4  11  20  35  57  81 120 151 189 229 289 335
#     4   9  21  34  56  78 116 148 187 239 280 328
#     4  10  22  35  57  85 109 145 187 233 284 347
#     4  11  21  34  52  85 119 146 187 220 287 362
#
# _framework density 18.309856
#
# number of rings (size 3 to 8) (size 9 to 14) (size 15 to 20)
#    0.857    1.000    2.857    1.500    4.000    2.571 
#    0.000    0.714    0.000   15.429    0.000    0.000 
#    0.000    0.000    0.000    0.000    0.000    0.000 
#
# Total GULP energy -156011.973930 kJ/mol
# GULP energy per Si atom -5571.856212 kJ/mol
# Density = 1.826818 g / cm^3
# Si number density = 18.309856 Si / 1000 Ang^3
#
#
#
# Elastic Constant Matrix: (Units=GPa)
#
#
# Indices 1 2 3 4 5 6 
#
# 1 117.9424 18.1038 12.1859 0.0000 5.4670 0.0000
# 2 18.1038 89.2818 5.4472 0.0000 0.7066 0.0000
# 3 12.1859 5.4472 49.7741 0.0000 8.8072 0.0000
# 4 0.0000 0.0000 0.0000 -0.7598 0.0000 1.0568
# 5 5.4670 0.7066 8.8072 0.0000 30.3319 0.0000
# 6 0.0000 0.0000 0.0000 1.0568 0.0000 13.2666
#
#
#
# Elastic Compliance Matrix: (Units=1/GPa)
#
#
# Indices 1 2 3 4 5 6 
#
# 1 0.008977 -0.001701 -0.001826 0.000000 -0.001048 0.000000
# 2 -0.001701 0.011598 -0.000906 0.000000 0.000299 0.000000
# 3 -0.001826 -0.000906 0.021689 0.000000 -0.005948 0.000000
# 4 0.000000 0.000000 0.000000 -1.184895 0.000000 0.094389
# 5 -0.001048 0.000299 -0.005948 0.000000 0.034877 0.000000
# 6 0.000000 0.000000 0.000000 0.094389 0.000000 0.067858
#
#
# Mechanical properties :
#
#
# Convention : Reuss Voigt Hill
#
# Bulk Modulus (GPa) = 29.94081 36.49689 33.21885
# Shear Modulus (GPa) = -4.90246 23.31850 9.20802
#
# Velocity S-wave (km/s) = -1.63808 3.57255 2.24498
# Velocity P-wave (km/s) = 3.57911 6.08225 4.99018
#
# Compressibility (1/GPa) = 0.03339923
#
# Stress axis : x y z
#
# Youngs Moduli (GPa) = 111.39556 86.22013 46.10543
#
# Poissons Ratio (x) = 0.14662 0.08420
# Poissons Ratio (y) = 0.18944 0.04177
# Poissons Ratio (z) = 0.20343 0.07811
#
# Static dielectric constant tensor:
#      x y z
#    x 1.670040 0.000000 0.019210 
#    y 0.000000 1.598780 0.000000 
#    z 0.019210 0.000000 1.664900 
# 
# From -- ./inp_files/61171.got.cif
#   From: 2010.05.17/outbox.cif.g08.bks.cpg/sg10_31_cif.got.tgz:61171.got - 2010.06.03 11:33:40.
