data_PCOD9143348
_publ_section_title
;
Structure prediction by ZEFSAII (Michael W. Deem and Ramdas Pophale) SiO2 
 PCOD9143348
Probable space group: P 2/M
;
_chemical_formula_sum "Si O2"
_cell_formula_units_Z 30
_cell_length_a 25.429489
_cell_length_b 14.367949
_cell_length_c 10.073345
_cell_angle_alpha 90.000000
_cell_angle_beta 24.645352
_cell_angle_gamma 90.000000
_cell_volume 1534.767342
_symmetry_space_group_name_H-M "P 2/M"
_symmetry_group_IT_number 10
_symmetry_cell_setting 'monoclinic'
loop_
_space_group_symop_operation_xyz
x,y,z
-x,y,-z
-x,-y,-z
x,-y,z
loop_
_atom_site_type_symbol
_atom_site_label
_atom_site_fract_x
_atom_site_fract_y
_atom_site_fract_z
Si Si1 0.500000 0.758600 0.000000
Si Si2 0.257920 0.294786 0.398889
Si Si3 0.250484 0.894448 0.283766
Si Si4 0.790664 0.106188 0.929550
Si Si5 0.201784 0.389294 0.269265
Si Si6 0.858713 0.301754 0.855613
Si Si7 0.907083 0.389342 0.010010
Si Si8 0.455626 0.895851 0.338289
O O1 0.615347 0.705317 0.804184
O O2 0.556786 0.823156 0.752412
O O3 0.215666 0.188928 0.462344
O O4 0.281971 0.343491 0.202273
O O5 0.149462 0.348485 0.726248
O O6 0.216224 0.000000 0.403944
O O7 0.200845 0.879319 0.248266
O O8 0.402949 0.889881 0.930243
O O9 0.646745 0.114651 0.311290
O O10 0.831942 0.000000 0.864173
O O11 0.857885 0.190329 0.850610
O O12 0.218178 0.500000 0.222928
O O13 0.223399 0.341715 0.076987
O O14 0.055748 0.370300 0.647310
O O15 0.000000 0.336307 0.500000
O O16 0.831486 0.341628 0.062265
O O17 0.890942 0.500000 0.043398
O O18 0.438807 0.000000 0.321015
#
# Coordination Sequence:
#
# PCOD9143348 Si02
#       8
#     2   4   4   4   4   4   4   4
#     4  10  21  32  49  80 114 146 172 214 272 324
#     4  11  20  35  55  81 110 143 177 219 272 320
#     4   9  18  32  52  79 109 140 178 222 261 305
#     4  10  18  31  52  79 109 144 179 213 258 315
#     4  10  20  37  60  81 101 135 184 232 273 316
#     4  10  20  35  55  82 109 139 173 222 275 320
#     4  10  21  37  59  83 106 134 180 235 275 311
#     4   9  17  30  50  75 104 140 184 223 255 298
#
# _framework density 19.546937
#
# number of rings (size 3 to 8) (size 9 to 14) (size 15 to 20)
#    0.000    2.133    1.333    2.600    0.000    5.067 
#    0.000    2.000    0.000    2.400    0.000    3.733 
#    0.000    0.000    0.000    0.000    0.000    0.000 
#
# Total GULP energy -167342.930545 kJ/mol
# GULP energy per Si atom -5578.097685 kJ/mol
# Density = 1.950245 g / cm^3
# Si number density = 19.546937 Si / 1000 Ang^3
#
#
#
# Elastic Constant Matrix: (Units=GPa)
#
#
# Indices 1 2 3 4 5 6 
#
# 1 85.7337 37.8661 10.6683 0.0000 15.3595 0.0000
# 2 37.8661 77.3287 7.8995 0.0000 1.6878 0.0000
# 3 10.6683 7.8995 11.5283 0.0000 3.0985 0.0000
# 4 0.0000 0.0000 0.0000 7.2353 0.0000 17.7282
# 5 15.3595 1.6878 3.0985 0.0000 19.0518 0.0000
# 6 0.0000 0.0000 0.0000 17.7282 0.0000 20.9853
#
#
#
# Elastic Compliance Matrix: (Units=1/GPa)
#
#
# Indices 1 2 3 4 5 6 
#
# 1 0.018499 -0.007938 -0.008220 0.000000 -0.012874 0.000000
# 2 -0.007938 0.017313 -0.006092 0.000000 0.005857 0.000000
# 3 -0.008220 -0.006092 0.101013 0.000000 -0.009262 0.000000
# 4 0.000000 0.000000 0.000000 -0.129176 0.000000 0.109127
# 5 -0.012874 0.005857 -0.009262 0.000000 0.063855 0.000000
# 6 0.000000 0.000000 0.000000 0.109127 0.000000 -0.044537
#
#
# Mechanical properties :
#
#
# Convention : Reuss Voigt Hill
#
# Bulk Modulus (GPa) = 10.83109 31.93987 21.38548
# Shear Modulus (GPa) = 48.90287 17.33158 33.11722
#
# Velocity S-wave (km/s) = 5.00724 2.98092 4.12058
# Velocity P-wave (km/s) = 6.24364 5.31257 5.79683
#
# Compressibility (1/GPa) = 0.09232683
#
# Stress axis : x y z
#
# Youngs Moduli (GPa) = 54.05616 57.75893 9.89967
#
# Poissons Ratio (x) = 0.45849 0.08137
# Poissons Ratio (y) = 0.42910 0.06031
# Poissons Ratio (z) = 0.44433 0.35186
#
# Static dielectric constant tensor:
#      x y z
#    x 1.718630 0.000000 -0.002760 
#    y 0.000000 1.695990 0.000000 
#    z -0.002760 0.000000 1.668990 
# 
# From -- ./inp_files/36295.got.cif
#   From: 2010.05.17/outbox.cif.g08.bks.cpg/sg10_19_cif.got.tgz:36295.got - 2010.06.03 11:33:40.
