data_PCOD9143593
_publ_section_title
;
Structure prediction by ZEFSAII (Michael W. Deem and Ramdas Pophale) SiO2 
 PCOD9143593
Probable space group: P 2/M
;
_chemical_formula_sum "Si O2"
_cell_formula_units_Z 26
_cell_length_a 14.327291
_cell_length_b 18.861733
_cell_length_c 5.143853
_cell_angle_alpha 90.000000
_cell_angle_beta 67.887122
_cell_angle_gamma 90.000000
_cell_volume 1287.814819
_symmetry_space_group_name_H-M "P 2/M"
_symmetry_group_IT_number 10
_symmetry_cell_setting 'monoclinic'
loop_
_space_group_symop_operation_xyz
x,y,z
-x,y,-z
-x,-y,-z
x,-y,z
loop_
_atom_site_type_symbol
_atom_site_label
_atom_site_fract_x
_atom_site_fract_y
_atom_site_fract_z
Si Si1 0.569870 0.711360 0.177528
Si Si2 0.767452 0.779734 0.864312
Si Si3 0.874547 0.726513 0.279351
Si Si4 0.114150 0.080017 0.261211
Si Si5 0.858094 0.421733 0.426807
Si Si6 0.000000 0.153859 0.000000
Si Si7 0.717952 0.578418 0.072693
O O1 0.500000 0.718941 0.500000
O O2 0.637591 0.640331 0.128066
O O3 0.500000 0.707643 0.000000
O O4 0.651905 0.773852 0.064822
O O5 0.786365 0.735651 0.581861
O O6 0.807884 0.858184 0.754200
O O7 0.831092 0.744356 0.037522
O O8 0.919262 0.649101 0.292369
O O9 0.955052 0.788702 0.247976
O O10 0.000000 0.084444 0.500000
O O11 0.149159 0.000000 0.259235
O O12 0.088761 0.102020 0.991156
O O13 0.907020 0.500000 0.356326
O O14 0.770591 0.418724 0.299082
O O15 0.805629 0.416138 0.762953
O O16 0.672088 0.500000 0.088061
#
# Coordination Sequence:
#
# PCOD9143593 Si02
#       7
#     4   4   4   4   4   2   4
#     4  12  23  36  57  80 112 151 201 239 277 335
#     4  11  22  38  58  84 117 153 187 231 288 340
#     4  11  19  35  56  80 115 152 192 231 283 342
#     4  10  20  37  61  93 123 145 178 226 290 354
#     4  10  18  32  53  75 107 152 193 236 285 335
#     4  10  21  32  57  90 122 150 180 232 281 344
#     4  10  20  34  52  77 107 141 188 246 301 335
#
# _framework density 20.189239000000001
#
# number of rings (size 3 to 8) (size 9 to 14) (size 15 to 20)
#    0.000    1.385    4.615    2.077    0.000    0.615 
#    0.000    0.385    0.000    0.923    0.000    6.462 
#    0.000    0.000    0.000    0.000    0.000    0.000 
#
# Total GULP energy -144974.838020 kJ/mol
# GULP energy per Si atom -5575.955308 kJ/mol
# Density = 2.014329 g / cm^3
# Si number density = 20.189239 Si / 1000 Ang^3
#
#
#
# Elastic Constant Matrix: (Units=GPa)
#
#
# Indices 1 2 3 4 5 6 
#
# 1 37.6615 3.0144 15.3818 0.0000 6.6865 0.0000
# 2 3.0144 158.4862 25.8998 0.0000 -14.6911 0.0000
# 3 15.3818 25.8998 114.3276 0.0000 -3.7453 0.0000
# 4 0.0000 0.0000 0.0000 22.2773 0.0000 -9.3083
# 5 6.6865 -14.6911 -3.7453 0.0000 31.1848 0.0000
# 6 0.0000 0.0000 0.0000 -9.3083 0.0000 29.9353
#
#
#
# Elastic Compliance Matrix: (Units=1/GPa)
#
#
# Indices 1 2 3 4 5 6 
#
# 1 0.029519 -0.000551 -0.004079 0.000000 -0.007079 0.000000
# 2 -0.000551 0.006839 -0.001371 0.000000 0.003175 0.000000
# 3 -0.004079 -0.001371 0.009652 0.000000 0.001388 0.000000
# 4 0.000000 0.000000 0.000000 0.051592 0.000000 0.016042
# 5 -0.007079 0.003175 0.001388 0.000000 0.035247 0.000000
# 6 0.000000 0.000000 0.000000 0.016042 0.000000 0.038394
#
#
# Mechanical properties :
#
#
# Convention : Reuss Voigt Hill
#
# Bulk Modulus (GPa) = 29.40513 44.34080 36.87297
# Shear Modulus (GPa) = 25.69649 34.42477 30.06063
#
# Velocity S-wave (km/s) = 3.57148 4.13377 3.86287
# Velocity P-wave (km/s) = 5.62171 6.69286 6.18053
#
# Compressibility (1/GPa) = 0.03400767
#
# Stress axis : x y z
#
# Youngs Moduli (GPa) = 33.87651 146.22958 103.60991
#
# Poissons Ratio (x) = 0.08059 0.42258
# Poissons Ratio (y) = 0.01867 0.14205
# Poissons Ratio (z) = 0.13817 0.20049
#
# Static dielectric constant tensor:
#      x y z
#    x 1.732350 0.000000 0.035200 
#    y 0.000000 1.764220 0.000000 
#    z 0.035200 0.000000 1.798090 
# 
# From -- ./inp_files/9941.got.cif
#   From: 2010.05.17/outbox.cif.g08.bks.cpg/sg10_5_cif.got.tgz:9941.got - 2010.06.03 11:33:40.
