data_PCOD9143420
_publ_section_title
;
Structure prediction by ZEFSAII (Michael W. Deem and Ramdas Pophale) SiO2 
 PCOD9143420
Probable space group: P 2/M
;
_chemical_formula_sum "Si O2"
_cell_formula_units_Z 32
_cell_length_a 25.558909
_cell_length_b 7.410668
_cell_length_c 20.157535
_cell_angle_alpha 90.000000
_cell_angle_beta 22.486449
_cell_angle_gamma 90.000000
_cell_volume 1460.254972
_symmetry_space_group_name_H-M "P 2/M"
_symmetry_group_IT_number 10
_symmetry_cell_setting 'monoclinic'
loop_
_space_group_symop_operation_xyz
x,y,z
-x,y,-z
-x,-y,-z
x,-y,z
loop_
_atom_site_type_symbol
_atom_site_label
_atom_site_fract_x
_atom_site_fract_y
_atom_site_fract_z
Si Si1 0.608841 0.209554 0.037382
Si Si2 0.888244 0.290503 0.444209
Si Si3 0.378739 0.718109 0.823433
Si Si4 0.884571 0.720373 0.083955
Si Si5 0.420284 0.720027 0.527116
Si Si6 0.916832 0.218638 0.662299
Si Si7 0.599338 0.705065 0.827577
Si Si8 0.089324 0.279118 0.099225
O O1 0.760309 0.281420 0.843347
O O2 0.605411 0.000000 0.022178
O O3 0.594500 0.223587 0.133096
O O4 0.488902 0.298917 0.136148
O O5 0.856611 0.500000 0.466617
O O6 0.003506 0.281630 0.365906
O O7 0.747027 0.210837 0.638159
O O8 0.959779 0.216172 0.294188
O O9 0.377080 0.500000 0.825058
O O10 0.495866 0.778875 0.635416
O O11 0.230335 0.776867 0.970027
O O12 0.884579 0.500000 0.083016
O O13 0.735774 0.778040 0.283572
O O14 0.909318 0.776786 0.978997
O O15 0.000000 0.778729 0.000000
O O16 0.500000 0.774772 0.500000
O O17 0.420494 0.500000 0.525999
O O18 0.000000 0.274502 0.500000
O O19 0.914745 0.000000 0.667246
O O20 0.627803 0.500000 0.818047
O O21 0.500000 0.787618 0.000000
O O22 0.088612 0.500000 0.101075
#
# Coordination Sequence:
#
# PCOD9143420 Si02
#       8
#     4   4   4   4   4   4   4   4
#     4  11  23  37  55  80 109 142 182 223 266 321
#     4  10  20  34  55  80 106 139 178 217 266 324
#     4  10  18  31  54  78 106 139 174 223 271 313
#     4   9  16  25  40  68 105 136 167 211 260 312
#     4   9  15  25  44  71  99 134 175 211 261 320
#     4  10  21  36  54  78 106 136 176 222 264 313
#     4  10  22  39  57  80 111 144 179 221 270 324
#     4   9  16  28  47  74 107 137 167 215 271 315
#
# _framework density 21.913983000000002
#
# number of rings (size 3 to 8) (size 9 to 14) (size 15 to 20)
#    0.000    2.250    2.500    1.125    0.000    2.500 
#    0.000    3.750    0.000    0.375    0.000    0.000 
#    0.000    2.500    0.000    0.000    0.000    0.000 
#
# Total GULP energy -178811.056087 kJ/mol
# GULP energy per Si atom -5587.845503 kJ/mol
# Density = 2.186411 g / cm^3
# Si number density = 21.913983 Si / 1000 Ang^3
#
#
#
# Elastic Constant Matrix: (Units=GPa)
#
#
# Indices 1 2 3 4 5 6 
#
# 1 80.9677 -4.9553 20.0029 0.0000 5.4120 0.0000
# 2 -4.9553 73.8441 8.9088 0.0000 0.1744 0.0000
# 3 20.0029 8.9088 144.6531 0.0000 10.9961 0.0000
# 4 0.0000 0.0000 0.0000 77.9036 0.0000 18.6089
# 5 5.4120 0.1744 10.9961 0.0000 46.6839 0.0000
# 6 0.0000 0.0000 0.0000 18.6089 0.0000 26.3161
#
#
#
# Elastic Compliance Matrix: (Units=1/GPa)
#
#
# Indices 1 2 3 4 5 6 
#
# 1 0.012927 0.001084 -0.001772 0.000000 -0.001085 0.000000
# 2 0.001084 0.013735 -0.001000 0.000000 0.000059 0.000000
# 3 -0.001772 -0.001000 0.007335 0.000000 -0.001519 0.000000
# 4 0.000000 0.000000 0.000000 0.015445 0.000000 -0.010922
# 5 -0.001085 0.000059 -0.001519 0.000000 0.021904 0.000000
# 6 0.000000 0.000000 0.000000 -0.010922 0.000000 0.045723
#
#
# Mechanical properties :
#
#
# Convention : Reuss Voigt Hill
#
# Bulk Modulus (GPa) = 32.65724 38.59752 35.62738
# Shear Modulus (GPa) = 38.26925 48.54794 43.40860
#
# Velocity S-wave (km/s) = 4.18346 4.71190 4.45552
# Velocity P-wave (km/s) = 6.18627 6.87416 6.53926
#
# Compressibility (1/GPa) = 0.03062108
#
# Stress axis : x y z
#
# Youngs Moduli (GPa) = 77.35626 72.80506 136.32992
#
# Poissons Ratio (x) = -0.07891 0.24156
# Poissons Ratio (y) = -0.08384 0.13636
# Poissons Ratio (z) = 0.13706 0.07282
#
# Static dielectric constant tensor:
#      x y z
#    x 1.730650 0.000000 0.013090 
#    y 0.000000 1.829130 0.000000 
#    z 0.013090 0.000000 1.797730 
# 
# From -- ./inp_files/86902.got.cif
#   From: 2010.05.17/outbox.cif.g08.bks.cpg/sg10_44_cif.got.tgz:86902.got - 2010.06.03 11:33:40.
