data_PCOD9143627
_publ_section_title
;
Structure prediction by ZEFSAII (Michael W. Deem and Ramdas Pophale) SiO2 
 PCOD9143627
Probable space group: P 2/M
;
_chemical_formula_sum "Si O2"
_cell_formula_units_Z 28
_cell_length_a 12.184747
_cell_length_b 7.478271
_cell_length_c 24.124650
_cell_angle_alpha 90.000000
_cell_angle_beta 150.425417
_cell_angle_gamma 90.000000
_cell_volume 1084.963833
_symmetry_space_group_name_H-M "P 2/M"
_symmetry_group_IT_number 10
_symmetry_cell_setting 'monoclinic'
loop_
_space_group_symop_operation_xyz
x,y,z
-x,y,-z
-x,-y,-z
x,-y,z
loop_
_atom_site_type_symbol
_atom_site_label
_atom_site_fract_x
_atom_site_fract_y
_atom_site_fract_z
Si Si1 0.515788 0.252868 0.909170
Si Si2 0.257709 0.794139 0.383942
Si Si3 0.176956 0.282470 0.471152
Si Si4 0.278284 0.701662 0.689102
Si Si5 0.178308 0.207597 0.860406
Si Si6 0.581173 0.717495 0.723016
Si Si7 0.056952 0.717086 0.960879
O O1 0.368767 0.313531 0.791692
O O2 0.319574 0.196665 0.865235
O O3 0.683489 0.313772 0.032956
O O4 0.722279 0.186494 0.962108
O O5 0.500000 0.709145 0.500000
O O6 0.155244 0.789552 0.400110
O O7 0.067015 0.719251 0.260237
O O8 0.291604 0.000000 0.381225
O O9 0.168728 0.500000 0.465398
O O10 0.413840 0.230927 0.600840
O O11 0.967252 0.217804 0.414934
O O12 0.244153 0.500000 0.652587
O O13 0.459223 0.778185 0.726255
O O14 0.169029 0.000000 0.875290
O O15 0.596206 0.500000 0.731121
O O16 0.835668 0.774722 0.831240
O O17 0.099342 0.500000 0.974226
O O18 0.000000 0.746020 0.000000
#
# Coordination Sequence:
#
# PCOD9143627 Si02
#       7
#     4   4   4   4   4   4   4
#     4  11  19  33  57  81 105 148 186 234 272 333
#     4  10  22  41  62  80 106 147 190 231 283 344
#     4  10  20  35  58  86 113 144 187 237 283 329
#     4  10  18  32  53  83 117 147 183 225 276 341
#     4  10  23  42  60  78 102 143 197 243 286 334
#     4   9  18  32  52  79 115 154 183 218 276 344
#     4  10  19  32  51  81 120 153 180 219 277 346
#
# _framework density 25.807314000000002
#
# number of rings (size 3 to 8) (size 9 to 14) (size 15 to 20)
#    0.000    2.000    2.857    1.714    2.000    2.000 
#    0.000    7.143    0.000    5.143    0.000    0.000 
#    0.000    0.000    0.000    0.000    0.000    0.000 
#
# Total GULP energy -155924.631413 kJ/mol
# GULP energy per Si atom -5568.736836 kJ/mol
# Density = 2.574858 g / cm^3
# Si number density = 25.807314 Si / 1000 Ang^3
#
#
#
# Elastic Constant Matrix: (Units=GPa)
#
#
# Indices 1 2 3 4 5 6 
#
# 1 95.2217 5.2354 5.3696 0.0000 2.9716 0.0000
# 2 5.2354 83.3326 13.9194 0.0000 3.1313 0.0000
# 3 5.3696 13.9194 191.2005 0.0000 17.1875 0.0000
# 4 0.0000 0.0000 0.0000 210.1353 0.0000 22.5708
# 5 2.9716 3.1313 17.1875 0.0000 59.0716 0.0000
# 6 0.0000 0.0000 0.0000 22.5708 0.0000 10.2718
#
#
#
# Elastic Compliance Matrix: (Units=1/GPa)
#
#
# Indices 1 2 3 4 5 6 
#
# 1 0.010561 -0.000612 -0.000213 0.000000 -0.000437 0.000000
# 2 -0.000612 0.012192 -0.000837 0.000000 -0.000372 0.000000
# 3 -0.000213 -0.000837 0.005434 0.000000 -0.001526 0.000000
# 4 0.000000 0.000000 0.000000 0.006229 0.000000 -0.013687
# 5 -0.000437 -0.000372 -0.001526 0.000000 0.017414 0.000000
# 6 0.000000 0.000000 0.000000 -0.013687 0.000000 0.127430
#
#
# Mechanical properties :
#
#
# Convention : Reuss Voigt Hill
#
# Bulk Modulus (GPa) = 40.21729 46.53375 43.37552
# Shear Modulus (GPa) = 26.19560 78.91111 52.55336
#
# Velocity S-wave (km/s) = 3.18943 5.53565 4.51752
# Velocity P-wave (km/s) = 5.40193 7.67647 6.63736
#
# Compressibility (1/GPa) = 0.02486493
#
# Stress axis : x y z
#
# Youngs Moduli (GPa) = 94.68738 82.01897 184.01964
#
# Poissons Ratio (x) = 0.05016 0.03916
# Poissons Ratio (y) = 0.05791 0.15402
# Poissons Ratio (z) = 0.02015 0.06865
#
# Static dielectric constant tensor:
#      x y z
#    x 2.007850 0.000000 0.010570 
#    y 0.000000 2.215810 0.000000 
#    z 0.010570 0.000000 2.012940 
# 
# From -- ./inp_files/88866.got.cif
#   From: 2010.05.17/outbox.cif.g08.bks.cpg/sg10_45_cif.got.tgz:88866.got - 2010.06.03 11:33:40.
