data_PCOD9143302
_publ_section_title
;
Structure prediction by ZEFSAII (Michael W. Deem and Ramdas Pophale) SiO2 
 PCOD9143302
Probable space group: P 2/M
;
_chemical_formula_sum "Si O2"
_cell_formula_units_Z 30
_cell_length_a 12.967937
_cell_length_b 14.727294
_cell_length_c 19.299102
_cell_angle_alpha 90.000000
_cell_angle_beta 26.808616
_cell_angle_gamma 90.000000
_cell_volume 1662.336025
_symmetry_space_group_name_H-M "P 2/M"
_symmetry_group_IT_number 10
_symmetry_cell_setting 'monoclinic'
loop_
_space_group_symop_operation_xyz
x,y,z
-x,y,-z
-x,-y,-z
x,-y,z
loop_
_atom_site_type_symbol
_atom_site_label
_atom_site_fract_x
_atom_site_fract_y
_atom_site_fract_z
Si Si1 0.928350 0.891722 0.831765
Si Si2 0.516296 0.108577 0.175033
Si Si3 0.631563 0.392427 0.822530
Si Si4 0.727793 0.259435 0.404205
Si Si5 0.199606 0.895405 0.240552
Si Si6 0.000000 0.321650 0.500000
Si Si7 0.257201 0.192068 0.451706
Si Si8 0.154268 0.610214 0.158494
O O1 0.789264 0.861463 0.845260
O O2 0.154110 0.831558 0.697307
O O3 0.971501 0.000000 0.798868
O O4 0.767893 0.877445 0.993935
O O5 0.345087 0.144651 0.216790
O O6 0.455930 0.154787 0.283505
O O7 0.478487 0.000000 0.204888
O O8 0.610351 0.500000 0.843657
O O9 0.791983 0.373870 0.661323
O O10 0.760246 0.362373 0.815571
O O11 0.367886 0.360483 0.981432
O O12 0.500000 0.283138 0.500000
O O13 0.675762 0.236260 0.515747
O O14 0.921204 0.337076 0.283727
O O15 0.932171 0.885543 0.419340
O O16 0.272622 0.000000 0.193657
O O17 0.884137 0.262860 0.509538
O O18 0.124063 0.500000 0.173915
#
# Coordination Sequence:
#
# PCOD9143302 Si02
#       8
#     4   4   4   4   4   2   4   4
#     4   9  20  35  54  79 108 148 194 236 280 332
#     4  10  18  31  51  78 112 145 179 233 293 344
#     4   9  19  35  58  87 119 145 171 222 287 349
#     4  11  24  41  58  78 110 155 201 239 276 327
#     4   9  16  29  47  74 112 145 175 219 279 346
#     4  12  19  30  53  90 120 144 166 220 287 352
#     4  11  21  31  48  82 111 145 186 224 283 335
#     4   9  19  38  61  87 113 146 189 230 278 334
#
# _framework density 18.046892
#
# number of rings (size 3 to 8) (size 9 to 14) (size 15 to 20)
#    0.000    2.133    2.667    1.800    1.867    3.733 
#    2.400    0.667    0.000    1.600    0.000    1.867 
#    0.000    0.000    0.000    0.000    0.000    0.000 
#
# Total GULP energy -167268.797481 kJ/mol
# GULP energy per Si atom -5575.626583 kJ/mol
# Density = 1.800582 g / cm^3
# Si number density = 18.046892 Si / 1000 Ang^3
#
#
#
# Elastic Constant Matrix: (Units=GPa)
#
#
# Indices 1 2 3 4 5 6 
#
# 1 79.6683 28.3770 64.9470 0.0000 -9.4449 0.0000
# 2 28.3770 52.8153 44.0584 0.0000 -6.6158 0.0000
# 3 64.9470 44.0584 143.3399 0.0000 12.3907 0.0000
# 4 0.0000 0.0000 0.0000 19.5604 0.0000 -2.1368
# 5 -9.4449 -6.6158 12.3907 0.0000 30.7788 0.0000
# 6 0.0000 0.0000 0.0000 -2.1368 0.0000 11.4824
#
#
#
# Elastic Compliance Matrix: (Units=1/GPa)
#
#
# Indices 1 2 3 4 5 6 
#
# 1 0.023623 -0.002076 -0.011037 0.000000 0.011246 0.000000
# 2 -0.002076 0.028260 -0.008512 0.000000 0.008864 0.000000
# 3 -0.011037 -0.008512 0.015587 0.000000 -0.011492 0.000000
# 4 0.000000 0.000000 0.000000 0.052185 0.000000 0.009711
# 5 0.011246 0.008864 -0.011492 0.000000 0.042472 0.000000
# 6 0.000000 0.000000 0.000000 0.009711 0.000000 0.088897
#
#
# Mechanical properties :
#
#
# Convention : Reuss Voigt Hill
#
# Bulk Modulus (GPa) = 41.28945 61.17647 51.23296
# Shear Modulus (GPa) = 16.53726 21.59374 19.06550
#
# Velocity S-wave (km/s) = 3.03041 3.46285 3.25382
# Velocity P-wave (km/s) = 5.93070 7.06828 6.52433
#
# Compressibility (1/GPa) = 0.02421926
#
# Stress axis : x y z
#
# Youngs Moduli (GPa) = 42.33232 35.38531 64.15567
#
# Poissons Ratio (x) = 0.07346 0.70811
# Poissons Ratio (y) = 0.08789 0.54609
# Poissons Ratio (z) = 0.46724 0.30120
#
# Static dielectric constant tensor:
#      x y z
#    x 1.599980 0.000000 0.019600 
#    y 0.000000 1.668110 0.000000 
#    z 0.019600 0.000000 1.658450 
# 
# From -- ./inp_files/76904.got.cif
#   From: 2010.05.17/outbox.cif.g08.bks.cpg/sg10_39_cif.got.tgz:76904.got - 2010.06.03 11:33:40.
