data_PCOD9143314
_publ_section_title
;
Structure prediction by ZEFSAII (Michael W. Deem and Ramdas Pophale) SiO2 
 PCOD9143314
Probable space group: P 2/M
;
_chemical_formula_sum "Si O2"
_cell_formula_units_Z 32
_cell_length_a 23.894235
_cell_length_b 7.975685
_cell_length_c 21.704660
_cell_angle_alpha 90.000000
_cell_angle_beta 24.295765
_cell_angle_gamma 90.000000
_cell_volume 1701.876345
_symmetry_space_group_name_H-M "P 2/M"
_symmetry_group_IT_number 10
_symmetry_cell_setting 'monoclinic'
loop_
_space_group_symop_operation_xyz
x,y,z
-x,y,-z
-x,-y,-z
x,-y,z
loop_
_atom_site_type_symbol
_atom_site_label
_atom_site_fract_x
_atom_site_fract_y
_atom_site_fract_z
Si Si1 0.041310 0.805065 0.307703
Si Si2 0.587891 0.806358 0.475315
Si Si3 0.672850 0.800679 0.201932
Si Si4 0.540462 0.704850 0.088497
Si Si5 0.237602 0.297080 0.364293
Si Si6 0.777260 0.702830 0.760994
Si Si7 0.727659 0.694796 0.010983
Si Si8 0.844309 0.206045 0.147182
O O1 0.107228 0.762520 0.308031
O O2 0.129141 0.711392 0.168005
O O3 0.884063 0.759262 0.470093
O O4 0.058778 0.000000 0.278125
O O5 0.500000 0.807689 0.500000
O O6 0.479604 0.730341 0.632009
O O7 0.735225 0.735867 0.308552
O O8 0.613636 0.000000 0.467577
O O9 0.779382 0.739976 0.146820
O O10 0.661435 0.000000 0.224168
O O11 0.721531 0.774440 0.083987
O O12 0.541099 0.500000 0.089063
O O13 0.386244 0.760528 0.236210
O O14 0.634411 0.752050 0.936026
O O15 0.617005 0.764264 0.073239
O O16 0.238285 0.500000 0.362264
O O17 0.211758 0.238500 0.320001
O O18 0.783500 0.500000 0.754193
O O19 0.697224 0.500000 0.050348
O O20 0.843976 0.000000 0.148760
O O21 0.000000 0.259715 0.000000
#
# Coordination Sequence:
#
# PCOD9143314 Si02
#       8
#     4   4   4   4   4   4   4   4
#     4  11  22  34  48  69  99 130 161 199 242 289
#     4   7  11  21  39  64  92 121 149 178 218 267
#     4   9  16  28  48  71  95 124 159 196 234 278
#     4   8  16  31  51  72  92 120 161 204 239 281
#     4  10  18  31  52  74  96 123 157 199 247 295
#     4   9  17  31  52  75  96 123 159 195 239 297
#     4  10  20  36  54  69  90 126 170 205 241 290
#     4   8  13  23  43  72 102 128 155 189 228 272
#
# _framework density 18.802776000000001
#
# number of rings (size 3 to 8) (size 9 to 14) (size 15 to 20)
#    0.000    3.000    0.000    4.500    0.000    3.500 
#    0.000    4.375    0.000    9.000    0.000    0.000 
#    0.000    0.000    0.000    0.000    0.000    0.000 
#
# Total GULP energy -178290.687550 kJ/mol
# GULP energy per Si atom -5571.583986 kJ/mol
# Density = 1.875998 g / cm^3
# Si number density = 18.802776 Si / 1000 Ang^3
#
#
#
# Elastic Constant Matrix: (Units=GPa)
#
#
# Indices 1 2 3 4 5 6 
#
# 1 57.1387 0.3788 56.6949 0.0000 15.8341 0.0000
# 2 0.3788 13.8099 -4.3242 0.0000 -2.4608 0.0000
# 3 56.6949 -4.3242 147.4936 0.0000 -12.3119 0.0000
# 4 0.0000 0.0000 0.0000 10.9318 0.0000 14.3179
# 5 15.8341 -2.4608 -12.3119 0.0000 23.5286 0.0000
# 6 0.0000 0.0000 0.0000 14.3179 0.0000 1.1948
#
#
#
# Elastic Compliance Matrix: (Units=1/GPa)
#
#
# Indices 1 2 3 4 5 6 
#
# 1 0.066909 -0.023192 -0.031747 0.000000 -0.064066 0.000000
# 2 -0.023192 0.083062 0.013989 0.000000 0.031615 0.000000
# 3 -0.031747 0.013989 0.022272 0.000000 0.034482 0.000000
# 4 0.000000 0.000000 0.000000 -0.006225 0.000000 0.074595
# 5 -0.064066 0.031615 0.034482 0.000000 0.106966 0.000000
# 6 0.000000 0.000000 0.000000 0.074595 0.000000 -0.056954
#
#
# Mechanical properties :
#
#
# Convention : Reuss Voigt Hill
#
# Bulk Modulus (GPa) = 11.06900 35.99347 23.53123
# Shear Modulus (GPa) = 15.24180 18.17723 16.70951
#
# Velocity S-wave (km/s) = 2.85022 3.11260 2.98430
# Velocity P-wave (km/s) = 4.09039 5.66586 4.94132
#
# Compressibility (1/GPa) = 0.09034242
#
# Stress axis : x y z
#
# Youngs Moduli (GPa) = 14.94558 12.03924 44.90014
#
# Poissons Ratio (x) = 0.27922 1.42545
# Poissons Ratio (y) = 0.34662 -0.62811
# Poissons Ratio (z) = 0.47448 -0.16842
#
# Static dielectric constant tensor:
#      x y z
#    x 1.629240 0.000000 -0.002920 
#    y 0.000000 1.687370 0.000000 
#    z -0.002920 0.000000 1.675510 
# 
# From -- ./inp_files/91218.got.cif
#   From: 2010.05.17/outbox.cif.g08.bks.cpg/sg10_46_cif.got.tgz:91218.got - 2010.06.03 11:33:40.
