data_PCOD9143822
_publ_section_title
;
Structure prediction by ZEFSAII (Michael W. Deem and Ramdas Pophale) SiO2 
 PCOD9143822
Probable space group: P 2/M
;
_chemical_formula_sum "Si O2"
_cell_formula_units_Z 28
_cell_length_a 7.167660
_cell_length_b 18.703592
_cell_length_c 18.915665
_cell_angle_alpha 90.000000
_cell_angle_beta 34.843348
_cell_angle_gamma 90.000000
_cell_volume 1448.820558
_symmetry_space_group_name_H-M "P 2/M"
_symmetry_group_IT_number 10
_symmetry_cell_setting 'monoclinic'
loop_
_space_group_symop_operation_xyz
x,y,z
-x,y,-z
-x,-y,-z
x,-y,z
loop_
_atom_site_type_symbol
_atom_site_label
_atom_site_fract_x
_atom_site_fract_y
_atom_site_fract_z
Si Si1 0.756369 0.657411 0.864089
Si Si2 0.782658 0.223773 0.227093
Si Si3 0.561541 0.078433 0.826729
Si Si4 0.017969 0.076795 0.110806
Si Si5 0.715808 0.762642 0.750158
Si Si6 0.743935 0.723627 0.520428
Si Si7 0.604658 0.579792 0.385034
O O1 0.619448 0.708890 0.843700
O O2 0.962961 0.712494 0.847471
O O3 0.021152 0.603390 0.746958
O O4 0.500000 0.625013 0.000000
O O5 0.961144 0.148446 0.170481
O O6 0.553955 0.236363 0.229195
O O7 0.566751 0.228505 0.365274
O O8 0.278239 0.077707 0.854407
O O9 0.745330 0.153659 0.761599
O O10 0.727489 0.000000 0.769628
O O11 0.354845 0.080624 0.963256
O O12 0.001331 0.000000 0.153277
O O13 0.060216 0.733289 0.612502
O O14 0.622643 0.643223 0.573281
O O15 0.000000 0.745328 0.500000
O O16 0.500000 0.578698 0.500000
O O17 0.549237 0.500000 0.373731
#
# Coordination Sequence:
#
# PCOD9143822 Si02
#       7
#     4   4   4   4   4   4   4
#     4  11  22  34  55  83 105 135 174 210 262 311
#     4   9  19  32  50  77 103 136 179 214 259 309
#     4   8  14  24  43  67  94 135 175 207 259 307
#     4   8  13  25  43  65  96 134 173 214 255 300
#     4  10  18  33  52  73 109 137 170 225 256 294
#     4   9  18  33  54  80 100 134 177 211 254 309
#     4  10  20  37  58  78 104 137 170 205 255 313
#
# _framework density 19.326063999999999
#
# number of rings (size 3 to 8) (size 9 to 14) (size 15 to 20)
#    0.000    2.714    1.429    1.714    0.000    2.286 
#    0.000    1.429    0.000    6.857    0.000    7.000 
#    0.000    0.000    0.000    0.000    0.000    0.000 
#
# Total GULP energy -155907.021741 kJ/mol
# GULP energy per Si atom -5568.107919 kJ/mol
# Density = 1.928208 g / cm^3
# Si number density = 19.326064 Si / 1000 Ang^3
#
#
#
# Elastic Constant Matrix: (Units=GPa)
#
#
# Indices 1 2 3 4 5 6 
#
# 1 60.4920 -3.1801 7.1980 0.0000 8.8083 0.0000
# 2 -3.1801 108.5631 31.3578 0.0000 -3.8076 0.0000
# 3 7.1980 31.3578 101.6627 0.0000 4.6927 0.0000
# 4 0.0000 0.0000 0.0000 19.3361 0.0000 -2.4629
# 5 8.8083 -3.8076 4.6927 0.0000 19.1349 0.0000
# 6 0.0000 0.0000 0.0000 -2.4629 0.0000 7.5174
#
#
#
# Elastic Compliance Matrix: (Units=1/GPa)
#
#
# Indices 1 2 3 4 5 6 
#
# 1 0.017829 0.000557 -0.001073 0.000000 -0.007833 0.000000
# 2 0.000557 0.010281 -0.003331 0.000000 0.002606 0.000000
# 3 -0.001073 -0.003331 0.011073 0.000000 -0.002885 0.000000
# 4 0.000000 0.000000 0.000000 0.053969 0.000000 0.017682
# 5 -0.007833 0.002606 -0.002885 0.000000 0.057092 0.000000
# 6 0.000000 0.000000 0.000000 0.017682 0.000000 0.138818
#
#
# Mechanical properties :
#
#
# Convention : Reuss Voigt Hill
#
# Bulk Modulus (GPa) = 31.75597 37.94104 34.84850
# Shear Modulus (GPa) = 16.27330 24.88712 20.58021
#
# Velocity S-wave (km/s) = 2.90494 3.59242 3.26681
# Velocity P-wave (km/s) = 5.26487 6.07305 5.68335
#
# Compressibility (1/GPa) = 0.03149014
#
# Stress axis : x y z
#
# Youngs Moduli (GPa) = 56.08960 97.26593 90.30989
#
# Poissons Ratio (x) = -0.05421 0.09687
# Poissons Ratio (y) = -0.03126 0.30082
# Poissons Ratio (z) = 0.06017 0.32399
#
# Static dielectric constant tensor:
#      x y z
#    x 1.734150 0.000000 0.012660 
#    y 0.000000 1.916380 0.000000 
#    z 0.012660 0.000000 1.709890 
# 
# From -- ./inp_files/82986.got.cif
#   From: 2010.05.17/outbox.cif.g08.bks.cpg/sg10_42_cif.got.tgz:82986.got - 2010.06.03 11:33:40.
