data_PCOD9143044
_publ_section_title
;
Structure prediction by ZEFSAII (Michael W. Deem and Ramdas Pophale) SiO2 
 PCOD9143044
Probable space group: P 2/M
;
_chemical_formula_sum "Si O2"
_cell_formula_units_Z 32
_cell_length_a 19.460875
_cell_length_b 7.390115
_cell_length_c 12.637954
_cell_angle_alpha 90.000000
_cell_angle_beta 129.049368
_cell_angle_gamma 90.000000
_cell_volume 1411.528443
_symmetry_space_group_name_H-M "P 2/M"
_symmetry_group_IT_number 10
_symmetry_cell_setting 'monoclinic'
loop_
_space_group_symop_operation_xyz
x,y,z
-x,y,-z
-x,-y,-z
x,-y,z
loop_
_atom_site_type_symbol
_atom_site_label
_atom_site_fract_x
_atom_site_fract_y
_atom_site_fract_z
Si Si1 0.029736 0.778318 0.910988
Si Si2 0.513516 0.792952 0.171475
Si Si3 0.462037 0.281011 0.575671
Si Si4 0.229377 0.217027 0.057155
Si Si5 0.862857 0.795699 0.633641
Si Si6 0.727863 0.287558 0.668117
Si Si7 0.287840 0.220515 0.669446
Si Si8 0.324325 0.220661 0.936430
O O1 0.957616 0.715091 0.754828
O O2 0.028258 0.000000 0.909348
O O3 0.128738 0.719880 0.978279
O O4 0.000000 0.721634 0.000000
O O5 0.491127 0.790088 0.274707
O O6 0.612177 0.713622 0.259005
O O7 0.522264 0.000000 0.143494
O O8 0.426662 0.715641 0.031227
O O9 0.500000 0.223547 0.500000
O O10 0.465452 0.500000 0.582442
O O11 0.359950 0.221558 0.475527
O O12 0.280476 0.261518 0.214892
O O13 0.226177 0.000000 0.046321
O O14 0.275879 0.283990 0.995682
O O15 0.812515 0.802694 0.697965
O O16 0.790767 0.713946 0.483192
O O17 0.879300 0.000000 0.611426
O O18 0.736764 0.500000 0.657130
O O19 0.274759 0.265844 0.779903
O O20 0.289256 0.000000 0.659379
O O21 0.328663 0.000000 0.945375
#
# Coordination Sequence:
#
# PCOD9143044 Si02
#       8
#     4   4   4   4   4   4   4   4
#     4   9  16  28  49  74 100 128 163 203 244 292
#     4  10  18  30  51  75  97 127 167 205 242 289
#     4  10  21  34  46  66 102 138 162 196 248 296
#     4  10  19  33  52  72  99 134 166 201 247 298
#     4  10  18  32  53  74  97 130 167 199 244 297
#     4  11  21  32  49  73 102 130 161 204 250 292
#     4   9  17  30  50  75 102 129 163 208 249 286
#     4   9  18  31  49  76 103 127 164 211 249 283
#
# _framework density 22.670459999999999
#
# number of rings (size 3 to 8) (size 9 to 14) (size 15 to 20)
#    0.000    2.250    2.500    1.500    0.000    2.250 
#    0.000    1.875    0.000    7.500    0.000    0.000 
#    0.000    2.000    0.000    0.000    0.000    0.000 
#
# Total GULP energy -178752.035328 kJ/mol
# GULP energy per Si atom -5586.001104 kJ/mol
# Density = 2.261886 g / cm^3
# Si number density = 22.670460 Si / 1000 Ang^3
#
#
#
# Elastic Constant Matrix: (Units=GPa)
#
#
# Indices 1 2 3 4 5 6 
#
# 1 64.2296 1.5864 44.0255 0.0000 -0.6278 0.0000
# 2 1.5864 82.3171 1.4690 0.0000 4.7130 0.0000
# 3 44.0255 1.4690 171.5662 0.0000 -1.7911 0.0000
# 4 0.0000 0.0000 0.0000 -346.2082 0.0000 100.9713
# 5 -0.6278 4.7130 -1.7911 0.0000 40.3609 0.0000
# 6 0.0000 0.0000 0.0000 100.9713 0.0000 -46.9425
#
#
#
# Elastic Compliance Matrix: (Units=1/GPa)
#
#
# Indices 1 2 3 4 5 6 
#
# 1 0.018899 -0.000284 -0.004846 0.000000 0.000112 0.000000
# 2 -0.000284 0.012237 -0.000047 0.000000 -0.001435 0.000000
# 3 -0.004846 -0.000047 0.007075 0.000000 0.000244 0.000000
# 4 0.000000 0.000000 0.000000 -0.007751 0.000000 -0.016671
# 5 0.000112 -0.001435 0.000244 0.000000 0.024957 0.000000
# 6 0.000000 0.000000 0.000000 -0.016671 0.000000 -0.057162
#
#
# Mechanical properties :
#
#
# Convention : Reuss Voigt Hill
#
# Bulk Modulus (GPa) = 35.89807 45.80828 40.85317
# Shear Modulus (GPa) = 279.41255 -52.48914 113.46171
#
# Velocity S-wave (km/s) = 11.11383 -4.81699 7.08215
# Velocity P-wave (km/s) = 13.43721 3.26922 9.21604
#
# Compressibility (1/GPa) = 0.02785665
#
# Stress axis : x y z
#
# Youngs Moduli (GPa) = 52.91309 81.72176 141.33995
#
# Poissons Ratio (x) = 0.02322 0.68494
# Poissons Ratio (y) = 0.01503 0.00662
# Poissons Ratio (z) = 0.25642 0.00383
#
# Static dielectric constant tensor:
#      x y z
#    x 1.837500 0.000000 0.008740 
#    y 0.000000 1.850550 0.000000 
#    z 0.008740 0.000000 1.827340 
# 
# From -- ./inp_files/55328.got.cif
#   From: 2010.05.17/outbox.cif.g08.bks.cpg/sg10_28_cif.got.tgz:55328.got - 2010.06.03 11:33:40.
