data_PCOD9143729
_publ_section_title
;
Structure prediction by ZEFSAII (Michael W. Deem and Ramdas Pophale) SiO2 
 PCOD9143729
Probable space group: P 2/M
;
_chemical_formula_sum "Si O2"
_cell_formula_units_Z 28
_cell_length_a 10.451999
_cell_length_b 7.569033
_cell_length_c 31.597763
_cell_angle_alpha 90.000000
_cell_angle_beta 146.670458
_cell_angle_gamma 90.000000
_cell_volume 1373.495343
_symmetry_space_group_name_H-M "P 2/M"
_symmetry_group_IT_number 10
_symmetry_cell_setting 'monoclinic'
loop_
_space_group_symop_operation_xyz
x,y,z
-x,y,-z
-x,-y,-z
x,-y,z
loop_
_atom_site_type_symbol
_atom_site_label
_atom_site_fract_x
_atom_site_fract_y
_atom_site_fract_z
Si Si1 0.308386 0.794646 0.331009
Si Si2 0.823445 0.791693 0.486534
Si Si3 0.053065 0.714942 0.082471
Si Si4 0.840371 0.714003 0.346127
Si Si5 0.634578 0.285077 0.912696
Si Si6 0.153020 0.706404 0.747897
Si Si7 0.335079 0.285789 0.241072
O O1 0.562890 0.717080 0.412384
O O2 0.279872 0.776728 0.272779
O O3 0.090176 0.716886 0.295389
O O4 0.309174 0.000000 0.343085
O O5 0.000000 0.716143 0.500000
O O6 0.947727 0.772514 0.565818
O O7 0.798584 0.000000 0.469736
O O8 0.049067 0.500000 0.082900
O O9 0.233214 0.759911 0.094588
O O10 0.153717 0.774787 0.155063
O O11 0.799725 0.776498 0.996641
O O12 0.842302 0.500000 0.346723
O O13 0.857063 0.779464 0.302537
O O14 0.595015 0.770176 0.299008
O O15 0.635657 0.500000 0.916146
O O16 0.370281 0.221380 0.835103
O O17 0.209486 0.500000 0.757508
O O18 0.333475 0.500000 0.241134
#
# Coordination Sequence:
#
# PCOD9143729 Si02
#       7
#     4   4   4   4   4   4   4
#     4  11  24  39  54  74 104 144 183 217 261 315
#     4  10  21  38  56  75 102 138 181 223 259 307
#     4   8  13  24  49  83 110 133 169 214 259 305
#     4  10  20  33  56  85 109 133 169 218 270 317
#     4   8  13  25  49  80 111 138 166 210 260 308
#     4  10  20  36  55  81 113 141 171 213 266 317
#     4  10  18  32  55  84 109 134 172 219 265 311
#
# _framework density 20.385946000000001
#
# number of rings (size 3 to 8) (size 9 to 14) (size 15 to 20)
#    0.000    2.429    2.857    1.286    0.000    2.571 
#    0.000    3.571    0.000    5.143    0.000    2.000 
#    0.000    0.000    0.000    0.000    0.000    0.000 
#
# Total GULP energy -156243.193861 kJ/mol
# GULP energy per Si atom -5580.114066 kJ/mol
# Density = 2.033955 g / cm^3
# Si number density = 20.385946 Si / 1000 Ang^3
#
#
#
# Elastic Constant Matrix: (Units=GPa)
#
#
# Indices 1 2 3 4 5 6 
#
# 1 83.9379 -13.4615 47.5941 0.0000 8.9817 0.0000
# 2 -13.4615 39.3326 -8.8114 0.0000 5.4129 0.0000
# 3 47.5941 -8.8114 163.7180 0.0000 9.1840 0.0000
# 4 0.0000 0.0000 0.0000 19.7158 0.0000 -29.1253
# 5 8.9817 5.4129 9.1840 0.0000 29.1564 0.0000
# 6 0.0000 0.0000 0.0000 -29.1253 0.0000 -7.3385
#
#
#
# Elastic Compliance Matrix: (Units=1/GPa)
#
#
# Indices 1 2 3 4 5 6 
#
# 1 0.015443 0.005006 -0.003971 0.000000 -0.004436 0.000000
# 2 0.005006 0.028190 0.000450 0.000000 -0.006917 0.000000
# 3 -0.003971 0.000450 0.007353 0.000000 -0.001176 0.000000
# 4 0.000000 0.000000 0.000000 0.007391 0.000000 -0.029332
# 5 -0.004436 -0.006917 -0.001176 0.000000 0.037319 0.000000
# 6 0.000000 0.000000 0.000000 -0.029332 0.000000 -0.019855
#
#
# Mechanical properties :
#
#
# Convention : Reuss Voigt Hill
#
# Bulk Modulus (GPa) = 18.53376 37.51454 28.02415
# Shear Modulus (GPa) = 55.03269 25.75120 40.39195
#
# Velocity S-wave (km/s) = 5.20135 3.55799 4.45608
# Velocity P-wave (km/s) = 6.72184 5.94316 6.34446
#
# Compressibility (1/GPa) = 0.05395559
#
# Stress axis : x y z
#
# Youngs Moduli (GPa) = 64.75547 35.47323 136.00473
#
# Poissons Ratio (x) = -0.17758 0.54008
# Poissons Ratio (y) = -0.32417 -0.06120
# Poissons Ratio (z) = 0.25715 -0.01596
#
# Static dielectric constant tensor:
#      x y z
#    x 1.672770 0.000000 0.011080 
#    y 0.000000 1.780350 0.000000 
#    z 0.011080 0.000000 1.747800 
# 
# From -- ./inp_files/37314.got.cif
#   From: 2010.05.17/outbox.cif.g08.bks.cpg/sg10_19_cif.got.tgz:37314.got - 2010.06.03 11:33:40.
