data_PCOD9143839
_publ_section_title
;
Structure prediction by ZEFSAII (Michael W. Deem and Ramdas Pophale) SiO2 
 PCOD9143839
Probable space group: P 2/M
;
_chemical_formula_sum "Si O2"
_cell_formula_units_Z 32
_cell_length_a 12.876909
_cell_length_b 7.375255
_cell_length_c 19.836466
_cell_angle_alpha 90.000000
_cell_angle_beta 48.112001
_cell_angle_gamma 90.000000
_cell_volume 1402.456267
_symmetry_space_group_name_H-M "P 2/M"
_symmetry_group_IT_number 10
_symmetry_cell_setting 'monoclinic'
loop_
_space_group_symop_operation_xyz
x,y,z
-x,y,-z
-x,-y,-z
x,-y,z
loop_
_atom_site_type_symbol
_atom_site_label
_atom_site_fract_x
_atom_site_fract_y
_atom_site_fract_z
Si Si1 0.772714 0.789011 0.787876
Si Si2 0.848745 0.721904 0.986868
Si Si3 0.852384 0.278097 0.531551
Si Si4 0.370631 0.703990 0.019314
Si Si5 0.083223 0.709011 0.640613
Si Si6 0.403249 0.718267 0.263701
Si Si7 0.707018 0.279251 0.180220
Si Si8 0.891927 0.278551 0.217793
O O1 0.741729 0.695004 0.872065
O O2 0.646883 0.765743 0.789850
O O3 0.917614 0.714953 0.696562
O O4 0.791798 0.000000 0.793029
O O5 0.852450 0.500000 0.983878
O O6 0.707388 0.782341 0.010367
O O7 0.977268 0.781034 0.885086
O O8 0.825739 0.773821 0.074195
O O9 0.853089 0.500000 0.530770
O O10 0.844662 0.214680 0.457391
O O11 0.721178 0.220119 0.633105
O O12 0.000000 0.221698 0.500000
O O13 0.416037 0.500000 0.980047
O O14 0.500000 0.796593 0.000000
O O15 0.127695 0.500000 0.625980
O O16 0.103002 0.786221 0.707221
O O17 0.407145 0.500000 0.264349
O O18 0.554931 0.782504 0.221885
O O19 0.704353 0.500000 0.180465
O O20 0.756194 0.226168 0.233331
O O21 0.898652 0.500000 0.217011
#
# Coordination Sequence:
#
# PCOD9143839 Si02
#       8
#     4   4   4   4   4   4   4   4
#     4  12  23  33  49  75 107 137 167 210 264 308
#     4   9  15  25  44  72 102 131 163 202 246 292
#     4   9  16  28  51  76  98 130 171 210 255 308
#     4  10  19  32  51  75 102 138 178 209 246 303
#     4  10  18  33  54  75 100 133 172 209 255 309
#     4  10  19  34  53  73 101 135 171 212 257 311
#     4   9  17  28  46  76 105 129 165 212 254 295
#     4   9  16  27  47  74 104 132 165 211 254 294
#
# _framework density 22.817112999999999
#
# number of rings (size 3 to 8) (size 9 to 14) (size 15 to 20)
#    0.000    2.250    2.500    2.250    0.000    3.750 
#    0.000    1.875    0.000    4.500    0.000    0.875 
#    0.000    2.000    0.000    0.000    0.000    0.000 
#
# Total GULP energy -178737.007604 kJ/mol
# GULP energy per Si atom -5585.531488 kJ/mol
# Density = 2.276518 g / cm^3
# Si number density = 22.817113 Si / 1000 Ang^3
#
#
#
# Elastic Constant Matrix: (Units=GPa)
#
#
# Indices 1 2 3 4 5 6 
#
# 1 153.7013 -1.3194 46.3628 0.0000 26.8704 0.0000
# 2 -1.3194 88.7086 3.8981 0.0000 4.3717 0.0000
# 3 46.3628 3.8981 105.6270 0.0000 21.0811 0.0000
# 4 0.0000 0.0000 0.0000 -67.4429 0.0000 -3.9801
# 5 26.8704 4.3717 21.0811 0.0000 35.4429 0.0000
# 6 0.0000 0.0000 0.0000 -3.9801 0.0000 -27.9510
#
#
#
# Elastic Compliance Matrix: (Units=1/GPa)
#
#
# Indices 1 2 3 4 5 6 
#
# 1 0.008122 0.000466 -0.002657 0.000000 -0.004634 0.000000
# 2 0.000466 0.011371 -0.000311 0.000000 -0.001571 0.000000
# 3 -0.002657 -0.000311 0.011614 0.000000 -0.004855 0.000000
# 4 0.000000 0.000000 0.000000 -0.014953 0.000000 0.002129
# 5 -0.004634 -0.001571 -0.004855 0.000000 0.034809 0.000000
# 6 0.000000 0.000000 0.000000 0.002129 0.000000 -0.036080
#
#
# Mechanical properties :
#
#
# Convention : Reuss Voigt Hill
#
# Bulk Modulus (GPa) = 38.30962 49.54664 43.92813
# Shear Modulus (GPa) = 174.89973 7.94949 91.42461
#
# Velocity S-wave (km/s) = 8.76466 1.86857 6.33683
# Velocity P-wave (km/s) = 10.92026 5.13977 8.53432
#
# Compressibility (1/GPa) = 0.02610310
#
# Stress axis : x y z
#
# Youngs Moduli (GPa) = 123.12476 87.94408 86.10271
#
# Poissons Ratio (x) = -0.04098 0.22879
# Poissons Ratio (y) = -0.05737 0.02674
# Poissons Ratio (z) = 0.32716 0.02732
#
# Static dielectric constant tensor:
#      x y z
#    x 1.843550 0.000000 -0.006840 
#    y 0.000000 1.887020 0.000000 
#    z -0.006840 0.000000 1.839810 
# 
# From -- ./inp_files/83523.got.cif
#   From: 2010.05.17/outbox.cif.g08.bks.cpg/sg10_42_cif.got.tgz:83523.got - 2010.06.03 11:33:40.
