data_PCOD9143712
_publ_section_title
;
Structure prediction by ZEFSAII (Michael W. Deem and Ramdas Pophale) SiO2 
 PCOD9143712
Probable space group: P 2/M
;
_chemical_formula_sum "Si O2"
_cell_formula_units_Z 28
_cell_length_a 10.437298
_cell_length_b 7.953655
_cell_length_c 32.312119
_cell_angle_alpha 90.000000
_cell_angle_beta 35.168966
_cell_angle_gamma 90.000000
_cell_volume 1545.022953
_symmetry_space_group_name_H-M "P 2/M"
_symmetry_group_IT_number 10
_symmetry_cell_setting 'monoclinic'
loop_
_space_group_symop_operation_xyz
x,y,z
-x,y,-z
-x,-y,-z
x,-y,z
loop_
_atom_site_type_symbol
_atom_site_label
_atom_site_fract_x
_atom_site_fract_y
_atom_site_fract_z
Si Si1 0.277415 0.695734 0.820691
Si Si2 0.564381 0.702331 0.664447
Si Si3 0.969919 0.303852 0.420439
Si Si4 0.027501 0.000000 0.923803
Si Si5 0.076807 0.803506 0.660040
Si Si6 0.396560 0.311542 0.186627
Si Si7 0.632876 0.000000 0.087598
Si Si8 0.468411 0.196776 0.419633
O O1 0.203252 0.500000 0.840042
O O2 0.390650 0.737045 0.746976
O O3 0.092348 0.832076 0.881599
O O4 0.469730 0.707722 0.805184
O O5 0.572458 0.500000 0.656838
O O6 0.505760 0.781539 0.636156
O O7 0.808468 0.758929 0.615210
O O8 0.008053 0.500000 0.400515
O O9 0.929692 0.213296 0.387672
O O10 0.754876 0.285612 0.505930
O O11 0.192272 0.000000 0.920199
O O12 0.780051 0.000000 0.007461
O O13 0.311189 0.738586 0.615516
O O14 0.862605 0.711945 0.735210
O O15 0.058377 0.000000 0.676184
O O16 0.441557 0.500000 0.159372
O O17 0.486058 0.166437 0.132986
O O18 0.443870 0.000000 0.436560
#
# Coordination Sequence:
#
# PCOD9143712 Si02
#       8
#     4   4   4   2   4   4   2   4
#     4   9  18  32  52  81 109 141 187 225 264 332
#     4  10  21  37  55  77 107 143 186 234 276 327
#     4  11  22  37  57  78 103 143 189 233 284 335
#     4   9  18  30  52  79 114 150 173 212 283 321
#     4  11  22  37  55  77 110 145 187 236 276 329
#     4  10  18  32  55  80 108 147 184 221 274 326
#     4   9  18  32  48  83 116 142 179 220 263 333
#     4  11  25  38  50  78 111 142 185 236 284 326
#
# _framework density 18.122709
#
# number of rings (size 3 to 8) (size 9 to 14) (size 15 to 20)
#    0.000    1.857    2.143    2.143    1.000    7.429 
#    0.000    2.857    0.000    0.000    0.000    2.000 
#    0.000    3.429    0.000    0.000    0.000    0.000 
#
# Total GULP energy -156336.143460 kJ/mol
# GULP energy per Si atom -5583.433695 kJ/mol
# Density = 1.808146 g / cm^3
# Si number density = 18.122709 Si / 1000 Ang^3
#
#
#
# Elastic Constant Matrix: (Units=GPa)
#
#
# Indices 1 2 3 4 5 6 
#
# 1 26.4431 -5.3883 -17.4854 0.0000 7.8622 0.0000
# 2 -5.3883 61.2305 25.9282 0.0000 0.7581 0.0000
# 3 -17.4854 25.9282 69.8626 0.0000 3.8822 0.0000
# 4 0.0000 0.0000 0.0000 23.7763 0.0000 2.5301
# 5 7.8622 0.7581 3.8822 0.0000 -2.0302 0.0000
# 6 0.0000 0.0000 0.0000 2.5301 0.0000 15.8018
#
#
#
# Elastic Compliance Matrix: (Units=1/GPa)
#
#
# Indices 1 2 3 4 5 6 
#
# 1 0.017617 0.000539 0.000368 0.000000 0.069128 0.000000
# 2 0.000539 0.019316 -0.006825 0.000000 -0.003753 0.000000
# 3 0.000368 -0.006825 0.015368 0.000000 0.028264 0.000000
# 4 0.000000 0.000000 0.000000 0.042788 0.000000 -0.006851
# 5 0.069128 -0.003753 0.028264 0.000000 -0.172211 0.000000
# 6 0.000000 0.000000 0.000000 -0.006851 0.000000 0.064381
#
#
# Mechanical properties :
#
#
# Convention : Reuss Voigt Hill
#
# Bulk Modulus (GPa) = 24.71398 18.18280 21.44839
# Shear Modulus (GPa) = 397.34179 17.80835 207.57507
#
# Velocity S-wave (km/s) = 14.82318 3.13813 10.71388
# Velocity P-wave (km/s) = 17.51101 4.81513 12.84175
#
# Compressibility (1/GPa) = 0.04046292
#
# Stress axis : x y z
#
# Youngs Moduli (GPa) = 56.76481 51.77112 65.06871
#
# Poissons Ratio (x) = -0.02788 -0.02394
# Poissons Ratio (y) = -0.03057 0.44412
# Poissons Ratio (z) = -0.02088 0.35336
#
# Static dielectric constant tensor:
#      x y z
#    x 1.600070 0.000000 -0.007660 
#    y 0.000000 1.659510 0.000000 
#    z -0.007660 0.000000 1.590910 
# 
# From -- ./inp_files/37178.got.cif
#   From: 2010.05.17/outbox.cif.g08.bks.cpg/sg10_19_cif.got.tgz:37178.got - 2010.06.03 11:33:40.
