data_PCOD9143026
_publ_section_title
;
Structure prediction by ZEFSAII (Michael W. Deem and Ramdas Pophale) SiO2 
 PCOD9143026
Probable space group: P 2/M
;
_chemical_formula_sum "Si O2"
_cell_formula_units_Z 32
_cell_length_a 20.939945
_cell_length_b 7.582403
_cell_length_c 21.611758
_cell_angle_alpha 90.000000
_cell_angle_beta 26.291817
_cell_angle_gamma 90.000000
_cell_volume 1519.919145
_symmetry_space_group_name_H-M "P 2/M"
_symmetry_group_IT_number 10
_symmetry_cell_setting 'monoclinic'
loop_
_space_group_symop_operation_xyz
x,y,z
-x,y,-z
-x,-y,-z
x,-y,z
loop_
_atom_site_type_symbol
_atom_site_label
_atom_site_fract_x
_atom_site_fract_y
_atom_site_fract_z
Si Si1 0.362092 0.215766 0.659331
Si Si2 0.248364 0.215627 0.886755
Si Si3 0.856011 0.292323 0.804083
Si Si4 0.711145 0.786179 0.595938
Si Si5 0.033848 0.205037 0.537544
Si Si6 0.893119 0.293119 0.323467
Si Si7 0.076166 0.798235 0.841391
Si Si8 0.386973 0.212402 0.894896
O O1 0.500000 0.275642 0.500000
O O2 0.354101 0.263819 0.738599
O O3 0.211302 0.279193 0.760617
O O4 0.363029 0.000000 0.655560
O O5 0.303700 0.276082 0.905600
O O6 0.242843 0.000000 0.893802
O O7 0.085151 0.277918 0.014669
O O8 0.882073 0.500000 0.775824
O O9 0.897432 0.213765 0.702053
O O10 0.970675 0.222519 0.755364
O O11 0.700378 0.262111 0.968052
O O12 0.759020 0.730952 0.485717
O O13 0.551356 0.725960 0.750962
O O14 0.832347 0.720491 0.538972
O O15 0.713941 0.000000 0.594089
O O16 0.000000 0.284270 0.500000
O O17 0.070899 0.000000 0.494879
O O18 0.915531 0.500000 0.291994
O O19 0.882491 0.202982 0.266809
O O20 0.063414 0.000000 0.874495
O O21 0.389102 0.000000 0.889923
#
# Coordination Sequence:
#
# PCOD9143026 Si02
#       8
#     4   4   4   4   4   4   4   4
#     4   9  18  29  45  72 102 128 165 217 264 308
#     4   9  17  29  46  72 100 129 164 207 260 307
#     4  10  20  34  53  78 108 139 174 211 252 305
#     4   9  19  33  53  80 106 133 171 212 257 303
#     4   9  18  35  58  81 107 139 174 211 252 301
#     4  10  20  33  50  74 103 135 172 213 257 306
#     4  10  18  30  51  72  97 131 169 211 258 310
#     4  10  19  32  53  79 107 133 168 218 262 304
#
# _framework density 21.053750000000001
#
# number of rings (size 3 to 8) (size 9 to 14) (size 15 to 20)
#    0.000    2.500    1.250    1.125    1.750    3.250 
#    0.000    0.625    0.000    6.375    0.000    0.000 
#    0.000    0.000    0.000    0.000    0.000    0.000 
#
# Total GULP energy -178629.720017 kJ/mol
# GULP energy per Si atom -5582.178751 kJ/mol
# Density = 2.100583 g / cm^3
# Si number density = 21.053750 Si / 1000 Ang^3
#
#
#
# Elastic Constant Matrix: (Units=GPa)
#
#
# Indices 1 2 3 4 5 6 
#
# 1 92.9064 1.8189 53.9206 0.0000 24.7925 0.0000
# 2 1.8189 51.0043 -6.0285 0.0000 -4.0974 0.0000
# 3 53.9206 -6.0285 153.4352 0.0000 6.7023 0.0000
# 4 0.0000 0.0000 0.0000 284.5571 0.0000 161.2834
# 5 24.7925 -4.0974 6.7023 0.0000 26.7081 0.0000
# 6 0.0000 0.0000 0.0000 161.2834 0.0000 90.6415
#
#
#
# Elastic Compliance Matrix: (Units=1/GPa)
#
#
# Indices 1 2 3 4 5 6 
#
# 1 0.018564 -0.002660 -0.005923 0.000000 -0.016154 0.000000
# 2 -0.002660 0.020297 0.001505 0.000000 0.005205 0.000000
# 3 -0.005923 0.001505 0.008501 0.000000 0.003595 0.000000
# 4 0.000000 0.000000 0.000000 -0.412620 0.000000 0.734197
# 5 -0.016154 0.005205 0.003595 0.000000 0.052333 0.000000
# 6 0.000000 0.000000 0.000000 0.734197 0.000000 -1.295365
#
#
# Mechanical properties :
#
#
# Convention : Reuss Voigt Hill
#
# Bulk Modulus (GPa) = 30.11458 44.08533 37.09995
# Shear Modulus (GPa) = -3.15843 96.89033 46.86595
#
# Velocity S-wave (km/s) = -1.22614 6.79120 4.72318
# Velocity P-wave (km/s) = 3.51143 9.08178 6.88509
#
# Compressibility (1/GPa) = 0.03320651
#
# Stress axis : x y z
#
# Youngs Moduli (GPa) = 53.86869 49.26825 117.63592
#
# Poissons Ratio (x) = 0.13104 0.69671
# Poissons Ratio (y) = 0.14328 -0.17702
# Poissons Ratio (z) = 0.31904 -0.07414
#
# Static dielectric constant tensor:
#      x y z
#    x 1.745970 0.000000 -0.011360 
#    y 0.000000 1.786120 0.000000 
#    z -0.011360 0.000000 1.749730 
# 
# From -- ./inp_files/90612.got.cif
#   From: 2010.05.17/outbox.cif.g08.bks.cpg/sg10_46_cif.got.tgz:90612.got - 2010.06.03 11:33:40.
