data_PCOD9143151
_publ_section_title
;
Structure prediction by ZEFSAII (Michael W. Deem and Ramdas Pophale) SiO2 
 PCOD9143151
Probable space group: P 2/M
;
_chemical_formula_sum "Si O2"
_cell_formula_units_Z 32
_cell_length_a 18.256965
_cell_length_b 13.985067
_cell_length_c 12.896429
_cell_angle_alpha 90.000000
_cell_angle_beta 151.146782
_cell_angle_gamma 90.000000
_cell_volume 1588.987901
_symmetry_space_group_name_H-M "P 2/M"
_symmetry_group_IT_number 10
_symmetry_cell_setting 'monoclinic'
loop_
_space_group_symop_operation_xyz
x,y,z
-x,y,-z
-x,-y,-z
x,-y,z
loop_
_atom_site_type_symbol
_atom_site_label
_atom_site_fract_x
_atom_site_fract_y
_atom_site_fract_z
Si Si1 0.079184 0.308177 0.849642
Si Si2 0.235617 0.698132 0.454351
Si Si3 0.828721 0.386799 0.250831
Si Si4 0.454615 0.255587 0.056908
Si Si5 0.557457 0.107268 0.772003
Si Si6 0.790271 0.109749 0.698753
Si Si7 0.143075 0.891386 0.980918
Si Si8 0.826964 0.608227 0.828591
O O1 0.160894 0.360863 0.857774
O O2 0.908212 0.343997 0.661627
O O3 0.068769 0.194058 0.823695
O O4 0.174856 0.326745 0.072758
O O5 0.388225 0.697213 0.708906
O O6 0.182463 0.804209 0.348341
O O7 0.266993 0.643645 0.385705
O O8 0.806652 0.500000 0.240205
O O9 0.000000 0.361022 0.500000
O O10 0.690359 0.326181 0.127754
O O11 0.420866 0.179038 0.105582
O O12 0.500000 0.215683 0.000000
O O13 0.391767 0.117053 0.516810
O O14 0.682619 0.116717 0.838815
O O15 0.568658 0.000000 0.828715
O O16 0.865687 0.121868 0.905343
O O17 0.821997 0.000000 0.703788
O O18 0.094089 0.000000 0.895868
O O19 0.791243 0.500000 0.813065
O O20 0.000000 0.611845 0.000000
#
# Coordination Sequence:
#
# PCOD9143151 Si02
#       8
#     4   4   4   4   4   4   4   4
#     4  11  20  37  59  88 122 159 194 237 287 351
#     4  10  21  35  57  86 122 157 196 235 293 346
#     4  11  25  45  67  88 112 148 195 248 302 351
#     4  11  23  41  63  89 114 150 194 249 298 351
#     4   9  18  34  56  84 120 159 198 238 290 350
#     4   9  17  30  51  84 124 163 199 237 284 342
#     4  10  18  30  55  88 123 160 199 240 283 340
#     4   9  18  33  54  81 115 154 193 233 285 345
#
# _framework density 20.138604999999998
#
# number of rings (size 3 to 8) (size 9 to 14) (size 15 to 20)
#    0.000    2.000    2.500    1.500    0.000    3.500 
#    0.000    1.875    0.000    4.500    0.000    0.000 
#    0.000    0.000    0.000    0.000    0.000    0.000 
#
# Total GULP energy -178440.120666 kJ/mol
# GULP energy per Si atom -5576.253771 kJ/mol
# Density = 2.009277 g / cm^3
# Si number density = 20.138605 Si / 1000 Ang^3
#
#
#
# Elastic Constant Matrix: (Units=GPa)
#
#
# Indices 1 2 3 4 5 6 
#
# 1 76.2488 -1.3987 5.1544 0.0000 5.5765 0.0000
# 2 -1.3987 65.8693 3.6974 0.0000 -0.7984 0.0000
# 3 5.1544 3.6974 62.0961 0.0000 0.3037 0.0000
# 4 0.0000 0.0000 0.0000 20.0347 0.0000 1.3769
# 5 5.5765 -0.7984 0.3037 0.0000 28.5030 0.0000
# 6 0.0000 0.0000 0.0000 1.3769 0.0000 16.1350
#
#
#
# Elastic Compliance Matrix: (Units=1/GPa)
#
#
# Indices 1 2 3 4 5 6 
#
# 1 0.013386 0.000315 -0.001117 0.000000 -0.002598 0.000000
# 2 0.000315 0.015245 -0.000936 0.000000 0.000375 0.000000
# 3 -0.001117 -0.000936 0.016252 0.000000 0.000019 0.000000
# 4 0.000000 0.000000 0.000000 0.050208 0.000000 -0.004285
# 5 -0.002598 0.000375 0.000019 0.000000 0.035603 0.000000
# 6 0.000000 0.000000 0.000000 -0.004285 0.000000 0.062343
#
#
# Mechanical properties :
#
#
# Convention : Reuss Voigt Hill
#
# Bulk Modulus (GPa) = 24.14934 24.34671 24.24802
# Shear Modulus (GPa) = 23.77381 26.05195 24.91288
#
# Velocity S-wave (km/s) = 3.43958 3.60061 3.52102
# Velocity P-wave (km/s) = 5.27180 5.42233 5.34760
#
# Compressibility (1/GPa) = 0.04140901
#
# Stress axis : x y z
#
# Youngs Moduli (GPa) = 74.70326 65.59373 61.52927
#
# Poissons Ratio (x) = -0.02069 0.06874
# Poissons Ratio (y) = -0.02357 0.05758
# Poissons Ratio (z) = 0.08346 0.06138
#
# Static dielectric constant tensor:
#      x y z
#    x 1.725750 0.000000 0.017990 
#    y 0.000000 1.755710 0.000000 
#    z 0.017990 0.000000 1.722860 
# 
# From -- ./inp_files/54034.got.cif
#   From: 2010.05.17/outbox.cif.g08.bks.cpg/sg10_28_cif.got.tgz:54034.got - 2010.06.03 11:33:40.
