data_PCOD9143707
_publ_section_title
;
Structure prediction by ZEFSAII (Michael W. Deem and Ramdas Pophale) SiO2 
 PCOD9143707
Probable space group: P 2/M
;
_chemical_formula_sum "Si O2"
_cell_formula_units_Z 32
_cell_length_a 28.449115
_cell_length_b 7.620135
_cell_length_c 20.416422
_cell_angle_alpha 90.000000
_cell_angle_beta 160.215652
_cell_angle_gamma 90.000000
_cell_volume 1498.115164
_symmetry_space_group_name_H-M "P 2/M"
_symmetry_group_IT_number 10
_symmetry_cell_setting 'monoclinic'
loop_
_space_group_symop_operation_xyz
x,y,z
-x,y,-z
-x,-y,-z
x,-y,z
loop_
_atom_site_type_symbol
_atom_site_label
_atom_site_fract_x
_atom_site_fract_y
_atom_site_fract_z
Si Si1 0.550836 0.799392 0.135291
Si Si2 0.016635 0.285462 0.595977
Si Si3 0.849490 0.790002 0.033695
Si Si4 0.141281 0.707415 0.485208
Si Si5 0.445614 0.795178 0.719495
Si Si6 0.812279 0.214473 0.698112
Si Si7 0.300944 0.293553 0.034750
Si Si8 0.128769 0.786277 0.082471
O O1 0.718607 0.796702 0.355243
O O2 0.508774 0.718914 0.150359
O O3 0.497005 0.000000 0.063413
O O4 0.500000 0.717230 0.000000
O O5 0.015960 0.500000 0.595844
O O6 0.164408 0.226535 0.817965
O O7 0.000000 0.226960 0.500000
O O8 0.900701 0.231324 0.496602
O O9 0.735085 0.733584 0.936530
O O10 0.002710 0.734436 0.260054
O O11 0.850948 0.000000 0.034644
O O12 0.822573 0.725257 0.924793
O O13 0.169299 0.500000 0.523756
O O14 0.305359 0.718508 0.504807
O O15 0.416759 0.000000 0.695273
O O16 0.562892 0.786987 0.818055
O O17 0.794622 0.270750 0.750659
O O18 0.807266 0.000000 0.691244
O O19 0.966954 0.262865 0.878747
O O20 0.311649 0.500000 0.036685
O O21 0.133701 0.000000 0.088842
#
# Coordination Sequence:
#
# PCOD9143707 Si02
#       8
#     4   4   4   4   4   4   4   4
#     4  10  22  37  52  75 108 140 171 213 264 315
#     4   8  16  31  50  70  92 122 164 214 255 289
#     4  10  18  32  55  79 105 135 169 214 267 312
#     4  10  20  33  52  77 104 134 173 213 254 308
#     4  10  20  35  54  74 104 142 174 211 262 313
#     4   8  14  27  49  79 107 132 169 214 256 301
#     4  10  21  35  52  74 102 137 176 218 260 309
#     4   8  14  26  50  81 106 130 168 216 259 301
#
# _framework density 21.360174000000001
#
# number of rings (size 3 to 8) (size 9 to 14) (size 15 to 20)
#    0.000    2.750    0.000    3.375    1.750    2.750 
#    0.000    0.625    0.000    7.500    0.000    5.250 
#    0.000    0.000    0.000    0.000    0.000    0.000 
#
# Total GULP energy -178531.013108 kJ/mol
# GULP energy per Si atom -5579.094160 kJ/mol
# Density = 2.131156 g / cm^3
# Si number density = 21.360174 Si / 1000 Ang^3
#
#
#
# Elastic Constant Matrix: (Units=GPa)
#
#
# Indices 1 2 3 4 5 6 
#
# 1 155.0576 -2.4339 38.7314 0.0000 -27.5090 0.0000
# 2 -2.4339 48.7357 -0.5926 0.0000 -3.0792 0.0000
# 3 38.7314 -0.5926 41.7493 0.0000 -5.5344 0.0000
# 4 0.0000 0.0000 0.0000 54.2026 0.0000 52.2380
# 5 -27.5090 -3.0792 -5.5344 0.0000 28.5888 0.0000
# 6 0.0000 0.0000 0.0000 52.2380 0.0000 51.0019
#
#
#
# Elastic Compliance Matrix: (Units=1/GPa)
#
#
# Indices 1 2 3 4 5 6 
#
# 1 0.009926 0.000907 -0.008125 0.000000 0.008076 0.000000
# 2 0.000907 0.020757 -0.000138 0.000000 0.003082 0.000000
# 3 -0.008125 -0.000138 0.031252 0.000000 -0.001783 0.000000
# 4 0.000000 0.000000 0.000000 1.431372 0.000000 -1.466063
# 5 0.008076 0.003082 -0.001783 0.000000 0.042736 0.000000
# 6 0.000000 0.000000 0.000000 -1.466063 0.000000 1.521202
#
#
# Mechanical properties :
#
#
# Convention : Reuss Voigt Hill
#
# Bulk Modulus (GPa) = 21.17638 35.21693 28.19665
# Shear Modulus (GPa) = 1.61933 40.74784 21.18358
#
# Velocity S-wave (km/s) = 0.87164 4.37241 3.15260
# Velocity P-wave (km/s) = 3.30885 6.48179 5.14597
#
# Compressibility (1/GPa) = 0.04722243
#
# Stress axis : x y z
#
# Youngs Moduli (GPa) = 100.74952 48.17607 31.99841
#
# Poissons Ratio (x) = -0.04370 0.25998
# Poissons Ratio (y) = -0.09139 0.00443
# Poissons Ratio (z) = 0.81856 0.00667
#
# Static dielectric constant tensor:
#      x y z
#    x 1.824250 0.000000 -0.012890 
#    y 0.000000 1.790400 0.000000 
#    z -0.012890 0.000000 1.741960 
# 
# From -- ./inp_files/86959.got.cif
#   From: 2010.05.17/outbox.cif.g08.bks.cpg/sg10_44_cif.got.tgz:86959.got - 2010.06.03 11:33:40.
