data_PCOD9143111
_publ_section_title
;
Structure prediction by ZEFSAII (Michael W. Deem and Ramdas Pophale) SiO2 
 PCOD9143111
Probable space group: P 2/M
;
_chemical_formula_sum "Si O2"
_cell_formula_units_Z 32
_cell_length_a 14.163993
_cell_length_b 14.628253
_cell_length_c 11.207808
_cell_angle_alpha 90.000000
_cell_angle_beta 45.874189
_cell_angle_gamma 90.000000
_cell_volume 1666.901748
_symmetry_space_group_name_H-M "P 2/M"
_symmetry_group_IT_number 10
_symmetry_cell_setting 'monoclinic'
loop_
_space_group_symop_operation_xyz
x,y,z
-x,y,-z
-x,-y,-z
x,-y,z
loop_
_atom_site_type_symbol
_atom_site_label
_atom_site_fract_x
_atom_site_fract_y
_atom_site_fract_z
Si Si1 0.679941 0.394099 0.927131
Si Si2 0.536332 0.788372 0.107458
Si Si3 0.966974 0.203531 0.164204
Si Si4 0.723896 0.217469 0.522820
Si Si5 0.965045 0.396511 0.790218
Si Si6 0.790443 0.104549 0.924445
Si Si7 0.219188 0.603821 0.427987
Si Si8 0.848547 0.097963 0.601503
O O1 0.634424 0.500000 0.971559
O O2 0.813420 0.386964 0.886771
O O3 0.729335 0.372924 0.748983
O O4 0.574776 0.318989 0.060421
O O5 0.417450 0.811284 0.302661
O O6 0.500000 0.816032 0.000000
O O7 0.662453 0.834920 0.059011
O O8 0.813530 0.185512 0.333143
O O9 0.994090 0.311224 0.164457
O O10 0.072783 0.149174 0.152707
O O11 0.000000 0.180183 0.000000
O O12 0.720891 0.326663 0.529777
O O13 0.815888 0.183475 0.550443
O O14 0.984474 0.500000 0.821485
O O15 0.061892 0.390579 0.589431
O O16 0.783638 0.102177 0.786846
O O17 0.782922 0.000000 0.974481
O O18 0.257730 0.500000 0.416950
O O19 0.000000 0.096756 0.500000
O O20 0.813892 0.000000 0.572578
#
# Coordination Sequence:
#
# PCOD9143111 Si02
#       8
#     4   4   4   4   4   4   4   4
#     4  10  18  30  52  83 124 162 187 219 279 357
#     4  12  22  35  54  92 127 157 185 222 291 360
#     4  11  24  42  64  85 109 152 206 251 289 331
#     4  11  22  35  57  86 122 152 188 239 282 346
#     4   9  18  33  56  84 112 149 196 246 287 330
#     4  11  23  40  62  88 121 151 189 241 291 350
#     4   9  17  28  48  83 121 153 186 226 283 342
#     4  10  19  33  57  87 114 146 183 233 294 346
#
# _framework density 19.197292999999998
#
# number of rings (size 3 to 8) (size 9 to 14) (size 15 to 20)
#    0.000    1.625    5.000    0.375    0.000    3.500 
#    0.000    0.625    0.000    0.750    0.000    1.750 
#    0.000    0.000    0.000    0.000    0.000    0.000 
#
# Total GULP energy -178158.377856 kJ/mol
# GULP energy per Si atom -5567.449308 kJ/mol
# Density = 1.915360 g / cm^3
# Si number density = 19.197293 Si / 1000 Ang^3
#
#
#
# Elastic Constant Matrix: (Units=GPa)
#
#
# Indices 1 2 3 4 5 6 
#
# 1 14.3320 8.8819 19.8073 0.0000 -9.0628 0.0000
# 2 8.8819 70.0475 19.1722 0.0000 -3.9140 0.0000
# 3 19.8073 19.1722 116.9959 0.0000 -15.4279 0.0000
# 4 0.0000 0.0000 0.0000 23.6003 0.0000 -10.7383
# 5 -9.0628 -3.9140 -15.4279 0.0000 28.8780 0.0000
# 6 0.0000 0.0000 0.0000 -10.7383 0.0000 3.7619
#
#
#
# Elastic Compliance Matrix: (Units=1/GPa)
#
#
# Indices 1 2 3 4 5 6 
#
# 1 0.111017 -0.008809 -0.013894 0.000000 0.026224 0.000000
# 2 -0.008809 0.015661 -0.001248 0.000000 -0.001308 0.000000
# 3 -0.013894 -0.001248 0.011303 0.000000 0.001509 0.000000
# 4 0.000000 0.000000 0.000000 -0.141799 0.000000 -0.404766
# 5 0.026224 -0.001308 0.001509 0.000000 0.043487 0.000000
# 6 0.000000 0.000000 0.000000 -0.404766 0.000000 -0.889581
#
#
# Mechanical properties :
#
#
# Convention : Reuss Voigt Hill
#
# Bulk Modulus (GPa) = 11.10104 33.01093 22.05598
# Shear Modulus (GPa) = -6.47682 21.48231 7.50274
#
# Velocity S-wave (km/s) = -1.83879 3.34882 1.97907
# Velocity P-wave (km/s) = 1.13445 5.67325 4.09101
#
# Compressibility (1/GPa) = 0.09008169
#
# Stress axis : x y z
#
# Youngs Moduli (GPa) = 9.00760 63.85149 88.47254
#
# Poissons Ratio (x) = 0.56246 1.22920
# Poissons Ratio (y) = 0.07935 0.11038
# Poissons Ratio (z) = 0.12515 0.07966
#
# Static dielectric constant tensor:
#      x y z
#    x 1.651710 0.000000 -0.027710 
#    y 0.000000 1.742710 0.000000 
#    z -0.027710 0.000000 1.745170 
# 
# From -- ./inp_files/51597.got.cif
#   From: 2010.05.17/outbox.cif.g08.bks.cpg/sg10_26_cif.got.tgz:51597.got - 2010.06.03 11:33:40.
