data_PCOD9143845
_publ_section_title
;
Structure prediction by ZEFSAII (Michael W. Deem and Ramdas Pophale) SiO2 
 PCOD9143845
Probable space group: P 2/M
;
_chemical_formula_sum "Si O2"
_cell_formula_units_Z 28
_cell_length_a 9.928654
_cell_length_b 8.665226
_cell_length_c 29.003896
_cell_angle_alpha 90.000000
_cell_angle_beta 140.802676
_cell_angle_gamma 90.000000
_cell_volume 1577.026358
_symmetry_space_group_name_H-M "P 2/M"
_symmetry_group_IT_number 10
_symmetry_cell_setting 'monoclinic'
loop_
_space_group_symop_operation_xyz
x,y,z
-x,y,-z
-x,-y,-z
x,-y,z
loop_
_atom_site_type_symbol
_atom_site_label
_atom_site_fract_x
_atom_site_fract_y
_atom_site_fract_z
Si Si1 0.179910 0.185134 0.945707
Si Si2 0.276945 0.816757 0.703887
Si Si3 0.267472 0.315616 0.185485
Si Si4 0.625594 0.814058 0.103305
Si Si5 0.324464 0.312932 0.307049
Si Si6 0.927993 0.315297 0.261140
Si Si7 0.795718 0.313110 0.416772
O O1 0.256857 0.223124 0.913944
O O2 0.953635 0.261868 0.895172
O O3 0.157571 0.000000 0.941937
O O4 0.377811 0.229082 0.030850
O O5 0.517546 0.757562 0.777409
O O6 0.125064 0.758831 0.704131
O O7 0.208107 0.748060 0.636328
O O8 0.278217 0.000000 0.701824
O O9 0.286431 0.500000 0.188737
O O10 0.262280 0.267371 0.238332
O O11 0.744443 0.731624 0.176303
O O12 0.636619 0.000000 0.112090
O O13 0.319161 0.500000 0.306484
O O14 0.569321 0.265455 0.379110
O O15 0.149949 0.259439 0.297268
O O16 0.934313 0.500000 0.267438
O O17 0.797922 0.500000 0.415386
O O18 0.000000 0.261803 0.500000
#
# Coordination Sequence:
#
# PCOD9143845 Si02
#       7
#     4   4   4   4   4   4   4
#     4   9  17  30  49  75 107 142 179 222 270 319
#     4  11  23  37  54  78 109 144 177 216 269 324
#     4  10  18  33  54  78 104 136 183 230 267 316
#     4   9  18  31  48  74 109 144 179 219 268 321
#     4   8  16  30  52  81 106 133 173 216 260 308
#     4  11  20  34  53  77 108 142 181 225 268 314
#     4   9  18  37  63  87 110 137 172 215 260 312
#
# _framework density 17.754935
#
# number of rings (size 3 to 8) (size 9 to 14) (size 15 to 20)
#    0.000    2.429    1.429    3.857    0.000    0.857 
#    0.000    3.571    0.000    8.571    0.000    0.000 
#    0.000    0.000    0.000    0.000    0.000    0.000 
#
# Total GULP energy -156187.091348 kJ/mol
# GULP energy per Si atom -5578.110405 kJ/mol
# Density = 1.771452 g / cm^3
# Si number density = 17.754935 Si / 1000 Ang^3
#
#
#
# Elastic Constant Matrix: (Units=GPa)
#
#
# Indices 1 2 3 4 5 6 
#
# 1 116.2602 22.0442 51.3041 0.0000 14.8819 0.0000
# 2 22.0442 33.7537 25.1219 0.0000 4.1128 0.0000
# 3 51.3041 25.1219 114.6223 0.0000 22.2921 0.0000
# 4 0.0000 0.0000 0.0000 12.9249 0.0000 -2.6205
# 5 14.8819 4.1128 22.2921 0.0000 20.5029 0.0000
# 6 0.0000 0.0000 0.0000 -2.6205 0.0000 19.0741
#
#
#
# Elastic Compliance Matrix: (Units=1/GPa)
#
#
# Indices 1 2 3 4 5 6 
#
# 1 0.011429 -0.004471 -0.003420 0.000000 -0.003681 0.000000
# 2 -0.004471 0.037196 -0.006761 0.000000 0.003135 0.000000
# 3 -0.003420 -0.006761 0.013938 0.000000 -0.011315 0.000000
# 4 0.000000 0.000000 0.000000 0.079587 0.000000 0.010934
# 5 -0.003681 0.003135 -0.011315 0.000000 0.063119 0.000000
# 6 0.000000 0.000000 0.000000 0.010934 0.000000 0.053929
#
#
# Mechanical properties :
#
#
# Convention : Reuss Voigt Hill
#
# Bulk Modulus (GPa) = 30.06620 51.28630 40.67625
# Shear Modulus (GPa) = 16.68959 21.57810 19.13384
#
# Velocity S-wave (km/s) = 3.06926 3.48994 3.28634
# Velocity P-wave (km/s) = 5.43427 6.72220 6.11225
#
# Compressibility (1/GPa) = 0.03325994
#
# Stress axis : x y z
#
# Youngs Moduli (GPa) = 87.49326 26.88452 71.74876
#
# Poissons Ratio (x) = 0.12019 0.24539
# Poissons Ratio (y) = 0.39114 0.48509
# Poissons Ratio (z) = 0.29924 0.18177
#
# Static dielectric constant tensor:
#      x y z
#    x 1.605460 0.000000 0.018980 
#    y 0.000000 1.595750 0.000000 
#    z 0.018980 0.000000 1.598170 
# 
# From -- ./inp_files/36986.got.cif
#   From: 2010.05.17/outbox.cif.g08.bks.cpg/sg10_19_cif.got.tgz:36986.got - 2010.06.03 11:33:40.
