data_PCOD9143678
_publ_section_title
;
Structure prediction by ZEFSAII (Michael W. Deem and Ramdas Pophale) SiO2 
 PCOD9143678
Probable space group: P 2/M
;
_chemical_formula_sum "Si O2"
_cell_formula_units_Z 22
_cell_length_a 15.553854
_cell_length_b 13.585549
_cell_length_c 5.508955
_cell_angle_alpha 90.000000
_cell_angle_beta 98.949057
_cell_angle_gamma 90.000000
_cell_volume 1149.913959
_symmetry_space_group_name_H-M "P 2/M"
_symmetry_group_IT_number 10
_symmetry_cell_setting 'monoclinic'
loop_
_space_group_symop_operation_xyz
x,y,z
-x,y,-z
-x,-y,-z
x,-y,z
loop_
_atom_site_type_symbol
_atom_site_label
_atom_site_fract_x
_atom_site_fract_y
_atom_site_fract_z
Si Si1 0.603651 0.713149 0.030809
Si Si2 0.000000 0.805889 0.000000
Si Si3 0.675419 0.616267 0.563004
Si Si4 0.281690 0.889506 0.075217
Si Si5 0.887665 0.106488 0.338049
Si Si6 0.166783 0.256598 0.313882
O O1 0.632241 0.654503 0.797277
O O2 0.644554 0.821816 0.012080
O O3 0.500000 0.715535 0.000000
O O4 0.639584 0.666691 0.299063
O O5 0.086316 0.742441 0.092398
O O6 0.970704 0.877641 0.203620
O O7 0.662682 0.500000 0.538945
O O8 0.777389 0.646173 0.626768
O O9 0.239426 0.825406 0.272411
O O10 0.309324 0.000000 0.155386
O O11 0.199932 0.897725 0.859576
O O12 0.877574 0.207882 0.475340
O O13 0.891093 0.000000 0.468608
#
# Coordination Sequence:
#
# PCOD9143678 Si02
#       6
#     4   2   4   4   4   4
#     4  11  23  41  65  95 123 153 199 252 303 363
#     4  10  21  32  51  84 118 152 199 248 293 342
#     4  11  24  43  66  89 119 159 202 253 311 358
#     4   9  19  35  56  85 122 163 198 235 293 363
#     4  10  18  32  54  80 116 157 196 239 293 352
#     4  10  20  36  56  81 118 159 201 248 295 355
#
# _framework density 19.131867
#
# number of rings (size 3 to 8) (size 9 to 14) (size 15 to 20)
#    0.000    1.818    1.818    2.455    0.000    5.455 
#    0.000    0.455    0.000    5.455    0.000    0.000 
#    0.000    0.000    0.000    0.000    0.000    0.000 
#
# Total GULP energy -122552.736096 kJ/mol
# GULP energy per Si atom -5570.578913 kJ/mol
# Density = 1.908832 g / cm^3
# Si number density = 19.131867 Si / 1000 Ang^3
#
#
#
# Elastic Constant Matrix: (Units=GPa)
#
#
# Indices 1 2 3 4 5 6 
#
# 1 121.2228 42.9473 31.4177 0.0000 -1.0994 0.0000
# 2 42.9473 92.3651 22.5906 0.0000 -1.3712 0.0000
# 3 31.4177 22.5906 77.7722 0.0000 -9.4772 0.0000
# 4 0.0000 0.0000 0.0000 13.1641 0.0000 -16.1143
# 5 -1.0994 -1.3712 -9.4772 0.0000 30.9795 0.0000
# 6 0.0000 0.0000 0.0000 -16.1143 0.0000 -23.1181
#
#
#
# Elastic Compliance Matrix: (Units=1/GPa)
#
#
# Indices 1 2 3 4 5 6 
#
# 1 0.010522 -0.004135 -0.003143 0.000000 -0.000771 0.000000
# 2 -0.004135 0.013288 -0.002218 0.000000 -0.000237 0.000000
# 3 -0.003143 -0.002218 0.015318 0.000000 0.004476 0.000000
# 4 0.000000 0.000000 0.000000 0.040990 0.000000 -0.028571
# 5 -0.000771 -0.000237 0.004476 0.000000 0.033611 0.000000
# 6 0.000000 0.000000 0.000000 -0.028571 0.000000 -0.023341
#
#
# Mechanical properties :
#
#
# Convention : Reuss Voigt Hill
#
# Bulk Modulus (GPa) = 49.66632 53.91903 51.79268
# Shear Modulus (GPa) = 43.06886 17.16538 30.11712
#
# Velocity S-wave (km/s) = 4.74978 2.99860 3.97191
# Velocity P-wave (km/s) = 7.48979 6.34294 6.94009
#
# Compressibility (1/GPa) = 0.02013437
#
# Stress axis : x y z
#
# Youngs Moduli (GPa) = 95.03933 75.25395 65.28371
#
# Poissons Ratio (x) = 0.31118 0.20521
# Poissons Ratio (y) = 0.39299 0.14482
# Poissons Ratio (z) = 0.29875 0.16694
#
# Static dielectric constant tensor:
#      x y z
#    x 1.661560 0.000000 0.003440 
#    y 0.000000 1.663480 0.000000 
#    z 0.003440 0.000000 1.761300 
# 
# From -- ./inp_files/8975.got.cif
#   From: 2010.05.17/outbox.cif.g08.bks.cpg/sg10_5_cif.got.tgz:8975.got - 2010.06.03 11:33:40.
