data_PCOD9143070
_publ_section_title
;
Structure prediction by ZEFSAII (Michael W. Deem and Ramdas Pophale) SiO2 
 PCOD9143070
Probable space group: P 2/M
;
_chemical_formula_sum "Si O2"
_cell_formula_units_Z 32
_cell_length_a 14.774675
_cell_length_b 7.423849
_cell_length_c 14.579017
_cell_angle_alpha 90.000000
_cell_angle_beta 120.138616
_cell_angle_gamma 90.000000
_cell_volume 1382.921815
_symmetry_space_group_name_H-M "P 2/M"
_symmetry_group_IT_number 10
_symmetry_cell_setting 'monoclinic'
loop_
_space_group_symop_operation_xyz
x,y,z
-x,y,-z
-x,-y,-z
x,-y,z
loop_
_atom_site_type_symbol
_atom_site_label
_atom_site_fract_x
_atom_site_fract_y
_atom_site_fract_z
Si Si1 0.311132 0.216864 0.273704
Si Si2 0.888440 0.290126 0.472740
Si Si3 0.748955 0.781378 0.953380
Si Si4 0.535962 0.294270 0.423869
Si Si5 0.475758 0.215880 0.089059
Si Si6 0.335761 0.283114 0.674937
Si Si7 0.024065 0.219901 0.907041
Si Si8 0.854497 0.217886 0.668842
O O1 0.243416 0.264043 0.150508
O O2 0.425476 0.294779 0.315162
O O3 0.254809 0.274178 0.338713
O O4 0.320480 0.000000 0.280027
O O5 0.892045 0.500000 0.447507
O O6 0.782334 0.215529 0.372397
O O7 0.872792 0.280425 0.574732
O O8 0.000000 0.210032 0.500000
O O9 0.637196 0.716361 0.933616
O O10 0.747050 0.000000 0.957362
O O11 0.856821 0.724134 0.054914
O O12 0.500000 0.204247 0.500000
O O13 0.566993 0.500000 0.459901
O O14 0.620810 0.211410 0.400357
O O15 0.575468 0.247749 0.204944
O O16 0.464827 0.000000 0.078772
O O17 0.500000 0.284750 0.000000
O O18 0.330808 0.500000 0.663647
O O19 0.943476 0.276459 0.786929
O O20 0.019154 0.000000 0.905586
O O21 0.000000 0.275631 0.000000
O O22 0.854686 0.000000 0.666597
#
# Coordination Sequence:
#
# PCOD9143070 Si02
#       8
#     4   4   4   4   4   4   4   4
#     4  10  18  30  51  79 110 143 178 219 270 326
#     4  10  23  43  62  78 105 149 190 227 279 335
#     4   9  16  29  49  74 108 145 177 214 263 321
#     4  10  20  33  51  77 108 143 182 223 271 325
#     4  10  21  36  56  83 113 146 183 225 276 327
#     4  10  21  38  59  81 106 143 188 229 274 327
#     4   9  15  27  49  77 110 145 179 218 268 327
#     4  10  20  33  56  89 114 141 187 234 275 321
#
# _framework density 23.139415
#
# number of rings (size 3 to 8) (size 9 to 14) (size 15 to 20)
#    0.000    2.250    2.500    0.750    0.000    3.750 
#    0.000    1.250    0.000    1.875    0.000    0.000 
#    0.000    0.000    0.000    0.000    0.000    0.000 
#
# Total GULP energy -178674.426521 kJ/mol
# GULP energy per Si atom -5583.575829 kJ/mol
# Density = 2.308675 g / cm^3
# Si number density = 23.139415 Si / 1000 Ang^3
#
#
#
# Elastic Constant Matrix: (Units=GPa)
#
#
# Indices 1 2 3 4 5 6 
#
# 1 177.0460 3.7065 51.5756 0.0000 16.8898 0.0000
# 2 3.7065 75.8113 -5.4478 0.0000 2.3623 0.0000
# 3 51.5756 -5.4478 88.4822 0.0000 13.6212 0.0000
# 4 0.0000 0.0000 0.0000 14.7296 0.0000 13.5060
# 5 16.8898 2.3623 13.6212 0.0000 40.8094 0.0000
# 6 0.0000 0.0000 0.0000 13.5060 0.0000 -15.3842
#
#
#
# Elastic Compliance Matrix: (Units=1/GPa)
#
#
# Indices 1 2 3 4 5 6 
#
# 1 0.006925 -0.000565 -0.003832 0.000000 -0.001554 0.000000
# 2 -0.000565 0.013342 0.001301 0.000000 -0.000972 0.000000
# 3 -0.003832 0.001301 0.014108 0.000000 -0.003198 0.000000
# 4 0.000000 0.000000 0.000000 0.037613 0.000000 0.033021
# 5 -0.001554 -0.000972 -0.003198 0.000000 0.026271 0.000000
# 6 0.000000 0.000000 0.000000 0.033021 0.000000 -0.036012
#
#
# Mechanical properties :
#
#
# Convention : Reuss Voigt Hill
#
# Bulk Modulus (GPa) = 35.48458 49.00089 42.24273
# Shear Modulus (GPa) = 64.24022 27.46464 45.85243
#
# Velocity S-wave (km/s) = 5.27471 3.44891 4.45631
# Velocity P-wave (km/s) = 7.24328 6.08952 6.69132
#
# Compressibility (1/GPa) = 0.02818125
#
# Stress axis : x y z
#
# Youngs Moduli (GPa) = 144.41223 74.95085 70.88331
#
# Poissons Ratio (x) = 0.04238 0.27162
# Poissons Ratio (y) = 0.08166 -0.09220
# Poissons Ratio (z) = 0.55337 -0.09749
#
# Static dielectric constant tensor:
#      x y z
#    x 1.882230 0.000000 0.031340 
#    y 0.000000 1.879630 0.000000 
#    z 0.031340 0.000000 1.885730 
# 
# From -- ./inp_files/66621.got.cif
#   From: 2010.05.17/outbox.cif.g08.bks.cpg/sg10_34_cif.got.tgz:66621.got - 2010.06.03 11:33:40.
