data_PCOD9143773
_publ_section_title
;
Structure prediction by ZEFSAII (Michael W. Deem and Ramdas Pophale) SiO2 
 PCOD9143773
Probable space group: P 2/M
;
_chemical_formula_sum "Si O2"
_cell_formula_units_Z 32
_cell_length_a 10.893849
_cell_length_b 22.179874
_cell_length_c 8.751042
_cell_angle_alpha 90.000000
_cell_angle_beta 51.561694
_cell_angle_gamma 90.000000
_cell_volume 1656.212755
_symmetry_space_group_name_H-M "P 2/M"
_symmetry_group_IT_number 10
_symmetry_cell_setting 'monoclinic'
loop_
_space_group_symop_operation_xyz
x,y,z
-x,y,-z
-x,-y,-z
x,-y,z
loop_
_atom_site_type_symbol
_atom_site_label
_atom_site_fract_x
_atom_site_fract_y
_atom_site_fract_z
Si Si1 0.686306 0.567587 0.339581
Si Si2 0.147857 0.221235 0.162020
Si Si3 0.909402 0.391853 0.427708
Si Si4 0.832424 0.108939 0.079892
Si Si5 0.194698 0.741572 0.449036
Si Si6 0.353180 0.166281 0.506768
Si Si7 0.491072 0.068263 0.822886
Si Si8 0.860696 0.336036 0.998408
O O1 0.500000 0.574134 0.500000
O O2 0.718807 0.500000 0.254531
O O3 0.779881 0.574145 0.427556
O O4 0.753390 0.619000 0.176865
O O5 0.229523 0.224190 0.263592
O O6 0.216384 0.276756 0.011575
O O7 0.971074 0.237542 0.350760
O O8 0.145710 0.161735 0.063254
O O9 0.826071 0.329931 0.551596
O O10 0.000000 0.421197 0.500000
O O11 0.047069 0.372170 0.204503
O O12 0.778436 0.139309 0.280660
O O13 0.683363 0.073818 0.120073
O O14 0.000000 0.079847 0.000000
O O15 0.317454 0.767598 0.471806
O O16 0.500000 0.170976 0.500000
O O17 0.399438 0.118184 0.340818
O O18 0.546346 0.000000 0.748112
O O19 0.500000 0.076494 0.000000
O O20 0.000000 0.312934 0.000000
#
# Coordination Sequence:
#
# PCOD9143773 Si02
#       8
#     4   4   4   4   4   4   4   4
#     4  10  23  41  59  82 117 159 199 248 294 341
#     4  10  18  32  57  85 120 151 182 238 300 353
#     4  10  19  36  61  89 115 150 196 239 295 351
#     4  11  21  34  60  93 119 150 198 249 296 344
#     4  10  18  34  57  85 121 154 184 237 298 358
#     4  10  22  36  58  88 118 157 197 238 292 356
#     4  10  23  45  63  79 116 165 204 243 292 351
#     4   9  18  33  59  84 112 150 194 237 283 353
#
# _framework density 19.321190000000001
#
# number of rings (size 3 to 8) (size 9 to 14) (size 15 to 20)
#    0.000    2.000    3.750    1.125    3.500    5.500 
#    2.250    0.625    0.000    3.000    0.000    0.000 
#    0.000    0.000    0.000    0.000    0.000    0.000 
#
# Total GULP energy -178241.387156 kJ/mol
# GULP energy per Si atom -5570.043349 kJ/mol
# Density = 1.927721 g / cm^3
# Si number density = 19.321190 Si / 1000 Ang^3
#
#
#
# Elastic Constant Matrix: (Units=GPa)
#
#
# Indices 1 2 3 4 5 6 
#
# 1 55.8407 13.5918 23.7069 0.0000 13.5959 0.0000
# 2 13.5918 67.4611 15.9296 0.0000 5.7117 0.0000
# 3 23.7069 15.9296 51.2535 0.0000 16.0728 0.0000
# 4 0.0000 0.0000 0.0000 4.9793 0.0000 4.4963
# 5 13.5959 5.7117 16.0728 0.0000 24.5123 0.0000
# 6 0.0000 0.0000 0.0000 4.4963 0.0000 19.2027
#
#
#
# Elastic Compliance Matrix: (Units=1/GPa)
#
#
# Indices 1 2 3 4 5 6 
#
# 1 0.023613 -0.002266 -0.007901 0.000000 -0.007388 0.000000
# 2 -0.002266 0.016222 -0.004031 0.000000 0.000120 0.000000
# 3 -0.007901 -0.004031 0.028638 0.000000 -0.013457 0.000000
# 4 0.000000 0.000000 0.000000 0.254682 0.000000 -0.059634
# 5 -0.007388 0.000120 -0.013457 0.000000 0.053689 0.000000
# 6 0.000000 0.000000 0.000000 -0.059634 0.000000 0.066039
#
#
# Mechanical properties :
#
#
# Convention : Reuss Voigt Hill
#
# Bulk Modulus (GPa) = 24.95236 31.22355 28.08795
# Shear Modulus (GPa) = 10.31697 17.82732 14.07214
#
# Velocity S-wave (km/s) = 2.31329 3.04086 2.70168
# Velocity P-wave (km/s) = 4.48081 5.34083 4.92961
#
# Compressibility (1/GPa) = 0.04007638
#
# Stress axis : x y z
#
# Youngs Moduli (GPa) = 42.34997 61.64601 34.91857
#
# Poissons Ratio (x) = 0.13971 0.27588
# Poissons Ratio (y) = 0.09598 0.14076
# Poissons Ratio (z) = 0.33459 0.24851
#
# Static dielectric constant tensor:
#      x y z
#    x 1.726310 0.000000 -0.009780 
#    y 0.000000 1.666530 0.000000 
#    z -0.009780 0.000000 1.758520 
# 
# From -- ./inp_files/26069.got.cif
#   From: 2010.05.17/outbox.cif.g08.bks.cpg/sg10_14_cif.got.tgz:26069.got - 2010.06.03 11:33:40.
