data_PCOD9143244
_publ_section_title
;
Structure prediction by ZEFSAII (Michael W. Deem and Ramdas Pophale) SiO2 
 PCOD9143244
Probable space group: P 2/M
;
_chemical_formula_sum "Si O2"
_cell_formula_units_Z 32
_cell_length_a 17.103219
_cell_length_b 7.704675
_cell_length_c 24.000427
_cell_angle_alpha 90.000000
_cell_angle_beta 150.206112
_cell_angle_gamma 90.000000
_cell_volume 1571.461987
_symmetry_space_group_name_H-M "P 2/M"
_symmetry_group_IT_number 10
_symmetry_cell_setting 'monoclinic'
loop_
_space_group_symop_operation_xyz
x,y,z
-x,y,-z
-x,-y,-z
x,-y,z
loop_
_atom_site_type_symbol
_atom_site_label
_atom_site_fract_x
_atom_site_fract_y
_atom_site_fract_z
Si Si1 0.982024 0.696973 0.075446
Si Si2 0.078763 0.791360 0.836897
Si Si3 0.749552 0.198843 0.836819
Si Si4 0.992948 0.803279 0.324717
Si Si5 0.422868 0.790152 0.079759
Si Si6 0.474714 0.788348 0.737556
Si Si7 0.646215 0.702060 0.126754
Si Si8 0.888974 0.786973 0.483172
O O1 0.926358 0.500000 0.039258
O O2 0.988403 0.753780 0.143475
O O3 0.149956 0.708841 0.148569
O O4 0.860703 0.799941 0.960915
O O5 0.989304 0.724407 0.726390
O O6 0.084650 0.000000 0.834497
O O7 0.260529 0.728404 0.951537
O O8 0.579813 0.270540 0.750327
O O9 0.730516 0.000000 0.807164
O O10 0.804531 0.804755 0.215611
O O11 0.053591 0.725188 0.420221
O O12 0.056691 0.000000 0.362353
O O13 0.430733 0.738317 0.148625
O O14 0.578085 0.719911 0.146312
O O15 0.426402 0.000000 0.078794
O O16 0.294074 0.735338 0.633255
O O17 0.474122 0.000000 0.734705
O O18 0.673710 0.500000 0.130482
O O19 0.500000 0.769133 0.000000
O O20 0.000000 0.730949 0.500000
O O21 0.896026 0.000000 0.487098
#
# Coordination Sequence:
#
# PCOD9143244 Si02
#       8
#     4   4   4   4   4   4   4   4
#     4  11  21  32  49  77 111 141 171 209 264 319
#     4  10  19  32  50  74 102 133 171 209 257 312
#     4  10  18  32  53  77 108 142 176 213 256 307
#     4  10  20  34  54  75  98 134 175 216 257 310
#     4  10  18  31  50  72  99 131 170 210 252 306
#     4   9  17  30  52  79 102 131 170 214 259 302
#     4  11  22  32  44  68 102 135 166 207 258 307
#     4   9  17  31  53  80 106 131 170 219 262 300
#
# _framework density 20.363202999999999
#
# number of rings (size 3 to 8) (size 9 to 14) (size 15 to 20)
#    0.000    2.000    2.500    3.375    0.000    3.500 
#    0.000    0.000    0.000    5.625    0.000    5.250 
#    0.000    0.000    0.000    0.000    0.000    0.000 
#
# Total GULP energy -178480.634765 kJ/mol
# GULP energy per Si atom -5577.519836 kJ/mol
# Density = 2.031686 g / cm^3
# Si number density = 20.363203 Si / 1000 Ang^3
#
#
#
# Elastic Constant Matrix: (Units=GPa)
#
#
# Indices 1 2 3 4 5 6 
#
# 1 152.4909 -2.0952 40.3084 0.0000 -6.9258 0.0000
# 2 -2.0952 45.0340 1.1094 0.0000 -2.5695 0.0000
# 3 40.3084 1.1094 77.5721 0.0000 -10.9404 0.0000
# 4 0.0000 0.0000 0.0000 -6.1815 0.0000 -8.6860
# 5 -6.9258 -2.5695 -10.9404 0.0000 36.1528 0.0000
# 6 0.0000 0.0000 0.0000 -8.6860 0.0000 109.0815
#
#
#
# Elastic Compliance Matrix: (Units=1/GPa)
#
#
# Indices 1 2 3 4 5 6 
#
# 1 0.007614 0.000468 -0.003920 0.000000 0.000306 0.000000
# 2 0.000468 0.022325 -0.000341 0.000000 0.001573 0.000000
# 3 -0.003920 -0.000341 0.015485 0.000000 0.003911 0.000000
# 4 0.000000 0.000000 0.000000 -0.145494 0.000000 -0.011586
# 5 0.000306 0.001573 0.003911 0.000000 0.029014 0.000000
# 6 0.000000 0.000000 0.000000 -0.011586 0.000000 0.008245
#
#
# Mechanical properties :
#
#
# Convention : Reuss Voigt Hill
#
# Bulk Modulus (GPa) = 26.42766 39.30468 32.86617
# Shear Modulus (GPa) = -117.33726 43.52887 -36.90420
#
# Velocity S-wave (km/s) = -7.59916 4.62846 -4.26173
# Velocity P-wave (km/s) = 7.99938 6.92151 2.83574
#
# Compressibility (1/GPa) = 0.03783915
#
# Stress axis : x y z
#
# Youngs Moduli (GPa) = 131.33155 44.79206 64.57999
#
# Poissons Ratio (x) = -0.02097 0.25317
# Poissons Ratio (y) = -0.06150 0.02200
# Poissons Ratio (z) = 0.51484 0.01526
#
# Static dielectric constant tensor:
#      x y z
#    x 1.774430 0.000000 -0.034500 
#    y 0.000000 1.742630 0.000000 
#    z -0.034500 0.000000 1.725050 
# 
# From -- ./inp_files/89960.got.cif
#   From: 2010.05.17/outbox.cif.g08.bks.cpg/sg10_45_cif.got.tgz:89960.got - 2010.06.03 11:33:40.
