data_PCOD9143135
_publ_section_title
;
Structure prediction by ZEFSAII (Michael W. Deem and Ramdas Pophale) SiO2 
 PCOD9143135
Probable space group: P 2/M
;
_chemical_formula_sum "Si O2"
_cell_formula_units_Z 30
_cell_length_a 14.675621
_cell_length_b 7.657430
_cell_length_c 12.355185
_cell_angle_alpha 90.000000
_cell_angle_beta 64.036440
_cell_angle_gamma 90.000000
_cell_volume 1248.313222
_symmetry_space_group_name_H-M "P 2/M"
_symmetry_group_IT_number 10
_symmetry_cell_setting 'monoclinic'
loop_
_space_group_symop_operation_xyz
x,y,z
-x,y,-z
-x,-y,-z
x,-y,z
loop_
_atom_site_type_symbol
_atom_site_label
_atom_site_fract_x
_atom_site_fract_y
_atom_site_fract_z
Si Si1 0.573237 0.300798 0.234837
Si Si2 0.000000 0.235327 0.500000
Si Si3 0.707173 0.798855 0.972974
Si Si4 0.928166 0.704965 0.128832
Si Si5 0.776095 0.298704 0.539833
Si Si6 0.720535 0.716211 0.331375
Si Si7 0.619276 0.287133 0.796196
Si Si8 0.081615 0.699589 0.245284
O O1 0.543558 0.500000 0.275438
O O2 0.619536 0.226550 0.321305
O O3 0.477402 0.223646 0.221794
O O4 0.662958 0.299406 0.099344
O O5 0.896829 0.299104 0.492866
O O6 0.942173 0.179994 0.640191
O O7 0.630635 0.779998 0.911720
O O8 0.814239 0.731300 0.871954
O O9 0.718174 0.000000 0.997249
O O10 0.913222 0.500000 0.107091
O O11 0.817485 0.776105 0.210833
O O12 0.992009 0.711193 0.205676
O O13 0.000000 0.784982 0.000000
O O14 0.744120 0.500000 0.551803
O O15 0.739395 0.223371 0.444324
O O16 0.717075 0.230138 0.675320
O O17 0.721776 0.500000 0.330688
O O18 0.615570 0.500000 0.808147
O O19 0.084986 0.500000 0.288489
#
# Coordination Sequence:
#
# PCOD9143135 Si02
#       8
#     4   2   4   4   4   4   4   4
#     4  10  21  38  60  85 113 148 190 240 292 338
#     4  12  19  30  57  90 121 150 183 230 285 336
#     4  12  25  39  57  83 115 153 193 238 289 341
#     4   9  16  26  45  77 111 144 183 225 267 320
#     4  10  18  30  53  88 122 147 181 230 284 340
#     4   9  17  30  51  84 119 148 184 232 285 338
#     4  10  21  37  60  87 115 147 187 239 292 341
#     4  11  20  33  58  87 114 149 189 231 281 339
#
# _framework density 24.032430000000002
#
# number of rings (size 3 to 8) (size 9 to 14) (size 15 to 20)
#    0.000    1.733    2.667    3.600    0.000    4.800 
#    0.000    3.000    0.000    4.400    0.000    1.867 
#    0.000    0.000    0.000    0.000    0.000    0.000 
#
# Total GULP energy -167359.624174 kJ/mol
# GULP energy per Si atom -5578.654139 kJ/mol
# Density = 2.397773 g / cm^3
# Si number density = 24.032430 Si / 1000 Ang^3
#
#
#
# Elastic Constant Matrix: (Units=GPa)
#
#
# Indices 1 2 3 4 5 6 
#
# 1 106.9985 2.4629 -4.8232 0.0000 13.0841 0.0000
# 2 2.4629 67.1342 -3.8009 0.0000 2.0000 0.0000
# 3 -4.8232 -3.8009 67.0494 0.0000 11.6033 0.0000
# 4 0.0000 0.0000 0.0000 309.3785 0.0000 -185.2703
# 5 13.0841 2.0000 11.6033 0.0000 40.2950 0.0000
# 6 0.0000 0.0000 0.0000 -185.2703 0.0000 75.2447
#
#
#
# Elastic Compliance Matrix: (Units=1/GPa)
#
#
# Indices 1 2 3 4 5 6 
#
# 1 0.009846 -0.000180 0.001315 0.000000 -0.003567 0.000000
# 2 -0.000180 0.014988 0.001005 0.000000 -0.000975 0.000000
# 3 0.001315 0.001005 0.015943 0.000000 -0.005068 0.000000
# 4 0.000000 0.000000 0.000000 -0.006812 0.000000 -0.016773
# 5 -0.003567 -0.000975 -0.005068 0.000000 0.027483 0.000000
# 6 0.000000 0.000000 0.000000 -0.016773 0.000000 -0.028008
#
#
# Mechanical properties :
#
#
# Convention : Reuss Voigt Hill
#
# Bulk Modulus (GPa) = 22.19416 25.42885 23.81150
# Shear Modulus (GPa) = 113.17860 101.47319 107.32589
#
# Velocity S-wave (km/s) = 6.86996 6.50501 6.68997
# Velocity P-wave (km/s) = 8.49609 8.18683 8.34289
#
# Compressibility (1/GPa) = 0.04505691
#
# Stress axis : x y z
#
# Youngs Moduli (GPa) = 101.56907 66.71951 62.72343
#
# Poissons Ratio (x) = 0.01204 -0.08250
# Poissons Ratio (y) = 0.01833 -0.06306
# Poissons Ratio (z) = -0.13359 -0.06708
#
# Static dielectric constant tensor:
#      x y z
#    x 1.902780 0.000000 0.001280 
#    y 0.000000 2.001340 0.000000 
#    z 0.001280 0.000000 1.899710 
# 
# From -- ./inp_files/49743.got.cif
#   From: 2010.05.17/outbox.cif.g08.bks.cpg/sg10_25_cif.got.tgz:49743.got - 2010.06.03 11:33:40.
