data_PCOD9143481
_publ_section_title
;
Structure prediction by ZEFSAII (Michael W. Deem and Ramdas Pophale) SiO2 
 PCOD9143481
Probable space group: P 2/M
;
_chemical_formula_sum "Si O2"
_cell_formula_units_Z 32
_cell_length_a 11.372073
_cell_length_b 18.704328
_cell_length_c 11.009593
_cell_angle_alpha 90.000000
_cell_angle_beta 51.407725
_cell_angle_gamma 90.000000
_cell_volume 1830.375142
_symmetry_space_group_name_H-M "P 2/M"
_symmetry_group_IT_number 10
_symmetry_cell_setting 'monoclinic'
loop_
_space_group_symop_operation_xyz
x,y,z
-x,y,-z
-x,-y,-z
x,-y,z
loop_
_atom_site_type_symbol
_atom_site_label
_atom_site_fract_x
_atom_site_fract_y
_atom_site_fract_z
Si Si1 0.574239 0.583311 0.085320
Si Si2 0.745793 0.782237 0.172513
Si Si3 0.434947 0.289724 0.326132
Si Si4 0.125754 0.921801 0.024110
Si Si5 0.342364 0.205312 0.146694
Si Si6 0.863290 0.747903 0.354158
Si Si7 0.042280 0.121845 0.344134
Si Si8 0.166245 0.683531 0.089110
O O1 0.559743 0.500000 0.124025
O O2 0.496279 0.634911 0.235085
O O3 0.500000 0.595327 0.000000
O O4 0.747952 0.608727 0.965735
O O5 0.573887 0.755400 0.291798
O O6 0.821618 0.787100 0.254867
O O7 0.769035 0.854284 0.078147
O O8 0.830032 0.719190 0.045520
O O9 0.379382 0.246905 0.244626
O O10 0.288359 0.290511 0.504641
O O11 0.049150 0.914393 0.206565
O O12 0.201158 0.000000 0.970772
O O13 0.000000 0.920252 0.000000
O O14 0.212964 0.148450 0.248256
O O15 0.275728 0.263578 0.095564
O O16 0.500000 0.174449 0.000000
O O17 0.932224 0.809125 0.397636
O O18 0.999458 0.692081 0.247651
O O19 0.000000 0.086081 0.500000
#
# Coordination Sequence:
#
# PCOD9143481 Si02
#       8
#     4   4   4   4   4   4   4   4
#     4  10  19  34  55  82 115 152 188 223 281 350
#     4  11  19  36  57  81 108 143 195 236 270 336
#     4  11  20  33  56  82 115 142 183 237 289 327
#     4  11  21  36  59  83 114 153 193 233 281 345
#     4  11  16  30  51  82 101 141 183 227 280 325
#     4  11  21  32  54  88 108 137 192 233 291 325
#     4  11  21  33  55  84 117 144 177 247 287 335
#     4  10  18  31  57  77 108 137 186 238 266 324
#
# _framework density 17.482755000000001
#
# number of rings (size 3 to 8) (size 9 to 14) (size 15 to 20)
#    0.000    1.250    8.750    0.750    0.000    0.250 
#    0.000    0.625    0.000   19.125    0.000    0.000 
#    0.000    0.000    0.000    0.000    0.000    0.000 
#
# Total GULP energy -178287.380002 kJ/mol
# GULP energy per Si atom -5571.480625 kJ/mol
# Density = 1.744296 g / cm^3
# Si number density = 17.482755 Si / 1000 Ang^3
#
#
#
# Elastic Constant Matrix: (Units=GPa)
#
#
# Indices 1 2 3 4 5 6 
#
# 1 87.2574 25.5809 41.9074 0.0000 -3.2591 0.0000
# 2 25.5809 91.0717 35.1272 0.0000 -9.0462 0.0000
# 3 41.9074 35.1272 105.2299 0.0000 -9.2789 0.0000
# 4 0.0000 0.0000 0.0000 6.7204 0.0000 -17.8353
# 5 -3.2591 -9.0462 -9.2789 0.0000 36.2455 0.0000
# 6 0.0000 0.0000 0.0000 -17.8353 0.0000 -29.4857
#
#
#
# Elastic Compliance Matrix: (Units=1/GPa)
#
#
# Indices 1 2 3 4 5 6 
#
# 1 0.014529 -0.002163 -0.005112 0.000000 -0.000542 0.000000
# 2 -0.002163 0.013086 -0.003311 0.000000 0.002224 0.000000
# 3 -0.005112 -0.003311 0.012820 0.000000 0.001996 0.000000
# 4 0.000000 0.000000 0.000000 0.057115 0.000000 -0.034548
# 5 -0.000542 0.002224 0.001996 0.000000 0.028607 0.000000
# 6 0.000000 0.000000 0.000000 -0.034548 0.000000 -0.013018
#
#
# Mechanical properties :
#
#
# Convention : Reuss Voigt Hill
#
# Bulk Modulus (GPa) = 51.91154 54.30999 53.11077
# Shear Modulus (GPa) = 35.52851 14.75893 25.14372
#
# Velocity S-wave (km/s) = 4.51289 2.90866 3.79648
# Velocity P-wave (km/s) = 7.54403 6.51251 7.04717
#
# Compressibility (1/GPa) = 0.01926354
#
# Stress axis : x y z
#
# Youngs Moduli (GPa) = 68.82583 76.41850 78.00332
#
# Poissons Ratio (x) = 0.16531 0.39875
# Poissons Ratio (y) = 0.14889 0.25824
# Poissons Ratio (z) = 0.35184 0.25299
#
# Static dielectric constant tensor:
#      x y z
#    x 1.614660 0.000000 0.016990 
#    y 0.000000 1.582780 0.000000 
#    z 0.016990 0.000000 1.648570 
# 
# From -- ./inp_files/47817.got.cif
#   From: 2010.05.17/outbox.cif.g08.bks.cpg/sg10_24_cif.got.tgz:47817.got - 2010.06.03 11:33:40.
