data_PCOD9143372
_publ_section_title
;
Structure prediction by ZEFSAII (Michael W. Deem and Ramdas Pophale) SiO2 
 PCOD9143372
Probable space group: P 2/M
;
_chemical_formula_sum "Si O2"
_cell_formula_units_Z 24
_cell_length_a 12.324581
_cell_length_b 8.344336
_cell_length_c 24.121879
_cell_angle_alpha 90.000000
_cell_angle_beta 33.818612
_cell_angle_gamma 90.000000
_cell_volume 1380.674749
_symmetry_space_group_name_H-M "P 2/M"
_symmetry_group_IT_number 10
_symmetry_cell_setting 'monoclinic'
loop_
_space_group_symop_operation_xyz
x,y,z
-x,y,-z
-x,-y,-z
x,-y,z
loop_
_atom_site_type_symbol
_atom_site_label
_atom_site_fract_x
_atom_site_fract_y
_atom_site_fract_z
Si Si1 0.796486 0.187983 0.420053
Si Si2 0.298778 0.190548 0.112041
Si Si3 0.506206 0.693174 0.365560
Si Si4 0.210694 0.312169 0.270394
Si Si5 0.220039 0.304026 0.389622
Si Si6 0.879078 0.308892 0.264437
O O1 0.605186 0.241407 0.533320
O O2 0.798442 0.225466 0.354222
O O3 0.977373 0.287614 0.367851
O O4 0.832251 0.000000 0.413245
O O5 0.289122 0.228439 0.181772
O O6 0.105794 0.263212 0.165573
O O7 0.288306 0.000000 0.109459
O O8 0.500000 0.250007 0.000000
O O9 0.493853 0.500000 0.371144
O O10 0.381578 0.748994 0.365507
O O11 0.733890 0.735758 0.275948
O O12 0.255703 0.500000 0.246633
O O13 0.271788 0.252285 0.305147
O O14 0.216677 0.500000 0.390541
O O15 0.000000 0.253163 0.500000
O O16 0.867034 0.500000 0.277661
#
# Coordination Sequence:
#
# PCOD9143372 Si02
#       6
#     4   4   4   4   4   4
#     4  11  20  29  44  68 102 137 168 202 241 288
#     4  10  21  37  56  75  98 126 157 204 260 304
#     4  10  19  32  48  69  99 135 170 200 239 288
#     4  10  18  31  53  76  99 130 168 207 244 286
#     4   9  16  29  50  72 100 136 169 201 237 281
#     4  10  20  32  50  73  97 126 164 208 247 292
#
# _framework density 17.382807
#
# number of rings (size 3 to 8) (size 9 to 14) (size 15 to 20)
#    0.000    2.000    1.667    5.500    0.000    4.667 
#    0.000    2.500    0.000    1.000    0.000    7.000 
#    0.000    0.000    0.000    0.000    0.000    0.000 
#
# Total GULP energy -133826.898699 kJ/mol
# GULP energy per Si atom -5576.120779 kJ/mol
# Density = 1.734324 g / cm^3
# Si number density = 17.382807 Si / 1000 Ang^3
#
#
#
# Elastic Constant Matrix: (Units=GPa)
#
#
# Indices 1 2 3 4 5 6 
#
# 1 135.6372 6.3299 51.3217 0.0000 -14.2347 0.0000
# 2 6.3299 10.4680 -0.1857 0.0000 0.5341 0.0000
# 3 51.3217 -0.1857 87.6518 0.0000 -16.0169 0.0000
# 4 0.0000 0.0000 0.0000 21.2362 0.0000 -4.5820
# 5 -14.2347 0.5341 -16.0169 0.0000 10.4580 0.0000
# 6 0.0000 0.0000 0.0000 -4.5820 0.0000 -9.0302
#
#
#
# Elastic Compliance Matrix: (Units=1/GPa)
#
#
# Indices 1 2 3 4 5 6 
#
# 1 0.010196 -0.006607 -0.004702 0.000000 0.007014 0.000000
# 2 -0.006607 0.100118 0.002087 0.000000 -0.010909 0.000000
# 3 -0.004702 0.002087 0.018021 0.000000 0.021093 0.000000
# 4 0.000000 0.000000 0.000000 0.042443 0.000000 -0.021536
# 5 0.007014 -0.010909 0.021093 0.000000 0.138028 0.000000
# 6 0.000000 0.000000 0.000000 -0.021536 0.000000 -0.099812
#
#
# Mechanical properties :
#
#
# Convention : Reuss Voigt Hill
#
# Bulk Modulus (GPa) = 9.09994 38.74320 23.92157
# Shear Modulus (GPa) = 18.93443 16.28555 17.60999
#
# Velocity S-wave (km/s) = 3.30398 3.06416 3.18633
# Velocity P-wave (km/s) = 4.44988 5.90385 5.22766
#
# Compressibility (1/GPa) = 0.10989078
#
# Stress axis : x y z
#
# Youngs Moduli (GPa) = 98.07476 9.98820 55.49117
#
# Poissons Ratio (x) = 0.06599 0.26094
# Poissons Ratio (y) = 0.64797 -0.11581
# Poissons Ratio (z) = 0.46119 -0.02085
#
# Static dielectric constant tensor:
#      x y z
#    x 1.634230 0.000000 -0.000720 
#    y 0.000000 1.586360 0.000000 
#    z -0.000720 0.000000 1.570360 
# 
# From -- ./inp_files/56318.got.cif
#   From: 2010.05.17/outbox.cif.g08.bks.cpg/sg10_29_cif.got.tgz:56318.got - 2010.06.03 11:33:40.
