data_PCOD9143296
_publ_section_title
;
Structure prediction by ZEFSAII (Michael W. Deem and Ramdas Pophale) SiO2 
 PCOD9143296
Probable space group: P 2/M
;
_chemical_formula_sum "Si O2"
_cell_formula_units_Z 24
_cell_length_a 26.312013
_cell_length_b 8.693499
_cell_length_c 11.700056
_cell_angle_alpha 90.000000
_cell_angle_beta 150.390515
_cell_angle_gamma 90.000000
_cell_volume 1322.327398
_symmetry_space_group_name_H-M "P 2/M"
_symmetry_group_IT_number 10
_symmetry_cell_setting 'monoclinic'
loop_
_space_group_symop_operation_xyz
x,y,z
-x,y,-z
-x,-y,-z
x,-y,z
loop_
_atom_site_type_symbol
_atom_site_label
_atom_site_fract_x
_atom_site_fract_y
_atom_site_fract_z
Si Si1 0.107590 0.182111 0.841758
Si Si2 0.115637 0.682459 0.604988
Si Si3 0.621276 0.332338 0.749541
Si Si4 0.683564 0.176682 0.088240
Si Si5 0.490143 0.683692 0.845791
Si Si6 0.285862 0.322009 0.320789
O O1 0.137351 0.266143 0.779661
O O2 0.990532 0.233581 0.634342
O O3 0.113967 0.000000 0.835196
O O4 0.181073 0.231041 0.090384
O O5 0.100603 0.500000 0.573977
O O6 0.208315 0.732843 0.703055
O O7 0.500000 0.335808 0.500000
O O8 0.655006 0.500000 0.864790
O O9 0.664131 0.320736 0.707153
O O10 0.649494 0.197457 0.889879
O O11 0.700232 0.000000 0.150627
O O12 0.588548 0.244035 0.974846
O O13 0.492369 0.500000 0.826513
O O14 0.377787 0.738236 0.581515
O O15 0.500000 0.708702 0.000000
O O16 0.263034 0.500000 0.307573
#
# Coordination Sequence:
#
# PCOD9143296 Si02
#       6
#     4   4   4   4   4   4
#     4  11  21  33  51  81 117 148 181 221 272 328
#     4  11  21  35  54  77 111 152 188 221 265 324
#     4  10  18  31  51  76 109 145 181 220 267 328
#     4  12  23  34  53  81 115 146 179 226 278 330
#     4  10  22  41  62  81 105 144 192 234 273 324
#     4  10  19  33  55  81 111 147 184 223 270 326
#
# _framework density 18.149818
#
# number of rings (size 3 to 8) (size 9 to 14) (size 15 to 20)
#    0.000    1.333    3.333    5.500    0.000    1.333 
#    0.000    0.000    0.000    1.000    0.000    7.000 
#    0.000    0.000    0.000    0.000    0.000    0.000 
#
# Total GULP energy -133859.102704 kJ/mol
# GULP energy per Si atom -5577.462613 kJ/mol
# Density = 1.810851 g / cm^3
# Si number density = 18.149818 Si / 1000 Ang^3
#
#
#
# Elastic Constant Matrix: (Units=GPa)
#
#
# Indices 1 2 3 4 5 6 
#
# 1 34.0527 16.5747 36.8248 0.0000 1.3454 0.0000
# 2 16.5747 80.9341 28.8691 0.0000 -1.6069 0.0000
# 3 36.8248 28.8691 122.4482 0.0000 12.2206 0.0000
# 4 0.0000 0.0000 0.0000 1.1285 0.0000 13.0172
# 5 1.3454 -1.6069 12.2206 0.0000 17.1771 0.0000
# 6 0.0000 0.0000 0.0000 13.0172 0.0000 2.9348
#
#
#
# Elastic Compliance Matrix: (Units=1/GPa)
#
#
# Indices 1 2 3 4 5 6 
#
# 1 0.045622 -0.004531 -0.013190 0.000000 0.005386 0.000000
# 2 -0.004531 0.014174 -0.002311 0.000000 0.003325 0.000000
# 3 -0.013190 -0.002311 0.013559 0.000000 -0.008830 0.000000
# 4 0.000000 0.000000 0.000000 -0.017665 0.000000 0.078353
# 5 0.005386 0.003325 -0.008830 0.000000 0.064388 0.000000
# 6 0.000000 0.000000 0.000000 0.078353 0.000000 -0.006792
#
#
# Mechanical properties :
#
#
# Convention : Reuss Voigt Hill
#
# Bulk Modulus (GPa) = 30.03719 44.66358 37.35039
# Shear Modulus (GPa) = 30.40485 14.59250 22.49868
#
# Velocity S-wave (km/s) = 4.09738 2.83857 3.52463
# Velocity P-wave (km/s) = 6.24261 5.95021 6.09816
#
# Compressibility (1/GPa) = 0.03329206
#
# Stress axis : x y z
#
# Youngs Moduli (GPa) = 21.91907 70.55172 73.74976
#
# Poissons Ratio (x) = 0.31970 0.97273
# Poissons Ratio (y) = 0.09933 0.17042
# Poissons Ratio (z) = 0.28910 0.16303
#
# Static dielectric constant tensor:
#      x y z
#    x 1.601530 0.000000 0.031800 
#    y 0.000000 1.652650 0.000000 
#    z 0.031800 0.000000 1.681560 
# 
# From -- ./inp_files/57320.got.cif
#   From: 2010.05.17/outbox.cif.g08.bks.cpg/sg10_29_cif.got.tgz:57320.got - 2010.06.03 11:33:40.
