data_PCOD9143411
_publ_section_title
;
Structure prediction by ZEFSAII (Michael W. Deem and Ramdas Pophale) SiO2 
 PCOD9143411
Probable space group: P 2/M
;
_chemical_formula_sum "Si O2"
_cell_formula_units_Z 28
_cell_length_a 14.344030
_cell_length_b 8.318466
_cell_length_c 16.266306
_cell_angle_alpha 90.000000
_cell_angle_beta 141.291262
_cell_angle_gamma 90.000000
_cell_volume 1213.765049
_symmetry_space_group_name_H-M "P 2/M"
_symmetry_group_IT_number 10
_symmetry_cell_setting 'monoclinic'
loop_
_space_group_symop_operation_xyz
x,y,z
-x,y,-z
-x,-y,-z
x,-y,z
loop_
_atom_site_type_symbol
_atom_site_label
_atom_site_fract_x
_atom_site_fract_y
_atom_site_fract_z
Si Si1 0.859780 0.316677 0.446430
Si Si2 0.288389 0.691578 0.090445
Si Si3 0.049879 0.680076 0.737412
Si Si4 0.334466 0.693578 0.410277
Si Si5 0.600409 0.302409 0.364795
Si Si6 0.353188 0.193143 0.948454
Si Si7 0.969873 0.182870 0.853800
O O1 0.845363 0.500000 0.401869
O O2 0.696509 0.247175 0.351461
O O3 0.000000 0.231939 0.500000
O O4 0.925338 0.330391 0.583370
O O5 0.287073 0.500000 0.092304
O O6 0.428056 0.747659 0.241292
O O7 0.334422 0.745895 0.029414
O O8 0.121232 0.747412 0.998048
O O9 0.066747 0.500000 0.785042
O O10 0.204945 0.735554 0.804314
O O11 0.009833 0.796775 0.784131
O O12 0.500000 0.746032 0.500000
O O13 0.332953 0.500000 0.410154
O O14 0.326951 0.750654 0.499623
O O15 0.194992 0.741680 0.257799
O O16 0.604255 0.500000 0.365178
O O17 0.348586 0.000000 0.945727
O O18 0.500000 0.245176 0.000000
O O19 0.957800 0.000000 0.869761
#
# Coordination Sequence:
#
# PCOD9143411 Si02
#       7
#     4   4   4   4   4   4   4
#     4   9  17  28  48  78 111 140 173 229 286 323
#     4  10  20  34  57  81 107 145 189 233 279 329
#     4  10  18  31  54  76 101 138 188 233 271 322
#     4  10  20  38  65  91 113 141 181 230 280 332
#     4   9  18  34  55  84 116 141 180 237 285 328
#     4  10  21  34  47  68 107 148 186 233 279 327
#     4  11  21  36  57  80 114 149 182 222 274 332
#
# _framework density 23.068715000000001
#
# number of rings (size 3 to 8) (size 9 to 14) (size 15 to 20)
#    0.000    2.143    1.429    4.286    2.000    1.429 
#    0.000    2.143    0.000    6.000    0.000    0.000 
#    0.000    0.000    0.000    0.000    0.000    0.000 
#
# Total GULP energy -156130.127293 kJ/mol
# GULP energy per Si atom -5576.075975 kJ/mol
# Density = 2.301621 g / cm^3
# Si number density = 23.068715 Si / 1000 Ang^3
#
#
#
# Elastic Constant Matrix: (Units=GPa)
#
#
# Indices 1 2 3 4 5 6 
#
# 1 87.1334 7.3527 33.2590 0.0000 42.2247 0.0000
# 2 7.3527 39.8538 16.8345 0.0000 9.9996 0.0000
# 3 33.2590 16.8345 140.2350 0.0000 42.0614 0.0000
# 4 0.0000 0.0000 0.0000 -197.9259 0.0000 37.1035
# 5 42.2247 9.9996 42.0614 0.0000 47.0913 0.0000
# 6 0.0000 0.0000 0.0000 37.1035 0.0000 7.3660
#
#
#
# Elastic Compliance Matrix: (Units=1/GPa)
#
#
# Indices 1 2 3 4 5 6 
#
# 1 0.020393 0.000698 0.000831 0.000000 -0.019177 0.000000
# 2 0.000698 0.026962 -0.002045 0.000000 -0.004524 0.000000
# 3 0.000831 -0.002045 0.009934 0.000000 -0.009184 0.000000
# 4 0.000000 0.000000 0.000000 -0.002599 0.000000 0.013090
# 5 -0.019177 -0.004524 -0.009184 0.000000 0.047594 0.000000
# 6 0.000000 0.000000 0.000000 0.013090 0.000000 0.069825
#
#
# Mechanical properties :
#
#
# Convention : Reuss Voigt Hill
#
# Bulk Modulus (GPa) = 17.77537 42.45717 30.11627
# Shear Modulus (GPa) = 26.05603 -14.70867 5.67368
#
# Velocity S-wave (km/s) = 3.36444 -2.52782 1.56997
# Velocity P-wave (km/s) = 4.77648 3.15036 4.04596
#
# Compressibility (1/GPa) = 0.05625761
#
# Stress axis : x y z
#
# Youngs Moduli (GPa) = 49.03540 37.08915 100.66631
#
# Poissons Ratio (x) = -0.02589 -0.08369
# Poissons Ratio (y) = -0.03423 0.20588
# Poissons Ratio (z) = -0.04076 0.07585
#
# Static dielectric constant tensor:
#      x y z
#    x 1.949370 0.000000 0.027260 
#    y 0.000000 1.798540 0.000000 
#    z 0.027260 0.000000 1.935540 
# 
# From -- ./inp_files/85655.got.cif
#   From: 2010.05.17/outbox.cif.g08.bks.cpg/sg10_43_cif.got.tgz:85655.got - 2010.06.03 11:33:40.
