data_PCOD9143973
_publ_section_title
;
Structure prediction by ZEFSAII (Michael W. Deem and Ramdas Pophale) SiO2 
 PCOD9143973
Probable space group: P 2/M
;
_chemical_formula_sum "Si O2"
_cell_formula_units_Z 23
_cell_length_a 11.507920
_cell_length_b 12.024322
_cell_length_c 6.891766
_cell_angle_alpha 90.000000
_cell_angle_beta 109.315480
_cell_angle_gamma 90.000000
_cell_volume 899.968394
_symmetry_space_group_name_H-M "P 2/M"
_symmetry_group_IT_number 10
_symmetry_cell_setting 'monoclinic'
loop_
_space_group_symop_operation_xyz
x,y,z
-x,y,-z
-x,-y,-z
x,-y,z
loop_
_atom_site_type_symbol
_atom_site_label
_atom_site_fract_x
_atom_site_fract_y
_atom_site_fract_z
Si Si1 0.427043 0.000000 0.709765
Si Si2 0.121604 0.820988 0.938816
Si Si3 0.524397 0.245235 0.283425
Si Si4 0.284685 0.627475 0.084467
Si Si5 0.000000 0.500000 0.500000
Si Si6 0.238656 0.000000 0.276769
Si Si7 0.753074 0.619396 0.475150
Si Si8 0.845482 0.000000 0.347602
O O1 0.490308 0.883015 0.780352
O O2 0.369135 0.000000 0.457992
O O3 0.301909 0.000000 0.766963
O O4 0.182204 0.703435 0.930693
O O5 0.211806 0.893595 0.129217
O O6 0.104098 0.892595 0.735540
O O7 0.000000 0.809311 0.000000
O O8 0.500000 0.253711 0.500000
O O9 0.419668 0.321444 0.132387
O O10 0.665189 0.286249 0.338124
O O11 0.276801 0.500000 0.018810
O O12 0.251458 0.633894 0.294922
O O13 0.893381 0.595632 0.493103
O O14 0.148299 0.000000 0.415692
O O15 0.686584 0.500000 0.401271
#
# Coordination Sequence:
#
# PCOD9143973 Si02
#       8
#     2   4   4   4   1   2   4   2
#     4  10  21  37  61 103 131 169 221 285 353 412
#     4  11  23  42  67  97 139 185 230 286 343 414
#     4  10  18  33  62  95 135 173 231 281 342 417
#     4  10  21  38  63  94 130 183 236 281 344 407
#     4   8  16  32  54  90 146 162 228 292 332 404
#     4   9  19  40  70  95 137 176 223 281 349 419
#     4   8  16  32  55  92 128 176 216 281 338 392
#     4   9  23  43  66 101 136 174 232 286 352 417
#
# _framework density 25.556455
#
# number of rings (size 3 to 8) (size 9 to 14) (size 15 to 20)
#    1.043    1.391    0.000    3.913    0.000    5.217 
#    3.130    1.739    0.000    4.174    0.000    0.000 
#    0.000    0.000    0.000    0.000    0.000    0.000 
#
# Total GULP energy -128482.822234 kJ/mol
# GULP energy per Si atom -5586.209662 kJ/mol
# Density = 2.549829 g / cm^3
# Si number density = 25.556455 Si / 1000 Ang^3
#
#
#
# Elastic Constant Matrix: (Units=GPa)
#
#
# Indices 1 2 3 4 5 6 
#
# 1 194.2208 62.3305 22.1324 0.0000 -2.1802 0.0000
# 2 62.3305 181.2374 9.2877 0.0000 12.6336 0.0000
# 3 22.1324 9.2877 100.1834 0.0000 -20.2655 0.0000
# 4 0.0000 0.0000 0.0000 -13.8556 0.0000 17.4480
# 5 -2.1802 12.6336 -20.2655 0.0000 33.7489 0.0000
# 6 0.0000 0.0000 0.0000 17.4480 0.0000 34.9995
#
#
#
# Elastic Compliance Matrix: (Units=1/GPa)
#
#
# Indices 1 2 3 4 5 6 
#
# 1 0.005919 -0.002021 -0.001013 0.000000 0.000531 0.000000
# 2 -0.002021 0.006461 -0.000761 0.000000 -0.003006 0.000000
# 3 -0.001013 -0.000761 0.011747 0.000000 0.007273 0.000000
# 4 0.000000 0.000000 0.000000 -0.044338 0.000000 0.022104
# 5 0.000531 -0.003006 0.007273 0.000000 0.035158 0.000000
# 6 0.000000 0.000000 0.000000 0.022104 0.000000 0.017553
#
#
# Mechanical properties :
#
#
# Convention : Reuss Voigt Hill
#
# Bulk Modulus (GPa) = 60.46440 73.68254 67.07347
# Shear Modulus (GPa) = 109.64916 36.43794 73.04355
#
# Velocity S-wave (km/s) = 6.55727 3.78005 5.35194
# Velocity P-wave (km/s) = 9.00227 6.92427 8.03077
#
# Compressibility (1/GPa) = 0.01653866
#
# Stress axis : x y z
#
# Youngs Moduli (GPa) = 168.95841 154.77357 85.12633
#
# Poissons Ratio (x) = 0.31273 0.08622
# Poissons Ratio (y) = 0.34139 0.06475
# Poissons Ratio (z) = 0.17114 0.11773
#
# Static dielectric constant tensor:
#      x y z
#    x 2.013850 0.000000 -0.033500 
#    y 0.000000 1.952550 0.000000 
#    z -0.033500 0.000000 2.024000 
# 
# From -- ./inp_files/24230.got.cif
#   From: 2010.05.17/outbox.cif.g08.bks.cpg/sg10_13_cif.got.tgz:24230.got - 2010.06.03 11:33:40.
