data_PCOD9143674
_publ_section_title
;
Structure prediction by ZEFSAII (Michael W. Deem and Ramdas Pophale) SiO2 
 PCOD9143674
Probable space group: P 2/M
;
_chemical_formula_sum "Si O2"
_cell_formula_units_Z 32
_cell_length_a 21.375139
_cell_length_b 7.891020
_cell_length_c 26.559704
_cell_angle_alpha 90.000000
_cell_angle_beta 159.156918
_cell_angle_gamma 90.000000
_cell_volume 1593.981226
_symmetry_space_group_name_H-M "P 2/M"
_symmetry_group_IT_number 10
_symmetry_cell_setting 'monoclinic'
loop_
_space_group_symop_operation_xyz
x,y,z
-x,y,-z
-x,-y,-z
x,-y,z
loop_
_atom_site_type_symbol
_atom_site_label
_atom_site_fract_x
_atom_site_fract_y
_atom_site_fract_z
Si Si1 0.532205 0.303684 0.349634
Si Si2 0.494576 0.702956 0.053211
Si Si3 0.800440 0.292408 0.844413
Si Si4 0.097179 0.204514 0.770705
Si Si5 0.196852 0.699923 0.640964
Si Si6 0.186486 0.200168 0.361998
Si Si7 0.699264 0.704630 0.657504
Si Si8 0.191915 0.197307 0.524893
O O1 0.517478 0.500000 0.323687
O O2 0.340650 0.234745 0.220194
O O3 0.647178 0.291669 0.487315
O O4 0.647757 0.214611 0.393884
O O5 0.517192 0.500000 0.067522
O O6 0.649392 0.768894 0.206642
O O7 0.500000 0.771009 0.000000
O O8 0.296638 0.735964 0.922893
O O9 0.792751 0.500000 0.840173
O O10 0.749427 0.236985 0.750367
O O11 0.000000 0.239963 0.000000
O O12 0.984457 0.254834 0.735034
O O13 0.981983 0.264700 0.635539
O O14 0.098196 0.000000 0.769117
O O15 0.185491 0.500000 0.644115
O O16 0.235471 0.718501 0.610736
O O17 0.000000 0.773238 0.500000
O O18 0.183597 0.234179 0.300801
O O19 0.210150 0.000000 0.388725
O O20 0.500000 0.761259 0.500000
O O21 0.704242 0.500000 0.660434
O O22 0.161398 0.000000 0.512220
#
# Coordination Sequence:
#
# PCOD9143674 Si02
#       8
#     4   4   4   4   4   4   4   4
#     4  10  18  33  57  80 107 142 184 228 274 323
#     4  10  21  37  59  87 114 141 179 227 274 318
#     4   9  18  33  52  76 106 138 176 227 278 326
#     4   9  20  37  55  78 111 148 184 221 269 330
#     4  10  21  38  60  86 114 145 185 227 268 320
#     4  10  20  34  53  80 111 142 182 226 274 326
#     4  10  18  32  54  80 104 135 184 229 272 324
#     4  10  21  37  57  83 113 147 186 226 272 329
#
# _framework density 20.075517999999999
#
# number of rings (size 3 to 8) (size 9 to 14) (size 15 to 20)
#    0.000    2.250    1.250    2.625    0.000    5.250 
#    2.250    0.000    0.000    2.625    0.000    0.000 
#    0.000    0.000    0.000    0.000    0.000    0.000 
#
# Total GULP energy -178519.166756 kJ/mol
# GULP energy per Si atom -5578.723961 kJ/mol
# Density = 2.002982 g / cm^3
# Si number density = 20.075518 Si / 1000 Ang^3
#
#
#
# Elastic Constant Matrix: (Units=GPa)
#
#
# Indices 1 2 3 4 5 6 
#
# 1 104.3855 -4.0384 75.5239 0.0000 -1.8375 0.0000
# 2 -4.0384 23.6514 7.2806 0.0000 -2.8511 0.0000
# 3 75.5239 7.2806 172.2983 0.0000 1.2087 0.0000
# 4 0.0000 0.0000 0.0000 19.5505 0.0000 20.4366
# 5 -1.8375 -2.8511 1.2087 0.0000 29.6264 0.0000
# 6 0.0000 0.0000 0.0000 20.4366 0.0000 34.2493
#
#
#
# Elastic Compliance Matrix: (Units=1/GPa)
#
#
# Indices 1 2 3 4 5 6 
#
# 1 0.014561 0.004712 -0.006593 0.000000 0.001626 0.000000
# 2 0.004712 0.044891 -0.003996 0.000000 0.004775 0.000000
# 3 -0.006593 -0.003996 0.008871 0.000000 -0.001155 0.000000
# 4 0.000000 0.000000 0.000000 0.135943 0.000000 -0.081117
# 5 0.001626 0.004775 -0.001155 0.000000 0.034361 0.000000
# 6 0.000000 0.000000 0.000000 -0.081117 0.000000 0.077600
#
#
# Mechanical properties :
#
#
# Convention : Reuss Voigt Hill
#
# Bulk Modulus (GPa) = 17.67766 50.87417 34.27592
# Shear Modulus (GPa) = 14.41599 31.45652 22.93626
#
# Velocity S-wave (km/s) = 2.68262 3.96272 3.38375
# Velocity P-wave (km/s) = 4.29185 6.80690 5.69007
#
# Compressibility (1/GPa) = 0.05656856
#
# Stress axis : x y z
#
# Youngs Moduli (GPa) = 68.67721 22.27622 112.72992
#
# Poissons Ratio (x) = -0.10496 0.74323
# Poissons Ratio (y) = -0.32359 0.45043
# Poissons Ratio (z) = 0.45279 0.08901
#
# Static dielectric constant tensor:
#      x y z
#    x 1.708670 0.000000 0.011320 
#    y 0.000000 1.729680 0.000000 
#    z 0.011320 0.000000 1.686610 
# 
# From -- ./inp_files/86868.got.cif
#   From: 2010.05.17/outbox.cif.g08.bks.cpg/sg10_44_cif.got.tgz:86868.got - 2010.06.03 11:33:40.
