data_PCOD9143670
_publ_section_title
;
Structure prediction by ZEFSAII (Michael W. Deem and Ramdas Pophale) SiO2 
 PCOD9143670
Probable space group: P 2/M
;
_chemical_formula_sum "Si O2"
_cell_formula_units_Z 32
_cell_length_a 17.682350
_cell_length_b 8.885989
_cell_length_c 15.659957
_cell_angle_alpha 90.000000
_cell_angle_beta 46.086151
_cell_angle_gamma 90.000000
_cell_volume 1772.556425
_symmetry_space_group_name_H-M "P 2/M"
_symmetry_group_IT_number 10
_symmetry_cell_setting 'monoclinic'
loop_
_space_group_symop_operation_xyz
x,y,z
-x,y,-z
-x,-y,-z
x,-y,z
loop_
_atom_site_type_symbol
_atom_site_label
_atom_site_fract_x
_atom_site_fract_y
_atom_site_fract_z
Si Si1 0.441725 0.178534 0.133827
Si Si2 0.988209 0.177267 0.246105
Si Si3 0.398602 0.179450 0.834264
Si Si4 0.198168 0.677890 0.071076
Si Si5 0.536164 0.183488 0.564885
Si Si6 0.238406 0.817910 0.541988
Si Si7 0.229350 0.677661 0.361551
Si Si8 0.124189 0.176007 0.293940
O O1 0.520573 0.203496 0.151043
O O2 0.337328 0.273118 0.230791
O O3 0.414602 0.000000 0.154065
O O4 0.500000 0.214436 0.000000
O O5 0.869124 0.225212 0.325604
O O6 0.015484 0.192795 0.326516
O O7 0.082520 0.270059 0.129903
O O8 0.000629 0.000000 0.216400
O O9 0.455981 0.228233 0.702472
O O10 0.377932 0.000000 0.845935
O O11 0.291367 0.264077 0.939242
O O12 0.201575 0.500000 0.079757
O O13 0.204301 0.759736 0.159077
O O14 0.500000 0.234426 0.500000
O O15 0.654015 0.230804 0.497343
O O16 0.536830 0.000000 0.564067
O O17 0.232914 0.754028 0.451091
O O18 0.238686 0.000000 0.536421
O O19 0.222314 0.500000 0.376216
O O20 0.138246 0.737666 0.370525
O O21 0.143143 0.000000 0.293115
#
# Coordination Sequence:
#
# PCOD9143670 Si02
#       8
#     4   4   4   4   4   4   4   4
#     4  10  20  33  51  74 103 147 189 224 266 320
#     4   8  18  34  55  77 102 145 189 225 264 321
#     4  10  18  32  54  79 110 146 182 222 272 331
#     4  10  19  32  52  79 111 141 178 224 270 319
#     4   9  18  34  60  90 112 135 176 231 284 329
#     4  10  19  37  59  79 106 142 184 225 275 330
#     4  12  23  32  47  76 111 144 184 229 273 321
#     4   9  18  34  51  72 103 143 188 223 265 316
#
# _framework density 18.053021999999999
#
# number of rings (size 3 to 8) (size 9 to 14) (size 15 to 20)
#    0.750    1.500    1.250    3.000    0.000    2.750 
#    0.000    2.500    0.000    2.250    0.000    5.250 
#    0.000    0.000    0.000    0.000    0.000    0.000 
#
# Total GULP energy -178383.237832 kJ/mol
# GULP energy per Si atom -5574.476182 kJ/mol
# Density = 1.801193 g / cm^3
# Si number density = 18.053022 Si / 1000 Ang^3
#
#
#
# Elastic Constant Matrix: (Units=GPa)
#
#
# Indices 1 2 3 4 5 6 
#
# 1 81.4764 26.3921 55.1748 0.0000 -6.8530 0.0000
# 2 26.3921 33.8094 16.7057 0.0000 -7.4171 0.0000
# 3 55.1748 16.7057 69.0609 0.0000 -1.6593 0.0000
# 4 0.0000 0.0000 0.0000 -15.4337 0.0000 4.6432
# 5 -6.8530 -7.4171 -1.6593 0.0000 27.7096 0.0000
# 6 0.0000 0.0000 0.0000 4.6432 0.0000 3.3964
#
#
#
# Elastic Compliance Matrix: (Units=1/GPa)
#
#
# Indices 1 2 3 4 5 6 
#
# 1 0.031799 -0.013229 -0.022133 0.000000 0.002998 0.000000
# 2 -0.013229 0.041231 0.000783 0.000000 0.007812 0.000000
# 3 -0.022133 0.000783 0.031893 0.000000 -0.003355 0.000000
# 4 0.000000 0.000000 0.000000 -0.045911 0.000000 0.062764
# 5 0.002998 0.007812 -0.003355 0.000000 0.038720 0.000000
# 6 0.000000 0.000000 0.000000 0.062764 0.000000 0.208624
#
#
# Mechanical properties :
#
#
# Convention : Reuss Voigt Hill
#
# Bulk Modulus (GPa) = 27.96049 42.32134 35.14091
# Shear Modulus (GPa) = 12.90536 8.87273 10.88905
#
# Velocity S-wave (km/s) = 2.67658 2.21934 2.45862
# Velocity P-wave (km/s) = 5.00737 5.48279 5.25046
#
# Compressibility (1/GPa) = 0.03576475
#
# Stress axis : x y z
#
# Youngs Moduli (GPa) = 31.44741 24.25352 31.35496
#
# Poissons Ratio (x) = 0.32085 0.69399
# Poissons Ratio (y) = 0.41601 -0.02455
# Poissons Ratio (z) = 0.69603 -0.01899
#
# Static dielectric constant tensor:
#      x y z
#    x 1.633130 0.000000 -0.023560 
#    y 0.000000 1.599700 0.000000 
#    z -0.023560 0.000000 1.622150 
# 
# From -- ./inp_files/69984.got.cif
#   From: 2010.05.17/outbox.cif.g08.bks.cpg/sg10_35_cif.got.tgz:69984.got - 2010.06.03 11:33:40.
