data_PCOD9143280
_publ_section_title
;
Structure prediction by ZEFSAII (Michael W. Deem and Ramdas Pophale) SiO2 
 PCOD9143280
Probable space group: P 2/M
;
_chemical_formula_sum "Si O2"
_cell_formula_units_Z 28
_cell_length_a 17.075364
_cell_length_b 7.390352
_cell_length_c 14.714722
_cell_angle_alpha 90.000000
_cell_angle_beta 140.253504
_cell_angle_gamma 90.000000
_cell_volume 1187.283252
_symmetry_space_group_name_H-M "P 2/M"
_symmetry_group_IT_number 10
_symmetry_cell_setting 'monoclinic'
loop_
_space_group_symop_operation_xyz
x,y,z
-x,y,-z
-x,-y,-z
x,-y,z
loop_
_atom_site_type_symbol
_atom_site_label
_atom_site_fract_x
_atom_site_fract_y
_atom_site_fract_z
Si Si1 0.606635 0.295634 0.522575
Si Si2 0.195118 0.780049 0.032801
Si Si3 0.142081 0.795539 0.183980
Si Si4 0.400332 0.778883 0.834788
Si Si5 0.878708 0.779068 0.448798
Si Si6 0.034298 0.780193 0.275706
Si Si7 0.462617 0.206212 0.220675
O O1 0.500000 0.303867 0.500000
O O2 0.645093 0.500000 0.534752
O O3 0.714705 0.196439 0.668895
O O4 0.555583 0.206593 0.387068
O O5 0.135383 0.717134 0.075852
O O6 0.332997 0.713749 0.138202
O O7 0.198723 0.000000 0.045818
O O8 0.108634 0.738183 0.869780
O O9 0.093399 0.712369 0.234357
O O10 0.094156 0.000000 0.140838
O O11 0.256388 0.722024 0.708040
O O12 0.463983 0.715663 0.798341
O O13 0.395070 0.000000 0.831256
O O14 0.500000 0.726221 0.000000
O O15 0.903844 0.719964 0.575654
O O16 0.000000 0.724666 0.500000
O O17 0.877419 0.000000 0.446525
O O18 0.045259 0.000000 0.287132
O O19 0.432182 0.000000 0.166938
#
# Coordination Sequence:
#
# PCOD9143280 Si02
#       7
#     4   4   4   4   4   4   4
#     4  11  22  34  49  71 102 137 171 212 259 306
#     4   9  17  27  45  73  99 131 166 206 252 301
#     4  10  18  31  51  73  99 130 170 212 252 301
#     4   9  18  30  47  74 105 133 165 214 264 304
#     4   9  17  27  40  61  97 139 168 196 254 318
#     4   9  17  28  45  70 101 130 165 210 253 297
#     4  10  19  32  52  76 103 134 174 212 255 307
#
# _framework density 23.583252000000002
#
# number of rings (size 3 to 8) (size 9 to 14) (size 15 to 20)
#    0.000    2.429    1.429    1.714    2.000    4.571 
#    0.000    0.000    0.000    3.000    0.000    0.000 
#    0.000    2.857    0.000    0.000    0.000    0.000 
#
# Total GULP energy -156177.796312 kJ/mol
# GULP energy per Si atom -5577.778440 kJ/mol
# Density = 2.352958 g / cm^3
# Si number density = 23.583252 Si / 1000 Ang^3
#
#
#
# Elastic Constant Matrix: (Units=GPa)
#
#
# Indices 1 2 3 4 5 6 
#
# 1 134.0749 10.1624 79.2730 0.0000 -7.2183 0.0000
# 2 10.1624 78.6543 3.5915 0.0000 6.1314 0.0000
# 3 79.2730 3.5915 202.3121 0.0000 -7.5482 0.0000
# 4 0.0000 0.0000 0.0000 -82.6465 0.0000 17.6482
# 5 -7.2183 6.1314 -7.5482 0.0000 24.5658 0.0000
# 6 0.0000 0.0000 0.0000 17.6482 0.0000 -23.4893
#
#
#
# Elastic Compliance Matrix: (Units=1/GPa)
#
#
# Indices 1 2 3 4 5 6 
#
# 1 0.009901 -0.001267 -0.003780 0.000000 0.002064 0.000000
# 2 -0.001267 0.013154 0.000128 0.000000 -0.003616 0.000000
# 3 -0.003780 0.000128 0.006453 0.000000 0.000840 0.000000
# 4 0.000000 0.000000 0.000000 -0.014412 0.000000 -0.010828
# 5 0.002064 -0.003616 0.000840 0.000000 0.042474 0.000000
# 6 0.000000 0.000000 0.000000 -0.010828 0.000000 -0.050708
#
#
# Mechanical properties :
#
#
# Convention : Reuss Voigt Hill
#
# Bulk Modulus (GPa) = 50.84152 66.78834 58.81493
# Shear Modulus (GPa) = 214.99511 5.15361 110.07436
#
# Velocity S-wave (km/s) = 9.55836 1.47987 6.83931
# Velocity P-wave (km/s) = 11.97587 5.59480 9.34674
#
# Compressibility (1/GPa) = 0.01966896
#
# Stress axis : x y z
#
# Youngs Moduli (GPa) = 101.00380 76.02446 154.96604
#
# Poissons Ratio (x) = 0.09636 0.58576
# Poissons Ratio (y) = 0.12802 -0.01987
# Poissons Ratio (z) = 0.38178 -0.00975
#
# Static dielectric constant tensor:
#      x y z
#    x 1.895160 0.000000 0.032180 
#    y 0.000000 1.946800 0.000000 
#    z 0.032180 0.000000 1.994820 
# 
# From -- ./inp_files/68671.got.cif
#   From: 2010.05.17/outbox.cif.g08.bks.cpg/sg10_35_cif.got.tgz:68671.got - 2010.06.03 11:33:40.
