data_PCOD9143529
_publ_section_title
;
Structure prediction by ZEFSAII (Michael W. Deem and Ramdas Pophale) SiO2 
 PCOD9143529
Probable space group: P 2/M
;
_chemical_formula_sum "Si O2"
_cell_formula_units_Z 32
_cell_length_a 8.826198
_cell_length_b 22.181412
_cell_length_c 15.146068
_cell_angle_alpha 90.000000
_cell_angle_beta 151.161484
_cell_angle_gamma 90.000000
_cell_volume 1430.271280
_symmetry_space_group_name_H-M "P 2/M"
_symmetry_group_IT_number 10
_symmetry_cell_setting 'monoclinic'
loop_
_space_group_symop_operation_xyz
x,y,z
-x,y,-z
-x,-y,-z
x,-y,z
loop_
_atom_site_type_symbol
_atom_site_label
_atom_site_fract_x
_atom_site_fract_y
_atom_site_fract_z
Si Si1 0.579659 0.331451 0.202272
Si Si2 0.020439 0.884396 0.791256
Si Si3 0.338905 0.068735 0.123265
Si Si4 0.625688 0.866284 0.429021
Si Si5 0.147125 0.647316 0.379266
Si Si6 0.446162 0.269820 0.316809
Si Si7 0.846372 0.249980 0.108302
Si Si8 0.212388 0.567915 0.924266
O O1 0.550486 0.297302 0.278304
O O2 0.913315 0.358537 0.344492
O O3 0.480486 0.277914 0.085675
O O4 0.319645 0.383789 0.052518
O O5 0.908073 0.895212 0.632201
O O6 0.691634 0.883486 0.678477
O O7 0.151815 0.817054 0.857913
O O8 0.262165 0.918861 0.980260
O O9 0.569106 0.111031 0.299583
O O10 0.446874 0.000000 0.187891
O O11 0.000000 0.074259 0.000000
O O12 0.629751 0.792789 0.431441
O O13 0.473477 0.672933 0.579851
O O14 0.007326 0.704079 0.256225
O O15 0.084115 0.590531 0.284424
O O16 0.083779 0.252303 0.145003
O O17 0.176111 0.500000 0.938280
O O18 0.500000 0.569792 0.000000
#
# Coordination Sequence:
#
# PCOD9143529 Si02
#       8
#     4   4   4   4   4   4   4   4
#     4  10  20  31  50  77 103 129 162 218 260 294
#     4   9  16  28  45  66  93 133 173 210 251 315
#     4   9  17  27  40  63  97 135 174 213 256 305
#     4   9  17  28  44  67  98 132 168 211 260 314
#     4  10  19  32  51  76 102 129 165 214 256 299
#     4  11  19  31  50  76 106 133 163 206 264 321
#     4  10  18  32  51  71 100 139 171 196 251 329
#     4   8  16  33  53  70  95 136 176 203 247 312
#
# _framework density 22.373379
#
# number of rings (size 3 to 8) (size 9 to 14) (size 15 to 20)
#    0.000    2.500    1.250    3.000    0.000    2.500 
#    0.000    3.125    0.000   15.000    0.000    0.000 
#    0.000   16.000    0.000    0.000    0.000    0.000 
#
# Total GULP energy -178235.907446 kJ/mol
# GULP energy per Si atom -5569.872108 kJ/mol
# Density = 2.232246 g / cm^3
# Si number density = 22.373379 Si / 1000 Ang^3
#
#
#
# Elastic Constant Matrix: (Units=GPa)
#
#
# Indices 1 2 3 4 5 6 
#
# 1 56.1627 -1.0715 27.9201 0.0000 -11.1374 0.0000
# 2 -1.0715 70.4290 28.6573 0.0000 -13.8035 0.0000
# 3 27.9201 28.6573 96.8519 0.0000 -14.0060 0.0000
# 4 0.0000 0.0000 0.0000 299.2850 0.0000 119.7026
# 5 -11.1374 -13.8035 -14.0060 0.0000 32.6375 0.0000
# 6 0.0000 0.0000 0.0000 119.7026 0.0000 66.7900
#
#
#
# Elastic Compliance Matrix: (Units=1/GPa)
#
#
# Indices 1 2 3 4 5 6 
#
# 1 0.022628 0.004446 -0.006877 0.000000 0.006651 0.000000
# 2 0.004446 0.017851 -0.005600 0.000000 0.006664 0.000000
# 3 -0.006877 -0.005600 0.014161 0.000000 0.001362 0.000000
# 4 0.000000 0.000000 0.000000 0.011799 0.000000 -0.021147
# 5 0.006651 0.006664 0.001362 0.000000 0.036312 0.000000
# 6 0.000000 0.000000 0.000000 -0.021147 0.000000 0.052872
#
#
# Mechanical properties :
#
#
# Convention : Reuss Voigt Hill
#
# Bulk Modulus (GPa) = 25.92107 37.16172 31.54140
# Shear Modulus (GPa) = 27.09373 90.93836 59.01604
#
# Velocity S-wave (km/s) = 3.48369 6.38232 5.14150
# Velocity P-wave (km/s) = 5.27184 8.42365 7.02674
#
# Compressibility (1/GPa) = 0.03857866
#
# Stress axis : x y z
#
# Youngs Moduli (GPa) = 44.19347 56.01948 70.61469
#
# Poissons Ratio (x) = -0.24906 0.48560
# Poissons Ratio (y) = -0.19648 0.39543
# Poissons Ratio (z) = 0.30391 0.31370
#
# Static dielectric constant tensor:
#      x y z
#    x 2.101700 0.000000 -0.002670 
#    y 0.000000 1.775050 0.000000 
#    z -0.002670 0.000000 1.896520 
# 
# From -- ./inp_files/62713.got.cif
#   From: 2010.05.17/outbox.cif.g08.bks.cpg/sg10_32_cif.got.tgz:62713.got - 2010.06.03 11:33:40.
