data_PCOD9143412
_publ_section_title
;
Structure prediction by ZEFSAII (Michael W. Deem and Ramdas Pophale) SiO2 
 PCOD9143412
Probable space group: P 2/M
;
_chemical_formula_sum "Si O2"
_cell_formula_units_Z 24
_cell_length_a 24.137692
_cell_length_b 7.611896
_cell_length_c 17.052959
_cell_angle_alpha 90.000000
_cell_angle_beta 22.785627
_cell_angle_gamma 90.000000
_cell_volume 1213.439836
_symmetry_space_group_name_H-M "P 2/M"
_symmetry_group_IT_number 10
_symmetry_cell_setting 'monoclinic'
loop_
_space_group_symop_operation_xyz
x,y,z
-x,y,-z
-x,-y,-z
x,-y,z
loop_
_atom_site_type_symbol
_atom_site_label
_atom_site_fract_x
_atom_site_fract_y
_atom_site_fract_z
Si Si1 0.657261 0.297345 0.287547
Si Si2 0.661240 0.789071 0.797272
Si Si3 0.915595 0.708846 0.356050
Si Si4 0.208791 0.202484 0.048497
Si Si5 0.165224 0.215257 0.277154
Si Si6 0.051587 0.715062 0.017751
O O1 0.500000 0.216192 0.500000
O O2 0.644208 0.500000 0.330548
O O3 0.709845 0.293887 0.128969
O O4 0.789571 0.222451 0.165016
O O5 0.761492 0.749611 0.592224
O O6 0.742868 0.724775 0.768622
O O7 0.653645 0.000000 0.814248
O O8 0.500000 0.721574 0.000000
O O9 0.937926 0.500000 0.329916
O O10 0.947383 0.766297 0.225488
O O11 0.039867 0.790067 0.248112
O O12 0.226021 0.273042 0.113679
O O13 0.254688 0.000000 0.987267
O O14 0.000000 0.270190 0.500000
O O15 0.165093 0.000000 0.276385
O O16 0.054368 0.500000 0.013164
O O17 0.000000 0.773852 0.000000
#
# Coordination Sequence:
#
# PCOD9143412 Si02
#       6
#     4   4   4   4   4   4
#     4   9  18  33  51  73 102 130 160 204 252 294
#     4  10  20  35  53  72  99 136 169 200 247 299
#     4  10  19  32  52  76 102 129 165 208 250 292
#     4  10  18  31  54  76  98 131 171 205 242 292
#     4   9  16  30  52  74  96 128 169 204 239 293
#     4   8  15  30  51  70  91 128 167 195 237 298
#
# _framework density 19.778483999999999
#
# number of rings (size 3 to 8) (size 9 to 14) (size 15 to 20)
#    0.000    2.667    1.667    2.000    0.000    0.667 
#    3.000    2.500    0.000   12.500    0.000    0.000 
#    0.000    0.000    0.000    0.000    0.000    0.000 
#
# Total GULP energy -133866.891488 kJ/mol
# GULP energy per Si atom -5577.787145 kJ/mol
# Density = 1.973347 g / cm^3
# Si number density = 19.778484 Si / 1000 Ang^3
#
#
#
# Elastic Constant Matrix: (Units=GPa)
#
#
# Indices 1 2 3 4 5 6 
#
# 1 175.3771 3.9721 91.8544 0.0000 -1.5449 0.0000
# 2 3.9721 41.0759 -2.3579 0.0000 -5.3511 0.0000
# 3 91.8544 -2.3579 167.9705 0.0000 -6.4262 0.0000
# 4 0.0000 0.0000 0.0000 14.8675 0.0000 7.7205
# 5 -1.5449 -5.3511 -6.4262 0.0000 18.2412 0.0000
# 6 0.0000 0.0000 0.0000 7.7205 0.0000 10.5965
#
#
#
# Elastic Compliance Matrix: (Units=1/GPa)
#
#
# Indices 1 2 3 4 5 6 
#
# 1 0.008061 -0.001198 -0.004472 0.000000 -0.001244 0.000000
# 2 -0.001198 0.025560 0.001315 0.000000 0.007860 0.000000
# 3 -0.004472 0.001315 0.008533 0.000000 0.003013 0.000000
# 4 0.000000 0.000000 0.000000 0.108197 0.000000 -0.078831
# 5 -0.001244 0.007860 0.003013 0.000000 0.058083 0.000000
# 6 0.000000 0.000000 0.000000 -0.078831 0.000000 0.151806
#
#
# Mechanical properties :
#
#
# Convention : Reuss Voigt Hill
#
# Bulk Modulus (GPa) = 29.90237 63.48452 46.69345
# Shear Modulus (GPa) = 13.15448 28.13802 20.64625
#
# Velocity S-wave (km/s) = 2.58173 3.77591 3.23441
# Velocity P-wave (km/s) = 4.90292 7.15384 6.13254
#
# Compressibility (1/GPa) = 0.03344216
#
# Stress axis : x y z
#
# Youngs Moduli (GPa) = 124.06038 39.12297 117.19406
#
# Poissons Ratio (x) = 0.04688 0.52413
# Poissons Ratio (y) = 0.14866 -0.15409
# Poissons Ratio (z) = 0.55484 -0.05144
#
# Static dielectric constant tensor:
#      x y z
#    x 1.685820 0.000000 -0.000640 
#    y 0.000000 1.745480 0.000000 
#    z -0.000640 0.000000 1.684020 
# 
# From -- ./inp_files/52626.got.cif
#   From: 2010.05.17/outbox.cif.g08.bks.cpg/sg10_27_cif.got.tgz:52626.got - 2010.06.03 11:33:40.
