data_PCOD9143343
_publ_section_title
;
Structure prediction by ZEFSAII (Michael W. Deem and Ramdas Pophale) SiO2 
 PCOD9143343
Probable space group: P 2/M
;
_chemical_formula_sum "Si O2"
_cell_formula_units_Z 32
_cell_length_a 12.848340
_cell_length_b 8.799044
_cell_length_c 32.372544
_cell_angle_alpha 90.000000
_cell_angle_beta 27.872001
_cell_angle_gamma 90.000000
_cell_volume 1710.956586
_symmetry_space_group_name_H-M "P 2/M"
_symmetry_group_IT_number 10
_symmetry_cell_setting 'monoclinic'
loop_
_space_group_symop_operation_xyz
x,y,z
-x,y,-z
-x,-y,-z
x,-y,z
loop_
_atom_site_type_symbol
_atom_site_label
_atom_site_fract_x
_atom_site_fract_y
_atom_site_fract_z
Si Si1 0.493897 0.675809 0.750726
Si Si2 0.619315 0.182690 0.001434
Si Si3 0.864947 0.183380 0.679688
Si Si4 0.253561 0.666661 0.424503
Si Si5 0.790580 0.318660 0.297719
Si Si6 0.663674 0.823320 0.523168
Si Si7 0.794316 0.183269 0.799230
Si Si8 0.110003 0.316391 0.831260
O O1 0.472573 0.500000 0.771768
O O2 0.660607 0.758562 0.723393
O O3 0.612336 0.677523 0.664544
O O4 0.252708 0.738179 0.821043
O O5 0.445797 0.225980 0.098154
O O6 0.649601 0.000000 0.991296
O O7 0.500000 0.222042 0.000000
O O8 0.857862 0.260049 0.921275
O O9 0.826505 0.228923 0.740498
O O10 0.110853 0.235373 0.578092
O O11 0.867313 0.000000 0.676222
O O12 0.693029 0.500000 0.574875
O O13 0.289804 0.797542 0.444627
O O14 0.000000 0.666170 0.500000
O O15 0.798800 0.500000 0.296220
O O16 0.572690 0.260007 0.398582
O O17 0.791272 0.272087 0.248698
O O18 0.011009 0.251628 0.241102
O O19 0.635994 0.000000 0.522351
O O20 0.810583 0.000000 0.795907
O O21 0.118127 0.500000 0.829534
#
# Coordination Sequence:
#
# PCOD9143343 Si02
#       8
#     4   4   4   4   4   4   4   4
#     4  10  20  36  57  82 115 153 191 234 282 333
#     4  10  20  36  62  91 112 140 185 234 288 344
#     4  10  23  40  57  80 114 158 197 231 277 336
#     4  10  18  31  52  78 110 148 188 236 284 324
#     4  11  22  37  58  86 117 149 188 232 287 343
#     4  11  22  34  53  83 116 152 194 235 279 333
#     4  10  22  42  61  81 115 150 187 236 288 341
#     4  10  21  36  57  88 120 146 178 232 293 339
#
# _framework density 18.702987
#
# number of rings (size 3 to 8) (size 9 to 14) (size 15 to 20)
#    0.000    1.750    3.750    0.750    0.000    4.000 
#    0.000    3.125    0.000    3.750    0.000    0.000 
#    0.000    0.000    0.000    0.000    0.000    0.000 
#
# Total GULP energy -178458.685961 kJ/mol
# GULP energy per Si atom -5576.833936 kJ/mol
# Density = 1.866042 g / cm^3
# Si number density = 18.702987 Si / 1000 Ang^3
#
#
#
# Elastic Constant Matrix: (Units=GPa)
#
#
# Indices 1 2 3 4 5 6 
#
# 1 77.6842 19.7246 60.4983 0.0000 -9.7004 0.0000
# 2 19.7246 17.1813 29.6137 0.0000 -1.7494 0.0000
# 3 60.4983 29.6137 122.5722 0.0000 -16.9968 0.0000
# 4 0.0000 0.0000 0.0000 52.0940 0.0000 -42.4821
# 5 -9.7004 -1.7494 -16.9968 0.0000 33.0271 0.0000
# 6 0.0000 0.0000 0.0000 -42.4821 0.0000 65.7671
#
#
#
# Elastic Compliance Matrix: (Units=1/GPa)
#
#
# Indices 1 2 3 4 5 6 
#
# 1 0.022216 -0.011754 -0.007869 0.000000 0.001853 0.000000
# 2 -0.011754 0.107789 -0.021459 0.000000 -0.008786 0.000000
# 3 -0.007869 -0.021459 0.018036 0.000000 0.005834 0.000000
# 4 0.000000 0.000000 0.000000 0.040563 0.000000 0.026202
# 5 0.001853 -0.008786 0.005834 0.000000 0.033359 0.000000
# 6 0.000000 0.000000 0.000000 0.026202 0.000000 0.032130
#
#
# Mechanical properties :
#
#
# Convention : Reuss Voigt Hill
#
# Bulk Modulus (GPa) = 15.17963 48.56786 31.87375
# Shear Modulus (GPa) = 13.95807 37.35105 25.65456
#
# Velocity S-wave (km/s) = 2.73482 4.47370 3.70764
# Velocity P-wave (km/s) = 4.25512 7.26014 5.95045
#
# Compressibility (1/GPa) = 0.06587776
#
# Stress axis : x y z
#
# Youngs Moduli (GPa) = 45.01196 9.27741 55.44564
#
# Poissons Ratio (x) = 0.10905 0.43628
# Poissons Ratio (y) = 0.52907 1.18980
# Poissons Ratio (z) = 0.35418 0.19908
#
# Static dielectric constant tensor:
#      x y z
#    x 1.652760 0.000000 -0.028710 
#    y 0.000000 1.661740 0.000000 
#    z -0.028710 0.000000 1.678570 
# 
# From -- ./inp_files/94985.got.cif
#   From: 2010.05.17/outbox.cif.g08.bks.cpg/sg10_48_cif.got.tgz:94985.got - 2010.06.03 11:33:40.
