data_PCOD9143240
_publ_section_title
;
Structure prediction by ZEFSAII (Michael W. Deem and Ramdas Pophale) SiO2 
 PCOD9143240
Probable space group: P 2/M
;
_chemical_formula_sum "Si O2"
_cell_formula_units_Z 24
_cell_length_a 12.621596
_cell_length_b 13.451096
_cell_length_c 12.837705
_cell_angle_alpha 90.000000
_cell_angle_beta 48.603757
_cell_angle_gamma 90.000000
_cell_volume 1634.970865
_symmetry_space_group_name_H-M "P 2/M"
_symmetry_group_IT_number 10
_symmetry_cell_setting 'monoclinic'
loop_
_space_group_symop_operation_xyz
x,y,z
-x,y,-z
-x,-y,-z
x,-y,z
loop_
_atom_site_type_symbol
_atom_site_label
_atom_site_fract_x
_atom_site_fract_y
_atom_site_fract_z
Si Si1 0.889770 0.118887 0.355455
Si Si2 0.841081 0.116935 0.146286
Si Si3 0.666886 0.118032 0.679975
Si Si4 0.349324 0.615600 0.039505
Si Si5 0.639933 0.787927 0.112673
Si Si6 0.198167 0.198302 0.197247
O O1 0.842197 0.139155 0.268272
O O2 0.769140 0.143433 0.517204
O O3 0.034968 0.174830 0.286250
O O4 0.918076 0.000000 0.344241
O O5 0.734523 0.183567 0.149340
O O6 0.804094 0.000000 0.156128
O O7 0.000000 0.130238 0.000000
O O8 0.517801 0.173313 0.771796
O O9 0.744285 0.147394 0.736636
O O10 0.642248 0.000000 0.693800
O O11 0.314246 0.500000 0.055332
O O12 0.360605 0.672200 0.921245
O O13 0.500000 0.626240 0.000000
O O14 0.236448 0.684255 0.173877
O O15 0.713630 0.837391 0.962137
#
# Coordination Sequence:
#
# PCOD9143240 Si02
#       6
#     4   4   4   4   4   4
#     4  10  21  33  48  71 106 147 169 191 241 298
#     4  10  18  31  50  71  99 136 176 204 232 289
#     4  11  21  31  45  75 110 136 163 202 249 293
#     4   9  17  33  54  77  99 121 165 216 261 301
#     4  10  19  32  51  77  95 129 170 213 242 290
#     4  10  18  33  51  75  97 130 171 205 246 297
#
# _framework density 14.679161000000001
#
# number of rings (size 3 to 8) (size 9 to 14) (size 15 to 20)
#    1.000    1.000    3.333    2.000    0.000    4.667 
#    0.000    2.500    0.000    7.500    0.000    1.167 
#    0.000    0.000    0.000    0.000    0.000    0.000 
#
# Total GULP energy -133638.309126 kJ/mol
# GULP energy per Si atom -5568.262880 kJ/mol
# Density = 1.464575 g / cm^3
# Si number density = 14.679161 Si / 1000 Ang^3
#
#
#
# Elastic Constant Matrix: (Units=GPa)
#
#
# Indices 1 2 3 4 5 6 
#
# 1 74.4987 14.9554 22.7309 0.0000 4.6981 0.0000
# 2 14.9554 38.2863 17.2428 0.0000 -3.0939 0.0000
# 3 22.7309 17.2428 89.4519 0.0000 -1.5679 0.0000
# 4 0.0000 0.0000 0.0000 4.9259 0.0000 -6.8215
# 5 4.6981 -3.0939 -1.5679 0.0000 12.7279 0.0000
# 6 0.0000 0.0000 0.0000 -6.8215 0.0000 17.5332
#
#
#
# Elastic Compliance Matrix: (Units=1/GPa)
#
#
# Indices 1 2 3 4 5 6 
#
# 1 0.015950 -0.005430 -0.003139 0.000000 -0.007594 0.000000
# 2 -0.005430 0.030962 -0.004431 0.000000 0.008985 0.000000
# 3 -0.003139 -0.004431 0.012860 0.000000 0.001666 0.000000
# 4 0.000000 0.000000 0.000000 0.440169 0.000000 0.171254
# 5 -0.007594 0.008985 0.001666 0.000000 0.083760 0.000000
# 6 0.000000 0.000000 0.000000 0.171254 0.000000 0.123664
#
#
# Mechanical properties :
#
#
# Convention : Reuss Voigt Hill
#
# Bulk Modulus (GPa) = 29.61124 34.67725 32.14424
# Shear Modulus (GPa) = 6.71481 16.85790 11.78636
#
# Velocity S-wave (km/s) = 2.14110 3.39252 2.83668
# Velocity P-wave (km/s) = 5.13113 6.24662 5.71615
#
# Compressibility (1/GPa) = 0.03377096
#
# Stress axis : x y z
#
# Youngs Moduli (GPa) = 62.69612 32.29800 77.75885
#
# Poissons Ratio (x) = 0.17538 0.24412
# Poissons Ratio (y) = 0.34045 0.34454
# Poissons Ratio (z) = 0.19683 0.14311
#
# Static dielectric constant tensor:
#      x y z
#    x 1.467080 0.000000 0.006710 
#    y 0.000000 1.473740 0.000000 
#    z 0.006710 0.000000 1.483210 
# 
# From -- ./inp_files/47119.got.cif
#   From: 2010.05.17/outbox.cif.g08.bks.cpg/sg10_24_cif.got.tgz:47119.got - 2010.06.03 11:33:40.
