data_PCOD9143406
_publ_section_title
;
Structure prediction by ZEFSAII (Michael W. Deem and Ramdas Pophale) SiO2 
 PCOD9143406
Probable space group: P 2/M
;
_chemical_formula_sum "Si O2"
_cell_formula_units_Z 26
_cell_length_a 5.114077
_cell_length_b 23.071961
_cell_length_c 13.531834
_cell_angle_alpha 90.000000
_cell_angle_beta 122.679420
_cell_angle_gamma 90.000000
_cell_volume 1343.903932
_symmetry_space_group_name_H-M "P 2/M"
_symmetry_group_IT_number 10
_symmetry_cell_setting 'monoclinic'
loop_
_space_group_symop_operation_xyz
x,y,z
-x,y,-z
-x,-y,-z
x,-y,z
loop_
_atom_site_type_symbol
_atom_site_label
_atom_site_fract_x
_atom_site_fract_y
_atom_site_fract_z
Si Si1 0.131478 0.500000 0.915230
Si Si2 0.302675 0.902004 0.720255
Si Si3 0.297784 0.264075 0.196874
Si Si4 0.761991 0.000000 0.858560
Si Si5 0.877232 0.373767 0.086144
Si Si6 0.367619 0.189667 0.580970
Si Si7 0.294450 0.802178 0.871408
Si Si8 0.179773 0.000000 0.372930
O O1 0.061019 0.437227 0.853517
O O2 0.500000 0.500000 0.000000
O O3 0.000000 0.500000 0.000000
O O4 0.552785 0.942548 0.824747
O O5 0.442662 0.869843 0.653891
O O6 0.213595 0.849000 0.772738
O O7 0.017647 0.943488 0.636697
O O8 0.501567 0.244136 0.331147
O O9 0.512107 0.249836 0.144581
O O10 0.110600 0.324054 0.172943
O O11 0.013207 0.219486 0.138376
O O12 0.828853 0.000000 0.751188
O O13 0.000000 0.000000 0.000000
O O14 0.500000 0.363076 0.000000
O O15 0.000000 0.378180 0.000000
O O16 0.500000 0.188883 0.500000
O O17 0.000000 0.193434 0.500000
O O18 0.500000 0.828232 0.000000
O O19 0.500000 0.000000 0.500000
#
# Coordination Sequence:
#
# PCOD9143406 Si02
#       8
#     2   4   4   2   4   4   4   2
#     4   8  16  28  46  78 114 164 200 232 286 336
#     4  10  27  42  63  92 112 156 192 246 301 374
#     4  11  22  37  55  91 112 159 197 242 302 351
#     4  11  28  45  66  93 124 155 192 250 311 373
#     4  10  18  31  53  81 124 159 197 242 284 355
#     4  11  25  42  65  87 117 150 200 257 306 358
#     4  11  23  37  61  86 120 153 191 233 298 370
#     4  11  28  47  69  91 119 155 207 249 304 370
#
# _framework density 19.346620999999999
#
# number of rings (size 3 to 8) (size 9 to 14) (size 15 to 20)
#    0.000    1.538    0.000    4.615   10.769    1.231 
#    0.000    1.154    0.000    0.000    0.000    1.077 
#    0.000    0.000    0.000    0.462    0.000    0.154 
#
# Total GULP energy -144986.223644 kJ/mol
# GULP energy per Si atom -5576.393217 kJ/mol
# Density = 1.930259 g / cm^3
# Si number density = 19.346621 Si / 1000 Ang^3
#
#
#
# Elastic Constant Matrix: (Units=GPa)
#
#
# Indices 1 2 3 4 5 6 
#
# 1 99.2007 13.2705 30.7476 0.0000 11.4690 0.0000
# 2 13.2705 130.0483 43.3184 0.0000 17.7351 0.0000
# 3 30.7476 43.3184 113.5243 0.0000 12.7842 0.0000
# 4 0.0000 0.0000 0.0000 9.9890 0.0000 -0.8898
# 5 11.4690 17.7351 12.7842 0.0000 34.0158 0.0000
# 6 0.0000 0.0000 0.0000 -0.8898 0.0000 15.2392
#
#
#
# Elastic Compliance Matrix: (Units=1/GPa)
#
#
# Indices 1 2 3 4 5 6 
#
# 1 0.011251 0.000168 -0.002793 0.000000 -0.002832 0.000000
# 2 0.000168 0.009224 -0.003151 0.000000 -0.003682 0.000000
# 3 -0.002793 -0.003151 0.010939 0.000000 -0.001527 0.000000
# 4 0.000000 0.000000 0.000000 0.100634 0.000000 0.005876
# 5 -0.002832 -0.003682 -0.001527 0.000000 0.032846 0.000000
# 6 0.000000 0.000000 0.000000 0.005876 0.000000 0.065963
#
#
# Mechanical properties :
#
#
# Convention : Reuss Voigt Hill
#
# Bulk Modulus (GPa) = 50.34181 57.49405 53.91793
# Shear Modulus (GPa) = 20.07802 28.87791 24.47797
#
# Velocity S-wave (km/s) = 3.22499 3.86769 3.56087
# Velocity P-wave (km/s) = 6.32020 7.05179 6.69599
#
# Compressibility (1/GPa) = 0.01986421
#
# Stress axis : x y z
#
# Youngs Moduli (GPa) = 88.88080 108.41500 91.41424
#
# Poissons Ratio (x) = -0.01824 0.25529
# Poissons Ratio (y) = -0.01496 0.28801
# Poissons Ratio (z) = 0.24821 0.34157
#
# Static dielectric constant tensor:
#      x y z
#    x 1.718830 0.000000 0.000660 
#    y 0.000000 1.762300 0.000000 
#    z 0.000660 0.000000 1.696850 
# 
# From -- ./inp_files/59661.got.cif
#   From: 2010.05.17/outbox.cif.g08.bks.cpg/sg10_30_cif.got.tgz:59661.got - 2010.06.03 11:33:40.
