data_PCOD9143920
_publ_section_title
;
Structure prediction by ZEFSAII (Michael W. Deem and Ramdas Pophale) SiO2 
 PCOD9143920
Probable space group: P 2/M
;
_chemical_formula_sum "Si O2"
_cell_formula_units_Z 32
_cell_length_a 21.013506
_cell_length_b 7.613535
_cell_length_c 26.128795
_cell_angle_alpha 90.000000
_cell_angle_beta 22.268023
_cell_angle_gamma 90.000000
_cell_volume 1584.070106
_symmetry_space_group_name_H-M "P 2/M"
_symmetry_group_IT_number 10
_symmetry_cell_setting 'monoclinic'
loop_
_space_group_symop_operation_xyz
x,y,z
-x,y,-z
-x,-y,-z
x,-y,z
loop_
_atom_site_type_symbol
_atom_site_label
_atom_site_fract_x
_atom_site_fract_y
_atom_site_fract_z
Si Si1 0.668819 0.795643 0.339362
Si Si2 0.134769 0.212928 0.712774
Si Si3 0.827311 0.294226 0.874062
Si Si4 0.456639 0.216122 0.405920
Si Si5 0.460099 0.204714 0.179672
Si Si6 0.019377 0.295877 0.631682
Si Si7 0.600750 0.797978 0.663629
Si Si8 0.145108 0.787862 0.351291
O O1 0.500000 0.793435 0.500000
O O2 0.810444 0.721566 0.271693
O O3 0.607216 0.722677 0.330942
O O4 0.712025 0.000000 0.298203
O O5 0.280409 0.267236 0.564064
O O6 0.955667 0.270435 0.825383
O O7 0.137931 0.000000 0.711787
O O8 0.798380 0.500000 0.886865
O O9 0.922051 0.222609 0.753358
O O10 0.646961 0.213976 0.019347
O O11 0.462007 0.278196 0.343590
O O12 0.457284 0.000000 0.405706
O O13 0.450223 0.283810 0.244124
O O14 0.320986 0.275900 0.244064
O O15 0.411636 0.000000 0.222138
O O16 0.059389 0.500000 0.612066
O O17 0.904812 0.283404 0.666781
O O18 0.196876 0.204200 0.489621
O O19 0.540569 0.000000 0.708589
O O20 0.000000 0.742634 0.500000
O O21 0.147504 0.000000 0.344346
#
# Coordination Sequence:
#
# PCOD9143920 Si02
#       8
#     4   4   4   4   4   4   4   4
#     4   7  11  20  39  75 109 130 163 211 264 312
#     4   9  15  27  51  76 103 139 175 214 262 313
#     4  11  24  38  51  74 111 146 179 217 256 308
#     4   8  13  23  47  80 108 132 164 216 270 309
#     4  10  22  38  57  80 104 134 175 218 263 315
#     4  11  23  36  54  80 108 141 176 212 258 313
#     4  10  18  33  57  82 106 135 175 221 264 310
#     4  10  20  38  61  83 107 132 168 219 265 310
#
# _framework density 20.201127
#
# number of rings (size 3 to 8) (size 9 to 14) (size 15 to 20)
#    0.000    2.500    2.500    2.250    0.000    3.250 
#    0.000    2.500    0.000    4.875    0.000    5.250 
#    0.000    0.000    0.000    0.000    0.000    0.000 
#
# Total GULP energy -178466.815848 kJ/mol
# GULP energy per Si atom -5577.087995 kJ/mol
# Density = 2.015515 g / cm^3
# Si number density = 20.201127 Si / 1000 Ang^3
#
#
#
# Elastic Constant Matrix: (Units=GPa)
#
#
# Indices 1 2 3 4 5 6 
#
# 1 141.8837 -5.7482 30.6587 0.0000 -15.6467 0.0000
# 2 -5.7482 42.0251 -8.5975 0.0000 3.8947 0.0000
# 3 30.6587 -8.5975 65.3599 0.0000 -5.2707 0.0000
# 4 0.0000 0.0000 0.0000 182.4747 0.0000 -117.9632
# 5 -15.6467 3.8947 -5.2707 0.0000 25.1856 0.0000
# 6 0.0000 0.0000 0.0000 -117.9632 0.0000 86.7049
#
#
#
# Elastic Compliance Matrix: (Units=1/GPa)
#
#
# Indices 1 2 3 4 5 6 
#
# 1 0.008299 0.000002 -0.003537 0.000000 0.004415 0.000000
# 2 0.000002 0.024703 0.002991 0.000000 -0.003193 0.000000
# 3 -0.003537 0.002991 0.017432 0.000000 0.000988 0.000000
# 4 0.000000 0.000000 0.000000 0.045487 0.000000 0.061886
# 5 0.004415 -0.003193 0.000988 0.000000 0.043149 0.000000
# 6 0.000000 0.000000 0.000000 0.061886 0.000000 0.095730
#
#
# Mechanical properties :
#
#
# Convention : Reuss Voigt Hill
#
# Bulk Modulus (GPa) = 20.26419 31.32163 25.79291
# Shear Modulus (GPa) = 19.81477 74.40341 47.10909
#
# Velocity S-wave (km/s) = 3.13529 6.07547 4.83432
# Velocity P-wave (km/s) = 4.81245 8.04696 6.62998
#
# Compressibility (1/GPa) = 0.04934814
#
# Stress axis : x y z
#
# Youngs Moduli (GPa) = 120.49275 40.48025 57.36593
#
# Poissons Ratio (x) = -0.00010 0.20288
# Poissons Ratio (y) = -0.00030 -0.17158
# Poissons Ratio (z) = 0.42613 -0.12107
#
# Static dielectric constant tensor:
#      x y z
#    x 1.758750 0.000000 -0.001440 
#    y 0.000000 1.753300 0.000000 
#    z -0.001440 0.000000 1.662520 
# 
# From -- ./inp_files/93593.got.cif
#   From: 2010.05.17/outbox.cif.g08.bks.cpg/sg10_47_cif.got.tgz:93593.got - 2010.06.03 11:33:40.
