data_PCOD9143059
_publ_section_title
;
Structure prediction by ZEFSAII (Michael W. Deem and Ramdas Pophale) SiO2 
 PCOD9143059
Probable space group: P 2/M
;
_chemical_formula_sum "Si O2"
_cell_formula_units_Z 30
_cell_length_a 11.619065
_cell_length_b 17.695135
_cell_length_c 8.773644
_cell_angle_alpha 90.000000
_cell_angle_beta 63.027762
_cell_angle_gamma 90.000000
_cell_volume 1607.655944
_symmetry_space_group_name_H-M "P 2/M"
_symmetry_group_IT_number 10
_symmetry_cell_setting 'monoclinic'
loop_
_space_group_symop_operation_xyz
x,y,z
-x,y,-z
-x,-y,-z
x,-y,z
loop_
_atom_site_type_symbol
_atom_site_label
_atom_site_fract_x
_atom_site_fract_y
_atom_site_fract_z
Si Si1 0.508190 0.266358 0.324348
Si Si2 0.333062 0.583440 0.756786
Si Si3 0.098144 0.370366 0.063899
Si Si4 0.758590 0.228135 0.001405
Si Si5 0.131676 0.589254 0.596056
Si Si6 0.767819 0.276413 0.658255
Si Si7 0.000000 0.842475 0.500000
Si Si8 0.934225 0.088854 0.869427
O O1 0.500000 0.237651 0.500000
O O2 0.558259 0.353216 0.298644
O O3 0.368447 0.259137 0.337018
O O4 0.624096 0.226071 0.167447
O O5 0.388142 0.500000 0.712710
O O6 0.237892 0.597263 0.669167
O O7 0.235290 0.589125 0.959849
O O8 0.134236 0.284523 0.990324
O O9 0.008260 0.378820 0.265506
O O10 0.000000 0.405451 0.000000
O O11 0.742702 0.271997 0.852271
O O12 0.813732 0.145377 0.947502
O O13 0.121028 0.500000 0.567865
O O14 0.183272 0.643549 0.433432
O O15 0.875910 0.212665 0.563814
O O16 0.997220 0.887412 0.665329
O O17 0.906050 0.000000 0.876833
O O18 0.000000 0.099979 0.000000
#
# Coordination Sequence:
#
# PCOD9143059 Si02
#       8
#     4   4   4   4   4   4   2   4
#     4  11  22  36  58  83 106 151 202 246 281 344
#     4   9  18  32  51  78 108 145 196 252 300 341
#     4   9  17  31  53  80 107 145 192 234 288 348
#     4  10  22  38  57  81 117 152 186 239 284 347
#     4  10  18  30  51  77 112 149 192 247 296 347
#     4  11  22  38  54  84 115 154 198 235 297 345
#     4  10  23  40  65  90 128 160 192 242 285 354
#     4  10  21  38  66  99 128 157 190 233 289 349
#
# _framework density 18.660709000000001
#
# number of rings (size 3 to 8) (size 9 to 14) (size 15 to 20)
#    0.000    2.000    1.333    3.000    1.867    2.400 
#    0.000    5.667    0.000   11.600    0.000    0.000 
#    0.000    0.533    0.000    0.000    0.000    0.000 
#
# Total GULP energy -167118.336748 kJ/mol
# GULP energy per Si atom -5570.611225 kJ/mol
# Density = 1.861824 g / cm^3
# Si number density = 18.660709 Si / 1000 Ang^3
#
#
#
# Elastic Constant Matrix: (Units=GPa)
#
#
# Indices 1 2 3 4 5 6 
#
# 1 93.4604 34.2354 44.6081 0.0000 -7.7816 0.0000
# 2 34.2354 95.9461 49.6836 0.0000 -8.3610 0.0000
# 3 44.6081 49.6836 142.8794 0.0000 -13.2782 0.0000
# 4 0.0000 0.0000 0.0000 21.1401 0.0000 6.5712
# 5 -7.7816 -8.3610 -13.2782 0.0000 26.1752 0.0000
# 6 0.0000 0.0000 0.0000 6.5712 0.0000 20.0414
#
#
#
# Elastic Compliance Matrix: (Units=1/GPa)
#
#
# Indices 1 2 3 4 5 6 
#
# 1 0.013374 -0.003113 -0.002955 0.000000 0.001482 0.000000
# 2 -0.003113 0.013527 -0.003586 0.000000 0.001577 0.000000
# 3 -0.002955 -0.003586 0.009425 0.000000 0.002757 0.000000
# 4 0.000000 0.000000 0.000000 0.052672 0.000000 -0.017270
# 5 0.001482 0.001577 0.002757 0.000000 0.040547 0.000000
# 6 0.000000 0.000000 0.000000 -0.017270 0.000000 0.055559
#
#
# Mechanical properties :
#
#
# Convention : Reuss Voigt Hill
#
# Bulk Modulus (GPa) = 58.75820 65.48223 62.12022
# Shear Modulus (GPa) = 23.80009 27.05528 25.42768
#
# Velocity S-wave (km/s) = 3.57517 3.81182 3.69539
# Velocity P-wave (km/s) = 6.97126 7.38515 7.18119
#
# Compressibility (1/GPa) = 0.01701890
#
# Stress axis : x y z
#
# Youngs Moduli (GPa) = 74.77272 73.92504 106.10518
#
# Poissons Ratio (x) = 0.23009 0.31358
# Poissons Ratio (y) = 0.23273 0.38044
# Poissons Ratio (z) = 0.22098 0.26506
#
# Static dielectric constant tensor:
#      x y z
#    x 2.569130 0.000000 0.236110 
#    y 0.000000 1.654820 0.000000 
#    z 0.236110 0.000000 1.767260 
# 
# From -- ./inp_files/25832.got.cif
#   From: 2010.05.17/outbox.cif.g08.bks.cpg/sg10_13_cif.got.tgz:25832.got - 2010.06.03 11:33:40.
