data_PCOD9143727
_publ_section_title
;
Structure prediction by ZEFSAII (Michael W. Deem and Ramdas Pophale) SiO2 
 PCOD9143727
Probable space group: P 2/M
;
_chemical_formula_sum "Si O2"
_cell_formula_units_Z 32
_cell_length_a 10.411929
_cell_length_b 8.406804
_cell_length_c 17.207822
_cell_angle_alpha 90.000000
_cell_angle_beta 118.669734
_cell_angle_gamma 90.000000
_cell_volume 1321.555828
_symmetry_space_group_name_H-M "P 2/M"
_symmetry_group_IT_number 10
_symmetry_cell_setting 'monoclinic'
loop_
_space_group_symop_operation_xyz
x,y,z
-x,y,-z
-x,-y,-z
x,-y,z
loop_
_atom_site_type_symbol
_atom_site_label
_atom_site_fract_x
_atom_site_fract_y
_atom_site_fract_z
Si Si1 0.269881 0.687846 0.636812
Si Si2 0.038057 0.314594 0.782537
Si Si3 0.669652 0.187672 0.173123
Si Si4 0.086750 0.821367 0.945615
Si Si5 0.404364 0.693438 0.291138
Si Si6 0.959871 0.814414 0.590502
Si Si7 0.666699 0.308633 0.563444
Si Si8 0.630721 0.312585 0.896812
O O1 0.256293 0.500000 0.618909
O O2 0.309295 0.724473 0.738153
O O3 0.424958 0.742680 0.644850
O O4 0.104595 0.757313 0.585137
O O5 0.009387 0.500000 0.761391
O O6 0.210141 0.274078 0.843748
O O7 0.983443 0.256144 0.849773
O O8 0.998094 0.223636 0.692242
O O9 0.503165 0.218704 0.103372
O O10 0.699069 0.000000 0.189743
O O11 0.129446 0.000000 0.932117
O O12 0.224777 0.719286 0.013080
O O13 0.000000 0.835754 0.000000
O O14 0.404112 0.500000 0.291101
O O15 0.309489 0.740992 0.339023
O O16 0.358983 0.743183 0.191058
O O17 0.794922 0.743123 0.541615
O O18 0.946921 0.000000 0.574289
O O19 0.500000 0.255742 0.500000
O O20 0.667369 0.500000 0.560299
O O21 0.596647 0.500000 0.885427
#
# Coordination Sequence:
#
# PCOD9143727 Si02
#       8
#     4   4   4   4   4   4   4   4
#     4   9  16  32  57  85 114 148 193 241 287 343
#     4  11  22  38  60  84 111 149 194 235 283 337
#     4  10  18  32  55  83 114 144 183 235 292 339
#     4  11  25  41  54  77 115 149 191 241 289 335
#     4   8  17  34  59  88 115 147 192 244 288 339
#     4  11  22  37  59  87 120 155 193 238 293 350
#     4  10  21  39  62  89 119 153 194 240 289 347
#     4  10  20  36  57  82 111 148 194 236 283 339
#
# _framework density 24.213882999999999
#
# number of rings (size 3 to 8) (size 9 to 14) (size 15 to 20)
#    0.000    2.000    0.000    6.750    1.750    1.750 
#    0.000    6.250    0.000    3.750    0.000    0.000 
#    0.000    0.000    0.000    0.000    0.000    0.000 
#
# Total GULP energy -178703.729317 kJ/mol
# GULP energy per Si atom -5584.491541 kJ/mol
# Density = 2.415877 g / cm^3
# Si number density = 24.213883 Si / 1000 Ang^3
#
#
#
# Elastic Constant Matrix: (Units=GPa)
#
#
# Indices 1 2 3 4 5 6 
#
# 1 134.3934 3.9206 18.9174 0.0000 1.1387 0.0000
# 2 3.9206 68.0356 -2.7666 0.0000 3.8332 0.0000
# 3 18.9174 -2.7666 77.5078 0.0000 2.0940 0.0000
# 4 0.0000 0.0000 0.0000 21.6149 0.0000 0.2034
# 5 1.1387 3.8332 2.0940 0.0000 36.1507 0.0000
# 6 0.0000 0.0000 0.0000 0.2034 0.0000 66.0169
#
#
#
# Elastic Compliance Matrix: (Units=1/GPa)
#
#
# Indices 1 2 3 4 5 6 
#
# 1 0.007724 -0.000518 -0.001902 0.000000 -0.000078 0.000000
# 2 -0.000518 0.014847 0.000700 0.000000 -0.001598 0.000000
# 3 -0.001902 0.000700 0.013412 0.000000 -0.000791 0.000000
# 4 0.000000 0.000000 0.000000 0.046266 0.000000 -0.000143
# 5 -0.000078 -0.001598 -0.000791 0.000000 0.027880 0.000000
# 6 0.000000 0.000000 0.000000 -0.000143 0.000000 0.015148
#
#
# Mechanical properties :
#
#
# Convention : Reuss Voigt Hill
#
# Bulk Modulus (GPa) = 30.72856 35.56439 33.14648
# Shear Modulus (GPa) = 35.82568 42.08086 38.95327
#
# Velocity S-wave (km/s) = 3.85067 4.17331 4.01523
# Velocity P-wave (km/s) = 5.69984 6.15967 5.93421
#
# Compressibility (1/GPa) = 0.03254301
#
# Stress axis : x y z
#
# Youngs Moduli (GPa) = 129.46166 67.35570 74.55779
#
# Poissons Ratio (x) = 0.03489 0.14178
# Poissons Ratio (y) = 0.06707 -0.05216
# Poissons Ratio (z) = 0.24619 -0.04712
#
# Static dielectric constant tensor:
#      x y z
#    x 2.120370 0.000000 -0.058030 
#    y 0.000000 1.871610 0.000000 
#    z -0.058030 0.000000 2.043560 
# 
# From -- ./inp_files/83632.got.cif
#   From: 2010.05.17/outbox.cif.g08.bks.cpg/sg10_42_cif.got.tgz:83632.got - 2010.06.03 11:33:40.
