data_PCOD9143808
_publ_section_title
;
Structure prediction by ZEFSAII (Michael W. Deem and Ramdas Pophale) SiO2 
 PCOD9143808
Probable space group: P 2/M
;
_chemical_formula_sum "Si O2"
_cell_formula_units_Z 32
_cell_length_a 15.086730
_cell_length_b 12.290927
_cell_length_c 14.967351
_cell_angle_alpha 90.000000
_cell_angle_beta 37.201214
_cell_angle_gamma 90.000000
_cell_volume 1678.047811
_symmetry_space_group_name_H-M "P 2/M"
_symmetry_group_IT_number 10
_symmetry_cell_setting 'monoclinic'
loop_
_space_group_symop_operation_xyz
x,y,z
-x,y,-z
-x,-y,-z
x,-y,z
loop_
_atom_site_type_symbol
_atom_site_label
_atom_site_fract_x
_atom_site_fract_y
_atom_site_fract_z
Si Si1 0.579080 0.622978 0.157201
Si Si2 0.888931 0.309596 0.965118
Si Si3 0.198212 0.625263 0.777240
Si Si4 0.190348 0.624337 0.288942
Si Si5 0.089982 0.873624 0.195547
Si Si6 0.901641 0.713051 0.452273
Si Si7 0.390349 0.224338 0.019064
Si Si8 0.657702 0.370823 0.511802
O O1 0.537489 0.500000 0.162792
O O2 0.499474 0.644050 0.315679
O O3 0.754869 0.631185 0.023023
O O4 0.534085 0.719531 0.126831
O O5 0.921112 0.199878 0.884862
O O6 0.041412 0.373234 0.851867
O O7 0.828471 0.301056 0.114783
O O8 0.228520 0.500000 0.781785
O O9 0.316749 0.665189 0.610452
O O10 0.210611 0.500000 0.301229
O O11 0.165372 0.701334 0.395002
O O12 0.321616 0.672298 0.126554
O O13 0.043392 0.633864 0.346706
O O14 0.254002 0.849706 0.100103
O O15 0.975092 0.824701 0.359682
O O16 0.066975 0.000000 0.198157
O O17 0.779779 0.678761 0.479191
O O18 0.500000 0.169055 0.000000
O O19 0.683953 0.500000 0.487519
#
# Coordination Sequence:
#
# PCOD9143808 Si02
#       8
#     4   4   4   4   4   4   4   4
#     4  10  20  32  51  81 117 153 180 210 259 325
#     4  10  19  36  54  78 108 143 180 226 270 321
#     4  10  19  32  55  85 117 147 176 212 264 336
#     4  10  19  30  50  79 111 146 176 211 262 331
#     4  10  22  39  58  76  99 137 190 244 279 310
#     4  10  18  33  49  72 106 139 182 222 270 316
#     4  10  21  35  52  78 109 144 181 223 271 321
#     4  10  19  30  50  80 115 150 177 210 262 329
#
# _framework density 19.069777999999999
#
# number of rings (size 3 to 8) (size 9 to 14) (size 15 to 20)
#    0.000    2.000    1.250    4.125    0.000    2.750 
#    0.000    8.125    0.000    6.000    0.000    3.500 
#    0.000    0.000    0.000    0.000    0.000    0.000 
#
# Total GULP energy -178461.377950 kJ/mol
# GULP energy per Si atom -5576.918061 kJ/mol
# Density = 1.902637 g / cm^3
# Si number density = 19.069778 Si / 1000 Ang^3
#
#
#
# Elastic Constant Matrix: (Units=GPa)
#
#
# Indices 1 2 3 4 5 6 
#
# 1 50.1551 14.5759 4.4892 0.0000 3.3644 0.0000
# 2 14.5759 88.4892 34.1359 0.0000 18.2355 0.0000
# 3 4.4892 34.1359 95.0521 0.0000 18.0483 0.0000
# 4 0.0000 0.0000 0.0000 12.9427 0.0000 4.8277
# 5 3.3644 18.2355 18.0483 0.0000 30.0917 0.0000
# 6 0.0000 0.0000 0.0000 4.8277 0.0000 8.8413
#
#
#
# Elastic Compliance Matrix: (Units=1/GPa)
#
#
# Indices 1 2 3 4 5 6 
#
# 1 0.020952 -0.003496 0.000348 0.000000 -0.000433 0.000000
# 2 -0.003496 0.014658 -0.003935 0.000000 -0.006132 0.000000
# 3 0.000348 -0.003935 0.012946 0.000000 -0.005419 0.000000
# 4 0.000000 0.000000 0.000000 0.097025 0.000000 -0.052980
# 5 -0.000433 -0.006132 -0.005419 0.000000 0.040247 0.000000
# 6 0.000000 0.000000 0.000000 -0.052980 0.000000 0.142035
#
#
# Mechanical properties :
#
#
# Convention : Reuss Voigt Hill
#
# Bulk Modulus (GPa) = 29.07757 37.78871 33.43314
# Shear Modulus (GPa) = 14.14456 22.40816 18.27636
#
# Velocity S-wave (km/s) = 2.72642 3.43164 3.09915
# Velocity P-wave (km/s) = 5.01919 5.96327 5.51148
#
# Compressibility (1/GPa) = 0.03439077
#
# Stress axis : x y z
#
# Youngs Moduli (GPa) = 47.72793 68.22088 77.24279
#
# Poissons Ratio (x) = 0.23853 -0.02690
# Poissons Ratio (y) = 0.16688 0.30393
# Poissons Ratio (z) = -0.01662 0.26843
#
# Static dielectric constant tensor:
#      x y z
#    x 1.736420 0.000000 0.005930 
#    y 0.000000 1.600380 0.000000 
#    z 0.005930 0.000000 1.714120 
# 
# From -- ./inp_files/67307.got.cif
#   From: 2010.05.17/outbox.cif.g08.bks.cpg/sg10_34_cif.got.tgz:67307.got - 2010.06.03 11:33:40.
