data_PCOD9143067
_publ_section_title
;
Structure prediction by ZEFSAII (Michael W. Deem and Ramdas Pophale) SiO2 
 PCOD9143067
Probable space group: P 2/M
;
_chemical_formula_sum "Si O2"
_cell_formula_units_Z 32
_cell_length_a 11.277774
_cell_length_b 8.404465
_cell_length_c 19.859239
_cell_angle_alpha 90.000000
_cell_angle_beta 60.826898
_cell_angle_gamma 90.000000
_cell_volume 1643.559473
_symmetry_space_group_name_H-M "P 2/M"
_symmetry_group_IT_number 10
_symmetry_cell_setting 'monoclinic'
loop_
_space_group_symop_operation_xyz
x,y,z
-x,y,-z
-x,-y,-z
x,-y,z
loop_
_atom_site_type_symbol
_atom_site_label
_atom_site_fract_x
_atom_site_fract_y
_atom_site_fract_z
Si Si1 0.202327 0.191359 0.125649
Si Si2 0.063910 0.812910 0.737270
Si Si3 0.420162 0.813636 0.425416
Si Si4 0.803051 0.687977 0.165963
Si Si5 0.218522 0.312023 0.977396
Si Si6 0.476369 0.810770 0.114719
Si Si7 0.501591 0.810853 0.259440
Si Si8 0.692352 0.683666 0.411570
O O1 0.353545 0.247553 0.102411
O O2 0.090136 0.245829 0.210477
O O3 0.205555 0.000000 0.127851
O O4 0.161702 0.239591 0.061563
O O5 0.128238 0.783800 0.793212
O O6 0.160806 0.726617 0.657590
O O7 0.064019 0.000000 0.721819
O O8 0.414416 0.766551 0.348832
O O9 0.576412 0.785292 0.405482
O O10 0.328993 0.719263 0.503782
O O11 0.388707 0.000000 0.440704
O O12 0.835167 0.500000 0.163179
O O13 0.834653 0.743791 0.080917
O O14 0.641459 0.713526 0.219674
O O15 0.197192 0.500000 0.985072
O O16 0.379575 0.273340 0.934115
O O17 0.435644 0.792254 0.204406
O O18 0.498530 0.000000 0.095897
O O19 0.535340 0.000000 0.257246
O O20 0.662208 0.500000 0.406030
#
# Coordination Sequence:
#
# PCOD9143067 Si02
#       8
#     4   4   4   4   4   4   4   4
#     4  10  22  37  54  74  99 136 177 215 255 301
#     4  11  22  36  52  72 102 138 175 213 253 303
#     4  10  18  30  51  79 107 134 167 206 249 301
#     4  10  20  33  50  74 104 136 167 206 257 309
#     4  10  21  35  53  78 105 131 166 214 263 307
#     4   9  18  35  56  78 102 131 171 215 257 300
#     4   9  17  30  53  79 104 132 164 208 256 301
#     4  11  21  32  49  75 106 139 168 204 252 305
#
# _framework density 19.469936000000001
#
# number of rings (size 3 to 8) (size 9 to 14) (size 15 to 20)
#    0.000    2.000    1.250    3.750    0.000    5.500 
#    0.000    2.500    0.000    0.750    0.000    5.250 
#    0.000    0.000    0.000    0.000    0.000    0.000 
#
# Total GULP energy -178633.340016 kJ/mol
# GULP energy per Si atom -5582.291876 kJ/mol
# Density = 1.942562 g / cm^3
# Si number density = 19.469936 Si / 1000 Ang^3
#
#
#
# Elastic Constant Matrix: (Units=GPa)
#
#
# Indices 1 2 3 4 5 6 
#
# 1 14.7932 -3.5732 -0.2152 0.0000 3.1528 0.0000
# 2 -3.5732 12.8124 3.8258 0.0000 0.0158 0.0000
# 3 -0.2152 3.8258 114.1875 0.0000 4.0403 0.0000
# 4 0.0000 0.0000 0.0000 61.4200 0.0000 -52.4209
# 5 3.1528 0.0158 4.0403 0.0000 24.0418 0.0000
# 6 0.0000 0.0000 0.0000 -52.4209 0.0000 74.3734
#
#
#
# Elastic Compliance Matrix: (Units=1/GPa)
#
#
# Indices 1 2 3 4 5 6 
#
# 1 0.074732 0.020918 -0.000214 0.000000 -0.009778 0.000000
# 2 0.020918 0.084697 -0.002715 0.000000 -0.002342 0.000000
# 3 -0.000214 -0.002715 0.008900 0.000000 -0.001466 0.000000
# 4 0.000000 0.000000 0.000000 0.040863 0.000000 0.028802
# 5 -0.009778 -0.002342 -0.001466 0.000000 0.043124 0.000000
# 6 0.000000 0.000000 0.000000 0.028802 0.000000 0.033746
#
#
# Mechanical properties :
#
#
# Convention : Reuss Voigt Hill
#
# Bulk Modulus (GPa) = 4.89464 15.76310 10.32887
# Shear Modulus (GPa) = 15.71400 41.41741 28.56571
#
# Velocity S-wave (km/s) = 2.84402 4.61722 3.83452
# Velocity P-wave (km/s) = 3.64746 6.04472 4.99212
#
# Compressibility (1/GPa) = 0.20430509
#
# Stress axis : x y z
#
# Youngs Moduli (GPa) = 13.38112 11.80686 112.35993
#
# Poissons Ratio (x) = -0.24697 0.02405
# Poissons Ratio (y) = -0.27990 0.30511
# Poissons Ratio (z) = 0.00286 0.03206
#
# Static dielectric constant tensor:
#      x y z
#    x 1.679890 0.000000 0.002490 
#    y 0.000000 1.666310 0.000000 
#    z 0.002490 0.000000 1.715130 
# 
# From -- ./inp_files/75993.got.cif
#   From: 2010.05.17/outbox.cif.g08.bks.cpg/sg10_38_cif.got.tgz:75993.got - 2010.06.03 11:33:40.
