data_PCOD9143820
_publ_section_title
;
Structure prediction by ZEFSAII (Michael W. Deem and Ramdas Pophale) SiO2 
 PCOD9143820
Probable space group: P 2/M
;
_chemical_formula_sum "Si O2"
_cell_formula_units_Z 32
_cell_length_a 8.993901
_cell_length_b 14.260714
_cell_length_c 30.483729
_cell_angle_alpha 90.000000
_cell_angle_beta 27.966621
_cell_angle_gamma 90.000000
_cell_volume 1833.540814
_symmetry_space_group_name_H-M "P 2/M"
_symmetry_group_IT_number 10
_symmetry_cell_setting 'monoclinic'
loop_
_space_group_symop_operation_xyz
x,y,z
-x,y,-z
-x,-y,-z
x,-y,z
loop_
_atom_site_type_symbol
_atom_site_label
_atom_site_fract_x
_atom_site_fract_y
_atom_site_fract_z
Si Si1 0.397506 0.104793 0.977018
Si Si2 0.704465 0.386602 0.546718
Si Si3 0.336266 0.295918 0.121286
Si Si4 0.012484 0.394258 0.050105
Si Si5 0.092107 0.611959 0.364870
Si Si6 0.626155 0.712189 0.786867
Si Si7 0.289224 0.611400 0.733561
Si Si8 0.236461 0.109205 0.897191
O O1 0.589820 0.185996 0.902848
O O2 0.448429 0.000000 0.944965
O O3 0.500000 0.105173 0.000000
O O4 0.020440 0.121723 0.074201
O O5 0.703628 0.500000 0.546493
O O6 0.405590 0.359573 0.654078
O O7 0.000000 0.357102 0.500000
O O8 0.796656 0.360328 0.473254
O O9 0.300865 0.318495 0.182334
O O10 0.030077 0.331029 0.174868
O O11 0.658093 0.347482 0.022385
O O12 0.990125 0.500000 0.072565
O O13 0.702063 0.336760 0.142884
O O14 0.000000 0.396114 0.000000
O O15 0.071058 0.500000 0.359808
O O16 0.122511 0.675014 0.313730
O O17 0.412833 0.623780 0.311089
O O18 0.528514 0.821364 0.815236
O O19 0.217985 0.500000 0.751826
O O20 0.322571 0.000000 0.877947
O O21 0.000000 0.133891 0.000000
#
# Coordination Sequence:
#
# PCOD9143820 Si02
#       8
#     4   4   4   4   4   4   4   4
#     4  10  21  35  50  68  92 122 156 198 241 274
#     4   7  12  28  49  66  87 120 158 194 231 271
#     4  11  20  30  46  69  96 123 154 193 234 275
#     4   9  17  28  40  57  89 128 157 178 213 264
#     4   9  18  31  49  70  94 124 159 195 230 275
#     4  11  19  30  44  69  94 124 157 190 232 275
#     4   9  18  31  48  69  94 125 160 194 231 275
#     4  10  18  33  52  67  88 122 162 196 228 273
#
# _framework density 17.452569
#
# number of rings (size 3 to 8) (size 9 to 14) (size 15 to 20)
#    0.000    2.500    2.500    2.625    1.750    1.500 
#    0.000    0.625    0.000    5.250    0.000    0.875 
#    0.000    5.000    0.000    0.000    0.000    0.000 
#
# Total GULP energy -178229.629143 kJ/mol
# GULP energy per Si atom -5569.675911 kJ/mol
# Density = 1.741285 g / cm^3
# Si number density = 17.452569 Si / 1000 Ang^3
#
#
#
# Elastic Constant Matrix: (Units=GPa)
#
#
# Indices 1 2 3 4 5 6 
#
# 1 32.3749 0.5100 -2.2731 0.0000 5.7341 0.0000
# 2 0.5100 66.7294 14.4454 0.0000 3.7302 0.0000
# 3 -2.2731 14.4454 39.2841 0.0000 11.2341 0.0000
# 4 0.0000 0.0000 0.0000 7.5173 0.0000 7.8944
# 5 5.7341 3.7302 11.2341 0.0000 29.5421 0.0000
# 6 0.0000 0.0000 0.0000 7.8944 0.0000 4.1782
#
#
#
# Elastic Compliance Matrix: (Units=1/GPa)
#
#
# Indices 1 2 3 4 5 6 
#
# 1 0.032614 -0.000766 0.004434 0.000000 -0.007920 0.000000
# 2 -0.000766 0.016302 -0.006163 0.000000 0.000434 0.000000
# 3 0.004434 -0.006163 0.031419 0.000000 -0.012030 0.000000
# 4 0.000000 0.000000 0.000000 -0.135164 0.000000 0.255381
# 5 -0.007920 0.000434 -0.012030 0.000000 0.039907 0.000000
# 6 0.000000 0.000000 0.000000 0.255381 0.000000 -0.243184
#
#
# Mechanical properties :
#
#
# Convention : Reuss Voigt Hill
#
# Bulk Modulus (GPa) = 13.27252 18.19475 15.73364
# Shear Modulus (GPa) = -21.92968 16.62794 -2.65087
#
# Velocity S-wave (km/s) = -3.54860 3.09001 -1.23377
# Velocity P-wave (km/s) = 3.02798 4.81444 2.64671
#
# Compressibility (1/GPa) = 0.07534365
#
# Stress axis : x y z
#
# Youngs Moduli (GPa) = 30.66146 61.34367 31.82831
#
# Poissons Ratio (x) = 0.04701 -0.14112
# Poissons Ratio (y) = 0.02350 0.19615
# Poissons Ratio (z) = -0.13595 0.37805
#
# Static dielectric constant tensor:
#      x y z
#    x 1.664460 0.000000 0.031300 
#    y 0.000000 1.598610 0.000000 
#    z 0.031300 0.000000 1.613900 
# 
# From -- ./inp_files/29067.got.cif
#   From: 2010.05.17/outbox.cif.g08.bks.cpg/sg10_15_cif.got.tgz:29067.got - 2010.06.03 11:33:40.
