data_PCOD9143934
_publ_section_title
;
Structure prediction by ZEFSAII (Michael W. Deem and Ramdas Pophale) SiO2 
 PCOD9143934
Probable space group: P 2/M
;
_chemical_formula_sum "Si O2"
_cell_formula_units_Z 32
_cell_length_a 14.739827
_cell_length_b 7.727916
_cell_length_c 21.515080
_cell_angle_alpha 90.000000
_cell_angle_beta 136.602238
_cell_angle_gamma 90.000000
_cell_volume 1683.805250
_symmetry_space_group_name_H-M "P 2/M"
_symmetry_group_IT_number 10
_symmetry_cell_setting 'monoclinic'
loop_
_space_group_symop_operation_xyz
x,y,z
-x,y,-z
-x,-y,-z
x,-y,z
loop_
_atom_site_type_symbol
_atom_site_label
_atom_site_fract_x
_atom_site_fract_y
_atom_site_fract_z
Si Si1 0.065413 0.704864 0.595529
Si Si2 0.072311 0.702146 0.214782
Si Si3 0.646397 0.208858 0.695093
Si Si4 0.363418 0.789646 0.164015
Si Si5 0.077151 0.294676 0.353309
Si Si6 0.648344 0.209204 0.453490
Si Si7 0.086413 0.795347 0.985859
Si Si8 0.344031 0.209313 0.687071
O O1 0.034954 0.500000 0.580772
O O2 0.221598 0.727550 0.666266
O O3 0.000000 0.779026 0.500000
O O4 0.003002 0.778056 0.627611
O O5 0.040466 0.500000 0.199607
O O6 0.228081 0.721771 0.278646
O O7 0.044368 0.778153 0.269067
O O8 0.990274 0.777077 0.116634
O O9 0.658949 0.253672 0.774452
O O10 0.499650 0.265141 0.601736
O O11 0.651141 0.000000 0.693320
O O12 0.510494 0.730241 0.219743
O O13 0.369329 0.000000 0.163824
O O14 0.236303 0.726872 0.062887
O O15 0.050401 0.500000 0.337005
O O16 0.231915 0.272097 0.445177
O O17 0.672449 0.262979 0.393579
O O18 0.648869 0.000000 0.454676
O O19 0.099248 0.000000 0.004640
O O20 0.000000 0.721868 0.000000
O O21 0.341909 0.000000 0.686568
#
# Coordination Sequence:
#
# PCOD9143934 Si02
#       8
#     4   4   4   4   4   4   4   4
#     4  10  19  33  53  73  96 133 175 207 244 300
#     4  11  23  35  48  72 105 137 169 210 252 291
#     4   9  17  33  52  72 101 136 170 201 243 301
#     4   8  15  30  52  77 102 128 158 199 253 302
#     4  10  22  37  49  67 103 142 170 204 254 302
#     4   9  18  31  51  76 101 131 169 209 245 292
#     4  10  18  33  58  78  97 132 170 204 248 302
#     4   9  17  30  51  79 105 124 155 209 260 294
#
# _framework density 19.004574000000002
#
# number of rings (size 3 to 8) (size 9 to 14) (size 15 to 20)
#    0.000    2.500    2.500    1.875    0.000    3.000 
#    0.000    5.000    0.000    0.750    0.000    5.250 
#    0.000    0.000    0.000    0.000    0.000    0.000 
#
# Total GULP energy -178474.377930 kJ/mol
# GULP energy per Si atom -5577.324310 kJ/mol
# Density = 1.896132 g / cm^3
# Si number density = 19.004574 Si / 1000 Ang^3
#
#
#
# Elastic Constant Matrix: (Units=GPa)
#
#
# Indices 1 2 3 4 5 6 
#
# 1 100.1764 -4.2003 77.5777 0.0000 5.8190 0.0000
# 2 -4.2003 20.9611 -6.5673 0.0000 -2.3972 0.0000
# 3 77.5777 -6.5673 120.4052 0.0000 1.2747 0.0000
# 4 0.0000 0.0000 0.0000 32.2322 0.0000 14.1769
# 5 5.8190 -2.3972 1.2747 0.0000 21.1374 0.0000
# 6 0.0000 0.0000 0.0000 14.1769 0.0000 22.4919
#
#
#
# Elastic Compliance Matrix: (Units=1/GPa)
#
#
# Indices 1 2 3 4 5 6 
#
# 1 0.020411 -0.000584 -0.013131 0.000000 -0.004893 0.000000
# 2 -0.000584 0.049165 0.002999 0.000000 0.005556 0.000000
# 3 -0.013131 0.002999 0.016898 0.000000 0.002936 0.000000
# 4 0.000000 0.000000 0.000000 0.042925 0.000000 -0.027056
# 5 -0.004893 0.005556 0.002936 0.000000 0.049110 0.000000
# 6 0.000000 0.000000 0.000000 -0.027056 0.000000 0.061514
#
#
# Mechanical properties :
#
#
# Convention : Reuss Voigt Hill
#
# Bulk Modulus (GPa) = 15.37444 41.68477 28.52961
# Shear Modulus (GPa) = 17.65940 26.82115 22.24027
#
# Velocity S-wave (km/s) = 3.05162 3.76080 3.42462
# Velocity P-wave (km/s) = 4.53033 6.39061 5.53912
#
# Compressibility (1/GPa) = 0.06504301
#
# Stress axis : x y z
#
# Youngs Moduli (GPa) = 48.99361 20.33955 59.17843
#
# Poissons Ratio (x) = 0.01187 0.77706
# Poissons Ratio (y) = 0.02859 -0.17747
# Poissons Ratio (z) = 0.64333 -0.06100
#
# Static dielectric constant tensor:
#      x y z
#    x 1.669220 0.000000 0.004770 
#    y 0.000000 1.702640 0.000000 
#    z 0.004770 0.000000 1.666000 
# 
# From -- ./inp_files/66029.got.cif
#   From: 2010.05.17/outbox.cif.g08.bks.cpg/sg10_34_cif.got.tgz:66029.got - 2010.06.03 11:33:40.
