data_PCOD9143720
_publ_section_title
;
Structure prediction by ZEFSAII (Michael W. Deem and Ramdas Pophale) SiO2 
 PCOD9143720
Probable space group: P 2/M
;
_chemical_formula_sum "Si O2"
_cell_formula_units_Z 32
_cell_length_a 8.728044
_cell_length_b 11.036651
_cell_length_c 17.767871
_cell_angle_alpha 90.000000
_cell_angle_beta 82.595705
_cell_angle_gamma 90.000000
_cell_volume 1697.278398
_symmetry_space_group_name_H-M "P 2/M"
_symmetry_group_IT_number 10
_symmetry_cell_setting 'monoclinic'
loop_
_space_group_symop_operation_xyz
x,y,z
-x,y,-z
-x,-y,-z
x,-y,z
loop_
_atom_site_type_symbol
_atom_site_label
_atom_site_fract_x
_atom_site_fract_y
_atom_site_fract_z
Si Si1 0.589949 0.136334 0.922811
Si Si2 0.407223 0.641527 0.283308
Si Si3 0.102439 0.864948 0.718333
Si Si4 0.845017 0.727006 0.817067
Si Si5 0.343864 0.207582 0.822442
Si Si6 0.121074 0.644920 0.602723
Si Si7 0.769180 0.356748 0.564499
Si Si8 0.087457 0.360332 0.918650
O O1 0.731624 0.215033 0.885528
O O2 0.466638 0.133976 0.863173
O O3 0.640773 0.000000 0.938629
O O4 0.500000 0.188480 0.000000
O O5 0.441974 0.500000 0.289089
O O6 0.261359 0.656688 0.235903
O O7 0.552306 0.706813 0.237202
O O8 0.352252 0.694038 0.367566
O O9 0.228398 0.864838 0.776584
O O10 0.141648 0.748021 0.664043
O O11 0.938378 0.830758 0.766435
O O12 0.097601 0.000000 0.683612
O O13 0.970900 0.650301 0.854983
O O14 0.236224 0.283270 0.886340
O O15 0.146250 0.500000 0.620216
O O16 0.222725 0.680175 0.523032
O O17 0.941855 0.654886 0.587735
O O18 0.739052 0.500000 0.563335
O O19 0.130733 0.500000 0.927818
O O20 0.000000 0.317906 0.000000
#
# Coordination Sequence:
#
# PCOD9143720 Si02
#       8
#     4   4   4   4   4   4   4   4
#     4  10  20  36  56  74  95 130 178 226 269 317
#     4  10  18  32  55  82 107 136 178 226 271 319
#     4  11  22  36  54  79 114 149 181 221 270 323
#     4  10  20  33  53  77 104 136 178 220 269 323
#     4  10  22  35  51  76 109 143 177 218 272 326
#     4   9  17  32  57  83 109 140 180 224 269 317
#     4   8  15  30  54  83 110 136 174 226 273 312
#     4  10  20  34  51  75 108 142 176 218 268 322
#
# _framework density 18.853714
#
# number of rings (size 3 to 8) (size 9 to 14) (size 15 to 20)
#    0.000    2.250    1.250    3.000    0.000    2.500 
#    0.000    1.875    0.000   15.000    0.000    0.000 
#    0.000    0.000    0.000    0.000    0.000    0.000 
#
# Total GULP energy -178329.882253 kJ/mol
# GULP energy per Si atom -5572.808820 kJ/mol
# Density = 1.881080 g / cm^3
# Si number density = 18.853714 Si / 1000 Ang^3
#
#
#
# Elastic Constant Matrix: (Units=GPa)
#
#
# Indices 1 2 3 4 5 6 
#
# 1 51.8482 15.8623 13.2441 0.0000 -17.4289 0.0000
# 2 15.8623 74.7643 32.1313 0.0000 -10.0463 0.0000
# 3 13.2441 32.1313 89.2655 0.0000 -31.2760 0.0000
# 4 0.0000 0.0000 0.0000 16.6054 0.0000 3.7736
# 5 -17.4289 -10.0463 -31.2760 0.0000 35.9355 0.0000
# 6 0.0000 0.0000 0.0000 3.7736 0.0000 -7.4385
#
#
#
# Elastic Compliance Matrix: (Units=1/GPa)
#
#
# Indices 1 2 3 4 5 6 
#
# 1 0.024294 -0.004508 0.002453 0.000000 0.012658 0.000000
# 2 -0.004508 0.016674 -0.006425 0.000000 -0.003117 0.000000
# 3 0.002453 -0.006425 0.018615 0.000000 0.015595 0.000000
# 4 0.000000 0.000000 0.000000 0.053996 0.000000 0.027393
# 5 0.012658 -0.003117 0.015595 0.000000 0.046668 0.000000
# 6 0.000000 0.000000 0.000000 0.027393 0.000000 -0.120538
#
#
# Mechanical properties :
#
#
# Convention : Reuss Voigt Hill
#
# Bulk Modulus (GPa) = 23.46087 37.59480 30.52783
# Shear Modulus (GPa) = 70.54359 19.32984 44.93671
#
# Velocity S-wave (km/s) = 6.12352 3.20543 4.88735
# Velocity P-wave (km/s) = 7.90363 5.80373 6.93364
#
# Compressibility (1/GPa) = 0.04262416
#
# Stress axis : x y z
#
# Youngs Moduli (GPa) = 41.16166 59.97267 53.71888
#
# Poissons Ratio (x) = 0.27034 -0.13177
# Poissons Ratio (y) = 0.18555 0.34515
# Poissons Ratio (z) = -0.10097 0.38533
#
# Static dielectric constant tensor:
#      x y z
#    x 1.647070 0.000000 -0.008940 
#    y 0.000000 1.632460 0.000000 
#    z -0.008940 0.000000 1.697860 
# 
# From -- ./inp_files/34837.got.cif
#   From: 2010.05.17/outbox.cif.g08.bks.cpg/sg10_18_cif.got.tgz:34837.got - 2010.06.03 11:33:40.
