data_PCOD9143021
_publ_section_title
;
Structure prediction by ZEFSAII (Michael W. Deem and Ramdas Pophale) SiO2 
 PCOD9143021
Probable space group: P 2/M
;
_chemical_formula_sum "Si O2"
_cell_formula_units_Z 18
_cell_length_a 11.635203
_cell_length_b 9.848028
_cell_length_c 15.544600
_cell_angle_alpha 90.000000
_cell_angle_beta 28.847472
_cell_angle_gamma 90.000000
_cell_volume 859.373021
_symmetry_space_group_name_H-M "P 2/M"
_symmetry_group_IT_number 10
_symmetry_cell_setting 'monoclinic'
loop_
_space_group_symop_operation_xyz
x,y,z
-x,y,-z
-x,-y,-z
x,-y,z
loop_
_atom_site_type_symbol
_atom_site_label
_atom_site_fract_x
_atom_site_fract_y
_atom_site_fract_z
Si Si1 0.775873 0.646107 0.989079
Si Si2 0.043203 0.662010 0.370509
Si Si3 0.500000 0.287616 0.000000
Si Si4 0.144213 0.845006 0.813913
Si Si5 0.527261 0.345061 0.636290
O O1 0.901158 0.500000 0.914321
O O2 0.615816 0.646374 0.009250
O O3 0.604248 0.658453 0.184201
O O4 0.968588 0.764587 0.865797
O O5 0.109809 0.500000 0.314358
O O6 0.252882 0.763109 0.203480
O O7 0.000000 0.677288 0.500000
O O8 0.802406 0.684213 0.475263
O O9 0.384663 0.760864 0.671980
O O10 0.186217 0.000000 0.761581
O O11 0.000000 0.844708 0.000000
O O12 0.505543 0.500000 0.618432
#
# Coordination Sequence:
#
# PCOD9143021 Si02
#       5
#     4   4   2   4   4
#     4  10  18  30  52  81 111 142 179 222 271 326
#     4  10  18  30  50  80 115 145 177 221 273 327
#     4  12  21  32  53  84 117 146 177 222 279 332
#     4   9  18  33  54  78 106 143 186 228 272 322
#     4   9  17  31  53  80 109 141 180 225 271 322
#
# _framework density 20.945502999999999
#
# number of rings (size 3 to 8) (size 9 to 14) (size 15 to 20)
#    0.000    2.222    2.222    2.667    0.000    2.667 
#    0.000    1.667    0.000    8.667    0.000    0.000 
#    0.000    0.000    0.000    0.000    0.000    0.000 
#
# Total GULP energy -100308.101337 kJ/mol
# GULP energy per Si atom -5572.672296 kJ/mol
# Density = 2.089783 g / cm^3
# Si number density = 20.945503 Si / 1000 Ang^3
#
#
#
# Elastic Constant Matrix: (Units=GPa)
#
#
# Indices 1 2 3 4 5 6 
#
# 1 100.9130 60.4154 44.3397 0.0000 -28.4477 0.0000
# 2 60.4154 108.6459 50.2318 0.0000 -30.7479 0.0000
# 3 44.3397 50.2318 109.3146 0.0000 -26.7014 0.0000
# 4 0.0000 0.0000 0.0000 -7.1658 0.0000 3.4138
# 5 -28.4477 -30.7479 -26.7014 0.0000 45.8914 0.0000
# 6 0.0000 0.0000 0.0000 3.4138 0.0000 -3.1667
#
#
#
# Elastic Compliance Matrix: (Units=1/GPa)
#
#
# Indices 1 2 3 4 5 6 
#
# 1 0.016151 -0.006674 -0.002484 0.000000 0.004095 0.000000
# 2 -0.006674 0.015763 -0.003459 0.000000 0.004412 0.000000
# 3 -0.002484 -0.003459 0.012592 0.000000 0.003469 0.000000
# 4 0.000000 0.000000 0.000000 -0.286880 0.000000 -0.309260
# 5 0.004095 0.004412 0.003469 0.000000 0.029304 0.000000
# 6 0.000000 0.000000 0.000000 -0.309260 0.000000 -0.649170
#
#
# Mechanical properties :
#
#
# Convention : Reuss Voigt Hill
#
# Bulk Modulus (GPa) = 51.88561 69.87190 60.87875
# Shear Modulus (GPa) = -6.01987 18.03753 6.00883
#
# Velocity S-wave (km/s) = -1.69715 2.93774 1.69559
# Velocity P-wave (km/s) = 4.58095 6.70361 5.74123
#
# Compressibility (1/GPa) = 0.01927317
#
# Stress axis : x y z
#
# Youngs Moduli (GPa) = 61.91629 63.43932 79.41361
#
# Poissons Ratio (x) = 0.42337 0.19727
# Poissons Ratio (y) = 0.41321 0.27467
# Poissons Ratio (z) = 0.15381 0.21942
#
# Static dielectric constant tensor:
#      x y z
#    x 1.719290 0.000000 0.044440 
#    y 0.000000 1.725030 0.000000 
#    z 0.044440 0.000000 1.817450 
# 
# From -- ./inp_files/45702.got.cif
#   From: 2010.05.17/outbox.cif.g08.bks.cpg/sg10_23_cif.got.tgz:45702.got - 2010.06.03 11:33:40.
