data_PCOD9143954
_publ_section_title
;
Structure prediction by ZEFSAII (Michael W. Deem and Ramdas Pophale) SiO2 
 PCOD9143954
Probable space group: P 2/M
;
_chemical_formula_sum "Si O2"
_cell_formula_units_Z 32
_cell_length_a 20.175603
_cell_length_b 15.816758
_cell_length_c 7.613714
_cell_angle_alpha 90.000000
_cell_angle_beta 35.242605
_cell_angle_gamma 90.000000
_cell_volume 1401.994497
_symmetry_space_group_name_H-M "P 2/M"
_symmetry_group_IT_number 10
_symmetry_cell_setting 'monoclinic'
loop_
_space_group_symop_operation_xyz
x,y,z
-x,y,-z
-x,-y,-z
x,-y,z
loop_
_atom_site_type_symbol
_atom_site_label
_atom_site_fract_x
_atom_site_fract_y
_atom_site_fract_z
Si Si1 0.170489 0.250748 0.755921
Si Si2 0.962396 0.590506 0.874624
Si Si3 0.564010 0.402600 0.173029
Si Si4 0.418865 0.752743 0.378144
Si Si5 0.819272 0.323961 0.652280
Si Si6 0.558577 0.906050 0.176770
Si Si7 0.909027 0.095619 0.857492
Si Si8 0.733357 0.825680 0.011108
O O1 0.306190 0.244035 0.501998
O O2 0.155843 0.277209 0.586602
O O3 0.100408 0.168824 0.975180
O O4 0.123060 0.332109 0.963318
O O5 0.911694 0.500000 0.938117
O O6 0.082005 0.609483 0.520930
O O7 0.000000 0.587382 0.000000
O O8 0.500000 0.404722 0.500000
O O9 0.565228 0.500000 0.103351
O O10 0.491433 0.333195 0.219833
O O11 0.694580 0.367991 0.908619
O O12 0.498216 0.835026 0.192818
O O13 0.366933 0.769702 0.685143
O O14 0.824525 0.246173 0.773841
O O15 0.500000 0.910523 0.500000
O O16 0.555856 0.000000 0.109093
O O17 0.685747 0.872519 0.944436
O O18 0.784722 0.106583 0.032381
O O19 0.000000 0.107184 0.500000
O O20 0.924549 0.000000 0.891317
#
# Coordination Sequence:
#
# PCOD9143954 Si02
#       8
#     4   4   4   4   4   4   4   4
#     4  10  23  37  61  89 123 161 194 254 312 360
#     4   9  19  37  59  84 114 152 202 244 290 359
#     4  11  21  36  59  88 121 162 207 251 298 360
#     4  10  19  36  53  82 120 157 198 250 299 363
#     4  11  20  37  61  88 119 159 202 249 306 357
#     4   9  16  29  53  79 104 145 201 248 284 336
#     4  10  21  39  62  89 120 160 202 246 307 373
#     4  10  18  33  59  82 117 156 205 243 291 359
#
# _framework density 22.824625999999999
#
# number of rings (size 3 to 8) (size 9 to 14) (size 15 to 20)
#    0.000    2.000    2.500    1.875    0.000    4.500 
#    0.000    1.875    0.000    9.000    0.000    0.000 
#    0.000    0.000    0.000    0.000    0.000    0.000 
#
# Total GULP energy -178556.156134 kJ/mol
# GULP energy per Si atom -5579.879879 kJ/mol
# Density = 2.277268 g / cm^3
# Si number density = 22.824626 Si / 1000 Ang^3
#
#
#
# Elastic Constant Matrix: (Units=GPa)
#
#
# Indices 1 2 3 4 5 6 
#
# 1 43.9159 26.4932 2.8735 0.0000 -2.1607 0.0000
# 2 26.4932 188.4957 38.4899 0.0000 6.3723 0.0000
# 3 2.8735 38.4899 71.3019 0.0000 0.2830 0.0000
# 4 0.0000 0.0000 0.0000 19.2342 0.0000 -11.7434
# 5 -2.1607 6.3723 0.2830 0.0000 23.9590 0.0000
# 6 0.0000 0.0000 0.0000 -11.7434 0.0000 11.2885
#
#
#
# Elastic Compliance Matrix: (Units=1/GPa)
#
#
# Indices 1 2 3 4 5 6 
#
# 1 0.025197 -0.003869 0.001060 0.000000 0.003289 0.000000
# 2 -0.003869 0.006614 -0.003406 0.000000 -0.002068 0.000000
# 3 0.001060 -0.003406 0.015818 0.000000 0.000815 0.000000
# 4 0.000000 0.000000 0.000000 0.142499 0.000000 0.148242
# 5 0.003289 -0.002068 0.000815 0.000000 0.042575 0.000000
# 6 0.000000 0.000000 0.000000 0.148242 0.000000 0.242801
#
#
# Mechanical properties :
#
#
# Convention : Reuss Voigt Hill
#
# Bulk Modulus (GPa) = 28.41019 48.82517 38.61768
# Shear Modulus (GPa) = 10.00663 26.62014 18.31338
#
# Velocity S-wave (km/s) = 2.09610 3.41880 2.83565
# Velocity P-wave (km/s) = 4.28163 6.08459 5.26092
#
# Compressibility (1/GPa) = 0.03519864
#
# Stress axis : x y z
#
# Youngs Moduli (GPa) = 39.68664 151.18389 63.22000
#
# Poissons Ratio (x) = 0.58495 -0.06702
# Poissons Ratio (y) = 0.15355 0.21536
# Poissons Ratio (z) = -0.04207 0.51500
#
# Static dielectric constant tensor:
#      x y z
#    x 1.867710 0.000000 0.022400 
#    y 0.000000 1.851290 0.000000 
#    z 0.022400 0.000000 1.933640 
# 
# From -- ./inp_files/36365.got.cif
#   From: 2010.05.17/outbox.cif.g08.bks.cpg/sg10_19_cif.got.tgz:36365.got - 2010.06.03 11:33:40.
