data_PCOD9143556
_publ_section_title
;
Structure prediction by ZEFSAII (Michael W. Deem and Ramdas Pophale) SiO2 
 PCOD9143556
Probable space group: P 2/M
;
_chemical_formula_sum "Si O2"
_cell_formula_units_Z 32
_cell_length_a 21.670496
_cell_length_b 7.813008
_cell_length_c 14.572155
_cell_angle_alpha 90.000000
_cell_angle_beta 136.859820
_cell_angle_gamma 90.000000
_cell_volume 1687.061383
_symmetry_space_group_name_H-M "P 2/M"
_symmetry_group_IT_number 10
_symmetry_cell_setting 'monoclinic'
loop_
_space_group_symop_operation_xyz
x,y,z
-x,y,-z
-x,-y,-z
x,-y,z
loop_
_atom_site_type_symbol
_atom_site_label
_atom_site_fract_x
_atom_site_fract_y
_atom_site_fract_z
Si Si1 0.657977 0.793457 0.343532
Si Si2 0.050710 0.698526 0.371268
Si Si3 0.136044 0.289079 0.911755
Si Si4 0.815103 0.796684 0.641701
Si Si5 0.528666 0.701970 0.931871
Si Si6 0.284126 0.302196 0.939352
Si Si7 0.900299 0.293599 0.920636
Si Si8 0.206368 0.199400 0.670729
O O1 0.718272 0.742152 0.496272
O O2 0.558023 0.722257 0.226684
O O3 0.717599 0.739716 0.319607
O O4 0.822731 0.000000 0.634162
O O5 0.042453 0.500000 0.386959
O O6 0.108212 0.713142 0.339237
O O7 0.111083 0.782291 0.515855
O O8 0.951750 0.767762 0.241204
O O9 0.134653 0.500000 0.909045
O O10 0.226944 0.228153 0.961161
O O11 0.125533 0.234716 0.005720
O O12 0.832883 0.757704 0.766482
O O13 0.347618 0.000000 0.664306
O O14 0.546422 0.500000 0.966384
O O15 0.500000 0.776325 0.000000
O O16 0.620367 0.775768 0.988481
O O17 0.302007 0.500000 0.983038
O O18 0.219816 0.295453 0.780280
O O19 0.903725 0.500000 0.926893
O O20 0.000000 0.231348 0.000000
O O21 0.222483 0.000000 0.706389
#
# Coordination Sequence:
#
# PCOD9143556 Si02
#       8
#     4   4   4   4   4   4   4   4
#     4   9  19  33  50  72 102 134 164 202 251 304
#     4  10  18  32  52  73 100 138 176 207 244 297
#     4   9  19  34  52  74 101 134 171 208 251 301
#     4  10  20  33  50  79 108 132 165 208 259 301
#     4  10  19  31  51  79 100 123 168 216 250 289
#     4  10  20  35  52  72 102 136 168 209 256 302
#     4  10  18  33  55  78 100 130 174 212 246 296
#     4  10  20  33  48  73 105 137 172 209 248 297
#
# _framework density 18.967894000000001
#
# number of rings (size 3 to 8) (size 9 to 14) (size 15 to 20)
#    0.000    2.250    2.500    1.875    0.000    4.000 
#    0.000    4.375    0.000    0.750    0.000    5.250 
#    0.000    0.000    0.000    0.000    0.000    0.000 
#
# Total GULP energy -178561.398139 kJ/mol
# GULP energy per Si atom -5580.043692 kJ/mol
# Density = 1.892472 g / cm^3
# Si number density = 18.967894 Si / 1000 Ang^3
#
#
#
# Elastic Constant Matrix: (Units=GPa)
#
#
# Indices 1 2 3 4 5 6 
#
# 1 127.8261 4.8896 65.1048 0.0000 11.4119 0.0000
# 2 4.8896 25.2493 -6.2475 0.0000 2.8232 0.0000
# 3 65.1048 -6.2475 100.6407 0.0000 8.4499 0.0000
# 4 0.0000 0.0000 0.0000 30.6195 0.0000 1.2260
# 5 11.4119 2.8232 8.4499 0.0000 23.5133 0.0000
# 6 0.0000 0.0000 0.0000 1.2260 0.0000 4.0993
#
#
#
# Elastic Compliance Matrix: (Units=1/GPa)
#
#
# Indices 1 2 3 4 5 6 
#
# 1 0.012271 -0.004057 -0.007971 0.000000 -0.002604 0.000000
# 2 -0.004057 0.042376 0.005689 0.000000 -0.005163 0.000000
# 3 -0.007971 0.005689 0.015651 0.000000 -0.002439 0.000000
# 4 0.000000 0.000000 0.000000 0.033055 0.000000 -0.009886
# 5 -0.002604 -0.005163 -0.002439 0.000000 0.045289 0.000000
# 6 0.000000 0.000000 0.000000 -0.009886 0.000000 0.246903
#
#
# Mechanical properties :
#
#
# Convention : Reuss Voigt Hill
#
# Bulk Modulus (GPa) = 17.35582 42.35666 29.85624
# Shear Modulus (GPa) = 11.69782 24.31102 18.00442
#
# Velocity S-wave (km/s) = 2.48607 3.58396 3.08426
# Velocity P-wave (km/s) = 4.17261 6.28534 5.33462
#
# Compressibility (1/GPa) = 0.05761756
#
# Stress axis : x y z
#
# Youngs Moduli (GPa) = 81.49484 23.59845 63.89423
#
# Poissons Ratio (x) = 0.09575 0.50932
# Poissons Ratio (y) = 0.33066 -0.36349
# Poissons Ratio (z) = 0.64961 -0.13425
#
# Static dielectric constant tensor:
#      x y z
#    x 1.662950 0.000000 0.013470 
#    y 0.000000 1.691900 0.000000 
#    z 0.013470 0.000000 1.659580 
# 
# From -- ./inp_files/66023.got.cif
#   From: 2010.05.17/outbox.cif.g08.bks.cpg/sg10_34_cif.got.tgz:66023.got - 2010.06.03 11:33:40.
