data_PCOD9143992
_publ_section_title
;
Structure prediction by ZEFSAII (Michael W. Deem and Ramdas Pophale) SiO2 
 PCOD9143992
Probable space group: P 2/M
;
_chemical_formula_sum "Si O2"
_cell_formula_units_Z 32
_cell_length_a 20.549241
_cell_length_b 7.390319
_cell_length_c 13.061810
_cell_angle_alpha 90.000000
_cell_angle_beta 45.639015
_cell_angle_gamma 90.000000
_cell_volume 1418.199608
_symmetry_space_group_name_H-M "P 2/M"
_symmetry_group_IT_number 10
_symmetry_cell_setting 'monoclinic'
loop_
_space_group_symop_operation_xyz
x,y,z
-x,y,-z
-x,-y,-z
x,-y,z
loop_
_atom_site_type_symbol
_atom_site_label
_atom_site_fract_x
_atom_site_fract_y
_atom_site_fract_z
Si Si1 0.597481 0.278401 0.622078
Si Si2 0.393150 0.279487 0.795264
Si Si3 0.294854 0.291233 0.303047
Si Si4 0.900991 0.704878 0.122763
Si Si5 0.881621 0.790992 0.375603
Si Si6 0.705107 0.721521 0.302044
Si Si7 0.747564 0.721666 0.875187
Si Si8 0.044111 0.281444 0.343863
O O1 0.599298 0.500000 0.621698
O O2 0.494846 0.221676 0.711194
O O3 0.636701 0.214217 0.687525
O O4 0.662839 0.222901 0.456946
O O5 0.394492 0.500000 0.792897
O O6 0.358488 0.222937 0.721772
O O7 0.320572 0.223370 0.960516
O O8 0.322158 0.500000 0.259123
O O9 0.195167 0.286355 0.464713
O O10 0.286202 0.214238 0.199006
O O11 0.908949 0.500000 0.071969
O O12 0.882408 0.699199 0.264531
O O13 0.809301 0.784225 0.175539
O O14 0.000000 0.791959 0.000000
O O15 0.978783 0.775912 0.323808
O O16 0.859464 0.000000 0.383139
O O17 0.707971 0.500000 0.299722
O O18 0.748847 0.500000 0.871770
O O19 0.851663 0.778708 0.778566
O O20 0.043905 0.500000 0.344835
O O21 0.000000 0.221172 0.500000
#
# Coordination Sequence:
#
# PCOD9143992 Si02
#       8
#     4   4   4   4   4   4   4   4
#     4   9  16  27  48  74 107 143 173 220 271 323
#     4   9  17  27  43  78 114 137 169 219 284 323
#     4  10  18  34  55  77 107 143 184 221 263 320
#     4  10  21  36  57  82 106 139 182 224 268 325
#     4  12  24  36  53  79 111 144 178 226 273 322
#     4   9  16  28  47  74 108 139 171 214 265 321
#     4   9  18  30  48  75 108 141 175 223 270 318
#     4  10  19  34  56  77 104 143 181 220 265 320
#
# _framework density 22.563818999999999
#
# number of rings (size 3 to 8) (size 9 to 14) (size 15 to 20)
#    0.000    2.250    2.500    1.500    1.750    2.500 
#    0.000    2.500    0.000    0.000    0.000    4.375 
#    0.000    0.000    0.000    0.000    0.000    0.000 
#
# Total GULP energy -178854.813254 kJ/mol
# GULP energy per Si atom -5589.212914 kJ/mol
# Density = 2.251246 g / cm^3
# Si number density = 22.563819 Si / 1000 Ang^3
#
#
#
# Elastic Constant Matrix: (Units=GPa)
#
#
# Indices 1 2 3 4 5 6 
#
# 1 179.8550 -4.8449 20.9712 0.0000 -16.2654 0.0000
# 2 -4.8449 81.3589 -8.9066 0.0000 -1.8581 0.0000
# 3 20.9712 -8.9066 43.5217 0.0000 -16.7814 0.0000
# 4 0.0000 0.0000 0.0000 -5.7932 0.0000 -17.4207
# 5 -16.2654 -1.8581 -16.7814 0.0000 42.3299 0.0000
# 6 0.0000 0.0000 0.0000 -17.4207 0.0000 -35.7686
#
#
#
# Elastic Compliance Matrix: (Units=1/GPa)
#
#
# Indices 1 2 3 4 5 6 
#
# 1 0.005958 0.000133 -0.002312 0.000000 0.001379 0.000000
# 2 0.000133 0.012701 0.003269 0.000000 0.001905 0.000000
# 3 -0.002312 0.003269 0.028889 0.000000 0.010708 0.000000
# 4 0.000000 0.000000 0.000000 0.371561 0.000000 -0.180964
# 5 0.001379 0.001905 0.010708 0.000000 0.028482 0.000000
# 6 0.000000 0.000000 0.000000 -0.180964 0.000000 0.060179
#
#
# Mechanical properties :
#
#
# Convention : Reuss Voigt Hill
#
# Bulk Modulus (GPa) = 20.10909 35.46388 27.78649
# Shear Modulus (GPa) = 9.57552 19.98801 14.78177
#
# Velocity S-wave (km/s) = 2.06227 2.97954 2.56229
# Velocity P-wave (km/s) = 3.82126 5.25244 4.59294
#
# Compressibility (1/GPa) = 0.04972877
#
# Stress axis : x y z
#
# Youngs Moduli (GPa) = 167.84501 78.73664 34.61514
#
# Poissons Ratio (x) = -0.01049 0.08003
# Poissons Ratio (y) = -0.02235 -0.11317
# Poissons Ratio (z) = 0.38806 -0.25743
#
# Static dielectric constant tensor:
#      x y z
#    x 1.806540 0.000000 -0.006120 
#    y 0.000000 1.876140 0.000000 
#    z -0.006120 0.000000 1.773820 
# 
# From -- ./inp_files/55192.got.cif
#   From: 2010.05.17/outbox.cif.g08.bks.cpg/sg10_28_cif.got.tgz:55192.got - 2010.06.03 11:33:40.
