data_PCOD9143602
_publ_section_title
;
Structure prediction by ZEFSAII (Michael W. Deem and Ramdas Pophale) SiO2 
 PCOD9143602
Probable space group: P 2/M
;
_chemical_formula_sum "Si O2"
_cell_formula_units_Z 32
_cell_length_a 22.447157
_cell_length_b 7.596858
_cell_length_c 12.364397
_cell_angle_alpha 90.000000
_cell_angle_beta 133.091943
_cell_angle_gamma 90.000000
_cell_volume 1539.730904
_symmetry_space_group_name_H-M "P 2/M"
_symmetry_group_IT_number 10
_symmetry_cell_setting 'monoclinic'
loop_
_space_group_symop_operation_xyz
x,y,z
-x,y,-z
-x,-y,-z
x,-y,z
loop_
_atom_site_type_symbol
_atom_site_label
_atom_site_fract_x
_atom_site_fract_y
_atom_site_fract_z
Si Si1 0.880753 0.214687 0.101992
Si Si2 0.776059 0.700382 0.359341
Si Si3 0.580672 0.785302 0.737384
Si Si4 0.730565 0.790790 0.061237
Si Si5 0.397753 0.215183 0.483583
Si Si6 0.093257 0.214879 0.108181
Si Si7 0.755695 0.204429 0.573195
Si Si8 0.035740 0.787081 0.426741
O O1 0.808718 0.278164 0.091110
O O2 0.968994 0.269957 0.256365
O O3 0.881027 0.000000 0.106931
O O4 0.871240 0.262674 0.965389
O O5 0.751530 0.500000 0.339550
O O6 0.742197 0.765429 0.202912
O O7 0.747901 0.789540 0.434920
O O8 0.874063 0.715880 0.475991
O O9 0.608739 0.736516 0.650869
O O10 0.487132 0.727132 0.635020
O O11 0.579098 0.000000 0.738327
O O12 0.646367 0.722666 0.906132
O O13 0.730651 0.000000 0.042459
O O14 0.322160 0.280354 0.460699
O O15 0.398430 0.000000 0.487687
O O16 0.157008 0.276815 0.278083
O O17 0.088288 0.000000 0.107761
O O18 0.000000 0.277688 0.000000
O O19 0.757816 0.000000 0.608322
O O20 0.000000 0.741706 0.500000
O O21 0.042733 0.000000 0.430591
#
# Coordination Sequence:
#
# PCOD9143602 Si02
#       8
#     4   4   4   4   4   4   4   4
#     4   9  16  27  49  79 104 125 161 210 255 298
#     4  12  25  37  49  69 103 142 179 218 259 301
#     4   8  14  26  51  85 116 131 152 208 272 317
#     4  10  18  32  53  77 102 133 171 211 256 307
#     4   8  14  27  50  85 114 132 158 205 268 320
#     4   9  16  26  45  75 103 126 160 210 255 293
#     4  10  19  33  54  75 101 138 178 212 251 308
#     4  10  18  33  55  77 100 131 171 213 252 302
#
# _framework density 20.782852999999999
#
# number of rings (size 3 to 8) (size 9 to 14) (size 15 to 20)
#    0.000    2.500    1.250    3.375    0.000    5.250 
#    0.000    0.625    0.000   10.875    0.000    1.750 
#    0.000    0.000    0.000    0.000    0.000    0.000 
#
# Total GULP energy -178624.479539 kJ/mol
# GULP energy per Si atom -5582.014986 kJ/mol
# Density = 2.073555 g / cm^3
# Si number density = 20.782853 Si / 1000 Ang^3
#
#
#
# Elastic Constant Matrix: (Units=GPa)
#
#
# Indices 1 2 3 4 5 6 
#
# 1 135.1573 -0.2929 78.8601 0.0000 9.2829 0.0000
# 2 -0.2929 36.2135 -1.3383 0.0000 5.5354 0.0000
# 3 78.8601 -1.3383 177.2319 0.0000 8.2677 0.0000
# 4 0.0000 0.0000 0.0000 -26.0950 0.0000 11.3205
# 5 9.2829 5.5354 8.2677 0.0000 26.5495 0.0000
# 6 0.0000 0.0000 0.0000 11.3205 0.0000 -66.0765
#
#
#
# Elastic Compliance Matrix: (Units=1/GPa)
#
#
# Indices 1 2 3 4 5 6 
#
# 1 0.010117 0.000259 -0.004396 0.000000 -0.002222 0.000000
# 2 0.000259 0.028573 0.000388 0.000000 -0.006169 0.000000
# 3 -0.004396 0.000388 0.007644 0.000000 -0.000924 0.000000
# 4 0.000000 0.000000 0.000000 -0.041398 0.000000 -0.007093
# 5 -0.002222 -0.006169 -0.000924 0.000000 0.040017 0.000000
# 6 0.000000 0.000000 0.000000 -0.007093 0.000000 -0.016349
#
#
# Mechanical properties :
#
#
# Convention : Reuss Voigt Hill
#
# Bulk Modulus (GPa) = 25.74833 55.89561 40.82197
# Shear Modulus (GPa) = 101.94360 4.96719 53.45540
#
# Velocity S-wave (km/s) = 7.01130 1.54765 5.07708
# Velocity P-wave (km/s) = 8.82952 5.49064 7.35213
#
# Compressibility (1/GPa) = 0.03883747
#
# Stress axis : x y z
#
# Youngs Moduli (GPa) = 98.84480 34.99760 130.81535
#
# Poissons Ratio (x) = -0.00907 0.57505
# Poissons Ratio (y) = -0.02561 -0.05079
# Poissons Ratio (z) = 0.43451 -0.01359
#
# Static dielectric constant tensor:
#      x y z
#    x 1.739070 0.000000 -0.021500 
#    y 0.000000 1.782890 0.000000 
#    z -0.021500 0.000000 1.790890 
# 
# From -- ./inp_files/55341.got.cif
#   From: 2010.05.17/outbox.cif.g08.bks.cpg/sg10_28_cif.got.tgz:55341.got - 2010.06.03 11:33:40.
