data_PCOD9143859
_publ_section_title
;
Structure prediction by ZEFSAII (Michael W. Deem and Ramdas Pophale) SiO2 
 PCOD9143859
Probable space group: P 2/M
;
_chemical_formula_sum "Si O2"
_cell_formula_units_Z 24
_cell_length_a 9.957155
_cell_length_b 8.518346
_cell_length_c 22.802637
_cell_angle_alpha 90.000000
_cell_angle_beta 136.476994
_cell_angle_gamma 90.000000
_cell_volume 1331.899661
_symmetry_space_group_name_H-M "P 2/M"
_symmetry_group_IT_number 10
_symmetry_cell_setting 'monoclinic'
loop_
_space_group_symop_operation_xyz
x,y,z
-x,y,-z
-x,-y,-z
x,-y,z
loop_
_atom_site_type_symbol
_atom_site_label
_atom_site_fract_x
_atom_site_fract_y
_atom_site_fract_z
Si Si1 0.194529 0.810258 0.025549
Si Si2 0.435361 0.808925 0.779496
Si Si3 0.367643 0.312057 0.403541
Si Si4 0.627409 0.188412 0.721560
Si Si5 0.933364 0.686361 0.136890
Si Si6 0.069173 0.188152 0.737189
O O1 0.385046 0.760813 0.121995
O O2 0.193992 0.000000 0.021308
O O3 0.000000 0.764469 0.000000
O O4 0.183615 0.741396 0.957091
O O5 0.485154 0.761067 0.728980
O O6 0.231137 0.757071 0.742172
O O7 0.433247 0.000000 0.779366
O O8 0.500000 0.260966 0.500000
O O9 0.375151 0.500000 0.401554
O O10 0.435124 0.240700 0.362916
O O11 0.143527 0.260505 0.340730
O O12 0.841981 0.259456 0.800519
O O13 0.646892 0.000000 0.729247
O O14 0.926836 0.500000 0.140894
O O15 0.867461 0.764164 0.177004
O O16 0.052206 0.000000 0.729379
#
# Coordination Sequence:
#
# PCOD9143859 Si02
#       6
#     4   4   4   4   4   4
#     4  10  18  33  55  75 103 142 186 225 260 302
#     4   9  19  34  54  81 107 136 176 225 268 305
#     4  10  21  38  58  81 108 137 171 211 259 320
#     4  10  18  34  58  81 104 136 179 219 262 311
#     4  11  21  33  49  76 110 143 183 221 261 308
#     4  10  20  36  57  79 106 138 176 218 266 314
#
# _framework density 18.019376000000001
#
# number of rings (size 3 to 8) (size 9 to 14) (size 15 to 20)
#    0.000    2.000    1.667    5.000    0.000    2.333 
#    0.000    9.167    0.000    5.000    0.000    0.000 
#    0.000    0.000    0.000    0.000    0.000    0.000 
#
# Total GULP energy -133979.914374 kJ/mol
# GULP energy per Si atom -5582.496432 kJ/mol
# Density = 1.797836 g / cm^3
# Si number density = 18.019376 Si / 1000 Ang^3
#
#
#
# Elastic Constant Matrix: (Units=GPa)
#
#
# Indices 1 2 3 4 5 6 
#
# 1 128.5506 -9.5038 42.9074 0.0000 -11.1733 0.0000
# 2 -9.5038 15.6695 -3.4978 0.0000 1.1240 0.0000
# 3 42.9074 -3.4978 101.4533 0.0000 -20.9283 0.0000
# 4 0.0000 0.0000 0.0000 31.1625 0.0000 -2.2984
# 5 -11.1733 1.1240 -20.9283 0.0000 19.7567 0.0000
# 6 0.0000 0.0000 0.0000 -2.2984 0.0000 -26.7745
#
#
#
# Elastic Compliance Matrix: (Units=1/GPa)
#
#
# Indices 1 2 3 4 5 6 
#
# 1 0.009436 0.004836 -0.003557 0.000000 0.001293 0.000000
# 2 0.004836 0.066836 0.000049 0.000000 -0.001015 0.000000
# 3 -0.003557 0.000049 0.014008 0.000000 0.012825 0.000000
# 4 0.000000 0.000000 0.000000 0.031888 0.000000 -0.002737
# 5 0.001293 -0.001015 0.012825 0.000000 0.064990 0.000000
# 6 0.000000 0.000000 0.000000 -0.002737 0.000000 -0.037114
#
#
# Mechanical properties :
#
#
# Convention : Reuss Voigt Hill
#
# Bulk Modulus (GPa) = 10.75991 33.94278 22.35134
# Shear Modulus (GPa) = 28.03217 19.21344 23.62280
#
# Velocity S-wave (km/s) = 3.94847 3.26891 3.62466
# Velocity P-wave (km/s) = 5.17412 5.75547 5.47252
#
# Compressibility (1/GPa) = 0.09293756
#
# Stress axis : x y z
#
# Youngs Moduli (GPa) = 105.97293 14.96209 71.38525
#
# Poissons Ratio (x) = -0.07236 0.25395
# Poissons Ratio (y) = -0.51253 -0.00353
# Poissons Ratio (z) = 0.37699 -0.00074
#
# Static dielectric constant tensor:
#      x y z
#    x 1.623540 0.000000 -0.009240 
#    y 0.000000 1.609040 0.000000 
#    z -0.009240 0.000000 1.596020 
# 
# From -- ./inp_files/33951.got.cif
#   From: 2010.05.17/outbox.cif.g08.bks.cpg/sg10_17_cif.got.tgz:33951.got - 2010.06.03 11:33:40.
