data_PCOD9143352
_publ_section_title
;
Structure prediction by ZEFSAII (Michael W. Deem and Ramdas Pophale) SiO2 
 PCOD9143352
Probable space group: P 2/M
;
_chemical_formula_sum "Si O2"
_cell_formula_units_Z 32
_cell_length_a 20.574879
_cell_length_b 9.050214
_cell_length_c 25.545035
_cell_angle_alpha 90.000000
_cell_angle_beta 23.020783
_cell_angle_gamma 90.000000
_cell_volume 1860.165512
_symmetry_space_group_name_H-M "P 2/M"
_symmetry_group_IT_number 10
_symmetry_cell_setting 'monoclinic'
loop_
_space_group_symop_operation_xyz
x,y,z
-x,y,-z
-x,-y,-z
x,-y,z
loop_
_atom_site_type_symbol
_atom_site_label
_atom_site_fract_x
_atom_site_fract_y
_atom_site_fract_z
Si Si1 0.661753 0.170030 0.841947
Si Si2 0.341271 0.177390 0.888979
Si Si3 0.152519 0.176942 0.847206
Si Si4 0.022781 0.322763 0.839692
Si Si5 0.822175 0.677702 0.387446
Si Si6 0.540612 0.675551 0.094824
Si Si7 0.857880 0.323707 0.784306
Si Si8 0.476051 0.822707 0.674234
O O1 0.606928 0.261837 0.831882
O O2 0.806520 0.241518 0.769393
O O3 0.696201 0.000000 0.803302
O O4 0.500000 0.173153 0.000000
O O5 0.442611 0.242058 0.862679
O O6 0.424486 0.215519 0.771772
O O7 0.328454 0.000000 0.902104
O O8 0.158061 0.247870 0.026281
O O9 0.323575 0.218089 0.749075
O O10 0.120896 0.263348 0.817239
O O11 0.152918 0.000000 0.836859
O O12 0.000000 0.205984 0.000000
O O13 0.003856 0.500000 0.855701
O O14 0.116530 0.284179 0.716381
O O15 0.809619 0.500000 0.399339
O O16 0.647071 0.748586 0.530916
O O17 0.967773 0.722918 0.319838
O O18 0.525150 0.500000 0.113479
O O19 0.712126 0.702628 0.935244
O O20 0.860146 0.500000 0.773339
O O21 0.492913 0.000000 0.659252
#
# Coordination Sequence:
#
# PCOD9143352 Si02
#       8
#     4   4   4   4   4   4   4   4
#     4   9  17  28  45  77 112 143 183 226 271 324
#     4  11  21  36  57  82 112 146 185 233 279 326
#     4  10  20  39  60  81 112 146 183 230 280 329
#     4  11  22  37  58  86 112 143 187 229 276 332
#     4  10  22  39  56  80 116 149 184 229 276 330
#     4  10  18  31  52  80 112 144 183 229 275 327
#     4   9  17  32  51  74 109 149 181 221 275 326
#     4  10  23  40  58  81 110 146 187 227 278 337
#
# _framework density 17.202770000000001
#
# number of rings (size 3 to 8) (size 9 to 14) (size 15 to 20)
#    0.000    2.000    2.500    1.500    0.000    5.750 
#    0.000    2.500    0.000    0.750    0.000    5.250 
#    0.000    0.000    0.000    0.000    0.000    0.000 
#
# Total GULP energy -178627.690223 kJ/mol
# GULP energy per Si atom -5582.115319 kJ/mol
# Density = 1.716362 g / cm^3
# Si number density = 17.202770 Si / 1000 Ang^3
#
#
#
# Elastic Constant Matrix: (Units=GPa)
#
#
# Indices 1 2 3 4 5 6 
#
# 1 180.5061 71.6688 84.1893 0.0000 -14.1587 0.0000
# 2 71.6688 58.8715 52.8099 0.0000 -0.6036 0.0000
# 3 84.1893 52.8099 118.8721 0.0000 -6.7081 0.0000
# 4 0.0000 0.0000 0.0000 17.5410 0.0000 0.9828
# 5 -14.1587 -0.6036 -6.7081 0.0000 22.7938 0.0000
# 6 0.0000 0.0000 0.0000 0.9828 0.0000 35.8259
#
#
#
# Elastic Compliance Matrix: (Units=1/GPa)
#
#
# Indices 1 2 3 4 5 6 
#
# 1 0.012261 -0.012298 -0.002856 0.000000 0.006450 0.000000
# 2 -0.012298 0.040778 -0.009941 0.000000 -0.009485 0.000000
# 3 -0.002856 -0.009941 0.014986 0.000000 0.002373 0.000000
# 4 0.000000 0.000000 0.000000 0.057097 0.000000 -0.001566
# 5 0.006450 -0.009485 0.002373 0.000000 0.048325 0.000000
# 6 0.000000 0.000000 0.000000 -0.001566 0.000000 0.027956
#
#
# Mechanical properties :
#
#
# Convention : Reuss Voigt Hill
#
# Bulk Modulus (GPa) = 56.07405 86.17618 71.12511
# Shear Modulus (GPa) = 19.41468 25.20424 22.30946
#
# Velocity S-wave (km/s) = 3.36308 3.83185 3.60509
# Velocity P-wave (km/s) = 6.90993 8.35347 7.66576
#
# Compressibility (1/GPa) = 0.01783356
#
# Stress axis : x y z
#
# Youngs Moduli (GPa) = 81.56093 24.52325 66.73058
#
# Poissons Ratio (x) = 0.30158 0.19059
# Poissons Ratio (y) = 1.00302 0.66339
# Poissons Ratio (z) = 0.23295 0.24379
#
# Static dielectric constant tensor:
#      x y z
#    x 1.577480 0.000000 -0.006960 
#    y 0.000000 1.574940 0.000000 
#    z -0.006960 0.000000 1.554550 
# 
# From -- ./inp_files/93595.got.cif
#   From: 2010.05.17/outbox.cif.g08.bks.cpg/sg10_47_cif.got.tgz:93595.got - 2010.06.03 11:33:40.
