data_PCOD9143596
_publ_section_title
;
Structure prediction by ZEFSAII (Michael W. Deem and Ramdas Pophale) SiO2 
 PCOD9143596
Probable space group: P 2/M
;
_chemical_formula_sum "Si O2"
_cell_formula_units_Z 32
_cell_length_a 11.652588
_cell_length_b 7.865869
_cell_length_c 24.789665
_cell_angle_alpha 90.000000
_cell_angle_beta 144.492649
_cell_angle_gamma 90.000000
_cell_volume 1319.689923
_symmetry_space_group_name_H-M "P 2/M"
_symmetry_group_IT_number 10
_symmetry_cell_setting 'monoclinic'
loop_
_space_group_symop_operation_xyz
x,y,z
-x,y,-z
-x,-y,-z
x,-y,z
loop_
_atom_site_type_symbol
_atom_site_label
_atom_site_fract_x
_atom_site_fract_y
_atom_site_fract_z
Si Si1 0.713352 0.794690 0.738229
Si Si2 0.585233 0.792225 0.460596
Si Si3 0.290862 0.203055 0.605979
Si Si4 0.841846 0.688307 0.333972
Si Si5 0.738799 0.306289 0.138020
Si Si6 0.144164 0.205637 0.933692
Si Si7 0.101225 0.193405 0.340544
Si Si8 0.521893 0.193554 0.866480
O O1 0.627346 0.740763 0.646168
O O2 0.525098 0.759067 0.704272
O O3 0.921089 0.729582 0.839121
O O4 0.730078 0.000000 0.741813
O O5 0.725700 0.744130 0.462984
O O6 0.694224 0.736107 0.556588
O O7 0.583120 0.000000 0.463226
O O8 0.162944 0.279577 0.604392
O O9 0.263158 0.000000 0.597407
O O10 0.912568 0.500000 0.347958
O O11 0.963790 0.811612 0.341928
O O12 0.614766 0.706404 0.227118
O O13 0.673697 0.500000 0.119602
O O14 0.741029 0.254543 0.076943
O O15 0.964048 0.288484 0.245590
O O16 0.607337 0.194559 0.127631
O O17 0.139423 0.000000 0.935011
O O18 0.267022 0.263202 0.032945
O O19 0.130287 0.000000 0.332379
O O20 0.543143 0.000000 0.854856
#
# Coordination Sequence:
#
# PCOD9143596 Si02
#       8
#     4   4   4   4   4   4   4   4
#     4   7  14  31  54  77  97 121 162 211 245 279
#     4   7  14  29  53  77  97 124 163 207 245 279
#     4   8  15  32  54  73  98 129 164 203 242 286
#     4  11  21  32  47  72 105 136 163 197 245 296
#     4  11  22  34  49  73 105 135 160 195 246 299
#     4  10  19  34  57  78  95 123 165 208 248 290
#     4  10  18  32  53  75  99 129 166 206 243 284
#     4  10  20  34  53  76  99 126 163 206 247 288
#
# _framework density 24.248121999999999
#
# number of rings (size 3 to 8) (size 9 to 14) (size 15 to 20)
#    0.750    2.000    0.000    4.875    0.000    3.000 
#    0.000    5.625    0.000    7.500    0.000    0.000 
#    0.000    0.000    0.000    0.000    0.000    0.000 
#
# Total GULP energy -178541.384665 kJ/mol
# GULP energy per Si atom -5579.418271 kJ/mol
# Density = 2.419293 g / cm^3
# Si number density = 24.248122 Si / 1000 Ang^3
#
#
#
# Elastic Constant Matrix: (Units=GPa)
#
#
# Indices 1 2 3 4 5 6 
#
# 1 54.4428 -0.8486 9.1095 0.0000 1.2318 0.0000
# 2 -0.8486 54.5469 5.1128 0.0000 -2.0697 0.0000
# 3 9.1095 5.1128 151.1319 0.0000 7.3160 0.0000
# 4 0.0000 0.0000 0.0000 136.4072 0.0000 -26.6660
# 5 1.2318 -2.0697 7.3160 0.0000 29.5346 0.0000
# 6 0.0000 0.0000 0.0000 -26.6660 0.0000 -19.7845
#
#
#
# Elastic Compliance Matrix: (Units=1/GPa)
#
#
# Indices 1 2 3 4 5 6 
#
# 1 0.018570 0.000375 -0.001109 0.000000 -0.000473 0.000000
# 2 0.000375 0.018461 -0.000718 0.000000 0.001456 0.000000
# 3 -0.001109 -0.000718 0.006789 0.000000 -0.001686 0.000000
# 4 0.000000 0.000000 0.000000 0.005802 0.000000 -0.007820
# 5 -0.000473 0.001456 -0.001686 0.000000 0.034398 0.000000
# 6 0.000000 0.000000 0.000000 -0.007820 0.000000 -0.040004
#
#
# Mechanical properties :
#
#
# Convention : Reuss Voigt Hill
#
# Bulk Modulus (GPa) = 24.43966 31.87433 28.15700
# Shear Modulus (GPa) = 82.56362 45.68131 64.12246
#
# Velocity S-wave (km/s) = 5.84152 4.34511 5.14798
# Velocity P-wave (km/s) = 7.45646 6.19249 6.85367
#
# Compressibility (1/GPa) = 0.04091709
#
# Stress axis : x y z
#
# Youngs Moduli (GPa) = 53.85018 54.16775 147.28689
#
# Poissons Ratio (x) = -0.02031 0.16335
# Poissons Ratio (y) = -0.02019 0.10569
# Poissons Ratio (z) = 0.05972 0.03887
#
# Static dielectric constant tensor:
#      x y z
#    x 1.980530 0.000000 0.069580 
#    y 0.000000 1.854680 0.000000 
#    z 0.069580 0.000000 2.029760 
# 
# From -- ./inp_files/95274.got.cif
#   From: 2010.05.17/outbox.cif.g08.bks.cpg/sg10_48_cif.got.tgz:95274.got - 2010.06.03 11:33:40.
