data_PCOD9143716
_publ_section_title
;
Structure prediction by ZEFSAII (Michael W. Deem and Ramdas Pophale) SiO2 
 PCOD9143716
Probable space group: P 2/M
;
_chemical_formula_sum "Si O2"
_cell_formula_units_Z 24
_cell_length_a 18.174271
_cell_length_b 7.616718
_cell_length_c 25.812339
_cell_angle_alpha 90.000000
_cell_angle_beta 160.530002
_cell_angle_gamma 90.000000
_cell_volume 1190.980823
_symmetry_space_group_name_H-M "P 2/M"
_symmetry_group_IT_number 10
_symmetry_cell_setting 'monoclinic'
loop_
_space_group_symop_operation_xyz
x,y,z
-x,y,-z
-x,-y,-z
x,-y,z
loop_
_atom_site_type_symbol
_atom_site_label
_atom_site_fract_x
_atom_site_fract_y
_atom_site_fract_z
Si Si1 0.150539 0.713961 0.251515
Si Si2 0.170033 0.710202 0.458335
Si Si3 0.292170 0.715155 0.896064
Si Si4 0.323181 0.710217 0.034876
Si Si5 0.794624 0.207885 0.397296
Si Si6 0.554458 0.286046 0.453473
O O1 0.150398 0.500000 0.249529
O O2 0.265441 0.760255 0.382721
O O3 0.317090 0.774288 0.317086
O O4 0.897955 0.775005 0.083020
O O5 0.167303 0.500000 0.450786
O O6 0.194224 0.745154 0.534897
O O7 0.361778 0.775023 0.546849
O O8 0.935741 0.774734 0.280944
O O9 0.290137 0.500000 0.895047
O O10 0.500000 0.770430 0.000000
O O11 0.316375 0.774719 0.971208
O O12 0.301187 0.500000 0.017702
O O13 0.556898 0.745154 0.216186
O O14 0.000000 0.283050 0.500000
O O15 0.812157 0.000000 0.406067
O O16 0.546938 0.500000 0.447797
#
# Coordination Sequence:
#
# PCOD9143716 Si02
#       6
#     4   4   4   4   4   4
#     4   8  13  24  47  81 114 135 157 201 259 310
#     4  10  18  32  55  81 104 133 172 212 257 307
#     4   9  16  26  46  78 106 123 157 217 266 297
#     4  10  18  32  55  81 104 133 172 212 257 307
#     4  11  25  41  52  67 100 144 181 215 260 309
#     4   8  13  24  47  81 114 135 157 201 259 310
#
# _framework density 20.151458000000002
#
# number of rings (size 3 to 8) (size 9 to 14) (size 15 to 20)
#    0.000    2.667    1.667    2.500    0.000    2.667 
#    0.000    1.667    0.000    9.000    0.000    2.333 
#    0.000    0.000    0.000    0.000    0.000    0.000 
#
# Total GULP energy -133893.716101 kJ/mol
# GULP energy per Si atom -5578.904838 kJ/mol
# Density = 2.010559 g / cm^3
# Si number density = 20.151458 Si / 1000 Ang^3
#
#
#
# Elastic Constant Matrix: (Units=GPa)
#
#
# Indices 1 2 3 4 5 6 
#
# 1 227.7186 8.1254 125.2492 0.0000 19.7253 0.0000
# 2 8.1254 37.7150 1.8416 0.0000 5.5895 0.0000
# 3 125.2492 1.8416 184.3076 0.0000 19.0898 0.0000
# 4 0.0000 0.0000 0.0000-2327.5744 0.0000 1355.8154
# 5 19.7253 5.5895 19.0898 0.0000 40.7580 0.0000
# 6 0.0000 0.0000 0.0000 1355.8154 0.0000 -805.9904
#
#
#
# Elastic Compliance Matrix: (Units=1/GPa)
#
#
# Indices 1 2 3 4 5 6 
#
# 1 0.007119 -0.001143 -0.004714 0.000000 -0.001080 0.000000
# 2 -0.001143 0.027251 0.000877 0.000000 -0.003595 0.000000
# 3 -0.004714 0.000877 0.008825 0.000000 -0.001972 0.000000
# 4 0.000000 0.000000 0.000000 -0.021341 0.000000 -0.035899
# 5 -0.001080 -0.003595 -0.001972 0.000000 0.026475 0.000000
# 6 0.000000 0.000000 0.000000 -0.035899 0.000000 -0.061629
#
#
# Mechanical properties :
#
#
# Convention : Reuss Voigt Hill
#
# Bulk Modulus (GPa) = 30.09040 80.01927 55.05483
# Shear Modulus (GPa) = 646.16998 -597.59305 24.28846
#
# Velocity S-wave (km/s) = 17.92632 -17.23933 3.47550
# Velocity P-wave (km/s) = 21.05790 18.88026 6.59434
#
# Compressibility (1/GPa) = 0.03323319
#
# Stress axis : x y z
#
# Youngs Moduli (GPa) = 140.47467 36.69602 113.31577
#
# Poissons Ratio (x) = 0.04196 0.53421
# Poissons Ratio (y) = 0.16061 -0.09938
# Poissons Ratio (z) = 0.66224 -0.03218
#
# Static dielectric constant tensor:
#      x y z
#    x 1.740180 0.000000 0.017350 
#    y 0.000000 1.752180 0.000000 
#    z 0.017350 0.000000 1.720570 
# 
# From -- ./inp_files/61655.got.cif
#   From: 2010.05.17/outbox.cif.g08.bks.cpg/sg10_31_cif.got.tgz:61655.got - 2010.06.03 11:33:40.
