data_PCOD9143972
_publ_section_title
;
Structure prediction by ZEFSAII (Michael W. Deem and Ramdas Pophale) SiO2 
 PCOD9143972
Probable space group: P 2/M
;
_chemical_formula_sum "Si O2"
_cell_formula_units_Z 20
_cell_length_a 10.538394
_cell_length_b 8.090232
_cell_length_c 16.870093
_cell_angle_alpha 90.000000
_cell_angle_beta 43.497941
_cell_angle_gamma 90.000000
_cell_volume 990.030652
_symmetry_space_group_name_H-M "P 2/M"
_symmetry_group_IT_number 10
_symmetry_cell_setting 'monoclinic'
loop_
_space_group_symop_operation_xyz
x,y,z
-x,y,-z
-x,-y,-z
x,-y,z
loop_
_atom_site_type_symbol
_atom_site_label
_atom_site_fract_x
_atom_site_fract_y
_atom_site_fract_z
Si Si1 0.557500 0.299477 0.236990
Si Si2 0.835004 0.180477 0.638795
Si Si3 0.717581 0.500000 0.410392
Si Si4 0.002628 0.500000 0.403448
Si Si5 0.816318 0.815106 0.263515
Si Si6 0.129523 0.310642 0.019724
O O1 0.559493 0.500000 0.244112
O O2 0.353519 0.229541 0.319766
O O3 0.667114 0.221940 0.261306
O O4 0.673898 0.258927 0.104418
O O5 0.000000 0.169056 0.500000
O O6 0.890671 0.333870 0.668962
O O7 0.817160 0.000000 0.684802
O O8 0.500000 0.500000 0.500000
O O9 0.797995 0.500000 0.462135
O O10 0.790466 0.666061 0.336077
O O11 0.000000 0.500000 0.500000
O O12 0.018109 0.797676 0.132475
O O13 0.788266 0.000000 0.307687
O O14 0.139583 0.500000 0.044499
O O15 0.000000 0.313846 0.000000
#
# Coordination Sequence:
#
# PCOD9143972 Si02
#       6
#     4   4   2   2   4   4
#     4  10  18  33  62  95 129 166 208 254 305 360
#     4  10  21  35  58  88 120 158 206 253 298 360
#     4  12  28  44  64  90 128 164 203 259 316 371
#     4  10  24  44  65  84 115 163 204 252 306 368
#     4  11  22  37  61  91 129 167 204 254 313 367
#     4   8  15  31  55  89 126 164 204 250 304 361
#
# _framework density 20.201395000000002
#
# number of rings (size 3 to 8) (size 9 to 14) (size 15 to 20)
#    0.000    2.000    3.000    1.800    5.600    5.600 
#    0.000    0.000    0.000    2.400    0.000    2.800 
#    0.000    0.000    0.000    0.000    0.000    0.000 
#
# Total GULP energy -111579.410285 kJ/mol
# GULP energy per Si atom -5578.970514 kJ/mol
# Density = 2.015542 g / cm^3
# Si number density = 20.201395 Si / 1000 Ang^3
#
#
#
# Elastic Constant Matrix: (Units=GPa)
#
#
# Indices 1 2 3 4 5 6 
#
# 1 86.5500 25.2952 36.8351 0.0000 -17.8653 0.0000
# 2 25.2952 166.6070 28.6541 0.0000 1.8434 0.0000
# 3 36.8351 28.6541 88.7646 0.0000 -23.0544 0.0000
# 4 0.0000 0.0000 0.0000 -10.7038 0.0000 -15.1653
# 5 -17.8653 1.8434 -23.0544 0.0000 27.5993 0.0000
# 6 0.0000 0.0000 0.0000 -15.1653 0.0000 7.0606
#
#
#
# Elastic Compliance Matrix: (Units=1/GPa)
#
#
# Indices 1 2 3 4 5 6 
#
# 1 0.015106 -0.001671 -0.004036 0.000000 0.006518 0.000000
# 2 -0.001671 0.006705 -0.002386 0.000000 -0.003523 0.000000
# 3 -0.004036 -0.002386 0.016696 0.000000 0.011493 0.000000
# 4 0.000000 0.000000 0.000000 -0.023107 0.000000 -0.049631
# 5 0.006518 -0.003523 0.011493 0.000000 0.050288 0.000000
# 6 0.000000 0.000000 0.000000 -0.049631 0.000000 0.035030
#
#
# Mechanical properties :
#
#
# Convention : Reuss Voigt Hill
#
# Bulk Modulus (GPa) = 44.80231 58.16561 51.48396
# Shear Modulus (GPa) = 40.21090 21.53371 30.87231
#
# Velocity S-wave (km/s) = 4.46634 3.26843 3.91349
# Velocity P-wave (km/s) = 6.98739 6.56498 6.77947
#
# Compressibility (1/GPa) = 0.02232028
#
# Stress axis : x y z
#
# Youngs Moduli (GPa) = 66.20033 149.13745 59.89509
#
# Poissons Ratio (x) = 0.24927 0.24173
# Poissons Ratio (y) = 0.11065 0.14290
# Poissons Ratio (z) = 0.26718 0.35582
#
# Static dielectric constant tensor:
#      x y z
#    x 1.690420 0.000000 -0.012880 
#    y 0.000000 1.798390 0.000000 
#    z -0.012880 0.000000 1.737440 
# 
# From -- ./inp_files/74301.got.cif
#   From: 2010.05.17/outbox.cif.g08.bks.cpg/sg10_38_cif.got.tgz:74301.got - 2010.06.03 11:33:40.
