data_PCOD9143492
_publ_section_title
;
Structure prediction by ZEFSAII (Michael W. Deem and Ramdas Pophale) SiO2 
 PCOD9143492
Probable space group: P 2/M
;
_chemical_formula_sum "Si O2"
_cell_formula_units_Z 22
_cell_length_a 13.846038
_cell_length_b 16.512551
_cell_length_c 5.403030
_cell_angle_alpha 90.000000
_cell_angle_beta 100.798999
_cell_angle_gamma 90.000000
_cell_volume 1213.436417
_symmetry_space_group_name_H-M "P 2/M"
_symmetry_group_IT_number 10
_symmetry_cell_setting 'monoclinic'
loop_
_space_group_symop_operation_xyz
x,y,z
-x,y,-z
-x,-y,-z
x,-y,z
loop_
_atom_site_type_symbol
_atom_site_label
_atom_site_fract_x
_atom_site_fract_y
_atom_site_fract_z
Si Si1 0.398492 0.904855 0.708726
Si Si2 0.621315 0.838500 0.801518
Si Si3 0.771952 0.402120 0.364580
Si Si4 0.887878 0.402251 0.929179
Si Si5 0.564816 0.500000 0.784812
Si Si6 0.614655 0.662682 0.618588
O O1 0.503075 0.857214 0.752137
O O2 0.345176 0.885561 0.427036
O O3 0.420076 0.000000 0.737998
O O4 0.342342 0.873353 0.922315
O O5 0.642903 0.744664 0.768763
O O6 0.753287 0.500000 0.347004
O O7 0.840540 0.385558 0.638795
O O8 0.672951 0.355598 0.394353
O O9 0.824816 0.375900 0.137786
O O10 0.890976 0.500000 0.950384
O O11 0.000000 0.372602 0.000000
O O12 0.500000 0.500000 0.500000
O O13 0.626485 0.582099 0.791377
O O14 0.500000 0.500000 0.000000
O O15 0.500000 0.671275 0.500000
#
# Coordination Sequence:
#
# PCOD9143492 Si02
#       6
#     4   4   4   4   2   4
#     4  10  18  32  48  66  84 114 169 215 245 284
#     4  10  19  29  47  65  88 121 161 208 236 285
#     4  10  20  33  49  72  93 126 166 205 252 295
#     4   9  18  34  54  71  88 111 157 220 268 300
#     4  10  24  34  48  58  85 138 179 208 232 258
#     4  11  22  37  47  69 103 140 178 205 239 275
#
# _framework density 18.130330000000001
#
# number of rings (size 3 to 8) (size 9 to 14) (size 15 to 20)
#    0.000    2.000    2.727    3.273    2.545    6.545 
#    0.000    0.000    0.000    0.000    0.000    0.000 
#    0.000    0.000    0.000    0.000    0.000  105.455 
#
# Total GULP energy -122778.543086 kJ/mol
# GULP energy per Si atom -5580.842868 kJ/mol
# Density = 1.808906 g / cm^3
# Si number density = 18.130330 Si / 1000 Ang^3
#
#
#
# Elastic Constant Matrix: (Units=GPa)
#
#
# Indices 1 2 3 4 5 6 
#
# 1 73.6868 2.3568 31.1425 0.0000 -10.3620 0.0000
# 2 2.3568 110.5142 35.9751 0.0000 -13.4632 0.0000
# 3 31.1425 35.9751 159.6759 0.0000 -20.9216 0.0000
# 4 0.0000 0.0000 0.0000 16.1856 0.0000 -0.3204
# 5 -10.3620 -13.4632 -20.9216 0.0000 21.9844 0.0000
# 6 0.0000 0.0000 0.0000 -0.3204 0.0000 -3.2430
#
#
#
# Elastic Compliance Matrix: (Units=1/GPa)
#
#
# Indices 1 2 3 4 5 6 
#
# 1 0.015387 0.001175 -0.002538 0.000000 0.005557 0.000000
# 2 0.001175 0.010249 -0.001877 0.000000 0.005044 0.000000
# 3 -0.002538 -0.001877 0.007852 0.000000 0.005127 0.000000
# 4 0.000000 0.000000 0.000000 0.061663 0.000000 -0.006091
# 5 0.005557 0.005044 0.005127 0.000000 0.056074 0.000000
# 6 0.000000 0.000000 0.000000 -0.006091 0.000000 -0.307755
#
#
# Mechanical properties :
#
#
# Convention : Reuss Voigt Hill
#
# Bulk Modulus (GPa) = 37.02549 53.64730 45.33640
# Shear Modulus (GPa) = -35.44945 25.27890 -5.08527
#
# Velocity S-wave (km/s) = -4.42663 3.73807 -1.67658
# Velocity P-wave (km/s) = 2.37918 6.94873 4.61651
#
# Compressibility (1/GPa) = 0.02700842
#
# Stress axis : x y z
#
# Youngs Moduli (GPa) = 64.98856 97.56921 127.35011
#
# Poissons Ratio (x) = -0.11463 0.32317
# Poissons Ratio (y) = -0.07636 0.23909
# Poissons Ratio (z) = 0.16492 0.18318
#
# Static dielectric constant tensor:
#      x y z
#    x 1.688920 0.000000 0.013990 
#    y 0.000000 1.621730 0.000000 
#    z 0.013990 0.000000 1.745000 
# 
# From -- ./inp_files/9062.got.cif
#   From: 2010.05.17/outbox.cif.g08.bks.cpg/sg10_5_cif.got.tgz:9062.got - 2010.06.03 11:33:40.
