data_PCOD9143100
_publ_section_title
;
Structure prediction by ZEFSAII (Michael W. Deem and Ramdas Pophale) SiO2 
 PCOD9143100
Probable space group: P 2/M
;
_chemical_formula_sum "Si O2"
_cell_formula_units_Z 32
_cell_length_a 12.071087
_cell_length_b 23.658680
_cell_length_c 18.290139
_cell_angle_alpha 90.000000
_cell_angle_beta 20.129046
_cell_angle_gamma 90.000000
_cell_volume 1797.561065
_symmetry_space_group_name_H-M "P 2/M"
_symmetry_group_IT_number 10
_symmetry_cell_setting 'monoclinic'
loop_
_space_group_symop_operation_xyz
x,y,z
-x,y,-z
-x,-y,-z
x,-y,z
loop_
_atom_site_type_symbol
_atom_site_label
_atom_site_fract_x
_atom_site_fract_y
_atom_site_fract_z
Si Si1 0.286958 0.065252 0.951735
Si Si2 0.017339 0.565070 0.155290
Si Si3 0.375817 0.756886 0.285514
Si Si4 0.647775 0.565493 0.526110
Si Si5 0.331167 0.640316 0.841925
Si Si6 0.475425 0.158591 0.100195
Si Si7 0.555540 0.936356 0.379217
Si Si8 0.732739 0.131375 0.565638
O O1 0.297522 0.107777 0.013696
O O2 0.558013 0.087652 0.728402
O O3 0.336068 0.000000 0.941899
O O4 0.937818 0.069664 0.130722
O O5 0.128960 0.500000 0.087957
O O6 0.921035 0.582139 0.297648
O O7 0.684594 0.565402 0.314760
O O8 0.253873 0.604103 0.962516
O O9 0.543474 0.701008 0.210540
O O10 0.523422 0.786769 0.121787
O O11 0.392725 0.806524 0.335485
O O12 0.000000 0.745917 0.500000
O O13 0.701541 0.500000 0.515366
O O14 0.582955 0.606783 0.633997
O O15 0.000000 0.645176 0.000000
O O16 0.114111 0.135729 0.338809
O O17 0.500000 0.171605 0.000000
O O18 0.500000 0.932847 0.500000
O O19 0.362912 0.889633 0.454715
O O20 0.459209 0.000000 0.415310
#
# Coordination Sequence:
#
# PCOD9143100 Si02
#       8
#     4   4   4   4   4   4   4   4
#     4  10  20  33  53  80 106 132 162 205 262 318
#     4   8  14  26  46  76 111 139 167 206 257 309
#     4   9  21  39  52  69  99 136 175 214 256 306
#     4   8  14  26  47  76 111 141 164 207 261 305
#     4  10  18  30  52  80 105 133 177 217 254 303
#     4  10  21  38  56  73  96 131 177 220 257 305
#     4  10  20  33  52  81 111 133 161 206 263 319
#     4  10  20  36  55  71  98 138 177 209 250 312
#
# _framework density 17.801898999999999
#
# number of rings (size 3 to 8) (size 9 to 14) (size 15 to 20)
#    0.000    2.625    0.000    3.750    0.000    6.250 
#    4.500    0.000    2.750    1.500    0.000    1.750 
#    0.000    0.000    0.000    0.000    0.000    0.000 
#
# Total GULP energy -178364.667375 kJ/mol
# GULP energy per Si atom -5573.895855 kJ/mol
# Density = 1.776138 g / cm^3
# Si number density = 17.801899 Si / 1000 Ang^3
#
#
#
# Elastic Constant Matrix: (Units=GPa)
#
#
# Indices 1 2 3 4 5 6 
#
# 1 73.6329 64.5097 29.2664 0.0000 20.7780 0.0000
# 2 64.5097 127.4909 40.9224 0.0000 15.8693 0.0000
# 3 29.2664 40.9224 53.4915 0.0000 18.3698 0.0000
# 4 0.0000 0.0000 0.0000 8.9292 0.0000 10.0817
# 5 20.7780 15.8693 18.3698 0.0000 19.9669 0.0000
# 6 0.0000 0.0000 0.0000 10.0817 0.0000 -35.9153
#
#
#
# Elastic Compliance Matrix: (Units=1/GPa)
#
#
# Indices 1 2 3 4 5 6 
#
# 1 0.031314 -0.013282 0.000868 0.000000 -0.022828 0.000000
# 2 -0.013282 0.016056 -0.007866 0.000000 0.008297 0.000000
# 3 0.000868 -0.007866 0.032747 0.000000 -0.024779 0.000000
# 4 0.000000 0.000000 0.000000 0.085040 0.000000 0.023871
# 5 -0.022828 0.008297 -0.024779 0.000000 0.090041 0.000000
# 6 0.000000 0.000000 0.000000 0.023871 0.000000 -0.021142
#
#
# Mechanical properties :
#
#
# Convention : Reuss Voigt Hill
#
# Bulk Modulus (GPa) = 25.27971 58.22359 41.75165
# Shear Modulus (GPa) = 17.37314 6.59063 11.98188
#
# Velocity S-wave (km/s) = 3.12735 1.92620 2.59717
# Velocity P-wave (km/s) = 5.22225 6.14202 5.70071
#
# Compressibility (1/GPa) = 0.03955742
#
# Stress axis : x y z
#
# Youngs Moduli (GPa) = 31.93494 62.28110 30.53724
#
# Poissons Ratio (x) = 0.82719 -0.02650
# Poissons Ratio (y) = 0.42415 0.24021
# Poissons Ratio (z) = -0.02772 0.48990
#
# Static dielectric constant tensor:
#      x y z
#    x 1.622170 0.000000 0.024310 
#    y 0.000000 1.581910 0.000000 
#    z 0.024310 0.000000 1.634600 
# 
# From -- ./inp_files/77238.got.cif
#   From: 2010.05.17/outbox.cif.g08.bks.cpg/sg10_39_cif.got.tgz:77238.got - 2010.06.03 11:33:40.
