data_PCOD9143910
_publ_section_title
;
Structure prediction by ZEFSAII (Michael W. Deem and Ramdas Pophale) SiO2 
 PCOD9143910
Probable space group: P 2/M
;
_chemical_formula_sum "Si O2"
_cell_formula_units_Z 32
_cell_length_a 20.303312
_cell_length_b 7.363424
_cell_length_c 12.461551
_cell_angle_alpha 90.000000
_cell_angle_beta 51.755076
_cell_angle_gamma 90.000000
_cell_volume 1463.167634
_symmetry_space_group_name_H-M "P 2/M"
_symmetry_group_IT_number 10
_symmetry_cell_setting 'monoclinic'
loop_
_space_group_symop_operation_xyz
x,y,z
-x,y,-z
-x,-y,-z
x,-y,z
loop_
_atom_site_type_symbol
_atom_site_label
_atom_site_fract_x
_atom_site_fract_y
_atom_site_fract_z
Si Si1 0.092624 0.795391 0.414864
Si Si2 0.254601 0.287525 0.394338
Si Si3 0.246798 0.277919 0.647559
Si Si4 0.910419 0.278336 0.046936
Si Si5 0.402901 0.277782 0.087785
Si Si6 0.592445 0.721781 0.375311
Si Si7 0.658699 0.279744 0.082484
Si Si8 0.149038 0.280635 0.121364
O O1 0.168294 0.723491 0.412756
O O2 0.123716 0.794775 0.261383
O O3 0.000000 0.707364 0.500000
O O4 0.079309 0.000000 0.468697
O O5 0.272890 0.500000 0.389549
O O6 0.244380 0.215920 0.525956
O O7 0.334064 0.215525 0.245237
O O8 0.244751 0.500000 0.649496
O O9 0.166969 0.220453 0.799696
O O10 0.332660 0.223053 0.620598
O O11 0.908119 0.500000 0.049287
O O12 0.901410 0.222459 0.932359
O O13 0.000000 0.220594 0.000000
O O14 0.401434 0.500000 0.092158
O O15 0.500000 0.223561 0.000000
O O16 0.373063 0.218371 0.000481
O O17 0.500000 0.780740 0.500000
O O18 0.593444 0.500000 0.375323
O O19 0.610453 0.781660 0.236082
O O20 0.653833 0.500000 0.085885
O O21 0.755292 0.232174 0.997928
O O22 0.143401 0.500000 0.136423
#
# Coordination Sequence:
#
# PCOD9143910 Si02
#       8
#     4   4   4   4   4   4   4   4
#     4  11  25  41  55  74 104 139 175 221 277 325
#     4  10  20  34  54  80 107 139 179 217 258 313
#     4   9  17  28  42  70 108 135 165 209 252 304
#     4   9  17  28  45  74 105 130 157 205 265 303
#     4   9  17  27  43  72 107 137 168 212 259 298
#     4   9  16  24  38  65 106 148 172 197 253 314
#     4   9  15  26  43  67 101 137 172 210 251 297
#     4  10  18  33  57  79 102 134 176 219 257 307
#
# _framework density 21.870358
#
# number of rings (size 3 to 8) (size 9 to 14) (size 15 to 20)
#    0.000    2.500    2.500    0.375    3.500    1.000 
#    0.000    0.000    0.000    1.500    0.000    0.000 
#    0.000    1.000    0.000    0.000    0.000    0.000 
#
# Total GULP energy -178647.070974 kJ/mol
# GULP energy per Si atom -5582.720968 kJ/mol
# Density = 2.182058 g / cm^3
# Si number density = 21.870358 Si / 1000 Ang^3
#
#
#
# Elastic Constant Matrix: (Units=GPa)
#
#
# Indices 1 2 3 4 5 6 
#
# 1 108.2863 -1.4928 24.5387 0.0000 9.4428 0.0000
# 2 -1.4928 74.0920 -2.3193 0.0000 -0.9540 0.0000
# 3 24.5387 -2.3193 111.2058 0.0000 7.3753 0.0000
# 4 0.0000 0.0000 0.0000 2.4023 0.0000 -76.4087
# 5 9.4428 -0.9540 7.3753 0.0000 45.4683 0.0000
# 6 0.0000 0.0000 0.0000 -76.4087 0.0000 60.5265
#
#
#
# Elastic Compliance Matrix: (Units=1/GPa)
#
#
# Indices 1 2 3 4 5 6 
#
# 1 0.009852 0.000112 -0.002058 0.000000 -0.001710 0.000000
# 2 0.000112 0.013509 0.000242 0.000000 0.000221 0.000000
# 3 -0.002058 0.000242 0.009525 0.000000 -0.001113 0.000000
# 4 0.000000 0.000000 0.000000 -0.010632 0.000000 -0.013422
# 5 -0.001710 0.000221 -0.001113 0.000000 0.022534 0.000000
# 6 0.000000 0.000000 0.000000 -0.013422 0.000000 -0.000422
#
#
# Mechanical properties :
#
#
# Convention : Reuss Voigt Hill
#
# Bulk Modulus (GPa) = 33.92234 37.22636 35.57435
# Shear Modulus (GPa) = 86.80551 39.86992 63.33771
#
# Velocity S-wave (km/s) = 6.30691 4.27431 5.38734
# Velocity P-wave (km/s) = 8.28133 6.43568 7.41614
#
# Compressibility (1/GPa) = 0.02947910
#
# Stress axis : x y z
#
# Youngs Moduli (GPa) = 101.50403 74.02239 104.98313
#
# Poissons Ratio (x) = -0.00829 0.21607
# Poissons Ratio (y) = -0.01137 -0.02545
# Poissons Ratio (z) = 0.20891 -0.01794
#
# Static dielectric constant tensor:
#      x y z
#    x 1.731560 0.000000 -0.065150 
#    y 0.000000 1.857650 0.000000 
#    z -0.065150 0.000000 1.656830 
# 
# From -- ./inp_files/55277.got.cif
#   From: 2010.05.17/outbox.cif.g08.bks.cpg/sg10_28_cif.got.tgz:55277.got - 2010.06.03 11:33:40.
