data_PCOD9143730
_publ_section_title
;
Structure prediction by ZEFSAII (Michael W. Deem and Ramdas Pophale) SiO2 
 PCOD9143730
Probable space group: P 2/M
;
_chemical_formula_sum "Si O2"
_cell_formula_units_Z 30
_cell_length_a 11.581568
_cell_length_b 14.710239
_cell_length_c 19.097813
_cell_angle_alpha 90.000000
_cell_angle_beta 30.312781
_cell_angle_gamma 90.000000
_cell_volume 1642.182506
_symmetry_space_group_name_H-M "P 2/M"
_symmetry_group_IT_number 10
_symmetry_cell_setting 'monoclinic'
loop_
_space_group_symop_operation_xyz
x,y,z
-x,y,-z
-x,-y,-z
x,-y,z
loop_
_atom_site_type_symbol
_atom_site_label
_atom_site_fract_x
_atom_site_fract_y
_atom_site_fract_z
Si Si1 0.985108 0.894294 0.407398
Si Si2 0.500000 0.772351 0.000000
Si Si3 0.345473 0.265493 0.228216
Si Si4 0.311333 0.214847 0.662326
Si Si5 0.408224 0.761419 0.344997
Si Si6 0.777326 0.401183 0.347301
Si Si7 0.057417 0.102826 0.210869
Si Si8 0.076701 0.394258 0.568451
O O1 0.784008 0.841349 0.552688
O O2 0.207770 0.830433 0.296037
O O3 0.932350 0.892610 0.351977
O O4 0.015694 0.000000 0.410976
O O5 0.538644 0.719229 0.907410
O O6 0.721826 0.833977 0.898699
O O7 0.492458 0.254882 0.221783
O O8 0.154017 0.344129 0.335171
O O9 0.500000 0.208304 0.500000
O O10 0.423343 0.215690 0.679838
O O11 0.182653 0.311059 0.717704
O O12 0.125585 0.137052 0.748912
O O13 0.280061 0.668098 0.433074
O O14 0.500000 0.404448 0.500000
O O15 0.847535 0.500000 0.281946
O O16 0.891758 0.389642 0.363637
O O17 0.131053 0.000000 0.159937
O O18 0.086559 0.500000 0.543336
#
# Coordination Sequence:
#
# PCOD9143730 Si02
#       8
#     4   2   4   4   4   4   4   4
#     4   9  17  31  51  76 106 136 168 214 273 329
#     4  10  21  42  59  68 100 148 195 238 259 304
#     4  10  22  35  52  75 102 141 189 227 264 310
#     4  11  18  32  52  79 118 143 168 216 277 336
#     4  11  20  31  49  81 114 140 169 215 276 335
#     4   9  15  25  45  73 107 143 170 194 244 320
#     4  10  20  34  57  82 104 143 188 224 267 323
#     4  10  18  32  55  84 115 143 173 219 277 331
#
# _framework density 18.268370999999998
#
# number of rings (size 3 to 8) (size 9 to 14) (size 15 to 20)
#    0.000    2.000    4.000    3.400    0.000    3.467 
#    0.000    1.000    0.000    1.600    0.000    0.000 
#    0.000    5.333    0.000    0.000    0.000    0.000 
#
# Total GULP energy -167144.017660 kJ/mol
# GULP energy per Si atom -5571.467255 kJ/mol
# Density = 1.822679 g / cm^3
# Si number density = 18.268371 Si / 1000 Ang^3
#
#
#
# Elastic Constant Matrix: (Units=GPa)
#
#
# Indices 1 2 3 4 5 6 
#
# 1 127.2033 -4.7017 22.2319 0.0000 8.3200 0.0000
# 2 -4.7017 61.1375 -3.7474 0.0000 -0.9784 0.0000
# 3 22.2319 -3.7474 27.9330 0.0000 6.1217 0.0000
# 4 0.0000 0.0000 0.0000 7.1755 0.0000 1.0503
# 5 8.3200 -0.9784 6.1217 0.0000 18.7707 0.0000
# 6 0.0000 0.0000 0.0000 1.0503 0.0000 -2.3097
#
#
#
# Elastic Compliance Matrix: (Units=1/GPa)
#
#
# Indices 1 2 3 4 5 6 
#
# 1 0.009193 0.000256 -0.006884 0.000000 -0.001816 0.000000
# 2 0.000256 0.016500 0.001988 0.000000 0.000098 0.000000
# 3 -0.006884 0.001988 0.043999 0.000000 -0.011194 0.000000
# 4 0.000000 0.000000 0.000000 0.130666 0.000000 0.059418
# 5 -0.001816 0.000098 -0.011194 0.000000 0.057735 0.000000
# 6 0.000000 0.000000 0.000000 0.059418 0.000000 -0.405946
#
#
# Mechanical properties :
#
#
# Convention : Reuss Voigt Hill
#
# Bulk Modulus (GPa) = 16.55304 27.09326 21.82315
# Shear Modulus (GPa) = -42.21740 18.22671 -11.99535
#
# Velocity S-wave (km/s) = -4.81246 3.16210 -2.56524
# Velocity P-wave (km/s) = 4.66893 5.30987 1.78826
#
# Compressibility (1/GPa) = 0.06041187
#
# Stress axis : x y z
#
# Youngs Moduli (GPa) = 108.77995 60.60715 22.72766
#
# Poissons Ratio (x) = -0.01551 0.15646
# Poissons Ratio (y) = -0.02784 -0.04519
# Poissons Ratio (z) = 0.74887 -0.12051
#
# Static dielectric constant tensor:
#      x y z
#    x 1.671380 0.000000 0.022250 
#    y 0.000000 1.642710 0.000000 
#    z 0.022250 0.000000 1.630910 
# 
# From -- ./inp_files/84109.got.cif
#   From: 2010.05.17/outbox.cif.g08.bks.cpg/sg10_43_cif.got.tgz:84109.got - 2010.06.03 11:33:40.
