data_PCOD9143524
_publ_section_title
;
Structure prediction by ZEFSAII (Michael W. Deem and Ramdas Pophale) SiO2 
 PCOD9143524
Probable space group: P 2/M
;
_chemical_formula_sum "Si O2"
_cell_formula_units_Z 32
_cell_length_a 14.243256
_cell_length_b 18.350570
_cell_length_c 13.446166
_cell_angle_alpha 90.000000
_cell_angle_beta 148.515404
_cell_angle_gamma 90.000000
_cell_volume 1835.489127
_symmetry_space_group_name_H-M "P 2/M"
_symmetry_group_IT_number 10
_symmetry_cell_setting 'monoclinic'
loop_
_space_group_symop_operation_xyz
x,y,z
-x,y,-z
-x,-y,-z
x,-y,z
loop_
_atom_site_type_symbol
_atom_site_label
_atom_site_fract_x
_atom_site_fract_y
_atom_site_fract_z
Si Si1 0.796773 0.214559 0.287036
Si Si2 0.692161 0.300253 0.382357
Si Si3 0.757275 0.841280 0.531982
Si Si4 0.391232 0.914126 0.187733
Si Si5 0.107743 0.913669 0.753799
Si Si6 0.628622 0.342640 0.020461
Si Si7 0.205370 0.084611 0.222225
Si Si8 0.999620 0.417647 0.619612
O O1 0.693242 0.243041 0.289894
O O2 0.803623 0.131274 0.257158
O O3 0.720032 0.264711 0.129598
O O4 0.000000 0.234664 0.500000
O O5 0.737716 0.245759 0.512306
O O6 0.848466 0.359900 0.515146
O O7 0.499341 0.337577 0.191076
O O8 0.571898 0.873609 0.323255
O O9 0.777014 0.870885 0.661346
O O10 0.923478 0.872540 0.617496
O O11 0.323822 0.889998 0.235842
O O12 0.428549 0.000000 0.228644
O O13 0.237170 0.905786 0.966208
O O14 0.081270 0.000000 0.710747
O O15 0.798978 0.395542 0.166157
O O16 0.500000 0.362134 0.000000
O O17 0.251500 0.000000 0.285640
O O18 0.000000 0.085787 0.000000
O O19 0.956724 0.500000 0.612535
O O20 0.000000 0.415587 0.500000
#
# Coordination Sequence:
#
# PCOD9143524 Si02
#       8
#     4   4   4   4   4   4   4   4
#     4  11  18  35  49  65 100 143 180 217 259 293
#     4  11  22  36  52  75 107 140 175 208 254 308
#     4  12  21  33  55  74 100 140 173 213 267 318
#     4  10  21  36  52  74 101 132 176 228 274 314
#     4  11  22  34  48  69  98 136 188 228 260 302
#     4  10  18  32  51  69  97 135 171 207 255 301
#     4  10  19  35  55  76 104 136 172 222 278 317
#     4  11  20  34  55  79 105 135 173 210 249 306
#
# _framework density 17.434045000000001
#
# number of rings (size 3 to 8) (size 9 to 14) (size 15 to 20)
#    0.000    1.250    6.250    2.250    0.000    2.000 
#    0.000    0.000    0.000    4.875    0.000    0.000 
#    0.000    2.500    0.000    0.000    0.000    0.000 
#
# Total GULP energy -178510.804482 kJ/mol
# GULP energy per Si atom -5578.462640 kJ/mol
# Density = 1.739436 g / cm^3
# Si number density = 17.434045 Si / 1000 Ang^3
#
#
#
# Elastic Constant Matrix: (Units=GPa)
#
#
# Indices 1 2 3 4 5 6 
#
# 1 36.7599 33.3208 21.1674 0.0000 1.5015 0.0000
# 2 33.3208 101.1690 51.6845 0.0000 3.0188 0.0000
# 3 21.1674 51.6845 103.1591 0.0000 17.0440 0.0000
# 4 0.0000 0.0000 0.0000 -1.6318 0.0000 5.0073
# 5 1.5015 3.0188 17.0440 0.0000 18.2105 0.0000
# 6 0.0000 0.0000 0.0000 5.0073 0.0000 18.3032
#
#
#
# Elastic Compliance Matrix: (Units=1/GPa)
#
#
# Indices 1 2 3 4 5 6 
#
# 1 0.039132 -0.011746 -0.002287 0.000000 0.000861 0.000000
# 2 -0.011746 0.017169 -0.006958 0.000000 0.004634 0.000000
# 3 -0.002287 -0.006958 0.015883 0.000000 -0.013524 0.000000
# 4 0.000000 0.000000 0.000000 -0.333146 0.000000 0.091140
# 5 0.000861 0.004634 -0.013524 0.000000 0.066732 0.000000
# 6 0.000000 0.000000 0.000000 0.091140 0.000000 0.029702
#
#
# Mechanical properties :
#
#
# Convention : Reuss Voigt Hill
#
# Bulk Modulus (GPa) = 33.10830 50.38149 41.74490
# Shear Modulus (GPa) = -44.45252 15.97074 -14.24089
#
# Velocity S-wave (km/s) = -5.05499 3.02994 -2.86115
# Velocity P-wave (km/s) = 3.87798 6.41886 3.61684
#
# Compressibility (1/GPa) = 0.03020391
#
# Stress axis : x y z
#
# Youngs Moduli (GPa) = 25.55437 58.24386 62.95914
#
# Poissons Ratio (x) = 0.68412 0.14399
# Poissons Ratio (y) = 0.30016 0.43804
# Poissons Ratio (z) = 0.05844 0.40524
#
# Static dielectric constant tensor:
#      x y z
#    x 1.610420 0.000000 0.002550 
#    y 0.000000 1.615160 0.000000 
#    z 0.002550 0.000000 1.640110 
# 
# From -- ./inp_files/67749.got.cif
#   From: 2010.05.17/outbox.cif.g08.bks.cpg/sg10_34_cif.got.tgz:67749.got - 2010.06.03 11:33:40.
