data_PCOD9143711
_publ_section_title
;
Structure prediction by ZEFSAII (Michael W. Deem and Ramdas Pophale) SiO2 
 PCOD9143711
Probable space group: P 2/M
;
_chemical_formula_sum "Si O2"
_cell_formula_units_Z 32
_cell_length_a 22.121950
_cell_length_b 7.600176
_cell_length_c 11.366196
_cell_angle_alpha 90.000000
_cell_angle_beta 50.837807
_cell_angle_gamma 90.000000
_cell_volume 1481.720726
_symmetry_space_group_name_H-M "P 2/M"
_symmetry_group_IT_number 10
_symmetry_cell_setting 'monoclinic'
loop_
_space_group_symop_operation_xyz
x,y,z
-x,y,-z
-x,-y,-z
x,-y,z
loop_
_atom_site_type_symbol
_atom_site_label
_atom_site_fract_x
_atom_site_fract_y
_atom_site_fract_z
Si Si1 0.193108 0.209254 0.020596
Si Si2 0.899978 0.785559 0.354297
Si Si3 0.755880 0.203028 0.678743
Si Si4 0.042103 0.785271 0.329322
Si Si5 0.494989 0.796748 0.137921
Si Si6 0.195074 0.216677 0.754667
Si Si7 0.659628 0.303089 0.019560
Si Si8 0.655769 0.797176 0.561721
O O1 0.129248 0.276229 0.192765
O O2 0.281049 0.240264 0.953927
O O3 0.181812 0.000000 0.029542
O O4 0.178579 0.276058 0.906794
O O5 0.838515 0.728561 0.530582
O O6 0.867283 0.728722 0.268107
O O7 0.985966 0.737257 0.289211
O O8 0.896105 0.000000 0.359244
O O9 0.711134 0.297070 0.837541
O O10 0.701665 0.202000 0.629776
O O11 0.766678 0.000000 0.705143
O O12 0.000000 0.723716 0.500000
O O13 0.043827 0.000000 0.335478
O O14 0.428205 0.717630 0.303840
O O15 0.469572 0.000000 0.150942
O O16 0.500000 0.717790 0.000000
O O17 0.579851 0.796929 0.091283
O O18 0.280879 0.277607 0.606630
O O19 0.195696 0.000000 0.751961
O O20 0.635330 0.500000 0.076152
O O21 0.643569 0.000000 0.538142
#
# Coordination Sequence:
#
# PCOD9143711 Si02
#       8
#     4   4   4   4   4   4   4   4
#     4  10  20  34  52  71  98 138 179 211 247 302
#     4   8  14  25  48  80 108 129 160 214 262 293
#     4   9  15  29  52  75 100 132 165 200 250 310
#     4   9  16  26  44  76 110 136 165 205 255 302
#     4  10  18  32  55  80 102 128 163 201 251 313
#     4   8  15  28  48  76 103 130 168 213 254 291
#     4  12  24  34  47  71 105 137 169 210 257 300
#     4   8  14  27  50  78 103 123 155 205 251 296
#
# _framework density 21.596513000000002
#
# number of rings (size 3 to 8) (size 9 to 14) (size 15 to 20)
#    0.000    2.750    1.250    3.375    0.000    2.750 
#    0.000    3.125    0.000   10.875    0.000    0.875 
#    0.000    0.000    0.000    0.000    0.000    0.000 
#
# Total GULP energy -178472.180205 kJ/mol
# GULP energy per Si atom -5577.255631 kJ/mol
# Density = 2.154736 g / cm^3
# Si number density = 21.596513 Si / 1000 Ang^3
#
#
#
# Elastic Constant Matrix: (Units=GPa)
#
#
# Indices 1 2 3 4 5 6 
#
# 1 90.1990 -2.4182 39.2693 0.0000 -13.1576 0.0000
# 2 -2.4182 41.0808 11.8598 0.0000 0.7783 0.0000
# 3 39.2693 11.8598 67.9944 0.0000 3.5716 0.0000
# 4 0.0000 0.0000 0.0000 4.2364 0.0000 41.1321
# 5 -13.1576 0.7783 3.5716 0.0000 34.6075 0.0000
# 6 0.0000 0.0000 0.0000 41.1321 0.0000 28.5057
#
#
#
# Elastic Compliance Matrix: (Units=1/GPa)
#
#
# Indices 1 2 3 4 5 6 
#
# 1 0.017059 0.004023 -0.010949 0.000000 0.007525 0.000000
# 2 0.004023 0.026582 -0.007047 0.000000 0.001659 0.000000
# 3 -0.010949 -0.007047 0.022593 0.000000 -0.006336 0.000000
# 4 0.000000 0.000000 0.000000 -0.018144 0.000000 0.026181
# 5 0.007525 0.001659 -0.006336 0.000000 0.032373 0.000000
# 6 0.000000 0.000000 0.000000 0.026181 0.000000 -0.002696
#
#
# Mechanical properties :
#
#
# Convention : Reuss Voigt Hill
#
# Bulk Modulus (GPa) = 26.11867 32.96623 29.54245
# Shear Modulus (GPa) = 42.20282 23.50745 32.85513
#
# Velocity S-wave (km/s) = 4.42537 3.30280 3.90464
# Velocity P-wave (km/s) = 6.18321 5.46282 5.83414
#
# Compressibility (1/GPa) = 0.03828678
#
# Stress axis : x y z
#
# Youngs Moduli (GPa) = 58.62006 37.61941 44.26238
#
# Poissons Ratio (x) = -0.15133 0.48463
# Poissons Ratio (y) = -0.23580 0.31191
# Poissons Ratio (z) = 0.64184 0.26510
#
# Static dielectric constant tensor:
#      x y z
#    x 1.783230 0.000000 -0.019500 
#    y 0.000000 1.825830 0.000000 
#    z -0.019500 0.000000 1.798730 
# 
# From -- ./inp_files/55218.got.cif
#   From: 2010.05.17/outbox.cif.g08.bks.cpg/sg10_28_cif.got.tgz:55218.got - 2010.06.03 11:33:40.
