data_PCOD9143605
_publ_section_title
;
Structure prediction by ZEFSAII (Michael W. Deem and Ramdas Pophale) SiO2 
 PCOD9143605
Probable space group: P 2/M
;
_chemical_formula_sum "Si O2"
_cell_formula_units_Z 30
_cell_length_a 29.073938
_cell_length_b 8.723160
_cell_length_c 12.221132
_cell_angle_alpha 90.000000
_cell_angle_beta 153.942094
_cell_angle_gamma 90.000000
_cell_volume 1361.538296
_symmetry_space_group_name_H-M "P 2/M"
_symmetry_group_IT_number 10
_symmetry_cell_setting 'monoclinic'
loop_
_space_group_symop_operation_xyz
x,y,z
-x,y,-z
-x,-y,-z
x,-y,z
loop_
_atom_site_type_symbol
_atom_site_label
_atom_site_fract_x
_atom_site_fract_y
_atom_site_fract_z
Si Si1 0.131913 0.173784 0.082853
Si Si2 0.199133 0.314425 0.023825
Si Si3 0.199884 0.675460 0.780764
Si Si4 0.329045 0.317942 0.622079
Si Si5 0.793356 0.325541 0.439071
Si Si6 0.588387 0.181760 0.409478
Si Si7 0.448308 0.675931 0.281084
Si Si8 0.000000 0.252913 0.000000
O O1 0.113088 0.250017 0.925028
O O2 0.170236 0.000000 0.148843
O O3 0.222545 0.279824 0.327822
O O4 0.043239 0.168571 0.985058
O O5 0.203040 0.500000 0.033728
O O6 0.176528 0.261462 0.851358
O O7 0.311768 0.251759 0.308974
O O8 0.157659 0.500000 0.690329
O O9 0.175606 0.748944 0.610601
O O10 0.325902 0.671825 0.042100
O O11 0.346826 0.500000 0.666474
O O12 0.297112 0.258380 0.675087
O O13 0.411606 0.243525 0.715414
O O14 0.758263 0.500000 0.339153
O O15 0.898453 0.336055 0.735145
O O16 0.486379 0.235143 0.256777
O O17 0.596605 0.000000 0.426220
O O18 0.500000 0.744513 0.500000
O O19 0.486237 0.500000 0.350196
#
# Coordination Sequence:
#
# PCOD9143605 Si02
#       8
#     4   4   4   4   4   4   4   2
#     4  10  19  32  52  78 106 137 174 214 259 313
#     4  10  18  32  53  78 107 140 175 215 262 310
#     4   9  18  33  53  77 108 138 172 217 265 310
#     4   9  17  31  52  77 104 135 177 221 263 307
#     4   9  18  33  55  82 105 132 172 222 266 308
#     4  11  20  30  49  77 109 142 179 219 257 309
#     4  10  18  32  53  77 104 141 181 218 258 303
#     4  10  20  34  56  78 105 136 173 212 263 320
#
# _framework density 22.033901
#
# number of rings (size 3 to 8) (size 9 to 14) (size 15 to 20)
#    0.000    2.267    1.333    4.400    0.000    1.867 
#    0.000    1.333    0.000   21.600    0.000    0.000 
#    0.000    0.000    0.000    0.000    0.000    0.000 
#
# Total GULP energy -167059.589179 kJ/mol
# GULP energy per Si atom -5568.652973 kJ/mol
# Density = 2.198375 g / cm^3
# Si number density = 22.033901 Si / 1000 Ang^3
#
#
#
# Elastic Constant Matrix: (Units=GPa)
#
#
# Indices 1 2 3 4 5 6 
#
# 1 216.5117 41.5886 24.4768 0.0000 -37.7486 0.0000
# 2 41.5886 62.9004 -0.3928 0.0000 -5.5565 0.0000
# 3 24.4768 -0.3928 47.2830 0.0000 -30.5776 0.0000
# 4 0.0000 0.0000 0.0000 -5.0872 0.0000 4.7506
# 5 -37.7486 -5.5565 -30.5776 0.0000 37.3657 0.0000
# 6 0.0000 0.0000 0.0000 4.7506 0.0000 3.5062
#
#
#
# Elastic Compliance Matrix: (Units=1/GPa)
#
#
# Indices 1 2 3 4 5 6 
#
# 1 0.006371 -0.003610 0.001035 0.000000 0.006747 0.000000
# 2 -0.003610 0.018445 0.003053 0.000000 0.001594 0.000000
# 3 0.001035 0.003053 0.045899 0.000000 0.039060 0.000000
# 4 0.000000 0.000000 0.000000 -0.086776 0.000000 0.117575
# 5 0.006747 0.001594 0.039060 0.000000 0.065779 0.000000
# 6 0.000000 0.000000 0.000000 0.117575 0.000000 0.125905
#
#
# Mechanical properties :
#
#
# Convention : Reuss Voigt Hill
#
# Bulk Modulus (GPa) = 13.95286 50.89335 32.42311
# Shear Modulus (GPa) = 25.18153 24.55845 24.86999
#
# Velocity S-wave (km/s) = 3.38428 3.34215 3.36328
# Velocity P-wave (km/s) = 4.64944 6.16775 5.46162
#
# Compressibility (1/GPa) = 0.07166990
#
# Stress axis : x y z
#
# Youngs Moduli (GPa) = 156.95011 54.21514 21.78717
#
# Poissons Ratio (x) = 0.19573 -0.02254
# Poissons Ratio (y) = 0.56663 -0.06651
# Poissons Ratio (z) = -0.16240 -0.16551
#
# Static dielectric constant tensor:
#      x y z
#    x 1.902770 0.000000 -0.011290 
#    y 0.000000 1.763940 0.000000 
#    z -0.011290 0.000000 1.853380 
# 
# From -- ./inp_files/58020.got.cif
#   From: 2010.05.17/outbox.cif.g08.bks.cpg/sg10_30_cif.got.tgz:58020.got - 2010.06.03 11:33:40.
