data_PCOD9143301
_publ_section_title
;
Structure prediction by ZEFSAII (Michael W. Deem and Ramdas Pophale) SiO2 
 PCOD9143301
Probable space group: P 2/M
;
_chemical_formula_sum "Si O2"
_cell_formula_units_Z 26
_cell_length_a 25.959650
_cell_length_b 10.742669
_cell_length_c 15.047215
_cell_angle_alpha 90.000000
_cell_angle_beta 160.134187
_cell_angle_gamma 90.000000
_cell_volume 1425.982182
_symmetry_space_group_name_H-M "P 2/M"
_symmetry_group_IT_number 10
_symmetry_cell_setting 'monoclinic'
loop_
_space_group_symop_operation_xyz
x,y,z
-x,y,-z
-x,-y,-z
x,-y,z
loop_
_atom_site_type_symbol
_atom_site_label
_atom_site_fract_x
_atom_site_fract_y
_atom_site_fract_z
Si Si1 0.921458 0.641101 0.602215
Si Si2 0.714251 0.349420 0.109199
Si Si3 0.174712 0.738935 0.900942
Si Si4 0.500000 0.306931 0.500000
Si Si5 0.414358 0.732084 0.542203
Si Si6 0.077353 0.349379 0.031302
Si Si7 0.520557 0.000000 0.641047
Si Si8 0.882082 0.000000 0.229003
O O1 0.872366 0.500000 0.541435
O O2 0.794702 0.694429 0.330246
O O3 0.073900 0.641269 0.789651
O O4 0.972419 0.696115 0.779039
O O5 0.721721 0.500000 0.116828
O O6 0.801679 0.296214 0.163870
O O7 0.542015 0.303333 0.820696
O O8 0.094679 0.871182 0.783213
O O9 0.340099 0.752575 0.212018
O O10 0.548502 0.357911 0.482535
O O11 0.243423 0.710253 0.293537
O O12 0.446030 0.873706 0.559627
O O13 0.094518 0.500000 0.050294
O O14 0.000000 0.324121 0.000000
O O15 0.500000 0.000000 0.500000
O O16 0.700854 0.000000 0.958115
O O17 0.000000 0.000000 0.500000
#
# Coordination Sequence:
#
# PCOD9143301 Si02
#       8
#     4   4   4   2   4   4   2   2
#     4  10  20  35  53  78 111 147 183 228 282 330
#     4  10  20  32  51  80 114 146 179 224 282 344
#     4  11  20  32  48  76 117 148 185 220 276 338
#     4  10  18  31  51  78 108 144 179 221 272 330
#     4  11  20  37  57  83 113 149 187 231 281 337
#     4  10  22  41  62  83 110 147 194 241 281 329
#     4  12  22  38  55  82 120 155 187 232 283 336
#     4  12  22  30  48  76 114 157 189 214 263 338
#
# _framework density 18.233046999999999
#
# number of rings (size 3 to 8) (size 9 to 14) (size 15 to 20)
#    0.000    1.385    5.385    2.308    0.000    1.231 
#    0.000    3.462    0.000    3.692    0.000    1.077 
#    0.000    0.000    0.000    0.000    0.000    0.000 
#
# Total GULP energy -144762.322276 kJ/mol
# GULP energy per Si atom -5567.781626 kJ/mol
# Density = 1.819155 g / cm^3
# Si number density = 18.233047 Si / 1000 Ang^3
#
#
#
# Elastic Constant Matrix: (Units=GPa)
#
#
# Indices 1 2 3 4 5 6 
#
# 1 90.0289 16.7498 75.0856 0.0000 -12.9441 0.0000
# 2 16.7498 82.1167 28.0481 0.0000 -1.7696 0.0000
# 3 75.0856 28.0481 168.9129 0.0000 -28.5488 0.0000
# 4 0.0000 0.0000 0.0000 16.8142 0.0000 0.5227
# 5 -12.9441 -1.7696 -28.5488 0.0000 27.9427 0.0000
# 6 0.0000 0.0000 0.0000 0.5227 0.0000 13.0076
#
#
#
# Elastic Compliance Matrix: (Units=1/GPa)
#
#
# Indices 1 2 3 4 5 6 
#
# 1 0.017728 -0.000992 -0.007661 0.000000 0.000322 0.000000
# 2 -0.000992 0.013029 -0.002007 0.000000 -0.001685 0.000000
# 3 -0.007661 -0.002007 0.010924 0.000000 0.007485 0.000000
# 4 0.000000 0.000000 0.000000 0.059548 0.000000 -0.002393
# 5 0.000322 -0.001685 0.007485 0.000000 0.043477 0.000000
# 6 0.000000 0.000000 0.000000 -0.002393 0.000000 0.076974
#
#
# Mechanical properties :
#
#
# Convention : Reuss Voigt Hill
#
# Bulk Modulus (GPa) = 49.11608 64.53616 56.82612
# Shear Modulus (GPa) = 20.01680 26.29790 23.15735
#
# Velocity S-wave (km/s) = 3.31695 3.80191 3.56768
# Velocity P-wave (km/s) = 6.45492 7.39897 6.94301
#
# Compressibility (1/GPa) = 0.02035993
#
# Stress axis : x y z
#
# Youngs Moduli (GPa) = 56.40732 76.74892 91.53931
#
# Poissons Ratio (x) = 0.07616 0.70132
# Poissons Ratio (y) = 0.05597 0.18375
# Poissons Ratio (z) = 0.43216 0.15406
#
# Static dielectric constant tensor:
#      x y z
#    x 1.608150 0.000000 -0.032860 
#    y 0.000000 1.697910 0.000000 
#    z -0.032860 0.000000 1.656440 
# 
# From -- ./inp_files/72362.got.cif
#   From: 2010.05.17/outbox.cif.g08.bks.cpg/sg10_37_cif.got.tgz:72362.got - 2010.06.03 11:33:40.
