data_PCOD9143649
_publ_section_title
;
Structure prediction by ZEFSAII (Michael W. Deem and Ramdas Pophale) SiO2 
 PCOD9143649
Probable space group: P 2/M
;
_chemical_formula_sum "Si O2"
_cell_formula_units_Z 24
_cell_length_a 15.444574
_cell_length_b 7.440251
_cell_length_c 15.057953
_cell_angle_alpha 90.000000
_cell_angle_beta 41.019799
_cell_angle_gamma 90.000000
_cell_volume 1135.651176
_symmetry_space_group_name_H-M "P 2/M"
_symmetry_group_IT_number 10
_symmetry_cell_setting 'monoclinic'
loop_
_space_group_symop_operation_xyz
x,y,z
-x,y,-z
-x,-y,-z
x,-y,z
loop_
_atom_site_type_symbol
_atom_site_label
_atom_site_fract_x
_atom_site_fract_y
_atom_site_fract_z
Si Si1 0.860384 0.718911 0.149888
Si Si2 0.173758 0.717074 0.148783
Si Si3 0.338371 0.279858 0.847903
Si Si4 0.876946 0.279865 0.340694
Si Si5 0.366870 0.292990 0.356432
Si Si6 0.371405 0.790693 0.150604
O O1 0.860812 0.500000 0.149325
O O2 0.742448 0.775496 0.176554
O O3 0.851066 0.774801 0.259117
O O4 0.000000 0.775355 0.000000
O O5 0.172958 0.500000 0.147534
O O6 0.248102 0.772454 0.180517
O O7 0.023001 0.778520 0.257003
O O8 0.259143 0.776772 0.997451
O O9 0.339506 0.500000 0.848987
O O10 0.488835 0.215446 0.734331
O O11 0.880205 0.500000 0.339967
O O12 0.759676 0.216278 0.495247
O O13 0.374043 0.500000 0.380699
O O14 0.349325 0.291140 0.264074
O O15 0.398173 0.000000 0.146625
O O16 0.500000 0.715082 0.000000
#
# Coordination Sequence:
#
# PCOD9143649 Si02
#       6
#     4   4   4   4   4   4
#     4   9  14  24  44  74 109 138 165 203 249 297
#     4  10  18  32  54  78 102 134 172 207 250 304
#     4   9  16  26  47  75 103 136 169 201 247 301
#     4   9  18  30  48  77 111 138 164 206 256 300
#     4  10  20  34  51  77 108 135 168 212 256 299
#     4  11  23  37  54  76  99 131 174 217 260 305
#
# _framework density 21.13325
#
# number of rings (size 3 to 8) (size 9 to 14) (size 15 to 20)
#    0.000    2.333    3.333    0.500    0.000    2.000 
#    0.000    7.500    0.000    0.000    0.000    7.000 
#    0.000    0.000    0.000    0.000    0.000    0.000 
#
# Total GULP energy -134067.364819 kJ/mol
# GULP energy per Si atom -5586.140201 kJ/mol
# Density = 2.108515 g / cm^3
# Si number density = 21.133250 Si / 1000 Ang^3
#
#
#
# Elastic Constant Matrix: (Units=GPa)
#
#
# Indices 1 2 3 4 5 6 
#
# 1 196.6353 -11.8242 103.4737 0.0000 -14.9067 0.0000
# 2 -11.8242 63.8230 1.9746 0.0000 -4.7996 0.0000
# 3 103.4737 1.9746 200.8591 0.0000 -13.9776 0.0000
# 4 0.0000 0.0000 0.0000 -11.5234 0.0000 -18.8665
# 5 -14.9067 -4.7996 -13.9776 0.0000 33.8146 0.0000
# 6 0.0000 0.0000 0.0000 -18.8665 0.0000 -65.3568
#
#
#
# Elastic Compliance Matrix: (Units=1/GPa)
#
#
# Indices 1 2 3 4 5 6 
#
# 1 0.007223 0.001594 -0.003603 0.000000 0.001921 0.000000
# 2 0.001594 0.016189 -0.000794 0.000000 0.002672 0.000000
# 3 -0.003603 -0.000794 0.006923 0.000000 0.001161 0.000000
# 4 0.000000 0.000000 0.000000 -0.164550 0.000000 0.047501
# 5 0.001921 0.002672 0.001161 0.000000 0.031279 0.000000
# 6 0.000000 0.000000 0.000000 0.047501 0.000000 -0.029013
#
#
# Mechanical properties :
#
#
# Convention : Reuss Voigt Hill
#
# Bulk Modulus (GPa) = 40.43833 72.06282 56.25058
# Shear Modulus (GPa) = -42.33746 15.89978 -13.21884
#
# Velocity S-wave (km/s) = -4.48074 2.74589 -2.50371
# Velocity P-wave (km/s) = 2.75553 6.65030 4.27981
#
# Compressibility (1/GPa) = 0.02472901
#
# Stress axis : x y z
#
# Youngs Moduli (GPa) = 138.44650 61.76952 144.44018
#
# Poissons Ratio (x) = -0.09847 0.52041
# Poissons Ratio (y) = -0.22070 0.11474
# Poissons Ratio (z) = 0.49882 0.04907
#
# Static dielectric constant tensor:
#      x y z
#    x 1.710890 0.000000 -0.017300 
#    y 0.000000 1.799060 0.000000 
#    z -0.017300 0.000000 1.730310 
# 
# From -- ./inp_files/27775.got.cif
#   From: 2010.05.17/outbox.cif.g08.bks.cpg/sg10_14_cif.got.tgz:27775.got - 2010.06.03 11:33:40.
