data_PCOD9143384
_publ_section_title
;
Structure prediction by ZEFSAII (Michael W. Deem and Ramdas Pophale) SiO2 
 PCOD9143384
Probable space group: P 2/M
;
_chemical_formula_sum "Si O2"
_cell_formula_units_Z 32
_cell_length_a 12.780332
_cell_length_b 7.490107
_cell_length_c 32.692392
_cell_angle_alpha 90.000000
_cell_angle_beta 152.172788
_cell_angle_gamma 90.000000
_cell_volume 1460.877988
_symmetry_space_group_name_H-M "P 2/M"
_symmetry_group_IT_number 10
_symmetry_cell_setting 'monoclinic'
loop_
_space_group_symop_operation_xyz
x,y,z
-x,y,-z
-x,-y,-z
x,-y,z
loop_
_atom_site_type_symbol
_atom_site_label
_atom_site_fract_x
_atom_site_fract_y
_atom_site_fract_z
Si Si1 0.696127 0.785590 0.790422
Si Si2 0.154244 0.217766 0.982432
Si Si3 0.252551 0.783941 0.680866
Si Si4 0.390224 0.781339 0.818906
Si Si5 0.243072 0.797307 0.922489
Si Si6 0.936232 0.791077 0.221611
Si Si7 0.353852 0.710637 0.321079
Si Si8 0.855180 0.709169 0.487421
O O1 0.452347 0.720495 0.720029
O O2 0.738092 0.739824 0.757277
O O3 0.691812 0.000000 0.791080
O O4 0.892300 0.727714 0.890001
O O5 0.355523 0.276088 0.081712
O O6 0.154603 0.000000 0.985578
O O7 0.227373 0.276638 0.962254
O O8 0.313444 0.725023 0.747527
O O9 0.013404 0.724220 0.581456
O O10 0.252037 0.000000 0.680189
O O11 0.204806 0.723175 0.788570
O O12 0.393227 0.000000 0.819826
O O13 0.141022 0.704456 0.847768
O O14 0.147244 0.000000 0.892801
O O15 0.500000 0.813383 0.000000
O O16 0.202473 0.783305 0.306084
O O17 0.870938 0.000000 0.197352
O O18 0.362292 0.500000 0.330758
O O19 0.607096 0.785193 0.407500
O O20 0.821112 0.500000 0.466030
O O21 0.000000 0.787919 0.500000
#
# Coordination Sequence:
#
# PCOD9143384 Si02
#       8
#     4   4   4   4   4   4   4   4
#     4  10  19  31  52  82 112 140 173 216 265 315
#     4   9  15  25  46  77 111 143 178 212 251 307
#     4  10  21  35  54  84 113 136 174 223 269 310
#     4   9  18  32  51  78 113 151 181 211 252 310
#     4   9  13  20  41  73 100 132 178 215 242 291
#     4  10  18  31  53  78 108 143 181 217 259 311
#     4  11  22  35  54  81 108 131 170 228 279 319
#     4  10  21  39  60  79 100 136 179 216 270 335
#
# _framework density 21.904634999999999
#
# number of rings (size 3 to 8) (size 9 to 14) (size 15 to 20)
#    0.000    2.250    3.750    0.375    0.000    1.750 
#    0.000    3.750    0.000    7.875    0.000    1.750 
#    0.000    0.000    0.000    0.000    0.000    0.000 
#
# Total GULP energy -178360.518171 kJ/mol
# GULP energy per Si atom -5573.766193 kJ/mol
# Density = 2.185478 g / cm^3
# Si number density = 21.904635 Si / 1000 Ang^3
#
#
#
# Elastic Constant Matrix: (Units=GPa)
#
#
# Indices 1 2 3 4 5 6 
#
# 1 55.9072 -3.9387 33.9805 0.0000 5.1741 0.0000
# 2 -3.9387 61.5125 -9.4430 0.0000 0.6423 0.0000
# 3 33.9805 -9.4430 131.1248 0.0000 8.4523 0.0000
# 4 0.0000 0.0000 0.0000 15.7892 0.0000 0.5109
# 5 5.1741 0.6423 8.4523 0.0000 36.2020 0.0000
# 6 0.0000 0.0000 0.0000 0.5109 0.0000 -1.6531
#
#
#
# Elastic Compliance Matrix: (Units=1/GPa)
#
#
# Indices 1 2 3 4 5 6 
#
# 1 0.021363 0.000561 -0.005379 0.000000 -0.001807 0.000000
# 2 0.000561 0.016465 0.001081 0.000000 -0.000625 0.000000
# 3 -0.005379 0.001081 0.009188 0.000000 -0.001396 0.000000
# 4 0.000000 0.000000 0.000000 0.062707 0.000000 0.019381
# 5 -0.001807 -0.000625 -0.001396 0.000000 0.028218 0.000000
# 6 0.000000 0.000000 0.000000 0.019381 0.000000 -0.598950
#
#
# Mechanical properties :
#
#
# Convention : Reuss Voigt Hill
#
# Bulk Modulus (GPa) = 25.29014 32.19356 28.74185
# Shear Modulus (GPa) = -11.35454 25.26401 6.95473
#
# Velocity S-wave (km/s) = -2.27923 3.39980 1.78379
# Velocity P-wave (km/s) = 2.15502 5.49005 4.17042
#
# Compressibility (1/GPa) = 0.03954110
#
# Stress axis : x y z
#
# Youngs Moduli (GPa) = 46.80971 60.73413 108.83617
#
# Poissons Ratio (x) = -0.03407 0.58546
# Poissons Ratio (y) = -0.02626 -0.11761
# Poissons Ratio (z) = 0.25180 -0.06563
#
# Static dielectric constant tensor:
#      x y z
#    x 1.818820 0.000000 0.051500 
#    y 0.000000 1.850650 0.000000 
#    z 0.051500 0.000000 1.851390 
# 
# From -- ./inp_files/95065.got.cif
#   From: 2010.05.17/outbox.cif.g08.bks.cpg/sg10_48_cif.got.tgz:95065.got - 2010.06.03 11:33:40.
