data_PCOD9143648
_publ_section_title
;
Structure prediction by ZEFSAII (Michael W. Deem and Ramdas Pophale) SiO2 
 PCOD9143648
Probable space group: P 2/M
;
_chemical_formula_sum "Si O2"
_cell_formula_units_Z 26
_cell_length_a 7.163066
_cell_length_b 21.077707
_cell_length_c 12.348817
_cell_angle_alpha 90.000000
_cell_angle_beta 140.583375
_cell_angle_gamma 90.000000
_cell_volume 1183.832927
_symmetry_space_group_name_H-M "P 2/M"
_symmetry_group_IT_number 10
_symmetry_cell_setting 'monoclinic'
loop_
_space_group_symop_operation_xyz
x,y,z
-x,y,-z
-x,-y,-z
x,-y,z
loop_
_atom_site_type_symbol
_atom_site_label
_atom_site_fract_x
_atom_site_fract_y
_atom_site_fract_z
Si Si1 0.406217 0.714937 0.771040
Si Si2 0.000000 0.614426 0.500000
Si Si3 0.246338 0.146910 0.683358
Si Si4 0.818812 0.834263 0.694009
Si Si5 0.737842 0.927010 0.006523
Si Si6 0.047241 0.298587 0.837632
Si Si7 0.849825 0.430926 0.667763
O O1 0.342385 0.783039 0.689322
O O2 0.221710 0.708743 0.801070
O O3 0.283056 0.660536 0.638330
O O4 0.734075 0.708931 0.963093
O O5 0.975321 0.577482 0.601748
O O6 0.000000 0.115213 0.500000
O O7 0.065852 0.161007 0.711128
O O8 0.532546 0.105218 0.825114
O O9 0.500000 0.849365 0.500000
O O10 0.972589 0.884758 0.843315
O O11 0.828378 0.761503 0.739887
O O12 0.813278 0.000000 0.022033
O O13 0.500000 0.926016 0.000000
O O14 0.929786 0.369983 0.775722
O O15 0.500000 0.431353 0.500000
O O16 0.947117 0.500000 0.754134
#
# Coordination Sequence:
#
# PCOD9143648 Si02
#       7
#     4   2   4   4   4   4   4
#     4   9  16  30  54  79 102 137 177 230 268 321
#     4  10  19  34  58  82 107 142 192 230 277 334
#     4  10  18  32  54  77 107 138 181 224 273 325
#     4  10  19  32  54  79 105 138 180 229 273 325
#     4   9  18  33  53  77 106 144 184 221 269 333
#     4   9  17  32  53  78 104 138 182 221 274 327
#     4  10  21  37  56  79 113 148 181 229 285 338
#
# _framework density 21.96256
#
# number of rings (size 3 to 8) (size 9 to 14) (size 15 to 20)
#    0.000    2.462    2.308    0.692    0.000    0.615 
#    0.000    8.462    0.000    2.769    0.000    0.000 
#    0.000    0.000    0.000    0.000    0.000    0.000 
#
# Total GULP energy -145042.390856 kJ/mol
# GULP energy per Si atom -5578.553494 kJ/mol
# Density = 2.191257 g / cm^3
# Si number density = 21.962560 Si / 1000 Ang^3
#
#
#
# Elastic Constant Matrix: (Units=GPa)
#
#
# Indices 1 2 3 4 5 6 
#
# 1 75.7120 9.2621 -1.3974 0.0000 16.6199 0.0000
# 2 9.2621 176.0862 92.5425 0.0000 16.6572 0.0000
# 3 -1.3974 92.5425 163.4019 0.0000 17.8158 0.0000
# 4 0.0000 0.0000 0.0000 -40.7218 0.0000 5.6069
# 5 16.6199 16.6572 17.8158 0.0000 16.7071 0.0000
# 6 0.0000 0.0000 0.0000 5.6069 0.0000 0.9004
#
#
#
# Elastic Compliance Matrix: (Units=1/GPa)
#
#
# Indices 1 2 3 4 5 6 
#
# 1 0.017671 -0.000379 0.002536 0.000000 -0.019905 0.000000
# 2 -0.000379 0.008289 -0.004343 0.000000 -0.003256 0.000000
# 3 0.002536 -0.004343 0.009510 0.000000 -0.008334 0.000000
# 4 0.000000 0.000000 0.000000 -0.013221 0.000000 0.082328
# 5 -0.019905 -0.003256 -0.008334 0.000000 0.091789 0.000000
# 6 0.000000 0.000000 0.000000 0.082328 0.000000 0.597940
#
#
# Mechanical properties :
#
#
# Convention : Reuss Voigt Hill
#
# Bulk Modulus (GPa) = 32.15697 68.44605 50.30151
# Shear Modulus (GPa) = 6.88027 16.36333 11.62180
#
# Velocity S-wave (km/s) = 1.77187 2.73253 2.30285
# Velocity P-wave (km/s) = 4.34276 6.41780 5.47940
#
# Compressibility (1/GPa) = 0.03109746
#
# Stress axis : x y z
#
# Youngs Moduli (GPa) = 56.59138 120.63503 105.15397
#
# Poissons Ratio (x) = 0.04578 -0.26670
# Poissons Ratio (y) = 0.02148 0.45668
# Poissons Ratio (z) = -0.14353 0.52391
#
# Static dielectric constant tensor:
#      x y z
#    x 1.998840 0.000000 -0.063140 
#    y 0.000000 1.793410 0.000000 
#    z -0.063140 0.000000 1.804720 
# 
# From -- ./inp_files/62466.got.cif
#   From: 2010.05.17/outbox.cif.g08.bks.cpg/sg10_32_cif.got.tgz:62466.got - 2010.06.03 11:33:40.
