data_PCOD9143928
_publ_section_title
;
Structure prediction by ZEFSAII (Michael W. Deem and Ramdas Pophale) SiO2 
 PCOD9143928
Probable space group: P 2/M
;
_chemical_formula_sum "Si O2"
_cell_formula_units_Z 32
_cell_length_a 14.336728
_cell_length_b 11.438286
_cell_length_c 16.850398
_cell_angle_alpha 90.000000
_cell_angle_beta 36.747828
_cell_angle_gamma 90.000000
_cell_volume 1653.240256
_symmetry_space_group_name_H-M "P 2/M"
_symmetry_group_IT_number 10
_symmetry_cell_setting 'monoclinic'
loop_
_space_group_symop_operation_xyz
x,y,z
-x,y,-z
-x,-y,-z
x,-y,z
loop_
_atom_site_type_symbol
_atom_site_label
_atom_site_fract_x
_atom_site_fract_y
_atom_site_fract_z
Si Si1 0.665530 0.866219 0.044985
Si Si2 0.850458 0.134146 0.756375
Si Si3 0.494211 0.372200 0.611970
Si Si4 0.784430 0.128396 0.467129
Si Si5 0.403834 0.296625 0.291601
Si Si6 0.156985 0.371666 0.340760
Si Si7 0.723515 0.748080 0.356727
Si Si8 0.987458 0.863681 0.913867
O O1 0.526560 0.780269 0.159748
O O2 0.614588 0.000000 0.092122
O O3 0.732700 0.856662 0.910335
O O4 0.812876 0.844212 0.002207
O O5 0.830984 0.249699 0.715925
O O6 0.028870 0.139422 0.666358
O O7 0.832549 0.000000 0.734343
O O8 0.430384 0.500000 0.636436
O O9 0.508407 0.359735 0.695942
O O10 0.388479 0.272495 0.642609
O O11 0.664527 0.357118 0.454370
O O12 0.718391 0.216538 0.576652
O O13 0.708813 0.149306 0.432219
O O14 0.746071 0.000000 0.521672
O O15 0.303371 0.371880 0.300117
O O16 0.152261 0.500000 0.301710
O O17 0.000000 0.364435 0.500000
O O18 0.894480 0.771416 0.206132
O O19 0.028059 0.000000 0.864632
O O20 0.000000 0.854810 0.000000
#
# Coordination Sequence:
#
# PCOD9143928 Si02
#       8
#     4   4   4   4   4   4   4   4
#     4  10  21  38  60  90 130 164 197 244 308 379
#     4  10  21  40  65  93 125 163 204 254 313 374
#     4  10  22  39  58  82 114 159 209 258 312 361
#     4  10  19  34  59  91 122 153 200 253 302 361
#     4  11  22  39  62  89 119 160 203 255 312 369
#     4  11  24  43  66  95 123 158 211 267 321 375
#     4  10  18  33  57  83 113 154 200 245 290 359
#     4  10  19  32  54  84 121 161 195 236 298 366
#
# _framework density 19.355927000000001
#
# number of rings (size 3 to 8) (size 9 to 14) (size 15 to 20)
#    0.000    1.750    2.500    2.625    0.000    1.750 
#    0.000   17.500    0.000    8.250    0.000    0.000 
#    0.000    0.000    0.000    0.000    0.000    0.000 
#
# Total GULP energy -178163.510491 kJ/mol
# GULP energy per Si atom -5567.609703 kJ/mol
# Density = 1.931187 g / cm^3
# Si number density = 19.355927 Si / 1000 Ang^3
#
#
#
# Elastic Constant Matrix: (Units=GPa)
#
#
# Indices 1 2 3 4 5 6 
#
# 1 77.2789 52.4452 11.3167 0.0000 -1.9896 0.0000
# 2 52.4452 107.9795 41.4534 0.0000 -0.2350 0.0000
# 3 11.3167 41.4534 87.7293 0.0000 -6.5263 0.0000
# 4 0.0000 0.0000 0.0000 -5.2979 0.0000 4.5060
# 5 -1.9896 -0.2350 -6.5263 0.0000 19.1596 0.0000
# 6 0.0000 0.0000 0.0000 4.5060 0.0000 26.0785
#
#
#
# Elastic Compliance Matrix: (Units=1/GPa)
#
#
# Indices 1 2 3 4 5 6 
#
# 1 0.019864 -0.010676 0.002694 0.000000 0.002850 0.000000
# 2 -0.010676 0.017107 -0.006949 0.000000 -0.003266 0.000000
# 3 0.002694 -0.006949 0.014722 0.000000 0.005209 0.000000
# 4 0.000000 0.000000 0.000000 -0.164568 0.000000 0.028435
# 5 0.002850 -0.003266 0.005209 0.000000 0.054224 0.000000
# 6 0.000000 0.000000 0.000000 0.028435 0.000000 0.033433
#
#
# Mechanical properties :
#
#
# Convention : Reuss Voigt Hill
#
# Bulk Modulus (GPa) = 45.80531 53.71314 49.75922
# Shear Modulus (GPa) = 419.44662 19.17286 219.30974
#
# Velocity S-wave (km/s) = 14.73677 3.15070 10.65597
# Velocity P-wave (km/s) = 17.69970 6.40674 13.31025
#
# Compressibility (1/GPa) = 0.02183153
#
# Stress axis : x y z
#
# Youngs Moduli (GPa) = 50.34161 58.45559 67.92448
#
# Poissons Ratio (x) = 0.62408 -0.18300
# Poissons Ratio (y) = 0.53745 0.47201
# Poissons Ratio (z) = -0.13563 0.40621
#
# Static dielectric constant tensor:
#      x y z
#    x 1.705530 0.000000 0.001090 
#    y 0.000000 1.704750 0.000000 
#    z 0.001090 0.000000 1.656660 
# 
# From -- ./inp_files/78190.got.cif
#   From: 2010.05.17/outbox.cif.g08.bks.cpg/sg10_40_cif.got.tgz:78190.got - 2010.06.03 11:33:40.
