data_PCOD9143078
_publ_section_title
;
Structure prediction by ZEFSAII (Michael W. Deem and Ramdas Pophale) SiO2 
 PCOD9143078
Probable space group: P 2/M
;
_chemical_formula_sum "Si O2"
_cell_formula_units_Z 32
_cell_length_a 8.461230
_cell_length_b 15.244934
_cell_length_c 23.475548
_cell_angle_alpha 90.000000
_cell_angle_beta 149.935345
_cell_angle_gamma 90.000000
_cell_volume 1517.024257
_symmetry_space_group_name_H-M "P 2/M"
_symmetry_group_IT_number 10
_symmetry_cell_setting 'monoclinic'
loop_
_space_group_symop_operation_xyz
x,y,z
-x,y,-z
-x,-y,-z
x,-y,z
loop_
_atom_site_type_symbol
_atom_site_label
_atom_site_fract_x
_atom_site_fract_y
_atom_site_fract_z
Si Si1 0.352650 0.241463 0.086581
Si Si2 0.276085 0.787140 0.267089
Si Si3 0.136847 0.600267 0.245559
Si Si4 0.837810 0.405546 0.511244
Si Si5 0.778227 0.098020 0.041604
Si Si6 0.201164 0.243579 0.666409
Si Si7 0.775660 0.899972 0.486280
Si Si8 0.740457 0.405793 0.021441
O O1 0.598169 0.246131 0.213987
O O2 0.367768 0.152256 0.055783
O O3 0.359631 0.326302 0.048497
O O4 0.000000 0.242781 0.000000
O O5 0.077691 0.706659 0.233431
O O6 0.557268 0.753588 0.312472
O O7 0.460261 0.847128 0.370264
O O8 0.052610 0.845364 0.157087
O O9 0.005062 0.500000 0.219802
O O10 0.471970 0.597968 0.381061
O O11 0.079046 0.599392 0.158741
O O12 0.911111 0.500000 0.560901
O O13 0.000000 0.402008 0.500000
O O14 0.968664 0.325953 0.588162
O O15 0.889010 0.000000 0.060744
O O16 0.500000 0.090932 0.000000
O O17 0.985455 0.157035 0.594743
O O18 0.000000 0.903115 0.500000
O O19 0.711287 0.000000 0.483495
O O20 0.723172 0.500000 0.986514
O O21 0.500000 0.404310 0.000000
#
# Coordination Sequence:
#
# PCOD9143078 Si02
#       8
#     4   4   4   4   4   4   4   4
#     4  12  24  39  58  90 128 161 190 245 312 367
#     4  11  18  35  58  85 117 150 198 251 292 355
#     4  10  18  30  56  86 112 149 199 250 290 339
#     4  10  18  30  51  81 118 159 198 239 290 349
#     4  11  25  44  65  87 114 159 211 252 296 360
#     4  11  20  33  52  84 123 155 187 236 308 364
#     4   9  18  31  51  79 110 150 195 244 297 352
#     4  10  22  41  64  88 119 165 212 248 289 353
#
# _framework density 21.093927999999998
#
# number of rings (size 3 to 8) (size 9 to 14) (size 15 to 20)
#    0.000    1.500    5.000    1.125    0.000    2.000 
#    0.000    0.000    0.000    3.000    0.000    6.125 
#    0.000    0.000    0.000    0.000    0.000    0.000 
#
# Total GULP energy -178273.461901 kJ/mol
# GULP energy per Si atom -5571.045684 kJ/mol
# Density = 2.104592 g / cm^3
# Si number density = 21.093928 Si / 1000 Ang^3
#
#
#
# Elastic Constant Matrix: (Units=GPa)
#
#
# Indices 1 2 3 4 5 6 
#
# 1 23.9416 22.3618 12.9931 0.0000 -7.2348 0.0000
# 2 22.3618 205.0659 77.8934 0.0000 -15.1886 0.0000
# 3 12.9931 77.8934 156.8571 0.0000 -22.6666 0.0000
# 4 0.0000 0.0000 0.0000 114.1356 0.0000 -51.1641
# 5 -7.2348 -15.1886 -22.6666 0.0000 15.7840 0.0000
# 6 0.0000 0.0000 0.0000 -51.1641 0.0000 43.1372
#
#
#
# Elastic Compliance Matrix: (Units=1/GPa)
#
#
# Indices 1 2 3 4 5 6 
#
# 1 0.051692 -0.004453 0.000926 0.000000 0.020739 0.000000
# 2 -0.004453 0.006439 -0.002812 0.000000 0.000117 0.000000
# 3 0.000926 -0.002812 0.009294 0.000000 0.011065 0.000000
# 4 0.000000 0.000000 0.000000 0.018709 0.000000 0.022190
# 5 0.020739 0.000117 0.011065 0.000000 0.088864 0.000000
# 6 0.000000 0.000000 0.000000 0.022190 0.000000 0.049501
#
#
# Mechanical properties :
#
#
# Convention : Reuss Voigt Hill
#
# Bulk Modulus (GPa) = 18.26552 68.04012 43.15282
# Shear Modulus (GPa) = 19.57538 52.78577 36.18058
#
# Velocity S-wave (km/s) = 3.04963 5.00784 4.14601
# Velocity P-wave (km/s) = 4.59111 8.10949 6.58946
#
# Compressibility (1/GPa) = 0.05474797
#
# Stress axis : x y z
#
# Youngs Moduli (GPa) = 19.34553 155.31140 107.59986
#
# Poissons Ratio (x) = 0.69153 -0.09965
# Poissons Ratio (y) = 0.08614 0.30253
# Poissons Ratio (z) = -0.01792 0.43667
#
# Static dielectric constant tensor:
#      x y z
#    x 1.841410 0.000000 0.015810 
#    y 0.000000 1.865450 0.000000 
#    z 0.015810 0.000000 1.791040 
# 
# From -- ./inp_files/88275.got.cif
#   From: 2010.05.17/outbox.cif.g08.bks.cpg/sg10_45_cif.got.tgz:88275.got - 2010.06.03 11:33:40.
