data_PCOD9143703
_publ_section_title
;
Structure prediction by ZEFSAII (Michael W. Deem and Ramdas Pophale) SiO2 
 PCOD9143703
Probable space group: P 2/M
;
_chemical_formula_sum "Si O2"
_cell_formula_units_Z 20
_cell_length_a 8.936835
_cell_length_b 14.139281
_cell_length_c 15.301394
_cell_angle_alpha 90.000000
_cell_angle_beta 154.007176
_cell_angle_gamma 90.000000
_cell_volume 847.368830
_symmetry_space_group_name_H-M "P 2/M"
_symmetry_group_IT_number 10
_symmetry_cell_setting 'monoclinic'
loop_
_space_group_symop_operation_xyz
x,y,z
-x,y,-z
-x,-y,-z
x,-y,z
loop_
_atom_site_type_symbol
_atom_site_label
_atom_site_fract_x
_atom_site_fract_y
_atom_site_fract_z
Si Si1 0.596546 0.500000 0.782838
Si Si2 0.899454 0.304365 0.183790
Si Si3 0.722733 0.306310 0.432483
Si Si4 0.297180 0.101882 0.582424
Si Si5 0.260350 0.500000 0.958184
Si Si6 0.904200 0.898718 0.189918
O O1 0.477942 0.403060 0.679786
O O2 0.488725 0.500000 0.827820
O O3 0.000000 0.500000 0.000000
O O4 0.945325 0.401353 0.154684
O O5 0.979548 0.201735 0.183995
O O6 0.103150 0.307886 0.381190
O O7 0.500000 0.301080 0.000000
O O8 0.533675 0.205188 0.321017
O O9 0.000000 0.309066 0.500000
O O10 0.000000 0.101967 0.500000
O O11 0.112185 0.101783 0.390397
O O12 0.478090 0.000000 0.687448
O O13 0.500000 0.500000 0.000000
O O14 0.982471 0.000000 0.187168
O O15 0.500000 0.899437 0.000000
#
# Coordination Sequence:
#
# PCOD9143703 Si02
#       6
#     2   4   4   4   2   4
#     4  12  26  40  53  75 109 143 181 229 274 316
#     4   9  16  27  47  75 100 126 166 212 253 302
#     4  10  18  32  55  78 104 142 183 217 263 323
#     4   8  14  24  42  72 104 131 166 215 261 304
#     4  10  19  34  54  73  98 131 171 217 261 308
#     4   8  13  21  35  61  99 131 151 187 249 306
#
# _framework density 23.602474000000001
#
# number of rings (size 3 to 8) (size 9 to 14) (size 15 to 20)
#    0.000    2.800    0.000    3.300    0.000    1.600 
#    0.000    2.000    0.000    0.600    0.000    0.000 
#    0.000    6.400    0.000    0.000    0.000    0.000 
#
# Total GULP energy -111530.364878 kJ/mol
# GULP energy per Si atom -5576.518244 kJ/mol
# Density = 2.354875 g / cm^3
# Si number density = 23.602474 Si / 1000 Ang^3
#
#
#
# Elastic Constant Matrix: (Units=GPa)
#
#
# Indices 1 2 3 4 5 6 
#
# 1 66.7023 22.9521 3.3369 0.0000 9.8631 0.0000
# 2 22.9521 365.4734 59.4689 0.0000 -4.0461 0.0000
# 3 3.3369 59.4689 43.0941 0.0000 -8.1910 0.0000
# 4 0.0000 0.0000 0.0000 -15.5605 0.0000 -42.7486
# 5 9.8631 -4.0461 -8.1910 0.0000 14.3012 0.0000
# 6 0.0000 0.0000 0.0000 -42.7486 0.0000 -29.3513
#
#
#
# Elastic Compliance Matrix: (Units=1/GPa)
#
#
# Indices 1 2 3 4 5 6 
#
# 1 0.017467 -0.000774 -0.002936 0.000000 -0.013947 0.000000
# 2 -0.000774 0.003615 -0.005199 0.000000 -0.001421 0.000000
# 3 -0.002936 -0.005199 0.034464 0.000000 0.020293 0.000000
# 4 0.000000 0.000000 0.000000 0.021413 0.000000 -0.031187
# 5 -0.013947 -0.001421 0.020293 0.000000 0.090764 0.000000
# 6 0.000000 0.000000 0.000000 -0.031187 0.000000 0.011352
#
#
# Mechanical properties :
#
#
# Convention : Reuss Voigt Hill
#
# Bulk Modulus (GPa) = 26.50449 71.86506 49.18477
# Shear Modulus (GPa) = 23.86998 19.84534 21.85766
#
# Velocity S-wave (km/s) = 3.18360 2.90283 3.04645
# Velocity P-wave (km/s) = 4.97671 6.46138 5.76702
#
# Compressibility (1/GPa) = 0.03772945
#
# Stress axis : x y z
#
# Youngs Moduli (GPa) = 57.24951 276.62763 29.01596
#
# Poissons Ratio (x) = 0.21402 0.08519
# Poissons Ratio (y) = 0.04429 0.15085
# Poissons Ratio (z) = 0.16808 1.43814
#
# Static dielectric constant tensor:
#      x y z
#    x 1.929620 0.000000 0.016990 
#    y 0.000000 2.052570 0.000000 
#    z 0.016990 0.000000 1.825850 
# 
# From -- ./inp_files/18695.got.cif
#   From: 2010.05.17/outbox.cif.g08.bks.cpg/sg10_10_cif.got.tgz:18695.got - 2010.06.03 11:33:40.
