data_PCOD9143662
_publ_section_title
;
Structure prediction by ZEFSAII (Michael W. Deem and Ramdas Pophale) SiO2 
 PCOD9143662
Probable space group: P 2/M
;
_chemical_formula_sum "Si O2"
_cell_formula_units_Z 28
_cell_length_a 18.306886
_cell_length_b 7.708136
_cell_length_c 20.247755
_cell_angle_alpha 90.000000
_cell_angle_beta 149.901067
_cell_angle_gamma 90.000000
_cell_volume 1432.870713
_symmetry_space_group_name_H-M "P 2/M"
_symmetry_group_IT_number 10
_symmetry_cell_setting 'monoclinic'
loop_
_space_group_symop_operation_xyz
x,y,z
-x,y,-z
-x,-y,-z
x,-y,z
loop_
_atom_site_type_symbol
_atom_site_label
_atom_site_fract_x
_atom_site_fract_y
_atom_site_fract_z
Si Si1 0.437489 0.305583 0.853052
Si Si2 0.274785 0.801123 0.846860
Si Si3 0.344000 0.500000 0.412628
Si Si4 0.959088 0.500000 0.891652
Si Si5 0.995156 0.203361 0.693914
Si Si6 0.460906 0.207497 0.209961
Si Si7 0.316744 0.211925 0.502530
Si Si8 0.125681 0.205160 0.943040
O O1 0.385697 0.500000 0.820582
O O2 0.327742 0.198107 0.812838
O O3 0.455872 0.263972 0.790987
O O4 0.597428 0.288274 0.011295
O O5 0.115007 0.726379 0.736497
O O6 0.274748 0.000000 0.871314
O O7 0.500000 0.500000 0.500000
O O8 0.212518 0.500000 0.257505
O O9 0.327632 0.328545 0.445791
O O10 0.028329 0.330085 0.911359
O O11 0.000000 0.500000 0.000000
O O12 0.070535 0.219498 0.824624
O O13 0.831378 0.267941 0.575305
O O14 0.976080 0.000000 0.662671
O O15 0.548319 0.253553 0.344110
O O16 0.455595 0.000000 0.202926
O O17 0.293420 0.265523 0.078287
O O18 0.311378 0.000000 0.486529
O O19 0.115816 0.000000 0.953338
#
# Coordination Sequence:
#
# PCOD9143662 Si02
#       8
#     4   4   2   2   4   4   4   4
#     4  11  21  31  47  84 125 158 199 261 310 357
#     4  10  18  32  54  78 117 163 206 255 307 361
#     4  12  28  46  66  96 129 164 200 240 308 381
#     4  12  28  44  66 100 125 163 195 247 309 362
#     4   9  17  35  61  86 113 156 209 253 295 355
#     4  10  21  38  63  90 119 164 210 255 306 357
#     4  10  23  44  67  92 124 163 209 251 301 368
#     4  10  21  40  65  93 123 158 208 256 299 357
#
# _framework density 19.541191999999999
#
# number of rings (size 3 to 8) (size 9 to 14) (size 15 to 20)
#    0.000    1.714    2.857    2.571    4.000    0.571 
#    3.857    0.714    0.000    4.286    0.000    0.000 
#    0.000    0.000    0.000    0.000    0.000    0.000 
#
# Total GULP energy -156228.920032 kJ/mol
# GULP energy per Si atom -5579.604287 kJ/mol
# Density = 1.949672 g / cm^3
# Si number density = 19.541192 Si / 1000 Ang^3
#
#
#
# Elastic Constant Matrix: (Units=GPa)
#
#
# Indices 1 2 3 4 5 6 
#
# 1 87.8863 24.3175 25.5050 0.0000 18.1557 0.0000
# 2 24.3175 53.0911 23.5164 0.0000 -0.2564 0.0000
# 3 25.5050 23.5164 83.5510 0.0000 11.0747 0.0000
# 4 0.0000 0.0000 0.0000 18.7723 0.0000 6.9996
# 5 18.1557 -0.2564 11.0747 0.0000 35.1814 0.0000
# 6 0.0000 0.0000 0.0000 6.9996 0.0000 23.5270
#
#
#
# Elastic Compliance Matrix: (Units=1/GPa)
#
#
# Indices 1 2 3 4 5 6 
#
# 1 0.015126 -0.006104 -0.001940 0.000000 -0.007240 0.000000
# 2 -0.006104 0.024139 -0.005606 0.000000 0.005090 0.000000
# 3 -0.001940 -0.005606 0.014621 0.000000 -0.003643 0.000000
# 4 0.000000 0.000000 0.000000 0.059917 0.000000 -0.017826
# 5 -0.007240 0.005090 -0.003643 0.000000 0.033344 0.000000
# 6 0.000000 0.000000 0.000000 -0.017826 0.000000 0.047808
#
#
# Mechanical properties :
#
#
# Convention : Reuss Voigt Hill
#
# Bulk Modulus (GPa) = 37.61144 41.24514 39.42829
# Shear Modulus (GPa) = 21.63419 25.57544 23.60482
#
# Velocity S-wave (km/s) = 3.33093 3.62165 3.47933
# Velocity P-wave (km/s) = 5.83802 6.21620 6.03007
#
# Compressibility (1/GPa) = 0.02658766
#
# Stress axis : x y z
#
# Youngs Moduli (GPa) = 66.11260 41.42688 68.39272
#
# Poissons Ratio (x) = 0.25286 0.13266
# Poissons Ratio (y) = 0.40354 0.38339
# Poissons Ratio (z) = 0.12824 0.23222
#
# Static dielectric constant tensor:
#      x y z
#    x 1.698200 0.000000 0.018300 
#    y 0.000000 1.703710 0.000000 
#    z 0.018300 0.000000 1.685080 
# 
# From -- ./inp_files/85679.got.cif
#   From: 2010.05.17/outbox.cif.g08.bks.cpg/sg10_43_cif.got.tgz:85679.got - 2010.06.03 11:33:40.
