data_PCOD9143505
_publ_section_title
;
Structure prediction by ZEFSAII (Michael W. Deem and Ramdas Pophale) SiO2 
 PCOD9143505
Probable space group: P 2/M
;
_chemical_formula_sum "Si O2"
_cell_formula_units_Z 32
_cell_length_a 9.816899
_cell_length_b 15.341620
_cell_length_c 11.753861
_cell_angle_alpha 90.000000
_cell_angle_beta 53.567131
_cell_angle_gamma 90.000000
_cell_volume 1424.232465
_symmetry_space_group_name_H-M "P 2/M"
_symmetry_group_IT_number 10
_symmetry_cell_setting 'monoclinic'
loop_
_space_group_symop_operation_xyz
x,y,z
-x,y,-z
-x,-y,-z
x,-y,z
loop_
_atom_site_type_symbol
_atom_site_label
_atom_site_fract_x
_atom_site_fract_y
_atom_site_fract_z
Si Si1 0.835116 0.786011 0.742836
Si Si2 0.456570 0.827248 0.279202
Si Si3 0.104508 0.309977 0.844845
Si Si4 0.595991 0.364975 0.165005
Si Si5 0.332910 0.095139 0.002205
Si Si6 0.810158 0.399408 0.844513
Si Si7 0.643103 0.591854 0.528030
Si Si8 0.218042 0.776665 0.577764
O O1 0.715487 0.830628 0.710122
O O2 0.782001 0.827081 0.891592
O O3 0.796482 0.681911 0.764092
O O4 0.032890 0.804510 0.627932
O O5 0.542648 0.735788 0.201032
O O6 0.379354 0.825295 0.444267
O O7 0.592181 0.894011 0.161648
O O8 0.240144 0.373116 0.835264
O O9 0.199039 0.237463 0.722339
O O10 0.975143 0.366938 0.833984
O O11 0.000000 0.269001 0.000000
O O12 0.448199 0.412065 0.305314
O O13 0.654055 0.392495 0.011656
O O14 0.252123 0.000000 0.056344
O O15 0.500000 0.098032 0.000000
O O16 0.823145 0.500000 0.799599
O O17 0.500000 0.604602 0.500000
O O18 0.730133 0.500000 0.460933
O O19 0.757005 0.676446 0.473491
#
# Coordination Sequence:
#
# PCOD9143505 Si02
#       8
#     4   4   4   4   4   4   4   4
#     4  10  20  37  53  82 116 148 184 224 270 339
#     4  10  20  34  58  80 113 142 181 226 278 335
#     4   9  19  32  49  76 107 142 194 234 276 317
#     4  10  18  32  49  76 107 144 184 240 275 318
#     4   9  18  36  63  87 110 141 179 228 283 331
#     4  10  20  32  51  76 109 151 192 231 272 317
#     4  10  19  30  47  71 106 142 186 240 278 309
#     4  10  20  34  53  77 112 149 181 221 279 327
#
# _framework density 22.468243000000001
#
# number of rings (size 3 to 8) (size 9 to 14) (size 15 to 20)
#    0.000    2.250    2.500    0.750    0.000    4.750 
#    0.000    4.375    0.000    9.000    0.000    8.750 
#    0.000    0.000    0.000    0.000    0.000    0.000 
#
# Total GULP energy -178445.453374 kJ/mol
# GULP energy per Si atom -5576.420418 kJ/mol
# Density = 2.241710 g / cm^3
# Si number density = 22.468243 Si / 1000 Ang^3
#
#
#
# Elastic Constant Matrix: (Units=GPa)
#
#
# Indices 1 2 3 4 5 6 
#
# 1 47.8968 -2.2667 -1.3294 0.0000 -7.0260 0.0000
# 2 -2.2667 64.6023 14.2917 0.0000 -4.8532 0.0000
# 3 -1.3294 14.2917 141.1110 0.0000 1.5704 0.0000
# 4 0.0000 0.0000 0.0000 7.5439 0.0000 0.8442
# 5 -7.0260 -4.8532 1.5704 0.0000 21.8402 0.0000
# 6 0.0000 0.0000 0.0000 0.8442 0.0000 5.8187
#
#
#
# Elastic Compliance Matrix: (Units=1/GPa)
#
#
# Indices 1 2 3 4 5 6 
#
# 1 0.022024 0.001329 -0.000009 0.000000 0.007381 0.000000
# 2 0.001329 0.016208 -0.001675 0.000000 0.004150 0.000000
# 3 -0.000009 -0.001675 0.007266 0.000000 -0.000898 0.000000
# 4 0.000000 0.000000 0.000000 0.134746 0.000000 -0.019550
# 5 0.007381 0.004150 -0.000898 0.000000 0.049148 0.000000
# 6 0.000000 0.000000 0.000000 -0.019550 0.000000 0.174695
#
#
# Mechanical properties :
#
#
# Convention : Reuss Voigt Hill
#
# Bulk Modulus (GPa) = 22.32758 30.55571 26.44164
# Shear Modulus (GPa) = 11.91250 23.23485 17.57367
#
# Velocity S-wave (km/s) = 2.30509 3.21926 2.79974
# Velocity P-wave (km/s) = 4.12838 5.23901 4.71650
#
# Compressibility (1/GPa) = 0.04478765
#
# Stress axis : x y z
#
# Youngs Moduli (GPa) = 45.40578 61.69673 137.62369
#
# Poissons Ratio (x) = -0.08201 0.00128
# Poissons Ratio (y) = -0.06036 0.23055
# Poissons Ratio (z) = 0.00042 0.10336
#
# Static dielectric constant tensor:
#      x y z
#    x 1.919940 0.000000 0.040680 
#    y 0.000000 1.817140 0.000000 
#    z 0.040680 0.000000 1.907250 
# 
# From -- ./inp_files/65082.got.cif
#   From: 2010.05.17/outbox.cif.g08.bks.cpg/sg10_33_cif.got.tgz:65082.got - 2010.06.03 11:33:40.
