data_PCOD9143122
_publ_section_title
;
Structure prediction by ZEFSAII (Michael W. Deem and Ramdas Pophale) SiO2 
 PCOD9143122
Probable space group: P 2/M
;
_chemical_formula_sum "Si O2"
_cell_formula_units_Z 32
_cell_length_a 31.407710
_cell_length_b 7.713726
_cell_length_c 13.173838
_cell_angle_alpha 90.000000
_cell_angle_beta 152.583649
_cell_angle_gamma 90.000000
_cell_volume 1469.596904
_symmetry_space_group_name_H-M "P 2/M"
_symmetry_group_IT_number 10
_symmetry_cell_setting 'monoclinic'
loop_
_space_group_symop_operation_xyz
x,y,z
-x,y,-z
-x,-y,-z
x,-y,z
loop_
_atom_site_type_symbol
_atom_site_label
_atom_site_fract_x
_atom_site_fract_y
_atom_site_fract_z
Si Si1 0.752531 0.695968 0.876002
Si Si2 0.852325 0.796575 0.889615
Si Si3 0.962229 0.210791 0.813984
Si Si4 0.620247 0.203105 0.039879
Si Si5 0.906996 0.800074 0.355674
Si Si6 0.409386 0.704217 0.593319
Si Si7 0.310381 0.291626 0.589180
Si Si8 0.805747 0.213278 0.342446
O O1 0.741661 0.500000 0.892839
O O2 0.804992 0.693421 0.879131
O O3 0.653668 0.774645 0.632571
O O4 0.821431 0.794051 0.096449
O O5 0.792030 0.768524 0.660293
O O6 0.848290 0.000000 0.906520
O O7 0.957815 0.746815 0.097041
O O8 0.863992 0.267072 0.564718
O O9 0.959262 0.000000 0.814774
O O10 0.000000 0.278440 0.000000
O O11 0.654557 0.226572 0.228527
O O12 0.700769 0.272666 0.136327
O O13 0.611745 0.000000 0.002144
O O14 0.518163 0.277127 0.811703
O O15 0.863472 0.725712 0.367014
O O16 0.000000 0.724096 0.500000
O O17 0.931685 0.000000 0.432146
O O18 0.387777 0.500000 0.548246
O O19 0.374752 0.770028 0.630430
O O20 0.312857 0.500000 0.597969
O O21 0.803888 0.000000 0.334983
#
# Coordination Sequence:
#
# PCOD9143122 Si02
#       8
#     4   4   4   4   4   4   4   4
#     4  10  21  37  56  79 108 138 171 219 275 323
#     4  10  18  30  53  81 105 136 180 223 264 316
#     4   9  16  28  49  76 107 141 173 210 259 313
#     4  11  21  33  53  79 107 141 181 226 270 315
#     4  10  20  37  62  85 106 138 179 222 267 318
#     4   9  20  37  54  74 105 144 180 218 268 320
#     4  10  20  34  52  76 111 150 182 219 267 316
#     4   9  19  34  51  79 113 138 172 224 275 319
#
# _framework density 21.774678000000002
#
# number of rings (size 3 to 8) (size 9 to 14) (size 15 to 20)
#    0.000    2.250    0.000    4.125    0.000    8.750 
#    0.000    1.875    0.000   13.500    0.000    0.000 
#    0.000    0.000    0.000    0.000    0.000    0.000 
#
# Total GULP energy -178588.040544 kJ/mol
# GULP energy per Si atom -5580.876267 kJ/mol
# Density = 2.172512 g / cm^3
# Si number density = 21.774678 Si / 1000 Ang^3
#
#
#
# Elastic Constant Matrix: (Units=GPa)
#
#
# Indices 1 2 3 4 5 6 
#
# 1 92.8053 2.0512 46.3501 0.0000 13.2593 0.0000
# 2 2.0512 35.7896 -11.5837 0.0000 5.3789 0.0000
# 3 46.3501 -11.5837 107.4674 0.0000 12.8335 0.0000
# 4 0.0000 0.0000 0.0000 20.7312 0.0000 9.6258
# 5 13.2593 5.3789 12.8335 0.0000 36.5415 0.0000
# 6 0.0000 0.0000 0.0000 9.6258 0.0000 14.8697
#
#
#
# Elastic Compliance Matrix: (Units=1/GPa)
#
#
# Indices 1 2 3 4 5 6 
#
# 1 0.014249 -0.002382 -0.006082 0.000000 -0.002684 0.000000
# 2 -0.002382 0.030487 0.004954 0.000000 -0.005363 0.000000
# 3 -0.006082 0.004954 0.012823 0.000000 -0.003026 0.000000
# 4 0.000000 0.000000 0.000000 0.068965 0.000000 -0.044644
# 5 -0.002684 -0.005363 -0.003026 0.000000 0.030192 0.000000
# 6 0.000000 0.000000 0.000000 -0.044644 0.000000 0.096151
#
#
# Mechanical properties :
#
#
# Convention : Reuss Voigt Hill
#
# Bulk Modulus (GPa) = 19.78622 34.41084 27.09853
# Shear Modulus (GPa) = 18.06796 27.71146 22.88971
#
# Velocity S-wave (km/s) = 2.88370 3.57129 3.24575
# Velocity P-wave (km/s) = 4.49379 5.73087 5.14961
#
# Compressibility (1/GPa) = 0.05054022
#
# Stress axis : x y z
#
# Youngs Moduli (GPa) = 70.18193 32.80083 77.98219
#
# Poissons Ratio (x) = 0.07812 0.47426
# Poissons Ratio (y) = 0.16715 -0.38631
# Poissons Ratio (z) = 0.42682 -0.16249
#
# Static dielectric constant tensor:
#      x y z
#    x 1.808740 0.000000 -0.006360 
#    y 0.000000 1.818910 0.000000 
#    z -0.006360 0.000000 1.802370 
# 
# From -- ./inp_files/58249.got.cif
#   From: 2010.05.17/outbox.cif.g08.bks.cpg/sg10_30_cif.got.tgz:58249.got - 2010.06.03 11:33:40.
