data_PCOD9143341
_publ_section_title
;
Structure prediction by ZEFSAII (Michael W. Deem and Ramdas Pophale) SiO2 
 PCOD9143341
Probable space group: P 2/M
;
_chemical_formula_sum "Si O2"
_cell_formula_units_Z 28
_cell_length_a 14.716002
_cell_length_b 8.633209
_cell_length_c 19.721846
_cell_angle_alpha 90.000000
_cell_angle_beta 41.733798
_cell_angle_gamma 90.000000
_cell_volume 1667.896428
_symmetry_space_group_name_H-M "P 2/M"
_symmetry_group_IT_number 10
_symmetry_cell_setting 'monoclinic'
loop_
_space_group_symop_operation_xyz
x,y,z
-x,y,-z
-x,-y,-z
x,-y,z
loop_
_atom_site_type_symbol
_atom_site_label
_atom_site_fract_x
_atom_site_fract_y
_atom_site_fract_z
Si Si1 0.019733 0.683725 0.200348
Si Si2 0.289771 0.815610 0.111788
Si Si3 0.480033 0.811904 0.619330
Si Si4 0.478199 0.315613 0.116724
Si Si5 0.906637 0.813193 0.987703
Si Si6 0.410365 0.812727 0.809295
Si Si7 0.722814 0.812391 0.387347
O O1 0.032859 0.500000 0.197410
O O2 0.870694 0.738255 0.306369
O O3 0.138054 0.761977 0.179125
O O4 0.043346 0.737255 0.109585
O O5 0.348446 0.757078 0.150692
O O6 0.300866 0.000000 0.101487
O O7 0.390578 0.742982 0.999137
O O8 0.455794 0.759976 0.709328
O O9 0.622226 0.766564 0.504854
O O10 0.357662 0.767102 0.636704
O O11 0.479024 0.000000 0.620581
O O12 0.471603 0.500000 0.116385
O O13 0.500264 0.259427 0.180736
O O14 0.915426 0.000000 0.974828
O O15 0.748764 0.773431 0.089740
O O16 0.000000 0.770267 0.000000
O O17 0.420664 0.000000 0.806867
O O18 0.735267 0.000000 0.380474
#
# Coordination Sequence:
#
# PCOD9143341 Si02
#       7
#     4   4   4   4   4   4   4
#     4  12  23  34  50  77 111 142 173 216 269 319
#     4  11  21  36  56  76 100 137 180 220 259 312
#     4   8  16  32  57  82 103 135 185 230 258 299
#     4  11  21  34  52  78 109 138 169 214 267 321
#     4  10  20  33  51  75 105 142 179 213 255 311
#     4  10  18  31  52  78 107 140 177 216 260 313
#     4   9  17  34  57  79 103 139 185 227 262 303
#
# _framework density 16.787611999999999
#
# number of rings (size 3 to 8) (size 9 to 14) (size 15 to 20)
#    0.000    1.857    1.429    6.429    0.000    2.571 
#    0.000    4.286    0.000    0.857    0.000    6.000 
#    0.000    0.000    0.000    0.000    0.000    0.000 
#
# Total GULP energy -156347.632469 kJ/mol
# GULP energy per Si atom -5583.844017 kJ/mol
# Density = 1.674940 g / cm^3
# Si number density = 16.787612 Si / 1000 Ang^3
#
#
#
# Elastic Constant Matrix: (Units=GPa)
#
#
# Indices 1 2 3 4 5 6 
#
# 1 99.6666 7.3336 39.2135 0.0000 -13.3392 0.0000
# 2 7.3336 33.2273 6.1789 0.0000 -6.7333 0.0000
# 3 39.2135 6.1789 66.6377 0.0000 -12.4111 0.0000
# 4 0.0000 0.0000 0.0000 -3.4527 0.0000 -4.4137
# 5 -13.3392 -6.7333 -12.4111 0.0000 23.0454 0.0000
# 6 0.0000 0.0000 0.0000 -4.4137 0.0000 -20.2147
#
#
#
# Elastic Compliance Matrix: (Units=1/GPa)
#
#
# Indices 1 2 3 4 5 6 
#
# 1 0.013388 -0.000891 -0.007114 0.000000 0.003657 0.000000
# 2 -0.000891 0.032161 -0.000894 0.000000 0.008400 0.000000
# 3 -0.007114 -0.000894 0.020518 0.000000 0.006671 0.000000
# 4 0.000000 0.000000 0.000000 -0.401763 0.000000 0.087721
# 5 0.003657 0.008400 0.006671 0.000000 0.051556 0.000000
# 6 0.000000 0.000000 0.000000 0.087721 0.000000 -0.068622
#
#
# Mechanical properties :
#
#
# Convention : Reuss Voigt Hill
#
# Bulk Modulus (GPa) = 20.71693 33.88705 27.30199
# Shear Modulus (GPa) = -15.68011 9.66264 -3.00873
#
# Velocity S-wave (km/s) = -3.05950 2.40173 -1.34020
# Velocity P-wave (km/s) = 0.33668 5.28400 3.72876
#
# Compressibility (1/GPa) = 0.04826970
#
# Stress axis : x y z
#
# Youngs Moduli (GPa) = 74.69615 31.09388 48.73697
#
# Poissons Ratio (x) = 0.02769 0.34673
# Poissons Ratio (y) = 0.06653 0.04355
# Poissons Ratio (z) = 0.53141 0.02778
#
# Static dielectric constant tensor:
#      x y z
#    x 1.560370 0.000000 0.004010 
#    y 0.000000 1.561870 0.000000 
#    z 0.004010 0.000000 1.547780 
# 
# From -- ./inp_files/84383.got.cif
#   From: 2010.05.17/outbox.cif.g08.bks.cpg/sg10_43_cif.got.tgz:84383.got - 2010.06.03 11:33:40.
