data_PCOD9143243
_publ_section_title
;
Structure prediction by ZEFSAII (Michael W. Deem and Ramdas Pophale) SiO2 
 PCOD9143243
Probable space group: P 2/M
;
_chemical_formula_sum "Si O2"
_cell_formula_units_Z 24
_cell_length_a 17.291026
_cell_length_b 8.700713
_cell_length_c 23.724925
_cell_angle_alpha 90.000000
_cell_angle_beta 23.317412
_cell_angle_gamma 90.000000
_cell_volume 1412.808287
_symmetry_space_group_name_H-M "P 2/M"
_symmetry_group_IT_number 10
_symmetry_cell_setting 'monoclinic'
loop_
_space_group_symop_operation_xyz
x,y,z
-x,y,-z
-x,-y,-z
x,-y,z
loop_
_atom_site_type_symbol
_atom_site_label
_atom_site_fract_x
_atom_site_fract_y
_atom_site_fract_z
Si Si1 0.506206 0.818267 0.086309
Si Si2 0.474160 0.815997 0.583547
Si Si3 0.056785 0.683977 0.898223
Si Si4 0.818349 0.817934 0.774774
Si Si5 0.156186 0.185600 0.064967
Si Si6 0.877188 0.317359 0.349822
O O1 0.300407 0.756977 0.200283
O O2 0.473174 0.000000 0.117299
O O3 0.661659 0.805728 0.930912
O O4 0.629712 0.759710 0.056850
O O5 0.500000 0.778337 0.500000
O O6 0.270472 0.748173 0.740796
O O7 0.658911 0.746920 0.492553
O O8 0.472933 0.000000 0.589761
O O9 0.057231 0.500000 0.892054
O O10 0.906956 0.754191 0.953321
O O11 0.000000 0.723856 0.000000
O O12 0.008378 0.732213 0.670171
O O13 0.859972 0.000000 0.740231
O O14 0.997662 0.244707 0.216701
O O15 0.152537 0.000000 0.068717
O O16 0.878191 0.500000 0.343358
#
# Coordination Sequence:
#
# PCOD9143243 Si02
#       6
#     4   4   4   4   4   4
#     4   7  12  23  42  65  92 128 166 206 247 290
#     4  11  22  36  56  78  99 133 178 217 252 302
#     4  11  24  39  54  76 106 137 169 210 261 312
#     4   8  13  25  42  63  95 131 166 203 246 297
#     4  10  18  31  50  72  98 133 176 212 249 299
#     4  11  20  29  46  73 105 135 165 208 260 305
#
# _framework density 16.987442000000001
#
# number of rings (size 3 to 8) (size 9 to 14) (size 15 to 20)
#    0.000    2.333    1.667    5.000    0.000    2.000 
#    0.000    7.500    0.000    0.000    0.000    1.167 
#    0.000    9.333    0.000    0.000    0.000    0.000 
#
# Total GULP energy -133731.022155 kJ/mol
# GULP energy per Si atom -5572.125923 kJ/mol
# Density = 1.694878 g / cm^3
# Si number density = 16.987442 Si / 1000 Ang^3
#
#
#
# Elastic Constant Matrix: (Units=GPa)
#
#
# Indices 1 2 3 4 5 6 
#
# 1 169.5383 51.7398 70.4249 0.0000 -38.2345 0.0000
# 2 51.7398 57.8773 36.6371 0.0000 -5.3919 0.0000
# 3 70.4249 36.6371 61.8113 0.0000 -12.0153 0.0000
# 4 0.0000 0.0000 0.0000 12.3028 0.0000 0.0741
# 5 -38.2345 -5.3919 -12.0153 0.0000 28.1797 0.0000
# 6 0.0000 0.0000 0.0000 0.0741 0.0000 45.5508
#
#
#
# Elastic Compliance Matrix: (Units=1/GPa)
#
#
# Indices 1 2 3 4 5 6 
#
# 1 0.016070 -0.005189 -0.012199 0.000000 0.015609 0.000000
# 2 -0.005189 0.029418 -0.012865 0.000000 -0.006897 0.000000
# 3 -0.012199 -0.012865 0.037080 0.000000 -0.003203 0.000000
# 4 0.000000 0.000000 0.000000 0.081283 0.000000 -0.000132
# 5 0.015609 -0.006897 -0.003203 0.000000 0.053980 0.000000
# 6 0.000000 0.000000 0.000000 -0.000132 0.000000 0.021954
#
#
# Mechanical properties :
#
#
# Convention : Reuss Voigt Hill
#
# Bulk Modulus (GPa) = 45.32893 67.42564 56.37728
# Shear Modulus (GPa) = 16.25252 25.90166 21.07709
#
# Velocity S-wave (km/s) = 3.09647 3.90905 3.52624
# Velocity P-wave (km/s) = 6.28696 7.75576 7.05966
#
# Compressibility (1/GPa) = 0.02206097
#
# Stress axis : x y z
#
# Youngs Moduli (GPa) = 62.22964 33.99257 26.96868
#
# Poissons Ratio (x) = 0.17640 0.32899
# Poissons Ratio (y) = 0.32293 0.34696
# Poissons Ratio (z) = 0.75913 0.43732
#
# Static dielectric constant tensor:
#      x y z
#    x 1.622710 0.000000 -0.033420 
#    y 0.000000 1.563990 0.000000 
#    z -0.033420 0.000000 1.547370 
# 
# From -- ./inp_files/48889.got.cif
#   From: 2010.05.17/outbox.cif.g08.bks.cpg/sg10_25_cif.got.tgz:48889.got - 2010.06.03 11:33:40.
