data_PCOD9143734
_publ_section_title
;
Structure prediction by ZEFSAII (Michael W. Deem and Ramdas Pophale) SiO2 
 PCOD9143734
Probable space group: P 2/M
;
_chemical_formula_sum "Si O2"
_cell_formula_units_Z 32
_cell_length_a 20.974445
_cell_length_b 7.510191
_cell_length_c 26.981531
_cell_angle_alpha 90.000000
_cell_angle_beta 159.168299
_cell_angle_gamma 90.000000
_cell_volume 1511.469111
_symmetry_space_group_name_H-M "P 2/M"
_symmetry_group_IT_number 10
_symmetry_cell_setting 'monoclinic'
loop_
_space_group_symop_operation_xyz
x,y,z
-x,y,-z
-x,-y,-z
x,-y,z
loop_
_atom_site_type_symbol
_atom_site_label
_atom_site_fract_x
_atom_site_fract_y
_atom_site_fract_z
Si Si1 0.133325 0.296514 0.391316
Si Si2 0.204579 0.217807 0.155555
Si Si3 0.492901 0.790270 0.286873
Si Si4 0.306404 0.218171 0.339964
Si Si5 0.212228 0.784681 0.800032
Si Si6 0.583139 0.781350 0.877567
Si Si7 0.008512 0.795435 0.817966
Si Si8 0.452707 0.783271 0.887266
O O1 0.160162 0.500000 0.396753
O O2 0.318722 0.228886 0.548481
O O3 0.977791 0.281853 0.319314
O O4 0.064093 0.205057 0.290900
O O5 0.334473 0.282264 0.206339
O O6 0.275580 0.271208 0.260963
O O7 0.206580 0.000000 0.156232
O O8 0.000000 0.273697 0.000000
O O9 0.490750 0.720980 0.229187
O O10 0.456506 0.000000 0.255538
O O11 0.500000 0.276375 0.500000
O O12 0.143184 0.281301 0.256132
O O13 0.306854 0.000000 0.342044
O O14 0.285551 0.725988 0.799690
O O15 0.203618 0.000000 0.793942
O O16 0.366306 0.733235 0.951509
O O17 0.471368 0.722799 0.844469
O O18 0.580904 0.000000 0.877788
O O19 0.790318 0.721208 0.033580
O O20 0.029896 0.000000 0.849871
O O21 0.448813 0.000000 0.884612
#
# Coordination Sequence:
#
# PCOD9143734 Si02
#       8
#     4   4   4   4   4   4   4   4
#     4  12  24  36  50  74 109 145 180 218 257 307
#     4   9  16  28  48  78 108 130 163 213 266 314
#     4  10  20  34  55  79 108 144 175 211 263 319
#     4   9  16  25  42  72 104 130 160 203 254 305
#     4   9  16  31  56  80 104 136 170 212 265 313
#     4   9  16  29  53  84 105 126 171 221 261 306
#     4  10  18  32  56  79 102 133 172 220 268 314
#     4   8  14  27  53  85 108 127 164 219 265 308
#
# _framework density 21.171454000000001
#
# number of rings (size 3 to 8) (size 9 to 14) (size 15 to 20)
#    0.000    2.500    1.250    3.375    0.000    5.000 
#    0.000    2.500    0.000    7.500    0.000    0.000 
#    0.000    0.000    0.000    0.000    0.000    0.000 
#
# Total GULP energy -178671.460952 kJ/mol
# GULP energy per Si atom -5583.483155 kJ/mol
# Density = 2.112327 g / cm^3
# Si number density = 21.171454 Si / 1000 Ang^3
#
#
#
# Elastic Constant Matrix: (Units=GPa)
#
#
# Indices 1 2 3 4 5 6 
#
# 1 91.0417 9.7361 12.9580 0.0000 16.3443 0.0000
# 2 9.7361 49.3369 -7.8848 0.0000 -4.6380 0.0000
# 3 12.9580 -7.8848 49.7506 0.0000 -8.9066 0.0000
# 4 0.0000 0.0000 0.0000 95.5432 0.0000 9.7438
# 5 16.3443 -4.6380 -8.9066 0.0000 28.8734 0.0000
# 6 0.0000 0.0000 0.0000 9.7438 0.0000 -34.0182
#
#
#
# Elastic Compliance Matrix: (Units=1/GPa)
#
#
# Indices 1 2 3 4 5 6 
#
# 1 0.014395 -0.004905 -0.006485 0.000000 -0.010937 0.000000
# 2 -0.004905 0.023064 0.006449 0.000000 0.008471 0.000000
# 3 -0.006485 0.006449 0.025037 0.000000 0.012430 0.000000
# 4 0.000000 0.000000 0.000000 0.010169 0.000000 0.002913
# 5 -0.010937 0.008471 0.012430 0.000000 0.046020 0.000000
# 6 0.000000 0.000000 0.000000 0.002913 0.000000 -0.028562
#
#
# Mechanical properties :
#
#
# Convention : Reuss Voigt Hill
#
# Bulk Modulus (GPa) = 19.00614 24.41642 21.71128
# Shear Modulus (GPa) = 42.53797 29.76768 36.15283
#
# Velocity S-wave (km/s) = 4.48729 3.75377 4.13682
# Velocity P-wave (km/s) = 5.98702 5.50867 5.75282
#
# Compressibility (1/GPa) = 0.05261456
#
# Stress axis : x y z
#
# Youngs Moduli (GPa) = 69.46882 43.35797 39.94146
#
# Poissons Ratio (x) = 0.21268 0.25901
# Poissons Ratio (y) = 0.34076 -0.25760
# Poissons Ratio (z) = 0.45048 -0.27963
#
# Static dielectric constant tensor:
#      x y z
#    x 1.762000 0.000000 0.000980 
#    y 0.000000 1.836750 0.000000 
#    z 0.000980 0.000000 1.718270 
# 
# From -- ./inp_files/93813.got.cif
#   From: 2010.05.17/outbox.cif.g08.bks.cpg/sg10_47_cif.got.tgz:93813.got - 2010.06.03 11:33:40.
