data_PCOD9143929
_publ_section_title
;
Structure prediction by ZEFSAII (Michael W. Deem and Ramdas Pophale) SiO2 
 PCOD9143929
Probable space group: P 2/M
;
_chemical_formula_sum "Si O2"
_cell_formula_units_Z 24
_cell_length_a 12.844635
_cell_length_b 7.803099
_cell_length_c 24.920666
_cell_angle_alpha 90.000000
_cell_angle_beta 29.286407
_cell_angle_gamma 90.000000
_cell_volume 1221.836986
_symmetry_space_group_name_H-M "P 2/M"
_symmetry_group_IT_number 10
_symmetry_cell_setting 'monoclinic'
loop_
_space_group_symop_operation_xyz
x,y,z
-x,y,-z
-x,-y,-z
x,-y,z
loop_
_atom_site_type_symbol
_atom_site_label
_atom_site_fract_x
_atom_site_fract_y
_atom_site_fract_z
Si Si1 0.252716 0.709605 0.616099
Si Si2 0.183232 0.709143 0.766323
Si Si3 0.379261 0.707238 0.371324
Si Si4 0.903254 0.300971 0.988763
Si Si5 0.982680 0.292928 0.385618
Si Si6 0.440461 0.197370 0.220156
O O1 0.500000 0.759979 0.500000
O O2 0.250276 0.500000 0.616423
O O3 0.165988 0.767852 0.712765
O O4 0.118258 0.766848 0.625117
O O5 0.178464 0.500000 0.765848
O O6 0.412484 0.756222 0.688141
O O7 0.005397 0.770342 0.888359
O O8 0.374603 0.500000 0.371306
O O9 0.168880 0.766002 0.497339
O O10 0.400090 0.768639 0.301254
O O11 0.972661 0.500000 0.957746
O O12 0.649971 0.295033 0.106388
O O13 0.000000 0.222613 0.000000
O O14 0.974055 0.500000 0.389715
O O15 0.224515 0.241383 0.286416
O O16 0.491645 0.000000 0.189552
#
# Coordination Sequence:
#
# PCOD9143929 Si02
#       6
#     4   4   4   4   4   4
#     4   9  15  28  54  88 115 133 167 222 274 319
#     4   9  16  29  54  87 113 133 167 222 277 319
#     4  10  18  33  57  84 111 139 175 221 274 326
#     4  10  19  35  59  81 106 140 181 226 270 321
#     4  10  20  34  57  84 112 144 178 219 270 327
#     4  12  25  37  51  75 113 151 185 224 267 319
#
# _framework density 19.642555999999999
#
# number of rings (size 3 to 8) (size 9 to 14) (size 15 to 20)
#    0.000    2.000    3.333    2.000    0.000    3.000 
#    0.000    0.833    0.000    7.500    0.000    0.000 
#    0.000    0.000    0.000    0.000    0.000    0.000 
#
# Total GULP energy -133995.506126 kJ/mol
# GULP energy per Si atom -5583.146089 kJ/mol
# Density = 1.959785 g / cm^3
# Si number density = 19.642556 Si / 1000 Ang^3
#
#
#
# Elastic Constant Matrix: (Units=GPa)
#
#
# Indices 1 2 3 4 5 6 
#
# 1 81.7492 -7.1306 41.7936 0.0000 10.1014 0.0000
# 2 -7.1306 23.1941 -11.9416 0.0000 7.0721 0.0000
# 3 41.7936 -11.9416 125.3171 0.0000 14.9014 0.0000
# 4 0.0000 0.0000 0.0000 -31.8724 0.0000 15.7555
# 5 10.1014 7.0721 14.9014 0.0000 35.2595 0.0000
# 6 0.0000 0.0000 0.0000 15.7555 0.0000 -87.2254
#
#
#
# Elastic Compliance Matrix: (Units=1/GPa)
#
#
# Indices 1 2 3 4 5 6 
#
# 1 0.015145 0.003386 -0.004350 0.000000 -0.003179 0.000000
# 2 0.003386 0.051001 0.005330 0.000000 -0.013452 0.000000
# 3 -0.004350 0.005330 0.010442 0.000000 -0.004236 0.000000
# 4 0.000000 0.000000 0.000000 -0.034451 0.000000 -0.006223
# 5 -0.003179 -0.013452 -0.004236 0.000000 0.033760 0.000000
# 6 0.000000 0.000000 0.000000 -0.006223 0.000000 -0.012589
#
#
# Mechanical properties :
#
#
# Convention : Reuss Voigt Hill
#
# Bulk Modulus (GPa) = 11.72053 30.63370 21.17711
# Shear Modulus (GPa) = 60.22874 -2.93172 28.64851
#
# Velocity S-wave (km/s) = 5.54337 -1.22302 3.82316
# Velocity P-wave (km/s) = 6.85214 3.69257 5.50395
#
# Compressibility (1/GPa) = 0.08532038
#
# Stress axis : x y z
#
# Youngs Moduli (GPa) = 66.02980 19.60727 95.76546
#
# Poissons Ratio (x) = -0.06638 0.41659
# Poissons Ratio (y) = -0.22356 -0.51047
# Poissons Ratio (z) = 0.28724 -0.10452
#
# Static dielectric constant tensor:
#      x y z
#    x 1.670650 0.000000 0.017830 
#    y 0.000000 1.724900 0.000000 
#    z 0.017830 0.000000 1.678630 
# 
# From -- ./inp_files/45046.got.cif
#   From: 2010.05.17/outbox.cif.g08.bks.cpg/sg10_23_cif.got.tgz:45046.got - 2010.06.03 11:33:40.
