data_PCOD9143609
_publ_section_title
;
Structure prediction by ZEFSAII (Michael W. Deem and Ramdas Pophale) SiO2 
 PCOD9143609
Probable space group: P 2/M
;
_chemical_formula_sum "Si O2"
_cell_formula_units_Z 32
_cell_length_a 20.273889
_cell_length_b 7.452765
_cell_length_c 25.833578
_cell_angle_alpha 90.000000
_cell_angle_beta 158.054661
_cell_angle_gamma 90.000000
_cell_volume 1458.772519
_symmetry_space_group_name_H-M "P 2/M"
_symmetry_group_IT_number 10
_symmetry_cell_setting 'monoclinic'
loop_
_space_group_symop_operation_xyz
x,y,z
-x,y,-z
-x,-y,-z
x,-y,z
loop_
_atom_site_type_symbol
_atom_site_label
_atom_site_fract_x
_atom_site_fract_y
_atom_site_fract_z
Si Si1 0.330818 0.719678 0.126805
Si Si2 0.026033 0.718525 0.078125
Si Si3 0.403857 0.713311 0.590507
Si Si4 0.821535 0.783100 0.398938
Si Si5 0.432272 0.707625 0.086842
Si Si6 0.070338 0.215523 0.409620
Si Si7 0.322293 0.794908 0.894682
Si Si8 0.578471 0.280337 0.611492
O O1 0.337935 0.500000 0.131052
O O2 0.474437 0.781759 0.273626
O O3 0.372401 0.780698 0.099054
O O4 0.138261 0.774320 0.006486
O O5 0.024111 0.500000 0.076678
O O6 0.218367 0.775227 0.236219
O O7 0.000000 0.775582 0.000000
O O8 0.432693 0.500000 0.610344
O O9 0.200765 0.743333 0.457323
O O10 0.470406 0.780613 0.583462
O O11 0.644618 0.718612 0.242595
O O12 0.838402 0.721108 0.470692
O O13 0.000000 0.728659 0.500000
O O14 0.813986 0.000000 0.392904
O O15 0.379039 0.500000 0.045089
O O16 0.351757 0.797199 0.977668
O O17 0.869934 0.283567 0.258156
O O18 0.060080 0.000000 0.405392
O O19 0.317029 0.000000 0.870525
O O20 0.500000 0.710698 0.000000
O O21 0.500000 0.221097 0.500000
O O22 0.575140 0.500000 0.609333
#
# Coordination Sequence:
#
# PCOD9143609 Si02
#       8
#     4   4   4   4   4   4   4   4
#     4   9  17  29  47  75 110 144 174 215 273 325
#     4   9  14  24  43  65  96 140 181 213 254 312
#     4  10  18  32  53  77 111 144 172 222 282 324
#     4  10  20  36  58  81 105 140 187 230 266 315
#     4  11  22  35  54  84 117 143 174 222 280 335
#     4  10  21  36  57  82 105 140 187 225 270 330
#     4  10  22  42  62  78 105 145 187 230 271 322
#     4   9  17  27  44  74 105 136 180 226 265 310
#
# _framework density 21.936252
#
# number of rings (size 3 to 8) (size 9 to 14) (size 15 to 20)
#    0.000    2.250    2.500    1.125    0.000    4.000 
#    0.000    3.750    0.000    0.375    0.000    3.500 
#    0.000    0.000    0.000    0.000    0.000    0.000 
#
# Total GULP energy -178796.655648 kJ/mol
# GULP energy per Si atom -5587.395489 kJ/mol
# Density = 2.188632 g / cm^3
# Si number density = 21.936252 Si / 1000 Ang^3
#
#
#
# Elastic Constant Matrix: (Units=GPa)
#
#
# Indices 1 2 3 4 5 6 
#
# 1 89.1652 -1.9942 19.5841 0.0000 10.4336 0.0000
# 2 -1.9942 65.6618 -6.8644 0.0000 -1.8447 0.0000
# 3 19.5841 -6.8644 111.5934 0.0000 4.3091 0.0000
# 4 0.0000 0.0000 0.0000 -2.6301 0.0000 -1.5792
# 5 10.4336 -1.8447 4.3091 0.0000 42.7396 0.0000
# 6 0.0000 0.0000 0.0000 -1.5792 0.0000 18.4514
#
#
#
# Elastic Compliance Matrix: (Units=1/GPa)
#
#
# Indices 1 2 3 4 5 6 
#
# 1 0.011972 0.000079 -0.001991 0.000000 -0.002719 0.000000
# 2 0.000079 0.015342 0.000909 0.000000 0.000551 0.000000
# 3 -0.001991 0.000909 0.009383 0.000000 -0.000421 0.000000
# 4 0.000000 0.000000 0.000000 -0.361635 0.000000 -0.030952
# 5 -0.002719 0.000551 -0.000421 0.000000 0.024127 0.000000
# 6 0.000000 0.000000 0.000000 -0.030952 0.000000 0.051547
#
#
# Mechanical properties :
#
#
# Convention : Reuss Voigt Hill
#
# Bulk Modulus (GPa) = 28.82651 31.98573 30.40612
# Shear Modulus (GPa) = -21.21412 28.75850 3.77219
#
# Velocity S-wave (km/s) = -3.11317 3.62471 1.31276
# Velocity P-wave (km/s) = 0.49716 5.66841 4.02356
#
# Compressibility (1/GPa) = 0.03469029
#
# Stress axis : x y z
#
# Youngs Moduli (GPa) = 83.52568 65.17869 106.57918
#
# Poissons Ratio (x) = -0.00515 0.21223
# Poissons Ratio (y) = -0.00660 -0.09684
# Poissons Ratio (z) = 0.16632 -0.05922
#
# Static dielectric constant tensor:
#      x y z
#    x 1.786080 0.000000 0.003650 
#    y 0.000000 1.852140 0.000000 
#    z 0.003650 0.000000 1.776920 
# 
# From -- ./inp_files/93732.got.cif
#   From: 2010.05.17/outbox.cif.g08.bks.cpg/sg10_47_cif.got.tgz:93732.got - 2010.06.03 11:33:40.
