data_PCOD9143512
_publ_section_title
;
Structure prediction by ZEFSAII (Michael W. Deem and Ramdas Pophale) SiO2 
 PCOD9143512
Probable space group: P 2/M
;
_chemical_formula_sum "Si O2"
_cell_formula_units_Z 32
_cell_length_a 11.906849
_cell_length_b 9.507619
_cell_length_c 22.129066
_cell_angle_alpha 90.000000
_cell_angle_beta 133.218158
_cell_angle_gamma 90.000000
_cell_volume 1825.623632
_symmetry_space_group_name_H-M "P 2/M"
_symmetry_group_IT_number 10
_symmetry_cell_setting 'monoclinic'
loop_
_space_group_symop_operation_xyz
x,y,z
-x,y,-z
-x,-y,-z
x,-y,z
loop_
_atom_site_type_symbol
_atom_site_label
_atom_site_fract_x
_atom_site_fract_y
_atom_site_fract_z
Si Si1 0.288717 0.160591 0.765267
Si Si2 0.056692 0.252260 0.349181
Si Si3 0.308837 0.669074 0.272076
Si Si4 0.649872 0.329806 0.094091
Si Si5 0.847519 0.661167 0.483585
Si Si6 0.414821 0.831839 0.678089
Si Si7 0.019311 0.340032 0.812123
Si Si8 0.359035 0.847613 0.402805
O O1 0.352270 0.262865 0.840342
O O2 0.350845 0.194572 0.721788
O O3 0.103289 0.174571 0.696353
O O4 0.329954 0.000000 0.795118
O O5 0.107291 0.328397 0.429281
O O6 0.021818 0.339038 0.274803
O O7 0.201061 0.159517 0.381893
O O8 0.316388 0.500000 0.268063
O O9 0.423027 0.752000 0.270301
O O10 0.129218 0.718285 0.207273
O O11 0.365323 0.719006 0.358985
O O12 0.659031 0.500000 0.102398
O O13 0.809690 0.276948 0.122033
O O14 0.500000 0.294401 0.000000
O O15 0.801767 0.500000 0.452829
O O16 0.709588 0.764786 0.414034
O O17 0.000000 0.694008 0.500000
O O18 0.426750 0.000000 0.673863
O O19 0.032244 0.500000 0.837789
O O20 0.500000 0.839283 0.500000
O O21 0.365470 0.000000 0.373145
#
# Coordination Sequence:
#
# PCOD9143512 Si02
#       8
#     4   4   4   4   4   4   4   4
#     4  10  21  35  52  76 105 141 175 210 258 311
#     4  10  18  32  50  73 103 136 175 218 261 311
#     4  10  20  34  52  73  98 133 177 218 261 310
#     4   9  18  34  59  88 112 133 161 205 262 321
#     4  11  22  34  50  74 103 140 184 227 268 311
#     4  11  23  37  51  71 105 145 185 224 261 307
#     4   8  16  31  52  77 105 133 163 209 262 311
#     4  10  20  32  48  69  95 129 171 219 267 311
#
# _framework density 17.528257
#
# number of rings (size 3 to 8) (size 9 to 14) (size 15 to 20)
#    0.000    2.125    1.250    2.250    0.000    4.750 
#    0.000    0.625    0.000    0.750    0.000    5.250 
#    0.000    0.000    0.000    0.000    0.000    0.000 
#
# Total GULP energy -178264.917531 kJ/mol
# GULP energy per Si atom -5570.778673 kJ/mol
# Density = 1.748836 g / cm^3
# Si number density = 17.528257 Si / 1000 Ang^3
#
#
#
# Elastic Constant Matrix: (Units=GPa)
#
#
# Indices 1 2 3 4 5 6 
#
# 1 127.3953 32.4801 43.4830 0.0000 17.3494 0.0000
# 2 32.4801 57.5003 29.6858 0.0000 9.1773 0.0000
# 3 43.4830 29.6858 91.1632 0.0000 21.6644 0.0000
# 4 0.0000 0.0000 0.0000 69.8099 0.0000 34.3136
# 5 17.3494 9.1773 21.6644 0.0000 21.4370 0.0000
# 6 0.0000 0.0000 0.0000 34.3136 0.0000 45.3523
#
#
#
# Elastic Compliance Matrix: (Units=1/GPa)
#
#
# Indices 1 2 3 4 5 6 
#
# 1 0.010282 -0.003763 -0.002743 0.000000 -0.003938 0.000000
# 2 -0.003763 0.022405 -0.005192 0.000000 -0.001299 0.000000
# 3 -0.002743 -0.005192 0.016994 0.000000 -0.012732 0.000000
# 4 0.000000 0.000000 0.000000 0.022806 0.000000 -0.017255
# 5 -0.003938 -0.001299 -0.012732 0.000000 0.063258 0.000000
# 6 0.000000 0.000000 0.000000 -0.017255 0.000000 0.035105
#
#
# Mechanical properties :
#
#
# Convention : Reuss Voigt Hill
#
# Bulk Modulus (GPa) = 38.04590 54.15075 46.09832
# Shear Modulus (GPa) = 24.62975 38.68050 31.65513
#
# Velocity S-wave (km/s) = 3.75259 4.70270 4.25426
# Velocity P-wave (km/s) = 6.36620 7.77481 7.10550
#
# Compressibility (1/GPa) = 0.02628404
#
# Stress axis : x y z
#
# Youngs Moduli (GPa) = 97.26197 44.63342 58.84452
#
# Poissons Ratio (x) = 0.16796 0.16140
# Poissons Ratio (y) = 0.36601 0.30553
# Poissons Ratio (z) = 0.26677 0.23174
#
# Static dielectric constant tensor:
#      x y z
#    x 1.631500 0.000000 0.022490 
#    y 0.000000 1.606430 0.000000 
#    z 0.022490 0.000000 1.574220 
# 
# From -- ./inp_files/88561.got.cif
#   From: 2010.05.17/outbox.cif.g08.bks.cpg/sg10_45_cif.got.tgz:88561.got - 2010.06.03 11:33:40.
