data_PCOD9143386
_publ_section_title
;
Structure prediction by ZEFSAII (Michael W. Deem and Ramdas Pophale) SiO2 
 PCOD9143386
Probable space group: P 2/M
;
_chemical_formula_sum "Si O2"
_cell_formula_units_Z 28
_cell_length_a 10.400993
_cell_length_b 7.726616
_cell_length_c 28.409514
_cell_angle_alpha 90.000000
_cell_angle_beta 137.940886
_cell_angle_gamma 90.000000
_cell_volume 1529.452367
_symmetry_space_group_name_H-M "P 2/M"
_symmetry_group_IT_number 10
_symmetry_cell_setting 'monoclinic'
loop_
_space_group_symop_operation_xyz
x,y,z
-x,y,-z
-x,-y,-z
x,-y,z
loop_
_atom_site_type_symbol
_atom_site_label
_atom_site_fract_x
_atom_site_fract_y
_atom_site_fract_z
Si Si1 0.001915 0.000000 0.078820
Si Si2 0.103948 0.794165 0.665639
Si Si3 0.604241 0.295014 0.666032
Si Si4 0.177890 0.790461 0.579813
Si Si5 0.519457 0.304998 0.184380
Si Si6 0.676113 0.290564 0.580712
Si Si7 0.778679 0.706477 0.811929
Si Si8 0.681642 0.000000 0.919005
O O1 0.054083 0.171347 0.122663
O O2 0.153679 0.000000 0.076686
O O3 0.793075 0.000000 0.998525
O O4 0.152296 0.729992 0.626331
O O5 0.256612 0.713577 0.742953
O O6 0.883216 0.757931 0.616906
O O7 0.136219 0.000000 0.675565
O O8 0.641005 0.500000 0.674779
O O9 0.379416 0.267059 0.613676
O O10 0.657959 0.224381 0.629379
O O11 0.715429 0.232641 0.742768
O O12 0.000000 0.730783 0.500000
O O13 0.175798 0.000000 0.579639
O O14 0.473961 0.500000 0.157451
O O15 0.401627 0.271028 0.201109
O O16 0.446058 0.167664 0.126629
O O17 0.500000 0.229484 0.500000
O O18 0.664361 0.500000 0.578631
O O19 0.822797 0.500000 0.823624
#
# Coordination Sequence:
#
# PCOD9143386 Si02
#       8
#     2   4   4   4   4   4   4   2
#     4   9  18  30  52  77 114 149 169 215 271 323
#     4  11  21  34  53  76 107 143 186 232 274 329
#     4  10  20  34  52  75 103 139 183 230 272 324
#     4  10  21  33  50  76 103 136 179 228 280 328
#     4  10  18  31  53  78 109 144 179 225 270 318
#     4  10  22  38  53  73 106 145 186 235 284 326
#     4   9  18  31  51  80 108 141 184 223 268 324
#     4   9  18  32  48  81 114 143 179 209 265 337
#
# _framework density 18.307205
#
# number of rings (size 3 to 8) (size 9 to 14) (size 15 to 20)
#    0.000    2.143    2.143    1.286    1.000    2.286 
#    0.000    2.857    0.000    0.000    0.000    2.000 
#    0.000    4.571    0.000    0.000    0.000    0.000 
#
# Total GULP energy -156256.076373 kJ/mol
# GULP energy per Si atom -5580.574156 kJ/mol
# Density = 1.826554 g / cm^3
# Si number density = 18.307205 Si / 1000 Ang^3
#
#
#
# Elastic Constant Matrix: (Units=GPa)
#
#
# Indices 1 2 3 4 5 6 
#
# 1 26.2363 -2.1658 -17.5841 0.0000 5.4326 0.0000
# 2 -2.1658 60.1060 33.2222 0.0000 -6.2731 0.0000
# 3 -17.5841 33.2222 101.0914 0.0000 -2.5974 0.0000
# 4 0.0000 0.0000 0.0000 16.1015 0.0000 4.3319
# 5 5.4326 -6.2731 -2.5974 0.0000 19.6822 0.0000
# 6 0.0000 0.0000 0.0000 4.3319 0.0000 10.6366
#
#
#
# Elastic Compliance Matrix: (Units=1/GPa)
#
#
# Indices 1 2 3 4 5 6 
#
# 1 0.046749 -0.004890 0.009399 0.000000 -0.013222 0.000000
# 2 -0.004890 0.021480 -0.007725 0.000000 0.007176 0.000000
# 3 0.009399 -0.007725 0.013983 0.000000 -0.003211 0.000000
# 4 0.000000 0.000000 0.000000 0.069748 0.000000 -0.028406
# 5 -0.013222 0.007176 -0.003211 0.000000 0.056320 0.000000
# 6 0.000000 0.000000 0.000000 -0.028406 0.000000 0.105583
#
#
# Mechanical properties :
#
#
# Convention : Reuss Voigt Hill
#
# Bulk Modulus (GPa) = 13.19641 23.81981 18.50811
# Shear Modulus (GPa) = 14.46940 20.88149 17.67545
#
# Velocity S-wave (km/s) = 2.81440 3.38096 3.11061
# Velocity P-wave (km/s) = 4.21723 5.31795 4.79926
#
# Compressibility (1/GPa) = 0.07577816
#
# Stress axis : x y z
#
# Youngs Moduli (GPa) = 21.39105 46.55476 71.51409
#
# Poissons Ratio (x) = 0.22768 -0.67216
# Poissons Ratio (y) = 0.10461 0.55247
# Poissons Ratio (z) = -0.20106 0.35965
#
# Static dielectric constant tensor:
#      x y z
#    x 1.613100 0.000000 -0.021010 
#    y 0.000000 1.669480 0.000000 
#    z -0.021010 0.000000 1.615400 
# 
# From -- ./inp_files/79342.got.cif
#   From: 2010.05.17/outbox.cif.g08.bks.cpg/sg10_40_cif.got.tgz:79342.got - 2010.06.03 11:33:40.
