data_PCOD9143617
_publ_section_title
;
Structure prediction by ZEFSAII (Michael W. Deem and Ramdas Pophale) SiO2 
 PCOD9143617
Probable space group: P 2/M
;
_chemical_formula_sum "Si O2"
_cell_formula_units_Z 28
_cell_length_a 10.415961
_cell_length_b 7.484188
_cell_length_c 31.578540
_cell_angle_alpha 90.000000
_cell_angle_beta 146.686973
_cell_angle_gamma 90.000000
_cell_volume 1352.000211
_symmetry_space_group_name_H-M "P 2/M"
_symmetry_group_IT_number 10
_symmetry_cell_setting 'monoclinic'
loop_
_space_group_symop_operation_xyz
x,y,z
-x,y,-z
-x,-y,-z
x,-y,z
loop_
_atom_site_type_symbol
_atom_site_label
_atom_site_fract_x
_atom_site_fract_y
_atom_site_fract_z
Si Si1 0.612972 0.294321 0.752096
Si Si2 0.867176 0.716338 0.241629
Si Si3 0.367335 0.208205 0.339280
Si Si4 0.127478 0.281547 0.909149
Si Si5 0.625186 0.209849 0.492354
Si Si6 0.138381 0.716741 0.662570
Si Si7 0.546715 0.282668 0.080091
O O1 0.617493 0.500000 0.767985
O O2 0.607109 0.293254 0.699618
O O3 0.374714 0.217678 0.705394
O O4 0.862260 0.215514 0.834965
O O5 0.867587 0.500000 0.242118
O O6 0.868112 0.776561 0.290343
O O7 0.646329 0.775734 0.152646
O O8 0.102969 0.774221 0.283100
O O9 0.527765 0.284079 0.421352
O O10 0.423955 0.000000 0.348610
O O11 0.121534 0.500000 0.907086
O O12 0.266559 0.230294 0.904755
O O13 0.292250 0.225590 0.993577
O O14 0.500000 0.285842 0.500000
O O15 0.901280 0.226287 0.574136
O O16 0.560831 0.000000 0.473441
O O17 0.136314 0.500000 0.661549
O O18 0.543153 0.500000 0.079358
#
# Coordination Sequence:
#
# PCOD9143617 Si02
#       7
#     4   4   4   4   4   4   4
#     4  10  20  36  53  76 110 142 169 209 260 308
#     4  10  18  32  53  79 106 135 171 214 257 303
#     4  11  22  35  55  79 100 132 178 217 255 308
#     4   8  13  24  46  74 103 135 170 206 249 301
#     4  10  21  38  56  75 102 135 173 216 259 305
#     4  10  22  35  53  80 108 137 171 210 262 314
#     4   8  13  23  46  77 101 131 173 210 248 296
#
# _framework density 20.710056999999999
#
# number of rings (size 3 to 8) (size 9 to 14) (size 15 to 20)
#    0.000    2.429    2.857    1.286    0.000    2.571 
#    0.000    3.571    0.000    6.000    0.000    0.000 
#    0.000    3.429    0.000    0.000    0.000    0.000 
#
# Total GULP energy -156274.474170 kJ/mol
# GULP energy per Si atom -5581.231220 kJ/mol
# Density = 2.066292 g / cm^3
# Si number density = 20.710057 Si / 1000 Ang^3
#
#
#
# Elastic Constant Matrix: (Units=GPa)
#
#
# Indices 1 2 3 4 5 6 
#
# 1 83.0490 -15.4375 41.4592 0.0000 14.4097 0.0000
# 2 -15.4375 54.9968 -13.8171 0.0000 -0.2797 0.0000
# 3 41.4592 -13.8171 175.8862 0.0000 4.3255 0.0000
# 4 0.0000 0.0000 0.0000 -127.8853 0.0000 154.6300
# 5 14.4097 -0.2797 4.3255 0.0000 32.5417 0.0000
# 6 0.0000 0.0000 0.0000 154.6300 0.0000 -115.5016
#
#
#
# Elastic Compliance Matrix: (Units=1/GPa)
#
#
# Indices 1 2 3 4 5 6 
#
# 1 0.015388 0.003484 -0.003197 0.000000 -0.006359 0.000000
# 2 0.003484 0.019338 0.000734 0.000000 -0.001474 0.000000
# 3 -0.003197 0.000734 0.006483 0.000000 0.000560 0.000000
# 4 0.000000 0.000000 0.000000 0.012638 0.000000 0.016919
# 5 -0.006359 -0.001474 0.000560 0.000000 0.033459 0.000000
# 6 0.000000 0.000000 0.000000 0.016919 0.000000 0.013993
#
#
# Mechanical properties :
#
#
# Convention : Reuss Voigt Hill
#
# Bulk Modulus (GPa) = 23.12109 37.59345 30.35727
# Shear Modulus (GPa) = 43.98588 -22.05389 10.96600
#
# Velocity S-wave (km/s) = 4.61357 -3.26680 2.30359
# Velocity P-wave (km/s) = 6.29034 1.99057 4.66534
#
# Compressibility (1/GPa) = 0.04325056
#
# Stress axis : x y z
#
# Youngs Moduli (GPa) = 64.98527 51.71236 154.24933
#
# Poissons Ratio (x) = -0.18016 0.49316
# Poissons Ratio (y) = -0.22640 -0.11325
# Poissons Ratio (z) = 0.20777 -0.03797
#
# Static dielectric constant tensor:
#      x y z
#    x 1.696720 0.000000 -0.007220 
#    y 0.000000 1.803050 0.000000 
#    z -0.007220 0.000000 1.748090 
# 
# From -- ./inp_files/92087.got.cif
#   From: 2010.05.17/outbox.cif.g08.bks.cpg/sg10_47_cif.got.tgz:92087.got - 2010.06.03 11:33:40.
