data_PCOD9143090
_publ_section_title
;
Structure prediction by ZEFSAII (Michael W. Deem and Ramdas Pophale) SiO2 
 PCOD9143090
Probable space group: P 2/M
;
_chemical_formula_sum "Si O2"
_cell_formula_units_Z 28
_cell_length_a 13.003988
_cell_length_b 7.348236
_cell_length_c 15.392661
_cell_angle_alpha 90.000000
_cell_angle_beta 54.322003
_cell_angle_gamma 90.000000
_cell_volume 1194.796266
_symmetry_space_group_name_H-M "P 2/M"
_symmetry_group_IT_number 10
_symmetry_cell_setting 'monoclinic'
loop_
_space_group_symop_operation_xyz
x,y,z
-x,y,-z
-x,-y,-z
x,-y,z
loop_
_atom_site_type_symbol
_atom_site_label
_atom_site_fract_x
_atom_site_fract_y
_atom_site_fract_z
Si Si1 0.247645 0.718794 0.217478
Si Si2 0.761356 0.277824 0.967839
Si Si3 0.711316 0.279333 0.180571
Si Si4 0.948255 0.279725 0.369059
Si Si5 0.253141 0.292240 0.400692
Si Si6 0.055644 0.721237 0.821218
Si Si7 0.475282 0.208725 0.417048
O O1 0.267574 0.500000 0.202728
O O2 0.287754 0.785524 0.102140
O O3 0.298154 0.784650 0.285730
O O4 0.097185 0.758612 0.299254
O O5 0.759230 0.500000 0.967719
O O6 0.909512 0.224691 0.903447
O O7 0.694237 0.220173 0.089444
O O8 0.709201 0.500000 0.182306
O O9 0.846651 0.221114 0.153270
O O10 0.602320 0.216250 0.298361
O O11 0.937710 0.500000 0.375339
O O12 0.866191 0.209202 0.489680
O O13 0.900944 0.221552 0.296910
O O14 0.214486 0.500000 0.399331
O O15 0.365531 0.296302 0.414284
O O16 0.054829 0.500000 0.822864
O O17 0.500000 0.288535 0.500000
O O18 0.435093 0.000000 0.449430
#
# Coordination Sequence:
#
# PCOD9143090 Si02
#       7
#     4   4   4   4   4   4   4
#     4   8  14  25  44  75 110 133 151 187 241 290
#     4   8  14  25  44  75 110 133 151 187 241 290
#     4  10  18  30  52  77  98 126 166 204 233 273
#     4   8  13  22  41  73 107 130 151 189 240 286
#     4  10  18  30  52  77  98 126 166 204 233 273
#     4   8  13  22  41  73 107 130 151 189 240 286
#     4  11  25  41  52  65  92 128 161 199 250 297
#
# _framework density 23.434958000000002
#
# number of rings (size 3 to 8) (size 9 to 14) (size 15 to 20)
#    0.000    3.000    0.000    3.857    0.000    5.714 
#    0.000    0.714    0.000    8.571    0.000    4.000 
#    0.000    0.000    0.000    0.000    0.000    0.000 
#
# Total GULP energy -156257.600633 kJ/mol
# GULP energy per Si atom -5580.628594 kJ/mol
# Density = 2.338162 g / cm^3
# Si number density = 23.434958 Si / 1000 Ang^3
#
#
#
# Elastic Constant Matrix: (Units=GPa)
#
#
# Indices 1 2 3 4 5 6 
#
# 1 52.9788 -2.3353 43.0190 0.0000 42.3282 0.0000
# 2 -2.3353 85.0569 -2.0325 0.0000 6.1062 0.0000
# 3 43.0190 -2.0325 160.9379 0.0000 51.1807 0.0000
# 4 0.0000 0.0000 0.0000 -4.1102 0.0000 -35.6170
# 5 42.3282 6.1062 51.1807 0.0000 43.9521 0.0000
# 6 0.0000 0.0000 0.0000 -35.6170 0.0000 -10.9356
#
#
#
# Elastic Compliance Matrix: (Units=1/GPa)
#
#
# Indices 1 2 3 4 5 6 
#
# 1 0.091729 0.009661 0.006548 0.000000 -0.097306 0.000000
# 2 0.009661 0.013010 0.001772 0.000000 -0.013174 0.000000
# 3 0.006548 0.001772 0.010433 0.000000 -0.018700 0.000000
# 4 0.000000 0.000000 0.000000 0.008937 0.000000 -0.029108
# 5 -0.097306 -0.013174 -0.018700 0.000000 0.140069 0.000000
# 6 0.000000 0.000000 0.000000 -0.029108 0.000000 0.003359
#
#
# Mechanical properties :
#
#
# Convention : Reuss Voigt Hill
#
# Bulk Modulus (GPa) = 6.61677 41.80843 24.21260
# Shear Modulus (GPa) = 17.73334 23.13609 20.43471
#
# Velocity S-wave (km/s) = 2.75381 3.14546 2.95613
# Velocity P-wave (km/s) = 3.59734 5.57412 4.69104
#
# Compressibility (1/GPa) = 0.15113123
#
# Stress axis : x y z
#
# Youngs Moduli (GPa) = 10.90170 76.86298 95.85161
#
# Poissons Ratio (x) = -0.74254 -0.62760
# Poissons Ratio (y) = -0.10532 -0.16981
# Poissons Ratio (z) = -0.07138 -0.13617
#
# Static dielectric constant tensor:
#      x y z
#    x 1.858430 0.000000 0.048580 
#    y 0.000000 1.934490 0.000000 
#    z 0.048580 0.000000 1.893120 
# 
# From -- ./inp_files/66417.got.cif
#   From: 2010.05.17/outbox.cif.g08.bks.cpg/sg10_34_cif.got.tgz:66417.got - 2010.06.03 11:33:40.
