data_PCOD9143171
_publ_section_title
;
Structure prediction by ZEFSAII (Michael W. Deem and Ramdas Pophale) SiO2 
 PCOD9143171
Probable space group: P 2/M
;
_chemical_formula_sum "Si O2"
_cell_formula_units_Z 32
_cell_length_a 21.956943
_cell_length_b 8.979712
_cell_length_c 31.706452
_cell_angle_alpha 90.000000
_cell_angle_beta 160.779049
_cell_angle_gamma 90.000000
_cell_volume 2058.057570
_symmetry_space_group_name_H-M "P 2/M"
_symmetry_group_IT_number 10
_symmetry_cell_setting 'monoclinic'
loop_
_space_group_symop_operation_xyz
x,y,z
-x,y,-z
-x,-y,-z
x,-y,z
loop_
_atom_site_type_symbol
_atom_site_label
_atom_site_fract_x
_atom_site_fract_y
_atom_site_fract_z
Si Si1 0.428770 0.179315 0.111055
Si Si2 0.813697 0.821833 0.968196
Si Si3 0.788185 0.680666 0.203880
Si Si4 0.818253 0.821212 0.408680
Si Si5 0.869200 0.671602 0.872789
Si Si6 0.178772 0.320870 0.496948
Si Si7 0.556787 0.822728 0.718814
Si Si8 0.426735 0.679917 0.019044
O O1 0.632114 0.219926 0.261733
O O2 0.395314 0.251084 0.043983
O O3 0.424183 0.000000 0.104542
O O4 0.278801 0.223568 0.048312
O O5 0.004671 0.742695 0.081047
O O6 0.841757 0.000000 0.986577
O O7 0.666120 0.790541 0.834223
O O8 0.787818 0.500000 0.203564
O O9 0.627760 0.725166 0.131924
O O10 0.990019 0.729064 0.350483
O O11 0.721040 0.726177 0.113409
O O12 0.823658 0.739621 0.456912
O O13 0.000000 0.787851 0.500000
O O14 0.812009 0.000000 0.412005
O O15 0.825202 0.500000 0.835288
O O16 0.687177 0.761949 0.766839
O O17 0.000000 0.676529 0.000000
O O18 0.185556 0.500000 0.501691
O O19 0.359924 0.256357 0.592847
O O20 0.535619 0.000000 0.701989
O O21 0.424140 0.500000 0.020154
#
# Coordination Sequence:
#
# PCOD9143171 Si02
#       8
#     4   4   4   4   4   4   4   4
#     4  10  19  31  45  68  98 125 156 196 236 275
#     4   9  17  30  45  62  93 131 158 184 229 284
#     4   8  17  33  50  68  92 121 157 204 249 283
#     4  10  20  33  46  63  94 132 161 188 232 288
#     4   9  17  28  44  68  94 119 156 198 230 265
#     4  11  20  30  47  70  96 123 158 201 239 275
#     4  10  18  31  47  65  94 131 161 184 229 287
#     4   9  17  33  53  68  87 122 164 201 242 287
#
# _framework density 15.548641999999999
#
# number of rings (size 3 to 8) (size 9 to 14) (size 15 to 20)
#    0.000    2.500    1.250    2.625    0.000    3.250 
#    0.000    3.125    0.000    0.000    0.000    0.875 
#    0.000    7.000    0.000    0.000    0.000    0.000 
#
# Total GULP energy -178419.839213 kJ/mol
# GULP energy per Si atom -5575.619975 kJ/mol
# Density = 1.551325 g / cm^3
# Si number density = 15.548642 Si / 1000 Ang^3
#
#
#
# Elastic Constant Matrix: (Units=GPa)
#
#
# Indices 1 2 3 4 5 6 
#
# 1 139.6630 42.4261 69.0092 0.0000 11.5712 0.0000
# 2 42.4261 31.0557 32.0153 0.0000 6.2434 0.0000
# 3 69.0092 32.0153 78.9670 0.0000 7.3583 0.0000
# 4 0.0000 0.0000 0.0000 15.9349 0.0000 4.4918
# 5 11.5712 6.2434 7.3583 0.0000 20.9302 0.0000
# 6 0.0000 0.0000 0.0000 4.4918 0.0000 29.6553
#
#
#
# Elastic Compliance Matrix: (Units=1/GPa)
#
#
# Indices 1 2 3 4 5 6 
#
# 1 0.014819 -0.011500 -0.008110 0.000000 -0.001911 0.000000
# 2 -0.011500 0.065901 -0.015951 0.000000 -0.007693 0.000000
# 3 -0.008110 -0.015951 0.026215 0.000000 0.000025 0.000000
# 4 0.000000 0.000000 0.000000 0.065554 0.000000 -0.009929
# 5 -0.001911 -0.007693 0.000025 0.000000 0.051120 0.000000
# 6 0.000000 0.000000 0.000000 -0.009929 0.000000 0.035225
#
#
# Mechanical properties :
#
#
# Convention : Reuss Voigt Hill
#
# Bulk Modulus (GPa) = 27.92262 59.62076 43.77169
# Shear Modulus (GPa) = 14.62436 20.38644 17.50540
#
# Velocity S-wave (km/s) = 3.07017 3.62489 3.35901
# Velocity P-wave (km/s) = 5.52858 7.47982 6.57696
#
# Compressibility (1/GPa) = 0.03581326
#
# Stress axis : x y z
#
# Youngs Moduli (GPa) = 67.48082 15.17417 38.14542
#
# Poissons Ratio (x) = 0.17450 0.30935
# Poissons Ratio (y) = 0.77603 0.60848
# Poissons Ratio (z) = 0.54726 0.24205
#
# Static dielectric constant tensor:
#      x y z
#    x 1.501740 0.000000 0.010180 
#    y 0.000000 1.521710 0.000000 
#    z 0.010180 0.000000 1.507310 
# 
# From -- ./inp_files/75985.got.cif
#   From: 2010.05.17/outbox.cif.g08.bks.cpg/sg10_38_cif.got.tgz:75985.got - 2010.06.03 11:33:40.
