data_PCOD9143485
_publ_section_title
;
Structure prediction by ZEFSAII (Michael W. Deem and Ramdas Pophale) SiO2 
 PCOD9143485
Probable space group: P 2/M
;
_chemical_formula_sum "Si O2"
_cell_formula_units_Z 20
_cell_length_a 10.546558
_cell_length_b 14.032911
_cell_length_c 15.313941
_cell_angle_alpha 90.000000
_cell_angle_beta 155.970817
_cell_angle_gamma 90.000000
_cell_volume 922.901339
_symmetry_space_group_name_H-M "P 2/M"
_symmetry_group_IT_number 10
_symmetry_cell_setting 'monoclinic'
loop_
_space_group_symop_operation_xyz
x,y,z
-x,y,-z
-x,-y,-z
x,-y,z
loop_
_atom_site_type_symbol
_atom_site_label
_atom_site_fract_x
_atom_site_fract_y
_atom_site_fract_z
Si Si1 0.207899 0.603684 0.718429
Si Si2 0.079459 0.392501 0.895656
Si Si3 0.154775 0.262606 0.389885
Si Si4 0.283924 0.213556 0.130466
Si Si5 0.704739 0.112143 0.040099
O O1 0.135399 0.500000 0.715024
O O2 0.000000 0.606162 0.500000
O O3 0.102862 0.693740 0.707003
O O4 0.574077 0.604937 0.929963
O O5 0.003490 0.500000 0.875517
O O6 0.833093 0.346779 0.673833
O O7 0.137546 0.312791 0.004521
O O8 0.451861 0.237786 0.633628
O O9 0.021089 0.169506 0.258971
O O10 0.411007 0.159613 0.123805
O O11 0.000000 0.159766 0.000000
O O12 0.746751 0.000000 0.053064
O O13 0.500000 0.123172 0.000000
#
# Coordination Sequence:
#
# PCOD9143485 Si02
#       5
#     4   4   4   4   4
#     4  10  18  31  57  91 124 160 202 249 303 362
#     4  10  21  36  57  91 129 164 208 258 307 364
#     4  11  21  37  63  88 124 167 206 256 307 367
#     4  11  25  43  62  89 126 170 213 252 305 370
#     4  10  24  44  67  97 125 151 198 262 323 377
#
# _framework density 21.670787000000001
#
# number of rings (size 3 to 8) (size 9 to 14) (size 15 to 20)
#    0.000    1.600    2.000    3.600    0.000    7.200 
#    0.000    4.000    0.000    0.000    0.000    0.000 
#    0.000    0.000    0.000    0.000    0.000    0.000 
#
# Total GULP energy -111649.882973 kJ/mol
# GULP energy per Si atom -5582.494149 kJ/mol
# Density = 2.162146 g / cm^3
# Si number density = 21.670787 Si / 1000 Ang^3
#
#
#
# Elastic Constant Matrix: (Units=GPa)
#
#
# Indices 1 2 3 4 5 6 
#
# 1 1277.2498 268.2467 -746.2125 0.0000 -189.5798 0.0000
# 2 268.2467 180.7690 -121.0418 0.0000 -50.3812 0.0000
# 3 -746.2125 -121.0418 632.4876 0.0000 84.1546 0.0000
# 4 0.0000 0.0000 0.0000 7.4298 0.0000 -4.8710
# 5 -189.5798 -50.3812 84.1546 0.0000 69.3841 0.0000
# 6 0.0000 0.0000 0.0000 -4.8710 0.0000 4.5853
#
#
#
# Elastic Compliance Matrix: (Units=1/GPa)
#
#
# Indices 1 2 3 4 5 6 
#
# 1 0.004571 -0.002404 0.004178 0.000000 0.005678 0.000000
# 2 -0.002404 0.008541 -0.001374 0.000000 0.001301 0.000000
# 3 0.004178 -0.001374 0.005796 0.000000 0.003387 0.000000
# 4 0.000000 0.000000 0.000000 0.443385 0.000000 0.471009
# 5 0.005678 0.001301 0.003387 0.000000 0.026763 0.000000
# 6 0.000000 0.000000 0.000000 0.471009 0.000000 0.718444
#
#
# Mechanical properties :
#
#
# Convention : Reuss Voigt Hill
#
# Bulk Modulus (GPa) = 50.73960 99.16570 74.95265
# Shear Modulus (GPa) = 4.12109 195.58078 99.85094
#
# Velocity S-wave (km/s) = 1.38051 9.51035 6.79532
# Velocity P-wave (km/s) = 5.09958 12.90175 9.80971
#
# Compressibility (1/GPa) = 0.01970847
#
# Stress axis : x y z
#
# Youngs Moduli (GPa) = 218.75796 117.08126 172.52120
#
# Poissons Ratio (x) = 0.28141 -0.72076
# Poissons Ratio (y) = 0.52580 0.23710
# Poissons Ratio (z) = -0.91392 0.16091
#
# Static dielectric constant tensor:
#      x y z
#    x 1.882170 0.000000 0.004300 
#    y 0.000000 1.781010 0.000000 
#    z 0.004300 0.000000 1.759470 
# 
# From -- ./inp_files/76945.got.cif
#   From: 2010.05.17/outbox.cif.g08.bks.cpg/sg10_39_cif.got.tgz:76945.got - 2010.06.03 11:33:40.
