data_PCOD9143576
_publ_section_title
;
Structure prediction by ZEFSAII (Michael W. Deem and Ramdas Pophale) SiO2 
 PCOD9143576
Probable space group: P 2/M
;
_chemical_formula_sum "Si O2"
_cell_formula_units_Z 28
_cell_length_a 5.300300
_cell_length_b 12.726825
_cell_length_c 21.121717
_cell_angle_alpha 90.000000
_cell_angle_beta 101.648803
_cell_angle_gamma 90.000000
_cell_volume 1395.440904
_symmetry_space_group_name_H-M "P 2/M"
_symmetry_group_IT_number 10
_symmetry_cell_setting 'monoclinic'
loop_
_space_group_symop_operation_xyz
x,y,z
-x,y,-z
-x,-y,-z
x,-y,z
loop_
_atom_site_type_symbol
_atom_site_label
_atom_site_fract_x
_atom_site_fract_y
_atom_site_fract_z
Si Si1 0.535092 0.729045 0.221120
Si Si2 0.010394 0.881507 0.708698
Si Si3 0.441999 0.500000 0.762786
Si Si4 0.884152 0.500000 0.677870
Si Si5 0.336508 0.715083 0.350992
Si Si6 0.164531 0.884242 0.157723
Si Si7 0.775043 0.873129 0.036560
Si Si8 0.278563 0.622729 0.542319
O O1 0.583908 0.610133 0.201460
O O2 0.372050 0.711197 0.277187
O O3 0.379933 0.796451 0.162097
O O4 0.766470 0.800088 0.259948
O O5 0.825898 0.821699 0.649355
O O6 0.867873 0.895348 0.768873
O O7 0.094372 0.000000 0.693862
O O8 0.698733 0.500000 0.731331
O O9 0.184671 0.500000 0.707290
O O10 0.814720 0.608053 0.638949
O O11 0.611415 0.700105 0.398212
O O12 0.897324 0.851629 0.111598
O O13 0.241140 0.000000 0.135867
O O14 0.756998 0.000000 0.032947
O O15 0.500000 0.831356 0.000000
O O16 0.000000 0.840215 0.000000
O O17 0.500000 0.628199 0.500000
O O18 0.266463 0.500000 0.563097
O O19 0.000000 0.650319 0.500000
#
# Coordination Sequence:
#
# PCOD9143576 Si02
#       8
#     4   4   2   2   4   4   4   4
#     4  10  20  32  53  79 107 146 178 222 276 324
#     4  10  20  33  53  79 109 146 185 220 269 324
#     4  10  20  32  50  77 108 136 177 212 267 322
#     4  10  18  32  52  79 104 137 167 211 267 322
#     4  10  20  35  54  78 110 142 174 222 273 329
#     4   9  19  33  50  78 114 144 178 226 271 322
#     4   9  18  31  49  75 106 143 180 217 266 320
#     4  10  22  36  56  85 112 138 174 220 274 331
#
# _framework density 20.065342000000001
#
# number of rings (size 3 to 8) (size 9 to 14) (size 15 to 20)
#    0.000    2.286    2.143    0.429    4.000    0.571 
#    0.000    0.000    0.000    0.857    0.000    1.000 
#    0.000    0.000    0.000    0.000    0.000    0.000 
#
# Total GULP energy -155940.254109 kJ/mol
# GULP energy per Si atom -5569.294790 kJ/mol
# Density = 2.001967 g / cm^3
# Si number density = 20.065342 Si / 1000 Ang^3
#
#
#
# Elastic Constant Matrix: (Units=GPa)
#
#
# Indices 1 2 3 4 5 6 
#
# 1 84.4478 36.2215 34.7175 0.0000 32.6366 0.0000
# 2 36.2215 154.3538 33.5529 0.0000 30.9171 0.0000
# 3 34.7175 33.5529 76.5134 0.0000 37.1028 0.0000
# 4 0.0000 0.0000 0.0000 24.1646 0.0000 11.4010
# 5 32.6366 30.9171 37.1028 0.0000 38.9633 0.0000
# 6 0.0000 0.0000 0.0000 11.4010 0.0000 20.8368
#
#
#
# Elastic Compliance Matrix: (Units=1/GPa)
#
#
# Indices 1 2 3 4 5 6 
#
# 1 0.017850 -0.001374 -0.001440 0.000000 -0.012490 0.000000
# 2 -0.001374 0.007833 -0.000661 0.000000 -0.004435 0.000000
# 3 -0.001440 -0.000661 0.024476 0.000000 -0.021576 0.000000
# 4 0.000000 0.000000 0.000000 0.055783 0.000000 -0.030522
# 5 -0.012490 -0.004435 -0.021576 0.000000 0.060193 0.000000
# 6 0.000000 0.000000 0.000000 -0.030522 0.000000 0.064692
#
#
# Mechanical properties :
#
#
# Convention : Reuss Voigt Hill
#
# Bulk Modulus (GPa) = 23.14338 58.25542 40.69940
# Shear Modulus (GPa) = 19.82713 30.84782 25.33748
#
# Velocity S-wave (km/s) = 3.14686 3.92518 3.55737
# Velocity P-wave (km/s) = 4.97621 7.04547 6.09923
#
# Compressibility (1/GPa) = 0.04320891
#
# Stress axis : x y z
#
# Youngs Moduli (GPa) = 56.02222 127.66342 40.85712
#
# Poissons Ratio (x) = 0.17541 0.05884
# Poissons Ratio (y) = 0.07697 0.02699
# Poissons Ratio (z) = 0.08068 0.08435
#
# Static dielectric constant tensor:
#      x y z
#    x 1.840730 0.000000 -0.024260 
#    y 0.000000 1.817690 0.000000 
#    z -0.024260 0.000000 1.750290 
# 
# From -- ./inp_files/12421.got.cif
#   From: 2010.05.17/outbox.cif.g08.bks.cpg/sg10_7_cif.got.tgz:12421.got - 2010.06.03 11:33:40.
