data_PCOD9143810
_publ_section_title
;
Structure prediction by ZEFSAII (Michael W. Deem and Ramdas Pophale) SiO2 
 PCOD9143810
Probable space group: P 2/M
;
_chemical_formula_sum "Si O2"
_cell_formula_units_Z 24
_cell_length_a 11.653868
_cell_length_b 13.839403
_cell_length_c 12.975738
_cell_angle_alpha 90.000000
_cell_angle_beta 34.113851
_cell_angle_gamma 90.000000
_cell_volume 1173.702007
_symmetry_space_group_name_H-M "P 2/M"
_symmetry_group_IT_number 10
_symmetry_cell_setting 'monoclinic'
loop_
_space_group_symop_operation_xyz
x,y,z
-x,y,-z
-x,-y,-z
x,-y,z
loop_
_atom_site_type_symbol
_atom_site_label
_atom_site_fract_x
_atom_site_fract_y
_atom_site_fract_z
Si Si1 0.639975 0.688546 0.990499
Si Si2 0.470938 0.394558 0.321031
Si Si3 0.088502 0.111810 0.829551
Si Si4 0.394963 0.806710 0.444190
Si Si5 0.640356 0.892739 0.084626
Si Si6 0.929315 0.300282 0.435460
O O1 0.602622 0.627362 0.121090
O O2 0.576777 0.799090 0.066457
O O3 0.500000 0.654905 0.000000
O O4 0.873022 0.686496 0.781596
O O5 0.514029 0.500000 0.332117
O O6 0.492614 0.300545 0.377231
O O7 0.235039 0.385800 0.458081
O O8 0.282469 0.159238 0.630679
O O9 0.141192 0.000000 0.811404
O O10 0.886699 0.111359 0.908052
O O11 0.000000 0.158113 0.000000
O O12 0.548450 0.875960 0.268208
O O13 0.205360 0.789810 0.504688
O O14 0.579637 0.000000 0.093945
O O15 0.000000 0.290678 0.500000
#
# Coordination Sequence:
#
# PCOD9143810 Si02
#       6
#     4   4   4   4   4   4
#     4  11  19  34  49  72 105 137 172 210 250 293
#     4   9  20  32  49  74  99 134 173 209 252 299
#     4  10  20  34  55  81 104 130 166 207 255 304
#     4   9  19  34  52  71 107 133 165 209 253 297
#     4  10  19  33  53  74 102 136 169 206 249 299
#     4  10  18  33  50  71 103 140 168 210 250 297
#
# _framework density 20.448119999999999
#
# number of rings (size 3 to 8) (size 9 to 14) (size 15 to 20)
#    1.000    1.167    3.333    0.500    0.000    2.333 
#    0.000    2.500    0.000    3.000    0.000    4.667 
#    0.000    0.000    0.000    0.000    0.000    0.000 
#
# Total GULP energy -133721.410123 kJ/mol
# GULP energy per Si atom -5571.725422 kJ/mol
# Density = 2.040158 g / cm^3
# Si number density = 20.448120 Si / 1000 Ang^3
#
#
#
# Elastic Constant Matrix: (Units=GPa)
#
#
# Indices 1 2 3 4 5 6 
#
# 1 21.3811 -4.6704 5.7330 0.0000 0.1831 0.0000
# 2 -4.6704 86.3122 34.2875 0.0000 9.0556 0.0000
# 3 5.7330 34.2875 181.1568 0.0000 2.9785 0.0000
# 4 0.0000 0.0000 0.0000 2.0388 0.0000 0.8389
# 5 0.1831 9.0556 2.9785 0.0000 33.0421 0.0000
# 6 0.0000 0.0000 0.0000 0.8389 0.0000 12.0411
#
#
#
# Elastic Compliance Matrix: (Units=1/GPa)
#
#
# Indices 1 2 3 4 5 6 
#
# 1 0.048148 0.003584 -0.002185 0.000000 -0.001052 0.000000
# 2 0.003584 0.013147 -0.002546 0.000000 -0.003394 0.000000
# 3 -0.002185 -0.002546 0.006068 0.000000 0.000163 0.000000
# 4 0.000000 0.000000 0.000000 0.504950 0.000000 -0.035178
# 5 -0.001052 -0.003394 0.000163 0.000000 0.031186 0.000000
# 6 0.000000 0.000000 0.000000 -0.035178 0.000000 0.085500
#
#
# Mechanical properties :
#
#
# Convention : Reuss Voigt Hill
#
# Bulk Modulus (GPa) = 15.36824 39.95004 27.65914
# Shear Modulus (GPa) = 7.01280 26.32441 16.66860
#
# Velocity S-wave (km/s) = 1.85391 3.59189 2.85821
# Velocity P-wave (km/s) = 3.48062 6.06481 4.94452
#
# Compressibility (1/GPa) = 0.06506925
#
# Stress axis : x y z
#
# Youngs Moduli (GPa) = 20.76936 76.06191 164.78758
#
# Poissons Ratio (x) = -0.27257 0.36001
# Poissons Ratio (y) = -0.07443 0.41955
# Poissons Ratio (z) = 0.04537 0.19365
#
# Static dielectric constant tensor:
#      x y z
#    x 1.771560 0.000000 0.010330 
#    y 0.000000 1.734370 0.000000 
#    z 0.010330 0.000000 1.727600 
# 
# From -- ./inp_files/67491.got.cif
#   From: 2010.05.17/outbox.cif.g08.bks.cpg/sg10_34_cif.got.tgz:67491.got - 2010.06.03 11:33:40.
