data_PCOD9143118
_publ_section_title
;
Structure prediction by ZEFSAII (Michael W. Deem and Ramdas Pophale) SiO2 
 PCOD9143118
Probable space group: P 2/M
;
_chemical_formula_sum "Si O2"
_cell_formula_units_Z 32
_cell_length_a 14.724355
_cell_length_b 8.432801
_cell_length_c 20.287570
_cell_angle_alpha 90.000000
_cell_angle_beta 46.476381
_cell_angle_gamma 90.000000
_cell_volume 1826.545131
_symmetry_space_group_name_H-M "P 2/M"
_symmetry_group_IT_number 10
_symmetry_cell_setting 'monoclinic'
loop_
_space_group_symop_operation_xyz
x,y,z
-x,y,-z
-x,-y,-z
x,-y,z
loop_
_atom_site_type_symbol
_atom_site_label
_atom_site_fract_x
_atom_site_fract_y
_atom_site_fract_z
Si Si1 0.264327 0.809407 0.043505
Si Si2 0.967559 0.190522 0.197762
Si Si3 0.123933 0.693236 0.478117
Si Si4 0.981965 0.688941 0.331554
Si Si5 0.734574 0.811092 0.809843
Si Si6 0.364199 0.690836 0.277360
Si Si7 0.121411 0.191224 0.898125
Si Si8 0.641042 0.311388 0.140964
O O1 0.304976 0.759046 0.096687
O O2 0.115383 0.775161 0.112654
O O3 0.278856 0.000000 0.031376
O O4 0.333318 0.730873 0.948092
O O5 0.930332 0.266990 0.285597
O O6 0.893223 0.244346 0.170230
O O7 0.957235 0.000000 0.209202
O O8 0.126410 0.500000 0.474325
O O9 0.104153 0.738447 0.564022
O O10 0.249704 0.750770 0.379658
O O11 0.000000 0.743383 0.500000
O O12 0.001289 0.500000 0.326141
O O13 0.118162 0.769474 0.270084
O O14 0.663465 0.734644 0.784449
O O15 0.719625 0.000000 0.814280
O O16 0.364469 0.500000 0.281908
O O17 0.502078 0.748271 0.228214
O O18 0.247958 0.240716 0.870731
O O19 0.115659 0.000000 0.900526
O O20 0.000000 0.247662 0.000000
O O21 0.644148 0.500000 0.147024
#
# Coordination Sequence:
#
# PCOD9143118 Si02
#       8
#     4   4   4   4   4   4   4   4
#     4   9  18  34  51  69 102 142 175 201 244 312
#     4   9  18  33  53  77 103 133 168 210 254 299
#     4   9  16  31  55  76  98 137 176 205 250 312
#     4  10  18  30  53  80 104 133 168 211 259 304
#     4  10  20  33  50  74 103 138 176 211 248 298
#     4  10  21  37  52  72 105 139 173 212 259 307
#     4  10  19  36  58  75  99 139 176 205 250 312
#     4  11  23  34  50  78 107 133 168 221 263 293
#
# _framework density 17.519414000000001
#
# number of rings (size 3 to 8) (size 9 to 14) (size 15 to 20)
#    0.000    2.250    2.500    1.875    0.000    4.750 
#    0.000    4.375    0.000    0.750    0.000    5.250 
#    0.000    0.000    0.000    0.000    0.000    0.000 
#
# Total GULP energy -178515.183109 kJ/mol
# GULP energy per Si atom -5578.599472 kJ/mol
# Density = 1.747954 g / cm^3
# Si number density = 17.519414 Si / 1000 Ang^3
#
#
#
# Elastic Constant Matrix: (Units=GPa)
#
#
# Indices 1 2 3 4 5 6 
#
# 1 115.0134 3.5867 72.5861 0.0000 2.1864 0.0000
# 2 3.5867 -1.3499 14.5315 0.0000 0.1524 0.0000
# 3 72.5861 14.5315 99.1768 0.0000 4.3178 0.0000
# 4 0.0000 0.0000 0.0000 66.5858 0.0000 -10.2177
# 5 2.1864 0.1524 4.3178 0.0000 24.7702 0.0000
# 6 0.0000 0.0000 0.0000 -10.2177 0.0000 31.4169
#
#
#
# Elastic Compliance Matrix: (Units=1/GPa)
#
#
# Indices 1 2 3 4 5 6 
#
# 1 0.013129 -0.026599 -0.005711 0.000000 0.000000 0.000000
# 2 -0.026599 -0.232771 0.053817 0.000000 -0.005601 0.000000
# 3 -0.005711 0.053817 0.006419 0.000000 -0.000946 0.000000
# 4 0.000000 0.000000 0.000000 0.015807 0.000000 0.005141
# 5 0.000000 -0.005601 -0.000946 0.000000 0.040570 0.000000
# 6 0.000000 0.000000 0.000000 0.005141 0.000000 0.033502
#
#
# Mechanical properties :
#
#
# Convention : Reuss Voigt Hill
#
# Bulk Modulus (GPa) = -5.87509 43.80542 18.96516
# Shear Modulus (GPa) = -22.41208 32.69698 5.14245
#
# Velocity S-wave (km/s) = -3.58057 4.32479 1.71513
# Velocity P-wave (km/s) = 4.52269 7.07083 3.84330
#
# Compressibility (1/GPa) = -0.17021005
#
# Stress axis : x y z
#
# Youngs Moduli (GPa) = 76.16967 -4.29607 155.79062
#
# Poissons Ratio (x) = -0.11427 0.88977
# Poissons Ratio (y) = 2.02605 -8.38422
# Poissons Ratio (z) = 0.43503 0.23120
#
# Static dielectric constant tensor:
#      x y z
#    x 1.592870 0.000000 0.006770 
#    y 0.000000 1.602830 0.000000 
#    z 0.006770 0.000000 1.603040 
# 
# From -- ./inp_files/84698.got.cif
#   From: 2010.05.17/outbox.cif.g08.bks.cpg/sg10_43_cif.got.tgz:84698.got - 2010.06.03 11:33:40.
