data_PCOD9143515
_publ_section_title
;
Structure prediction by ZEFSAII (Michael W. Deem and Ramdas Pophale) SiO2 
 PCOD9143515
Probable space group: P 2/M
;
_chemical_formula_sum "Si O2"
_cell_formula_units_Z 28
_cell_length_a 6.904199
_cell_length_b 34.323885
_cell_length_c 7.876200
_cell_angle_alpha 90.000000
_cell_angle_beta 137.799214
_cell_angle_gamma 90.000000
_cell_volume 1253.781061
_symmetry_space_group_name_H-M "P 2/M"
_symmetry_group_IT_number 10
_symmetry_cell_setting 'monoclinic'
loop_
_space_group_symop_operation_xyz
x,y,z
-x,y,-z
-x,-y,-z
x,-y,z
loop_
_atom_site_type_symbol
_atom_site_label
_atom_site_fract_x
_atom_site_fract_y
_atom_site_fract_z
Si Si1 0.652009 0.294388 0.423166
Si Si2 0.348190 0.789529 0.716635
Si Si3 0.350417 0.874025 0.716206
Si Si4 0.350573 0.957990 0.715816
Si Si5 0.905179 0.578870 0.193179
Si Si6 0.160517 0.332068 0.919227
Si Si7 0.421269 0.453873 0.686701
O O1 0.500000 0.305296 0.500000
O O2 0.581191 0.249516 0.338306
O O3 0.986186 0.302581 0.682714
O O4 0.486525 0.319889 0.175400
O O5 0.433879 0.831834 0.695314
O O6 0.000000 0.789703 0.500000
O O7 0.500000 0.786856 0.000000
O O8 0.432054 0.915983 0.689238
O O9 0.000000 0.874036 0.500000
O O10 0.500000 0.874022 0.000000
O O11 0.000000 0.958002 0.500000
O O12 0.432236 0.000000 0.689504
O O13 0.500000 0.957972 0.000000
O O14 0.868561 0.625035 0.176059
O O15 0.749456 0.557861 0.251274
O O16 0.232773 0.566424 0.421650
O O17 0.733050 0.563289 0.921440
O O18 0.000000 0.332424 0.000000
O O19 0.425347 0.500000 0.668132
#
# Coordination Sequence:
#
# PCOD9143515 Si02
#       7
#     4   4   4   4   4   4   4
#     4  10  21  38  53  69  96 135 165 195 241 294
#     4  10  19  33  48  73  96 124 159 205 250 281
#     4   8  14  23  37  54  84 114 144 186 238 281
#     4   8  12  18  29  48  73 108 145 177 218 278
#     4  10  18  32  50  74  94 122 155 183 225 268
#     4  10  21  37  54  70  96 129 161 194 232 274
#     4  10  19  33  53  74 101 128 148 184 230 268
#
# _framework density 22.332449
#
# number of rings (size 3 to 8) (size 9 to 14) (size 15 to 20)
#    0.000    2.571    0.000    3.857    0.000    0.000 
#   15.429    0.000    0.000    4.714    0.000    0.000 
#    0.000    0.571    0.000    0.000    0.000  145.143 
#
# Total GULP energy -156133.419857 kJ/mol
# GULP energy per Si atom -5576.193566 kJ/mol
# Density = 2.228162 g / cm^3
# Si number density = 22.332449 Si / 1000 Ang^3
#
#
#
# Elastic Constant Matrix: (Units=GPa)
#
#
# Indices 1 2 3 4 5 6 
#
# 1 39.5485 -18.8316 32.8809 0.0000 7.6042 0.0000
# 2 -18.8316 198.2979 54.9230 0.0000 0.3680 0.0000
# 3 32.8809 54.9230 198.5868 0.0000 25.4639 0.0000
# 4 0.0000 0.0000 0.0000 36.4054 0.0000 9.7627
# 5 7.6042 0.3680 25.4639 0.0000 32.8001 0.0000
# 6 0.0000 0.0000 0.0000 9.7627 0.0000 2.2477
#
#
#
# Elastic Compliance Matrix: (Units=1/GPa)
#
#
# Indices 1 2 3 4 5 6 
#
# 1 0.033723 0.005044 -0.006629 0.000000 -0.002729 0.000000
# 2 0.005044 0.006261 -0.002674 0.000000 0.000836 0.000000
# 3 -0.006629 -0.002674 0.007409 0.000000 -0.004185 0.000000
# 4 0.000000 0.000000 0.000000 -0.166716 0.000000 0.724116
# 5 -0.002729 0.000836 -0.004185 0.000000 0.034360 0.000000
# 6 0.000000 0.000000 0.000000 0.724116 0.000000 -2.700238
#
#
# Mechanical properties :
#
#
# Convention : Reuss Voigt Hill
#
# Bulk Modulus (GPa) = 25.72356 63.81976 44.77166
# Shear Modulus (GPa) = -1.80915 38.78804 18.48944
#
# Velocity S-wave (km/s) = -0.90103 4.17207 2.88048
# Velocity P-wave (km/s) = 3.23435 7.20051 5.58159
#
# Compressibility (1/GPa) = 0.03887487
#
# Stress axis : x y z
#
# Youngs Moduli (GPa) = 29.65368 159.72086 134.96559
#
# Poissons Ratio (x) = -0.80555 0.89463
# Poissons Ratio (y) = -0.14956 0.36088
# Poissons Ratio (z) = 0.19656 0.42708
#
# Static dielectric constant tensor:
#      x y z
#    x 1.825360 0.000000 0.003870 
#    y 0.000000 1.837420 0.000000 
#    z 0.003870 0.000000 1.834090 
# 
# From -- ./inp_files/20902.got.cif
#   From: 2010.05.17/outbox.cif.g08.bks.cpg/sg10_11_cif.got.tgz:20902.got - 2010.06.03 11:33:40.
