data_PCOD9143931
_publ_section_title
;
Structure prediction by ZEFSAII (Michael W. Deem and Ramdas Pophale) SiO2 
 PCOD9143931
Probable space group: P 2/M
;
_chemical_formula_sum "Si O2"
_cell_formula_units_Z 32
_cell_length_a 13.757372
_cell_length_b 14.872967
_cell_length_c 12.239800
_cell_angle_alpha 90.000000
_cell_angle_beta 144.384808
_cell_angle_gamma 90.000000
_cell_volume 1458.421146
_symmetry_space_group_name_H-M "P 2/M"
_symmetry_group_IT_number 10
_symmetry_cell_setting 'monoclinic'
loop_
_space_group_symop_operation_xyz
x,y,z
-x,y,-z
-x,-y,-z
x,-y,z
loop_
_atom_site_type_symbol
_atom_site_label
_atom_site_fract_x
_atom_site_fract_y
_atom_site_fract_z
Si Si1 0.858540 0.781775 0.962410
Si Si2 0.297113 0.600828 0.535053
Si Si3 0.388259 0.200021 0.641681
Si Si4 0.311823 0.097636 0.358847
Si Si5 0.046504 0.403259 0.913840
Si Si6 0.298343 0.209813 0.800630
Si Si7 0.700961 0.595504 0.202520
Si Si8 0.259307 0.893986 0.969676
O O1 0.723924 0.826689 0.763026
O O2 0.881690 0.851461 0.081799
O O3 0.836609 0.683014 0.991233
O O4 0.000000 0.775908 0.000000
O O5 0.365745 0.500000 0.567632
O O6 0.397199 0.694872 0.612229
O O7 0.269512 0.596543 0.640356
O O8 0.123718 0.610494 0.310275
O O9 0.304364 0.140362 0.471531
O O10 0.280030 0.197689 0.654511
O O11 0.569104 0.157216 0.836611
O O12 0.500000 0.080705 0.500000
O O13 0.222158 0.000000 0.267189
O O14 0.119931 0.500000 0.949906
O O15 0.000000 0.408038 0.000000
O O16 0.234765 0.308477 0.780015
O O17 0.500000 0.210832 0.000000
O O18 0.230643 0.133672 0.818206
O O19 0.766906 0.500000 0.218704
O O20 0.500000 0.595421 0.000000
O O21 0.277699 0.000000 0.001285
#
# Coordination Sequence:
#
# PCOD9143931 Si02
#       8
#     4   4   4   4   4   4   4   4
#     4  11  23  40  61  84 113 159 204 247 297 354
#     4   9  17  31  56  88 120 157 196 238 297 363
#     4  10  18  33  57  85 118 152 191 241 303 365
#     4  11  22  37  58  84 116 152 197 259 310 347
#     4   9  18  35  59  84 113 156 203 243 292 356
#     4   8  17  30  49  80 113 150 187 228 291 361
#     4   8  13  25  48  81 119 151 184 232 291 357
#     4  11  22  36  54  80 117 156 200 252 298 349
#
# _framework density 21.941535999999999
#
# number of rings (size 3 to 8) (size 9 to 14) (size 15 to 20)
#    0.000    2.375    1.250    3.000    0.000    3.750 
#    0.000    1.250    0.000    7.500    0.000   16.625 
#    0.000    0.000    0.000    0.000    0.000    0.000 
#
# Total GULP energy -178144.825784 kJ/mol
# GULP energy per Si atom -5567.025806 kJ/mol
# Density = 2.189160 g / cm^3
# Si number density = 21.941536 Si / 1000 Ang^3
#
#
#
# Elastic Constant Matrix: (Units=GPa)
#
#
# Indices 1 2 3 4 5 6 
#
# 1 50.0388 43.7070 20.0669 0.0000 -26.2313 0.0000
# 2 43.7070 229.7095 40.2417 0.0000 -5.5859 0.0000
# 3 20.0669 40.2417 86.2083 0.0000 -28.2117 0.0000
# 4 0.0000 0.0000 0.0000 34.1666 0.0000 -10.0894
# 5 -26.2313 -5.5859 -28.2117 0.0000 28.9341 0.0000
# 6 0.0000 0.0000 0.0000 -10.0894 0.0000 48.2882
#
#
#
# Elastic Compliance Matrix: (Units=1/GPa)
#
#
# Indices 1 2 3 4 5 6 
#
# 1 0.057813 -0.011648 0.012331 0.000000 0.062186 0.000000
# 2 -0.011648 0.007154 -0.005334 0.000000 -0.014380 0.000000
# 3 0.012331 -0.005334 0.021355 0.000000 0.030970 0.000000
# 4 0.000000 0.000000 0.000000 0.031193 0.000000 0.006518
# 5 0.062186 -0.014380 0.030970 0.000000 0.118360 0.000000
# 6 0.000000 0.000000 0.000000 0.006518 0.000000 0.022071
#
#
# Mechanical properties :
#
#
# Convention : Reuss Voigt Hill
#
# Bulk Modulus (GPa) = 12.98381 63.77640 38.38010
# Shear Modulus (GPa) = 17.06942 39.74052 28.40497
#
# Velocity S-wave (km/s) = 2.79220 4.26044 3.60192
# Velocity P-wave (km/s) = 4.04048 7.30283 5.90156
#
# Compressibility (1/GPa) = 0.07701900
#
# Stress axis : x y z
#
# Youngs Moduli (GPa) = 17.29715 139.77462 46.82830
#
# Poissons Ratio (x) = 1.62810 -0.57742
# Poissons Ratio (y) = 0.20148 0.24978
# Poissons Ratio (z) = -0.21328 0.74556
#
# Static dielectric constant tensor:
#      x y z
#    x 1.682620 0.000000 0.162510 
#    y 0.000000 2.216070 0.000000 
#    z 0.162510 0.000000 1.690970 
# 
# From -- ./inp_files/51648.got.cif
#   From: 2010.05.17/outbox.cif.g08.bks.cpg/sg10_26_cif.got.tgz:51648.got - 2010.06.03 11:33:40.
