data_PCOD9143998
_publ_section_title
;
Structure prediction by ZEFSAII (Michael W. Deem and Ramdas Pophale) SiO2 
 PCOD9143998
Probable space group: P 2/M
;
_chemical_formula_sum "Si O2"
_cell_formula_units_Z 28
_cell_length_a 10.764493
_cell_length_b 11.563044
_cell_length_c 12.125805
_cell_angle_alpha 90.000000
_cell_angle_beta 99.095491
_cell_angle_gamma 90.000000
_cell_volume 1490.325067
_symmetry_space_group_name_H-M "P 2/M"
_symmetry_group_IT_number 10
_symmetry_cell_setting 'monoclinic'
loop_
_space_group_symop_operation_xyz
x,y,z
-x,y,-z
-x,-y,-z
x,-y,z
loop_
_atom_site_type_symbol
_atom_site_label
_atom_site_fract_x
_atom_site_fract_y
_atom_site_fract_z
Si Si1 0.145230 0.246534 0.549107
Si Si2 0.358957 0.864403 0.987438
Si Si3 0.685752 0.869331 0.273106
Si Si4 0.385050 0.500000 0.394947
Si Si5 0.846134 0.500000 0.472026
Si Si6 0.120527 0.141226 0.089115
Si Si7 0.464508 0.249814 0.364715
Si Si8 0.784195 0.865345 0.667177
O O1 0.183828 0.158941 0.649232
O O2 0.183772 0.376941 0.586524
O O3 0.206779 0.208525 0.442632
O O4 0.000000 0.243900 0.500000
O O5 0.306269 0.860264 0.856277
O O6 0.375032 0.000000 0.021976
O O7 0.500000 0.813865 0.000000
O O8 0.251034 0.816840 0.052060
O O9 0.586715 0.780524 0.311324
O O10 0.645945 0.000000 0.295371
O O11 0.500000 0.500000 0.500000
O O12 0.246886 0.500000 0.433625
O O13 0.408406 0.378193 0.337367
O O14 0.000000 0.500000 0.500000
O O15 0.125924 0.172148 0.219385
O O16 0.121663 0.000000 0.086062
O O17 0.000000 0.178229 0.000000
O O18 0.500000 0.239662 0.500000
O O19 0.359306 0.156326 0.317226
O O20 0.806716 0.000000 0.645982
#
# Coordination Sequence:
#
# PCOD9143998 Si02
#       8
#     4   4   4   2   2   4   4   4
#     4  11  23  36  54  82 112 148 186 222 280 334
#     4   9  18  34  52  72 105 149 191 220 256 319
#     4  11  22  34  53  83 120 150 176 224 283 341
#     4  10  18  34  56  76 105 144 193 239 256 313
#     4  10  20  40  58  76 109 148 193 233 263 330
#     4   9  19  34  52  75 105 147 190 224 259 318
#     4  11  20  33  52  80 110 142 185 219 277 325
#     4  11  21  33  53  81 116 144 173 221 279 338
#
# _framework density 18.787848
#
# number of rings (size 3 to 8) (size 9 to 14) (size 15 to 20)
#    0.000    1.714    2.857    2.571    2.000    4.000 
#    0.000    0.000    0.000    0.000    0.000   13.000 
#    0.000    0.000    0.000    0.000    0.000    0.000 
#
# Total GULP energy -156003.347346 kJ/mol
# GULP energy per Si atom -5571.548120 kJ/mol
# Density = 1.874509 g / cm^3
# Si number density = 18.787848 Si / 1000 Ang^3
#
#
#
# Elastic Constant Matrix: (Units=GPa)
#
#
# Indices 1 2 3 4 5 6 
#
# 1 66.3921 13.8624 13.1064 0.0000 5.4439 0.0000
# 2 13.8624 50.5699 16.8503 0.0000 -3.2154 0.0000
# 3 13.1064 16.8503 56.2744 0.0000 19.8937 0.0000
# 4 0.0000 0.0000 0.0000 -4.7728 0.0000 2.4667
# 5 5.4439 -3.2154 19.8937 0.0000 25.5949 0.0000
# 6 0.0000 0.0000 0.0000 2.4667 0.0000 21.7527
#
#
#
# Elastic Compliance Matrix: (Units=1/GPa)
#
#
# Indices 1 2 3 4 5 6 
#
# 1 0.016475 -0.004155 -0.001613 0.000000 -0.002773 0.000000
# 2 -0.004155 0.025443 -0.011159 0.000000 0.012754 0.000000
# 3 -0.001613 -0.011159 0.030144 0.000000 -0.024488 0.000000
# 4 0.000000 0.000000 0.000000 -0.197920 0.000000 0.022444
# 5 -0.002773 0.012754 -0.024488 0.000000 0.060296 0.000000
# 6 0.000000 0.000000 0.000000 0.022444 0.000000 0.043426
#
#
# Mechanical properties :
#
#
# Convention : Reuss Voigt Hill
#
# Bulk Modulus (GPa) = 26.17252 28.98606 27.57929
# Shear Modulus (GPa) = 204.46347 17.14277 110.80312
#
# Velocity S-wave (km/s) = 10.44336 3.02394 7.68791
# Velocity P-wave (km/s) = 12.62455 5.25869 9.67039
#
# Compressibility (1/GPa) = 0.03820801
#
# Stress axis : x y z
#
# Youngs Moduli (GPa) = 60.69675 39.30374 33.17406
#
# Poissons Ratio (x) = 0.16331 0.05350
# Poissons Ratio (y) = 0.25221 0.37020
# Poissons Ratio (z) = 0.09789 0.43860
#
# Static dielectric constant tensor:
#      x y z
#    x 1.924470 0.000000 -0.043240 
#    y 0.000000 1.644900 0.000000 
#    z -0.043240 0.000000 1.667820 
# 
# From -- ./inp_files/46161.got.cif
#   From: 2010.05.17/outbox.cif.g08.bks.cpg/sg10_24_cif.got.tgz:46161.got - 2010.06.03 11:33:40.
