data_PCOD9143489
_publ_section_title
;
Structure prediction by ZEFSAII (Michael W. Deem and Ramdas Pophale) SiO2 
 PCOD9143489
Probable space group: P 2/M
;
_chemical_formula_sum "Si O2"
_cell_formula_units_Z 28
_cell_length_a 24.174945
_cell_length_b 15.855945
_cell_length_c 21.360684
_cell_angle_alpha 90.000000
_cell_angle_beta 10.826888
_cell_angle_gamma 90.000000
_cell_volume 1538.034576
_symmetry_space_group_name_H-M "P 2/M"
_symmetry_group_IT_number 10
_symmetry_cell_setting 'monoclinic'
loop_
_space_group_symop_operation_xyz
x,y,z
-x,y,-z
-x,-y,-z
x,-y,z
loop_
_atom_site_type_symbol
_atom_site_label
_atom_site_fract_x
_atom_site_fract_y
_atom_site_fract_z
Si Si1 0.274424 0.897444 0.804029
Si Si2 0.392652 0.898671 0.442846
Si Si3 0.259529 0.500000 0.116588
Si Si4 0.469229 0.205195 0.233752
Si Si5 0.441218 0.357670 0.999726
Si Si6 0.016143 0.317531 0.278681
Si Si7 0.675681 0.835042 0.866167
Si Si8 0.947204 0.500000 0.336634
O O1 0.500000 0.867744 0.500000
O O2 0.385506 0.871865 0.749149
O O3 0.282314 0.000000 0.793602
O O4 0.936613 0.873153 0.170285
O O5 0.461813 0.859863 0.298825
O O6 0.400817 0.000000 0.429379
O O7 0.249020 0.416879 0.169816
O O8 0.020241 0.500000 0.329370
O O9 0.596089 0.500000 0.714575
O O10 0.151774 0.249974 0.578404
O O11 0.713274 0.275560 0.984064
O O12 0.548678 0.161168 0.078492
O O13 0.749808 0.338635 0.622510
O O14 0.500000 0.400846 0.000000
O O15 0.307172 0.266383 0.161164
O O16 0.075929 0.406961 0.176829
O O17 0.000000 0.871927 0.500000
O O18 0.500000 0.865774 0.000000
#
# Coordination Sequence:
#
# PCOD9143489 Si02
#       8
#     4   4   2   4   4   4   4   2
#     4   9  17  31  52  79 109 138 161 177 210 276
#     4  10  20  33  52  77 105 136 164 193 228 273
#     4  10  19  26  38  56  80 108 140 188 244 302
#     4  11  20  33  49  69  94 125 165 206 249 289
#     4   9  17  28  39  56  79 107 147 194 244 299
#     4  10  20  31  46  63  87 122 157 201 248 292
#     4  10  19  30  44  59  80 115 161 208 252 294
#     4  10  18  32  43  58  84 116 155 192 243 294
#
# _framework density 18.205051999999998
#
# number of rings (size 3 to 8) (size 9 to 14) (size 15 to 20)
#    0.000    2.143    0.000    6.643    0.000    4.000 
#    0.000    3.214    0.000    0.857    0.000    0.000 
#    0.000    0.571    0.000   45.000    0.000    1.429 
#
# Total GULP energy -156040.621392 kJ/mol
# GULP energy per Si atom -5572.879335 kJ/mol
# Density = 1.816362 g / cm^3
# Si number density = 18.205052 Si / 1000 Ang^3
#
#
#
# Elastic Constant Matrix: (Units=GPa)
#
#
# Indices 1 2 3 4 5 6 
#
# 1 58.0506 12.7485 9.2556 0.0000 -4.4321 0.0000
# 2 12.7485 16.4173 8.0954 0.0000 4.0362 0.0000
# 3 9.2556 8.0954 54.7833 0.0000 -10.6192 0.0000
# 4 0.0000 0.0000 0.0000 9.9221 0.0000 -13.8341
# 5 -4.4321 4.0362 -10.6192 0.0000 29.1328 0.0000
# 6 0.0000 0.0000 0.0000 -13.8341 0.0000 -20.7850
#
#
#
# Elastic Compliance Matrix: (Units=1/GPa)
#
#
# Indices 1 2 3 4 5 6 
#
# 1 0.021686 -0.018395 0.000202 0.000000 0.005921 0.000000
# 2 -0.018395 0.086725 -0.013535 0.000000 -0.019748 0.000000
# 3 0.000202 -0.013535 0.022155 0.000000 0.009982 0.000000
# 4 0.000000 0.000000 0.000000 0.052274 0.000000 -0.034793
# 5 0.005921 -0.019748 0.009982 0.000000 0.041601 0.000000
# 6 0.000000 0.000000 0.000000 -0.034793 0.000000 -0.024954
#
#
# Mechanical properties :
#
#
# Convention : Reuss Voigt Hill
#
# Bulk Modulus (GPa) = 14.90122 21.05002 17.97562
# Shear Modulus (GPa) = 17.52463 10.26411 13.89437
#
# Velocity S-wave (km/s) = 3.10598 2.37704 2.76563
# Velocity P-wave (km/s) = 4.58975 4.37282 4.48260
#
# Compressibility (1/GPa) = 0.06710860
#
# Stress axis : x y z
#
# Youngs Moduli (GPa) = 46.11272 11.53070 45.13755
#
# Poissons Ratio (x) = 0.21211 -0.00913
# Poissons Ratio (y) = 0.84826 0.61095
# Poissons Ratio (z) = -0.00933 0.15607
#
# Static dielectric constant tensor:
#      x y z
#    x 1.641480 0.000000 -0.027530 
#    y 0.000000 1.674400 0.000000 
#    z -0.027530 0.000000 1.648910 
# 
# From -- ./inp_files/86638.got.cif
#   From: 2010.05.17/outbox.cif.g08.bks.cpg/sg10_44_cif.got.tgz:86638.got - 2010.06.03 11:33:40.
