data_PCOD9143477
_publ_section_title
;
Structure prediction by ZEFSAII (Michael W. Deem and Ramdas Pophale) SiO2 
 PCOD9143477
Probable space group: P 2/M
;
_chemical_formula_sum "Si O2"
_cell_formula_units_Z 32
_cell_length_a 12.676814
_cell_length_b 8.597840
_cell_length_c 31.698735
_cell_angle_alpha 90.000000
_cell_angle_beta 153.028113
_cell_angle_gamma 90.000000
_cell_volume 1567.002542
_symmetry_space_group_name_H-M "P 2/M"
_symmetry_group_IT_number 10
_symmetry_cell_setting 'monoclinic'
loop_
_space_group_symop_operation_xyz
x,y,z
-x,y,-z
-x,-y,-z
x,-y,z
loop_
_atom_site_type_symbol
_atom_site_label
_atom_site_fract_x
_atom_site_fract_y
_atom_site_fract_z
Si Si1 0.481887 0.314655 0.822957
Si Si2 0.952451 0.687126 0.388099
Si Si3 0.801628 0.181552 0.868430
Si Si4 0.860928 0.317981 0.075679
Si Si5 0.447751 0.313387 0.585171
Si Si6 0.595739 0.816177 0.112890
Si Si7 0.063070 0.814841 0.230897
Si Si8 0.600373 0.315041 0.332675
O O1 0.500457 0.500000 0.823981
O O2 0.244538 0.259266 0.714780
O O3 0.700433 0.238263 0.876974
O O4 0.455279 0.271535 0.861879
O O5 0.966367 0.500000 0.388498
O O6 0.843327 0.715309 0.395526
O O7 0.216088 0.744762 0.478857
O O8 0.591328 0.217016 0.760731
O O9 0.016000 0.273287 0.924453
O O10 0.856848 0.000000 0.889342
O O11 0.815542 0.500000 0.061005
O O12 0.028583 0.269571 0.173755
O O13 0.620858 0.225076 0.994170
O O14 0.469787 0.500000 0.587421
O O15 0.692085 0.234646 0.661928
O O16 0.401690 0.285250 0.618578
O O17 0.841620 0.770561 0.180374
O O18 0.599417 0.000000 0.122020
O O19 0.058243 0.000000 0.222333
O O20 0.547225 0.500000 0.307394
#
# Coordination Sequence:
#
# PCOD9143477 Si02
#       8
#     4   4   4   4   4   4   4   4
#     4  10  21  40  63  87 119 156 201 247 287 339
#     4   8  16  31  54  85 118 153 194 241 290 336
#     4  11  21  35  58  88 125 160 189 232 294 353
#     4  12  24  40  64  92 118 148 193 243 293 350
#     4  10  18  31  56  86 117 155 197 241 288 342
#     4  11  25  44  63  84 114 155 198 242 298 353
#     4  11  24  41  60  86 122 156 190 241 298 352
#     4   9  16  29  51  82 119 156 194 237 286 342
#
# _framework density 20.421153
#
# number of rings (size 3 to 8) (size 9 to 14) (size 15 to 20)
#    0.000    1.750    1.250    4.875    0.000    5.500 
#    0.000    6.250    0.000    7.500    0.000    0.000 
#    0.000    0.000    0.000    0.000    0.000    0.000 
#
# Total GULP energy -178808.940894 kJ/mol
# GULP energy per Si atom -5587.779403 kJ/mol
# Density = 2.037467 g / cm^3
# Si number density = 20.421153 Si / 1000 Ang^3
#
#
#
# Elastic Constant Matrix: (Units=GPa)
#
#
# Indices 1 2 3 4 5 6 
#
# 1 65.5342 4.6482 14.3091 0.0000 13.4106 0.0000
# 2 4.6482 21.5807 -7.9556 0.0000 -0.1901 0.0000
# 3 14.3091 -7.9556 72.5085 0.0000 27.3050 0.0000
# 4 0.0000 0.0000 0.0000 -113.4468 0.0000 85.6461
# 5 13.4106 -0.1901 27.3050 0.0000 32.3308 0.0000
# 6 0.0000 0.0000 0.0000 85.6461 0.0000 -26.3446
#
#
#
# Elastic Compliance Matrix: (Units=1/GPa)
#
#
# Indices 1 2 3 4 5 6 
#
# 1 0.017104 -0.004368 -0.001721 0.000000 -0.005667 0.000000
# 2 -0.004368 0.050254 0.008186 0.000000 -0.004806 0.000000
# 3 -0.001721 0.008186 0.021617 0.000000 -0.017495 0.000000
# 4 0.000000 0.000000 0.000000 0.006061 0.000000 0.019704
# 5 -0.005667 -0.004806 -0.017495 0.000000 0.048028 0.000000
# 6 0.000000 0.000000 0.000000 0.019704 0.000000 0.026100
#
#
# Mechanical properties :
#
#
# Convention : Reuss Voigt Hill
#
# Bulk Modulus (GPa) = 10.73312 20.18075 15.45694
# Shear Modulus (GPa) = 25.50650 -11.58400 6.96125
#
# Velocity S-wave (km/s) = 3.53799 -2.38430 1.84831
# Velocity P-wave (km/s) = 4.68584 1.52444 3.48432
#
# Compressibility (1/GPa) = 0.09316954
#
# Stress axis : x y z
#
# Youngs Moduli (GPa) = 58.46431 19.89896 46.25893
#
# Poissons Ratio (x) = 0.08692 0.07959
# Poissons Ratio (y) = 0.25539 -0.37866
# Poissons Ratio (z) = 0.10059 -0.16289
#
# Static dielectric constant tensor:
#      x y z
#    x 1.716250 0.000000 0.012220 
#    y 0.000000 1.683030 0.000000 
#    z 0.012220 0.000000 1.753780 
# 
# From -- ./inp_files/95089.got.cif
#   From: 2010.05.17/outbox.cif.g08.bks.cpg/sg10_48_cif.got.tgz:95089.got - 2010.06.03 11:33:40.
