data_PCOD9143464
_publ_section_title
;
Structure prediction by ZEFSAII (Michael W. Deem and Ramdas Pophale) SiO2 
 PCOD9143464
Probable space group: P 2/M
;
_chemical_formula_sum "Si O2"
_cell_formula_units_Z 32
_cell_length_a 29.352035
_cell_length_b 8.126856
_cell_length_c 12.714715
_cell_angle_alpha 90.000000
_cell_angle_beta 30.546534
_cell_angle_gamma 90.000000
_cell_volume 1541.468068
_symmetry_space_group_name_H-M "P 2/M"
_symmetry_group_IT_number 10
_symmetry_cell_setting 'monoclinic'
loop_
_space_group_symop_operation_xyz
x,y,z
-x,y,-z
-x,-y,-z
x,-y,z
loop_
_atom_site_type_symbol
_atom_site_label
_atom_site_fract_x
_atom_site_fract_y
_atom_site_fract_z
Si Si1 0.206189 0.805375 0.136526
Si Si2 0.729456 0.798874 0.215431
Si Si3 0.973784 0.690003 0.436795
Si Si4 0.648287 0.194238 0.981904
Si Si5 0.214384 0.689452 0.467955
Si Si6 0.017818 0.190234 0.802652
Si Si7 0.472382 0.798291 0.436507
Si Si8 0.172741 0.194163 0.770064
O O1 0.133478 0.703431 0.344764
O O2 0.300093 0.788415 0.009471
O O3 0.182276 0.000000 0.189076
O O4 0.214161 0.751916 0.000123
O O5 0.627049 0.746048 0.399333
O O6 0.773828 0.739554 0.235311
O O7 0.728222 0.000000 0.218795
O O8 0.002084 0.500000 0.369928
O O9 0.005924 0.793374 0.273875
O O10 0.000000 0.753537 0.500000
O O11 0.711392 0.267326 0.766411
O O12 0.643110 0.000000 0.969424
O O13 0.548387 0.257093 0.202679
O O14 0.221958 0.500000 0.478771
O O15 0.113117 0.724249 0.629440
O O16 0.223343 0.784262 0.560111
O O17 0.032109 0.000000 0.803856
O O18 0.929534 0.259797 0.035474
O O19 0.500000 0.747461 0.500000
O O20 0.473274 0.000000 0.435465
O O21 0.160527 0.000000 0.813739
#
# Coordination Sequence:
#
# PCOD9143464 Si02
#       8
#     4   4   4   4   4   4   4   4
#     4  10  18  31  55  83 113 149 187 229 281 336
#     4   9  17  32  56  88 120 148 185 235 287 339
#     4  11  23  35  49  77 118 158 192 228 275 334
#     4  10  19  33  58  89 116 145 183 229 280 334
#     4  12  25  40  59  81 112 152 195 240 285 336
#     4  11  22  38  60  84 110 145 192 242 287 337
#     4   9  15  28  55  92 123 144 177 229 285 337
#     4  10  22  39  59  83 113 149 192 239 285 336
#
# _framework density 20.759432
#
# number of rings (size 3 to 8) (size 9 to 14) (size 15 to 20)
#    0.000    1.750    2.500    3.000    0.000    4.500 
#    0.000    1.250    0.000    5.625    0.000    0.000 
#    0.000    0.000    0.000    0.000    0.000    0.000 
#
# Total GULP energy -178682.035403 kJ/mol
# GULP energy per Si atom -5583.813606 kJ/mol
# Density = 2.071218 g / cm^3
# Si number density = 20.759432 Si / 1000 Ang^3
#
#
#
# Elastic Constant Matrix: (Units=GPa)
#
#
# Indices 1 2 3 4 5 6 
#
# 1 76.3640 1.0251 37.3439 0.0000 13.3341 0.0000
# 2 1.0251 9.0915 0.9252 0.0000 -4.3972 0.0000
# 3 37.3439 0.9252 118.2088 0.0000 6.0698 0.0000
# 4 0.0000 0.0000 0.0000 -234.1372 0.0000 111.6050
# 5 13.3341 -4.3972 6.0698 0.0000 31.9910 0.0000
# 6 0.0000 0.0000 0.0000 111.6050 0.0000 -64.6467
#
#
#
# Elastic Compliance Matrix: (Units=1/GPa)
#
#
# Indices 1 2 3 4 5 6 
#
# 1 0.016720 -0.004614 -0.004903 0.000000 -0.006673 0.000000
# 2 -0.004614 0.119468 -0.000424 0.000000 0.018425 0.000000
# 3 -0.004903 -0.000424 0.010008 0.000000 0.000087 0.000000
# 4 0.000000 0.000000 0.000000 -0.024117 0.000000 -0.041635
# 5 -0.006673 0.018425 0.000087 0.000000 0.036556 0.000000
# 6 0.000000 0.000000 0.000000 -0.041635 0.000000 -0.087347
#
#
# Mechanical properties :
#
#
# Convention : Reuss Voigt Hill
#
# Bulk Modulus (GPa) = 7.91675 31.36141 19.63908
# Shear Modulus (GPa) = 37.51664 -42.40060 -2.44198
#
# Velocity S-wave (km/s) = 4.25574 -4.52428 -1.08576
# Velocity P-wave (km/s) = 5.28869 3.48601 2.81230
#
# Compressibility (1/GPa) = 0.12631443
#
# Stress axis : x y z
#
# Youngs Moduli (GPa) = 59.80802 8.37043 99.92482
#
# Poissons Ratio (x) = 0.03862 0.48997
# Poissons Ratio (y) = 0.27594 0.04232
# Poissons Ratio (z) = 0.29326 0.00355
#
# Static dielectric constant tensor:
#      x y z
#    x 1.771990 0.000000 -0.017990 
#    y 0.000000 1.717790 0.000000 
#    z -0.017990 0.000000 1.759120 
# 
# From -- ./inp_files/58176.got.cif
#   From: 2010.05.17/outbox.cif.g08.bks.cpg/sg10_30_cif.got.tgz:58176.got - 2010.06.03 11:33:40.
