data_PCOD9143546
_publ_section_title
;
Structure prediction by ZEFSAII (Michael W. Deem and Ramdas Pophale) SiO2 
 PCOD9143546
Probable space group: P 2/M
;
_chemical_formula_sum "Si O2"
_cell_formula_units_Z 32
_cell_length_a 25.927707
_cell_length_b 8.885578
_cell_length_c 12.239879
_cell_angle_alpha 90.000000
_cell_angle_beta 45.372042
_cell_angle_gamma 90.000000
_cell_volume 2006.844476
_symmetry_space_group_name_H-M "P 2/M"
_symmetry_group_IT_number 10
_symmetry_cell_setting 'monoclinic'
loop_
_space_group_symop_operation_xyz
x,y,z
-x,y,-z
-x,-y,-z
x,-y,z
loop_
_atom_site_type_symbol
_atom_site_label
_atom_site_fract_x
_atom_site_fract_y
_atom_site_fract_z
Si Si1 0.297134 0.183340 0.708354
Si Si2 0.777384 0.824325 0.785778
Si Si3 0.425550 0.822954 0.679250
Si Si4 0.367615 0.180729 0.379196
Si Si5 0.917848 0.679504 0.647533
Si Si6 0.526136 0.320566 0.170896
Si Si7 0.345141 0.320344 0.179867
Si Si8 0.178844 0.823042 0.043531
O O1 0.361360 0.228685 0.695152
O O2 0.317986 0.230248 0.555464
O O3 0.220953 0.231794 0.874327
O O4 0.296268 0.000000 0.710785
O O5 0.858727 0.757466 0.656207
O O6 0.719037 0.735702 0.803081
O O7 0.775689 0.000000 0.759811
O O8 0.765866 0.812130 0.934535
O O9 0.500000 0.812257 0.500000
O O10 0.434559 0.730402 0.776446
O O11 0.414482 0.000000 0.722742
O O12 0.449071 0.239181 0.278018
O O13 0.340933 0.244768 0.304058
O O14 0.368452 0.000000 0.375488
O O15 0.911693 0.500000 0.648257
O O16 0.000000 0.724090 0.500000
O O17 0.890116 0.733181 0.808351
O O18 0.515155 0.500000 0.186716
O O19 0.578758 0.280784 0.991918
O O20 0.342452 0.500000 0.194532
O O21 0.160736 0.000000 0.059978
#
# Coordination Sequence:
#
# PCOD9143546 Si02
#       8
#     4   4   4   4   4   4   4   4
#     4   9  17  32  49  70  96 124 161 207 249 289
#     4   9  18  32  53  77  99 129 166 198 236 288
#     4  10  18  32  52  70  92 123 161 204 252 300
#     4  11  22  36  53  69  90 128 175 214 251 296
#     4   9  17  30  49  77 112 139 157 185 232 288
#     4  11  23  36  49  69  96 127 165 213 262 301
#     4  11  23  37  50  68  98 130 165 212 257 294
#     4   8  16  29  49  74 101 129 159 195 234 283
#
# _framework density 15.945430999999999
#
# number of rings (size 3 to 8) (size 9 to 14) (size 15 to 20)
#    0.750    1.500    1.250    2.625    0.000    5.750 
#    0.000    1.250    0.000    0.000    0.000    0.875 
#    0.000    7.000    0.000    0.000    0.000    0.000 
#
# Total GULP energy -178274.649137 kJ/mol
# GULP energy per Si atom -5571.082786 kJ/mol
# Density = 1.590914 g / cm^3
# Si number density = 15.945431 Si / 1000 Ang^3
#
#
#
# Elastic Constant Matrix: (Units=GPa)
#
#
# Indices 1 2 3 4 5 6 
#
# 1 33.4775 17.9241 44.1742 0.0000 5.8031 0.0000
# 2 17.9241 39.1155 39.4270 0.0000 1.7726 0.0000
# 3 44.1742 39.4270 130.1439 0.0000 -2.5255 0.0000
# 4 0.0000 0.0000 0.0000 13.9461 0.0000 -5.7483
# 5 5.8031 1.7726 -2.5255 0.0000 21.4906 0.0000
# 6 0.0000 0.0000 0.0000 -5.7483 0.0000 18.1418
#
#
#
# Elastic Compliance Matrix: (Units=1/GPa)
#
#
# Indices 1 2 3 4 5 6 
#
# 1 0.062931 -0.008790 -0.019057 0.000000 -0.018508 0.000000
# 2 -0.008790 0.038443 -0.008698 0.000000 -0.001819 0.000000
# 3 -0.019057 -0.008698 0.016940 0.000000 0.007854 0.000000
# 4 0.000000 0.000000 0.000000 0.082476 0.000000 0.026133
# 5 -0.018508 -0.001819 0.007854 0.000000 0.052603 0.000000
# 6 0.000000 0.000000 0.000000 0.026133 0.000000 0.063401
#
#
# Mechanical properties :
#
#
# Convention : Reuss Voigt Hill
#
# Bulk Modulus (GPa) = 22.11212 45.08749 33.59980
# Shear Modulus (GPa) = 12.34699 17.46314 14.90507
#
# Velocity S-wave (km/s) = 2.78569 3.31294 3.06069
# Velocity P-wave (km/s) = 4.92385 6.55527 5.79724
#
# Compressibility (1/GPa) = 0.04522407
#
# Stress axis : x y z
#
# Youngs Moduli (GPa) = 15.89048 26.01260 59.03352
#
# Poissons Ratio (x) = 0.22865 1.12497
# Poissons Ratio (y) = 0.13968 0.51347
# Poissons Ratio (z) = 0.30282 0.22626
#
# Static dielectric constant tensor:
#      x y z
#    x 1.511320 0.000000 0.003000 
#    y 0.000000 1.531230 0.000000 
#    z 0.003000 0.000000 1.551360 
# 
# From -- ./inp_files/56439.got.cif
#   From: 2010.05.17/outbox.cif.g08.bks.cpg/sg10_29_cif.got.tgz:56439.got - 2010.06.03 11:33:40.
