data_PCOD9143468
_publ_section_title
;
Structure prediction by ZEFSAII (Michael W. Deem and Ramdas Pophale) SiO2 
 PCOD9143468
Probable space group: P 2/M
;
_chemical_formula_sum "Si O2"
_cell_formula_units_Z 32
_cell_length_a 28.207750
_cell_length_b 13.888047
_cell_length_c 7.349719
_cell_angle_alpha 90.000000
_cell_angle_beta 147.639708
_cell_angle_gamma 90.000000
_cell_volume 1541.097627
_symmetry_space_group_name_H-M "P 2/M"
_symmetry_group_IT_number 10
_symmetry_cell_setting 'monoclinic'
loop_
_space_group_symop_operation_xyz
x,y,z
-x,y,-z
-x,-y,-z
x,-y,z
loop_
_atom_site_type_symbol
_atom_site_label
_atom_site_fract_x
_atom_site_fract_y
_atom_site_fract_z
Si Si1 0.801269 0.395599 0.212536
Si Si2 0.975701 0.308820 0.712710
Si Si3 0.155250 0.610163 0.210195
Si Si4 0.077385 0.892442 0.596635
Si Si5 0.325320 0.725828 0.723896
Si Si6 0.499897 0.389495 0.781340
Si Si7 0.658471 0.756666 0.806395
Si Si8 0.289197 0.111380 0.329468
O O1 0.763728 0.500000 0.047239
O O2 0.891753 0.375404 0.400236
O O3 0.822956 0.392993 0.500261
O O4 0.732269 0.312223 0.955955
O O5 0.946102 0.198623 0.602416
O O6 0.000000 0.329340 0.000000
O O7 0.063204 0.334354 0.885520
O O8 0.149412 0.500000 0.131624
O O9 0.235898 0.668464 0.388273
O O10 0.000000 0.890220 0.500000
O O11 0.072279 0.000000 0.496754
O O12 0.180923 0.880254 0.989470
O O13 0.333134 0.814761 0.613097
O O14 0.404725 0.649174 0.971700
O O15 0.320791 0.766415 0.913871
O O16 0.481477 0.500000 0.658912
O O17 0.430410 0.306932 0.497965
O O18 0.500000 0.391626 0.000000
O O19 0.671015 0.854707 0.735873
O O20 0.309715 0.000000 0.431465
#
# Coordination Sequence:
#
# PCOD9143468 Si02
#       8
#     4   4   4   4   4   4   4   4
#     4   9  17  31  54  84 120 161 200 243 300 365
#     4  10  18  31  55  84 118 156 201 248 300 371
#     4   9  18  32  54  87 124 161 200 247 302 366
#     4  10  21  38  58  80 115 164 210 262 321 364
#     4  11  23  41  67  93 125 166 212 261 315 375
#     4  11  23  41  68 100 134 171 210 253 309 376
#     4  11  22  41  66  94 125 166 209 257 318 374
#     4  11  24  44  66  91 127 164 210 271 323 374
#
# _framework density 20.764422
#
# number of rings (size 3 to 8) (size 9 to 14) (size 15 to 20)
#    0.000    1.750    2.500    2.250    0.000    4.250 
#    0.000    1.250    0.000    3.000    0.000    0.000 
#    0.000    0.000    0.000    0.000    0.000    0.000 
#
# Total GULP energy -178694.538846 kJ/mol
# GULP energy per Si atom -5584.204339 kJ/mol
# Density = 2.071716 g / cm^3
# Si number density = 20.764422 Si / 1000 Ang^3
#
#
#
# Elastic Constant Matrix: (Units=GPa)
#
#
# Indices 1 2 3 4 5 6 
#
# 1 66.9632 4.9555 6.4569 0.0000 2.6726 0.0000
# 2 4.9555 103.9434 14.0424 0.0000 4.6097 0.0000
# 3 6.4569 14.0424 48.3776 0.0000 13.0129 0.0000
# 4 0.0000 0.0000 0.0000 9.9434 0.0000 6.5316
# 5 2.6726 4.6097 13.0129 0.0000 27.5764 0.0000
# 6 0.0000 0.0000 0.0000 6.5316 0.0000 18.8945
#
#
#
# Elastic Compliance Matrix: (Units=1/GPa)
#
#
# Indices 1 2 3 4 5 6 
#
# 1 0.015158 -0.000463 -0.001735 0.000000 -0.000573 0.000000
# 2 -0.000463 0.010030 -0.002761 0.000000 -0.000329 0.000000
# 3 -0.001735 -0.002761 0.024665 0.000000 -0.011009 0.000000
# 4 0.000000 0.000000 0.000000 0.130116 0.000000 -0.044980
# 5 -0.000573 -0.000329 -0.011009 0.000000 0.041569 0.000000
# 6 0.000000 0.000000 0.000000 -0.044980 0.000000 0.068474
#
#
# Mechanical properties :
#
#
# Convention : Reuss Voigt Hill
#
# Bulk Modulus (GPa) = 25.04009 30.02152 27.53081
# Shear Modulus (GPa) = 15.96212 24.20482 20.08347
#
# Velocity S-wave (km/s) = 2.77560 3.41792 3.11337
# Velocity P-wave (km/s) = 4.72834 5.48323 5.11972
#
# Compressibility (1/GPa) = 0.03993596
#
# Stress axis : x y z
#
# Youngs Moduli (GPa) = 65.97191 99.69783 40.54304
#
# Poissons Ratio (x) = 0.04615 0.07033
# Poissons Ratio (y) = 0.03054 0.11195
# Poissons Ratio (z) = 0.11444 0.27529
#
# Static dielectric constant tensor:
#      x y z
#    x 1.771450 0.000000 -0.008980 
#    y 0.000000 1.702990 0.000000 
#    z -0.008980 0.000000 1.755830 
# 
# From -- ./inp_files/38250.got.cif
#   From: 2010.05.17/outbox.cif.g08.bks.cpg/sg10_20_cif.got.tgz:38250.got - 2010.06.03 11:33:40.
