data_PCOD9143899
_publ_section_title
;
Structure prediction by ZEFSAII (Michael W. Deem and Ramdas Pophale) SiO2 
 PCOD9143899
Probable space group: P 2/M
;
_chemical_formula_sum "Si O2"
_cell_formula_units_Z 24
_cell_length_a 15.423197
_cell_length_b 7.606558
_cell_length_c 10.927806
_cell_angle_alpha 90.000000
_cell_angle_beta 79.611807
_cell_angle_gamma 90.000000
_cell_volume 1261.008177
_symmetry_space_group_name_H-M "P 2/M"
_symmetry_group_IT_number 10
_symmetry_cell_setting 'monoclinic'
loop_
_space_group_symop_operation_xyz
x,y,z
-x,y,-z
-x,-y,-z
x,-y,z
loop_
_atom_site_type_symbol
_atom_site_label
_atom_site_fract_x
_atom_site_fract_y
_atom_site_fract_z
Si Si1 0.700270 0.200073 0.186042
Si Si2 0.483205 0.295983 0.869708
Si Si3 0.251975 0.702165 0.555342
Si Si4 0.991551 0.000000 0.804731
Si Si5 0.149112 0.000000 0.961286
Si Si6 0.565443 0.716255 0.594328
Si Si7 0.946144 0.295203 0.388438
O O1 0.620248 0.286371 0.135295
O O2 0.723090 0.291197 0.307500
O O3 0.672043 0.000000 0.225491
O O4 0.787231 0.166134 0.082373
O O5 0.511079 0.500000 0.869857
O O6 0.531850 0.224171 0.736033
O O7 0.500000 0.216819 0.000000
O O8 0.244685 0.500000 0.516829
O O9 0.335651 0.777245 0.461924
O O10 0.153668 0.776088 0.568063
O O11 0.005145 0.172640 0.720341
O O12 0.071451 0.000000 0.881708
O O13 0.898736 0.000000 0.897608
O O14 0.500000 0.768377 0.500000
O O15 0.564543 0.500000 0.593755
O O16 0.940506 0.500000 0.349784
O O17 0.000000 0.289430 0.500000
#
# Coordination Sequence:
#
# PCOD9143899 Si02
#       7
#     4   4   4   2   2   4   4
#     4  10  19  35  54  76 108 141 185 232 280 334
#     4  10  20  35  55  79 110 151 188 224 283 345
#     4  10  18  33  56  79 107 143 189 240 285 335
#     4  11  19  42  62  79 119 155 185 249 300 353
#     4   9  22  36  59  80 107 151 195 237 296 347
#     4   9  16  29  53  80 106 139 182 229 275 330
#     4  10  21  37  60  88 116 151 194 242 299 355
#
# _framework density 19.032388999999998
#
# number of rings (size 3 to 8) (size 9 to 14) (size 15 to 20)
#    0.500    1.667    3.333    0.750    0.000    0.333 
#    3.000    5.000    0.000    0.000    0.000    0.000 
#    0.000    0.000    0.000    0.000    0.000    0.000 
#
# Total GULP energy -133726.166021 kJ/mol
# GULP energy per Si atom -5571.923584 kJ/mol
# Density = 1.898907 g / cm^3
# Si number density = 19.032389 Si / 1000 Ang^3
#
#
#
# Elastic Constant Matrix: (Units=GPa)
#
#
# Indices 1 2 3 4 5 6 
#
# 1 97.3332 -1.0572 77.5451 0.0000 -10.7892 0.0000
# 2 -1.0572 54.3186 24.9208 0.0000 -6.4066 0.0000
# 3 77.5451 24.9208 163.5490 0.0000 -25.6831 0.0000
# 4 0.0000 0.0000 0.0000 16.1589 0.0000 6.2132
# 5 -10.7892 -6.4066 -25.6831 0.0000 40.3510 0.0000
# 6 0.0000 0.0000 0.0000 6.2132 0.0000 29.0175
#
#
#
# Elastic Compliance Matrix: (Units=1/GPa)
#
#
# Indices 1 2 3 4 5 6 
#
# 1 0.017461 0.004431 -0.009011 0.000000 -0.000363 0.000000
# 2 0.004431 0.020985 -0.005099 0.000000 0.001271 0.000000
# 3 -0.009011 -0.005099 0.011842 0.000000 0.004318 0.000000
# 4 0.000000 0.000000 0.000000 0.067437 0.000000 -0.014440
# 5 -0.000363 0.001271 0.004318 0.000000 0.027636 0.000000
# 6 0.000000 0.000000 0.000000 -0.014440 0.000000 0.037554
#
#
# Mechanical properties :
#
#
# Convention : Reuss Voigt Hill
#
# Bulk Modulus (GPa) = 32.33052 57.55758 44.94405
# Shear Modulus (GPa) = 23.52012 31.35828 27.43920
#
# Velocity S-wave (km/s) = 3.51920 4.06350 3.80111
# Velocity P-wave (km/s) = 5.79112 7.23351 6.55212
#
# Compressibility (1/GPa) = 0.03093052
#
# Stress axis : x y z
#
# Youngs Moduli (GPa) = 57.27015 47.65198 84.44461
#
# Poissons Ratio (x) = -0.21116 0.76095
# Poissons Ratio (y) = -0.25378 0.43059
# Poissons Ratio (z) = 0.51608 0.24298
#
# Static dielectric constant tensor:
#      x y z
#    x 1.660150 0.000000 -0.019800 
#    y 0.000000 1.700720 0.000000 
#    z -0.019800 0.000000 1.652430 
# 
# From -- ./inp_files/48675.got.cif
#   From: 2010.05.17/outbox.cif.g08.bks.cpg/sg10_25_cif.got.tgz:48675.got - 2010.06.03 11:33:40.
