data_PCOD9143660
_publ_section_title
;
Structure prediction by ZEFSAII (Michael W. Deem and Ramdas Pophale) SiO2 
 PCOD9143660
Probable space group: P 2/M
;
_chemical_formula_sum "Si O2"
_cell_formula_units_Z 32
_cell_length_a 12.234785
_cell_length_b 12.856616
_cell_length_c 9.416140
_cell_angle_alpha 90.000000
_cell_angle_beta 90.603276
_cell_angle_gamma 90.000000
_cell_volume 1481.057254
_symmetry_space_group_name_H-M "P 2/M"
_symmetry_group_IT_number 10
_symmetry_cell_setting 'monoclinic'
loop_
_space_group_symop_operation_xyz
x,y,z
-x,y,-z
-x,-y,-z
x,-y,z
loop_
_atom_site_type_symbol
_atom_site_label
_atom_site_fract_x
_atom_site_fract_y
_atom_site_fract_z
Si Si1 0.129459 0.113633 0.578664
Si Si2 0.538072 0.187325 0.665036
Si Si3 0.782416 0.882986 0.735059
Si Si4 0.040276 0.664689 0.653751
Si Si5 0.510499 0.383575 0.162685
Si Si6 0.242320 0.657953 0.849379
Si Si7 0.318595 0.114243 0.798770
Si Si8 0.894273 0.698336 0.902738
O O1 0.153272 0.124754 0.413235
O O2 0.062597 0.210708 0.637391
O O3 0.247891 0.113320 0.653685
O O4 0.081051 0.000000 0.611754
O O5 0.500000 0.183173 0.500000
O O6 0.655708 0.138123 0.695387
O O7 0.540357 0.305190 0.725006
O O8 0.443880 0.133053 0.758335
O O9 0.830284 0.797179 0.840585
O O10 0.794904 0.000000 0.790155
O O11 0.155799 0.631962 0.724204
O O12 0.000000 0.627245 0.500000
O O13 0.947229 0.642834 0.767693
O O14 0.464293 0.500000 0.168560
O O15 0.640766 0.387361 0.186440
O O16 0.500000 0.344234 0.000000
O O17 0.268847 0.782194 0.868104
O O18 0.184734 0.631491 0.997313
O O19 0.305389 0.000000 0.866932
O O20 0.000000 0.729179 0.000000
#
# Coordination Sequence:
#
# PCOD9143660 Si02
#       8
#     4   4   4   4   4   4   4   4
#     4   9  17  28  44  71 105 146 193 228 255 304
#     4  11  21  34  58  88 116 142 179 231 283 331
#     4  11  21  31  49  79 117 157 196 228 263 317
#     4  10  18  32  54  78 107 148 190 228 278 326
#     4  10  22  42  65  85 109 142 178 223 286 355
#     4   9  20  36  55  82 110 144 186 237 278 326
#     4   9  17  31  50  75 113 153 186 219 268 328
#     4  10  21  35  51  73 109 151 200 241 278 305
#
# _framework density 21.606186999999998
#
# number of rings (size 3 to 8) (size 9 to 14) (size 15 to 20)
#    0.000    2.125    2.500    1.125    0.000    2.250 
#    0.000    2.500    0.000    7.875    0.000    0.000 
#    0.000    0.000    0.000    0.000    0.000    0.000 
#
# Total GULP energy -178574.826734 kJ/mol
# GULP energy per Si atom -5580.463335 kJ/mol
# Density = 2.155701 g / cm^3
# Si number density = 21.606187 Si / 1000 Ang^3
#
#
#
# Elastic Constant Matrix: (Units=GPa)
#
#
# Indices 1 2 3 4 5 6 
#
# 1 74.3465 -7.6485 3.4589 0.0000 5.1827 0.0000
# 2 -7.6485 64.8525 0.9224 0.0000 -2.1306 0.0000
# 3 3.4589 0.9224 80.0682 0.0000 -1.6013 0.0000
# 4 0.0000 0.0000 0.0000 -39.5166 0.0000 6.3744
# 5 5.1827 -2.1306 -1.6013 0.0000 27.4558 0.0000
# 6 0.0000 0.0000 0.0000 6.3744 0.0000 -9.2128
#
#
#
# Elastic Compliance Matrix: (Units=1/GPa)
#
#
# Indices 1 2 3 4 5 6 
#
# 1 0.013818 0.001556 -0.000665 0.000000 -0.002526 0.000000
# 2 0.001556 0.015636 -0.000229 0.000000 0.000906 0.000000
# 3 -0.000665 -0.000229 0.012538 0.000000 0.000839 0.000000
# 4 0.000000 0.000000 0.000000 -0.028485 0.000000 -0.019709
# 5 -0.002526 0.000906 0.000839 0.000000 0.037018 0.000000
# 6 0.000000 0.000000 0.000000 -0.019709 0.000000 -0.122181
#
#
# Mechanical properties :
#
#
# Convention : Reuss Voigt Hill
#
# Bulk Modulus (GPa) = 23.08705 23.63698 23.36202
# Shear Modulus (GPa) = -85.40924 10.58091 -37.41416
#
# Velocity S-wave (km/s) = -6.29411 2.21536 -4.16581
# Velocity P-wave (km/s) = 6.48941 4.18418 3.50750
#
# Compressibility (1/GPa) = 0.04331432
#
# Stress axis : x y z
#
# Youngs Moduli (GPa) = 72.37099 63.95435 79.76063
#
# Poissons Ratio (x) = -0.09952 0.05307
# Poissons Ratio (y) = -0.11261 0.01828
# Poissons Ratio (z) = 0.04815 0.01466
#
# Static dielectric constant tensor:
#      x y z
#    x 1.788460 0.000000 0.012830 
#    y 0.000000 1.822890 0.000000 
#    z 0.012830 0.000000 1.768180 
# 
# From -- ./inp_files/25340.got.cif
#   From: 2010.05.17/outbox.cif.g08.bks.cpg/sg10_13_cif.got.tgz:25340.got - 2010.06.03 11:33:40.
