data_PCOD9143967
_publ_section_title
;
Structure prediction by ZEFSAII (Michael W. Deem and Ramdas Pophale) SiO2 
 PCOD9143967
Probable space group: P 2/M
;
_chemical_formula_sum "Si O2"
_cell_formula_units_Z 28
_cell_length_a 12.311588
_cell_length_b 9.675478
_cell_length_c 17.317861
_cell_angle_alpha 90.000000
_cell_angle_beta 42.482443
_cell_angle_gamma 90.000000
_cell_volume 1393.217187
_symmetry_space_group_name_H-M "P 2/M"
_symmetry_group_IT_number 10
_symmetry_cell_setting 'monoclinic'
loop_
_space_group_symop_operation_xyz
x,y,z
-x,y,-z
-x,-y,-z
x,-y,z
loop_
_atom_site_type_symbol
_atom_site_label
_atom_site_fract_x
_atom_site_fract_y
_atom_site_fract_z
Si Si1 0.606141 0.345874 0.846140
Si Si2 0.805265 0.842021 0.846918
Si Si3 0.292170 0.337962 0.379194
Si Si4 0.769440 0.340750 0.005926
Si Si5 0.309277 0.340959 0.616544
Si Si6 0.340794 0.667583 0.773623
Si Si7 0.131162 0.840837 0.583468
O O1 0.639768 0.500000 0.859965
O O2 0.661253 0.234175 0.878336
O O3 0.703491 0.328715 0.715347
O O4 0.419944 0.341587 0.918851
O O5 0.950926 0.839446 0.709939
O O6 0.767036 0.000000 0.886908
O O7 0.850016 0.756312 0.900294
O O8 0.271236 0.500000 0.411096
O O9 0.471696 0.293281 0.313105
O O10 0.162939 0.243309 0.488749
O O11 0.827558 0.500000 0.972291
O O12 0.764994 0.289614 0.096991
O O13 0.500000 0.344159 0.500000
O O14 0.250834 0.500000 0.638422
O O15 0.283490 0.294053 0.718501
O O16 0.231137 0.239765 0.596318
O O17 0.341711 0.500000 0.776176
O O18 0.182251 0.000000 0.548104
#
# Coordination Sequence:
#
# PCOD9143967 Si02
#       7
#     4   4   4   4   4   4   4
#     4   9  19  35  59  85 105 131 175 228 273 311
#     4  11  24  38  50  71 110 152 183 215 258 311
#     4   9  17  34  57  81 107 135 171 219 270 319
#     4   9  18  35  59  82 105 133 174 224 266 311
#     4  10  18  33  60  85 105 134 172 217 268 319
#     4   8  15  31  56  85 108 127 163 220 273 312
#     4  11  24  37  49  74 113 149 179 214 259 313
#
# _framework density 20.097369
#
# number of rings (size 3 to 8) (size 9 to 14) (size 15 to 20)
#    0.000    2.429    1.429    3.000    0.000    6.000 
#    0.000    6.429    0.000    4.286    0.000    0.000 
#    0.000    0.000    0.000    0.000    0.000    0.000 
#
# Total GULP energy -156307.620312 kJ/mol
# GULP energy per Si atom -5582.415011 kJ/mol
# Density = 2.005163 g / cm^3
# Si number density = 20.097369 Si / 1000 Ang^3
#
#
#
# Elastic Constant Matrix: (Units=GPa)
#
#
# Indices 1 2 3 4 5 6 
#
# 1 28.4351 19.7749 6.7470 0.0000 11.8578 0.0000
# 2 19.7749 98.4623 47.6600 0.0000 13.1957 0.0000
# 3 6.7470 47.6600 97.3578 0.0000 28.8253 0.0000
# 4 0.0000 0.0000 0.0000 22.6369 0.0000 -8.7395
# 5 11.8578 13.1957 28.8253 0.0000 28.5884 0.0000
# 6 0.0000 0.0000 0.0000 -8.7395 0.0000 -2.0758
#
#
#
# Elastic Compliance Matrix: (Units=1/GPa)
#
#
# Indices 1 2 3 4 5 6 
#
# 1 0.051798 -0.011673 0.009823 0.000000 -0.026001 0.000000
# 2 -0.011673 0.015948 -0.008913 0.000000 0.006467 0.000000
# 3 0.009823 -0.008913 0.019876 0.000000 -0.020000 0.000000
# 4 0.000000 0.000000 0.000000 0.016826 0.000000 -0.070841
# 5 -0.026001 0.006467 -0.020000 0.000000 0.062945 0.000000
# 6 0.000000 0.000000 0.000000 -0.070841 0.000000 -0.183490
#
#
# Mechanical properties :
#
#
# Convention : Reuss Voigt Hill
#
# Bulk Modulus (GPa) = 15.12976 41.40211 28.26594
# Shear Modulus (GPa) = 182.08611 19.83478 100.96045
#
# Velocity S-wave (km/s) = 9.52883 3.14496 7.09540
# Velocity P-wave (km/s) = 11.34061 5.81663 9.01229
#
# Compressibility (1/GPa) = 0.06609491
#
# Stress axis : x y z
#
# Youngs Moduli (GPa) = 19.30591 62.70340 50.31314
#
# Poissons Ratio (x) = 0.73194 -0.49422
# Poissons Ratio (y) = 0.22536 0.44844
# Poissons Ratio (z) = -0.18964 0.55887
#
# Static dielectric constant tensor:
#      x y z
#    x 1.709300 0.000000 0.001800 
#    y 0.000000 1.679600 0.000000 
#    z 0.001800 0.000000 1.765810 
# 
# From -- ./inp_files/77702.got.cif
#   From: 2010.05.17/outbox.cif.g08.bks.cpg/sg10_39_cif.got.tgz:77702.got - 2010.06.03 11:33:40.
