data_PCOD9143610
_publ_section_title
;
Structure prediction by ZEFSAII (Michael W. Deem and Ramdas Pophale) SiO2 
 PCOD9143610
Probable space group: P 2/M
;
_chemical_formula_sum "Si O2"
_cell_formula_units_Z 28
_cell_length_a 20.860594
_cell_length_b 7.900093
_cell_length_c 16.653687
_cell_angle_alpha 90.000000
_cell_angle_beta 151.440708
_cell_angle_gamma 90.000000
_cell_volume 1312.075702
_symmetry_space_group_name_H-M "P 2/M"
_symmetry_group_IT_number 10
_symmetry_cell_setting 'monoclinic'
loop_
_space_group_symop_operation_xyz
x,y,z
-x,y,-z
-x,-y,-z
x,-y,z
loop_
_atom_site_type_symbol
_atom_site_label
_atom_site_fract_x
_atom_site_fract_y
_atom_site_fract_z
Si Si1 0.466139 0.295665 0.710020
Si Si2 0.814138 0.298330 0.524979
Si Si3 0.242781 0.797546 0.967474
Si Si4 0.218117 0.201865 0.121161
Si Si5 0.002159 0.795423 0.410930
Si Si6 0.922988 0.196706 0.807821
Si Si7 0.645882 0.306619 0.575963
O O1 0.464389 0.500000 0.703670
O O2 0.337519 0.244614 0.621016
O O3 0.608241 0.239206 0.899307
O O4 0.443397 0.227620 0.593559
O O5 0.823996 0.500000 0.548589
O O6 0.907822 0.209199 0.694623
O O7 0.866951 0.255226 0.495362
O O8 0.237700 0.728356 0.053219
O O9 0.226450 0.000000 0.954167
O O10 0.125292 0.732225 0.780984
O O11 0.334335 0.236101 0.313198
O O12 0.205303 0.000000 0.101066
O O13 0.071656 0.260518 0.991422
O O14 0.000000 0.734285 0.500000
O O15 0.996351 0.000000 0.406466
O O16 0.795855 0.294614 0.702793
O O17 0.908373 0.000000 0.816649
O O18 0.605353 0.500000 0.540047
#
# Coordination Sequence:
#
# PCOD9143610 Si02
#       7
#     4   4   4   4   4   4   4
#     4   9  21  39  55  78 114 155 192 229 274 331
#     4  10  20  36  59  86 116 149 189 230 276 337
#     4  10  21  38  58  84 112 145 189 234 280 338
#     4  10  20  33  50  76 111 146 189 237 284 331
#     4  10  21  40  65  91 117 143 179 230 284 339
#     4  10  18  32  53  77 111 149 189 236 284 329
#     4  10  21  34  49  76 112 149 196 238 275 328
#
# _framework density 21.340230999999999
#
# number of rings (size 3 to 8) (size 9 to 14) (size 15 to 20)
#    0.000    2.143    1.429    2.571    0.000    8.286 
#    0.000    3.571    0.000    4.286    0.000    0.000 
#    0.000    0.000    0.000    0.000    0.000    0.000 
#
# Total GULP energy -156389.644626 kJ/mol
# GULP energy per Si atom -5585.344451 kJ/mol
# Density = 2.129166 g / cm^3
# Si number density = 21.340231 Si / 1000 Ang^3
#
#
#
# Elastic Constant Matrix: (Units=GPa)
#
#
# Indices 1 2 3 4 5 6 
#
# 1 119.6784 4.0680 62.3960 0.0000 -16.9331 0.0000
# 2 4.0680 25.0719 6.3664 0.0000 -4.1140 0.0000
# 3 62.3960 6.3664 97.0259 0.0000 0.8316 0.0000
# 4 0.0000 0.0000 0.0000 21.5913 0.0000 3.5566
# 5 -16.9331 -4.1140 0.8316 0.0000 33.0408 0.0000
# 6 0.0000 0.0000 0.0000 3.5566 0.0000 11.6077
#
#
#
# Elastic Compliance Matrix: (Units=1/GPa)
#
#
# Indices 1 2 3 4 5 6 
#
# 1 0.014263 0.001319 -0.009325 0.000000 0.007709 0.000000
# 2 0.001319 0.041567 -0.003626 0.000000 0.005943 0.000000
# 3 -0.009325 -0.003626 0.016590 0.000000 -0.005648 0.000000
# 4 0.000000 0.000000 0.000000 0.048777 0.000000 -0.014945
# 5 0.007709 0.005943 -0.005648 0.000000 0.035098 0.000000
# 6 0.000000 0.000000 0.000000 -0.014945 0.000000 0.090729
#
#
# Mechanical properties :
#
#
# Convention : Reuss Voigt Hill
#
# Bulk Modulus (GPa) = 20.34401 43.04856 31.69628
# Shear Modulus (GPa) = 17.44135 24.51102 20.97619
#
# Velocity S-wave (km/s) = 2.86195 3.39275 3.13859
# Velocity P-wave (km/s) = 4.52491 5.96355 5.29334
#
# Compressibility (1/GPa) = 0.04915453
#
# Stress axis : x y z
#
# Youngs Moduli (GPa) = 70.10939 24.05738 60.27812
#
# Poissons Ratio (x) = -0.03172 0.56210
# Poissons Ratio (y) = -0.09244 0.21859
# Poissons Ratio (z) = 0.65378 0.08724
#
# Static dielectric constant tensor:
#      x y z
#    x 1.812110 0.000000 -0.002370 
#    y 0.000000 1.761990 0.000000 
#    z -0.002370 0.000000 1.769330 
# 
# From -- ./inp_files/70173.got.cif
#   From: 2010.05.17/outbox.cif.g08.bks.cpg/sg10_36_cif.got.tgz:70173.got - 2010.06.03 11:33:40.
