data_PCOD9143591
_publ_section_title
;
Structure prediction by ZEFSAII (Michael W. Deem and Ramdas Pophale) SiO2 
 PCOD9143591
Probable space group: P 2/M
;
_chemical_formula_sum "Si O2"
_cell_formula_units_Z 32
_cell_length_a 29.982623
_cell_length_b 8.894011
_cell_length_c 23.941849
_cell_angle_alpha 90.000000
_cell_angle_beta 16.813049
_cell_angle_gamma 90.000000
_cell_volume 1846.707303
_symmetry_space_group_name_H-M "P 2/M"
_symmetry_group_IT_number 10
_symmetry_cell_setting 'monoclinic'
loop_
_space_group_symop_operation_xyz
x,y,z
-x,y,-z
-x,-y,-z
x,-y,z
loop_
_atom_site_type_symbol
_atom_site_label
_atom_site_fract_x
_atom_site_fract_y
_atom_site_fract_z
Si Si1 0.778006 0.182221 0.015015
Si Si2 0.358241 0.819165 0.037980
Si Si3 0.104308 0.180170 0.249167
Si Si4 0.899185 0.817991 0.174362
Si Si5 0.028018 0.679217 0.793253
Si Si6 0.130914 0.675444 0.391426
Si Si7 0.438220 0.818459 0.395246
Si Si8 0.656452 0.181708 0.617273
O O1 0.600132 0.233702 0.225661
O O2 0.782932 0.000000 0.014978
O O3 0.852922 0.220245 0.865128
O O4 0.876536 0.258291 0.944953
O O5 0.245024 0.776333 0.122001
O O6 0.283001 0.751029 0.183605
O O7 0.354366 0.000000 0.046413
O O8 0.531585 0.774623 0.813617
O O9 0.947456 0.250426 0.460790
O O10 0.091770 0.000000 0.267415
O O11 0.958264 0.745157 0.160742
O O12 0.718924 0.773857 0.385349
O O13 0.905122 0.000000 0.173323
O O14 0.000000 0.775940 0.000000
O O15 0.030712 0.500000 0.791174
O O16 0.177553 0.741488 0.580566
O O17 0.156232 0.500000 0.370006
O O18 0.000000 0.693712 0.500000
O O19 0.416317 0.779117 0.356217
O O20 0.445416 0.000000 0.387714
O O21 0.675796 0.000000 0.595462
#
# Coordination Sequence:
#
# PCOD9143591 Si02
#       8
#     4   4   4   4   4   4   4   4
#     4  10  18  32  53  75 101 134 170 213 255 294
#     4   9  15  26  47  72  95 122 165 218 261 298
#     4   9  16  27  46  70  94 126 167 211 258 298
#     4   9  18  36  62  85 104 131 168 209 249 291
#     4  11  23  35  49  75 109 141 168 200 247 305
#     4   9  17  26  37  61  99 136 165 201 251 308
#     4   8  14  28  53  81 102 123 164 214 252 290
#     4   9  16  31  53  75  98 128 170 219 261 299
#
# _framework density 17.328139
#
# number of rings (size 3 to 8) (size 9 to 14) (size 15 to 20)
#    0.000    2.750    1.250    2.250    0.000    2.750 
#    0.000    3.125    0.000    4.500    0.000    5.250 
#    0.000    0.000    0.000    0.000    0.000    0.000 
#
# Total GULP energy -178340.305866 kJ/mol
# GULP energy per Si atom -5573.134558 kJ/mol
# Density = 1.728870 g / cm^3
# Si number density = 17.328139 Si / 1000 Ang^3
#
#
#
# Elastic Constant Matrix: (Units=GPa)
#
#
# Indices 1 2 3 4 5 6 
#
# 1 60.6351 25.5355 62.5362 0.0000 -6.9686 0.0000
# 2 25.5355 25.9801 40.5408 0.0000 3.3593 0.0000
# 3 62.5362 40.5408 159.0554 0.0000 8.0310 0.0000
# 4 0.0000 0.0000 0.0000 3.6992 0.0000 -0.9790
# 5 -6.9686 3.3593 8.0310 0.0000 28.6027 0.0000
# 6 0.0000 0.0000 0.0000 -0.9790 0.0000 7.1730
#
#
#
# Elastic Compliance Matrix: (Units=1/GPa)
#
#
# Indices 1 2 3 4 5 6 
#
# 1 0.038597 -0.024931 -0.009579 0.000000 0.015021 0.000000
# 2 -0.024931 0.080265 -0.010015 0.000000 -0.012689 0.000000
# 3 -0.009579 -0.010015 0.012847 0.000000 -0.004765 0.000000
# 4 0.000000 0.000000 0.000000 0.280460 0.000000 0.038278
# 5 0.015021 -0.012689 -0.004765 0.000000 0.041449 0.000000
# 6 0.000000 0.000000 0.000000 0.038278 0.000000 0.144635
#
#
# Mechanical properties :
#
#
# Convention : Reuss Voigt Hill
#
# Bulk Modulus (GPa) = 23.44261 55.87728 39.65994
# Shear Modulus (GPa) = 7.12734 15.69887 11.41310
#
# Velocity S-wave (km/s) = 2.03029 3.01321 2.56919
# Velocity P-wave (km/s) = 4.36510 6.66502 5.63367
#
# Compressibility (1/GPa) = 0.04265737
#
# Stress axis : x y z
#
# Youngs Moduli (GPa) = 25.90843 12.45879 77.84039
#
# Poissons Ratio (x) = 0.31061 0.74566
# Poissons Ratio (y) = 0.64592 0.77960
# Poissons Ratio (z) = 0.24819 0.12478
#
# Static dielectric constant tensor:
#      x y z
#    x 1.569440 0.000000 -0.003390 
#    y 0.000000 1.572420 0.000000 
#    z -0.003390 0.000000 1.605710 
# 
# From -- ./inp_files/86806.got.cif
#   From: 2010.05.17/outbox.cif.g08.bks.cpg/sg10_44_cif.got.tgz:86806.got - 2010.06.03 11:33:40.
