data_PCOD9143693
_publ_section_title
;
Structure prediction by ZEFSAII (Michael W. Deem and Ramdas Pophale) SiO2 
 PCOD9143693
Probable space group: P 2/M
;
_chemical_formula_sum "Si O2"
_cell_formula_units_Z 18
_cell_length_a 5.653745
_cell_length_b 18.969169
_cell_length_c 7.031722
_cell_angle_alpha 90.000000
_cell_angle_beta 103.503208
_cell_angle_gamma 90.000000
_cell_volume 733.283465
_symmetry_space_group_name_H-M "P 2/M"
_symmetry_group_IT_number 10
_symmetry_cell_setting 'monoclinic'
loop_
_space_group_symop_operation_xyz
x,y,z
-x,y,-z
-x,-y,-z
x,-y,z
loop_
_atom_site_type_symbol
_atom_site_label
_atom_site_fract_x
_atom_site_fract_y
_atom_site_fract_z
Si Si1 0.837777 0.917497 0.232929
Si Si2 0.664376 0.134482 0.785694
Si Si3 0.441041 0.420605 0.714821
Si Si4 0.000000 0.343242 0.500000
Si Si5 0.233112 0.709423 0.179512
O O1 0.599032 0.897271 0.309757
O O2 0.095190 0.877142 0.298586
O O3 0.887689 0.000000 0.263378
O O4 0.748694 0.900656 0.000806
O O5 0.624997 0.217665 0.811875
O O6 0.500000 0.422632 0.500000
O O7 0.468193 0.500000 0.790216
O O8 0.166310 0.392326 0.664855
O O9 0.615796 0.361326 0.833184
O O10 0.156658 0.297301 0.385863
O O11 0.000000 0.714104 0.000000
#
# Coordination Sequence:
#
# PCOD9143693 Si02
#       5
#     4   4   4   2   4
#     4  10  18  32  54  88 126 166 215 263 320 386
#     4  10  19  31  54  88 128 162 209 269 316 386
#     4   9  20  40  64  90 124 167 219 268 322 390
#     4  10  23  40  64  88 125 170 218 266 333 382
#     4  11  23  39  61  93 131 166 214 269 331 390
#
# _framework density 24.547122000000002
#
# number of rings (size 3 to 8) (size 9 to 14) (size 15 to 20)
#    0.000    2.000    2.222    3.667    3.111    2.222 
#    0.000    1.111    0.000    0.000    0.000    8.556 
#    0.000    0.000    0.000    0.000    0.000    0.000 
#
# Total GULP energy -100675.037716 kJ/mol
# GULP energy per Si atom -5593.057651 kJ/mol
# Density = 2.449125 g / cm^3
# Si number density = 24.547122 Si / 1000 Ang^3
#
#
#
# Elastic Constant Matrix: (Units=GPa)
#
#
# Indices 1 2 3 4 5 6 
#
# 1 133.6444 16.5140 19.3764 0.0000 -7.0402 0.0000
# 2 16.5140 169.3352 5.1388 0.0000 3.4996 0.0000
# 3 19.3764 5.1388 84.8394 0.0000 2.8947 0.0000
# 4 0.0000 0.0000 0.0000 39.8758 0.0000 16.6262
# 5 -7.0402 3.4996 2.8947 0.0000 38.3867 0.0000
# 6 0.0000 0.0000 0.0000 16.6262 0.0000 24.6010
#
#
#
# Elastic Compliance Matrix: (Units=1/GPa)
#
#
# Indices 1 2 3 4 5 6 
#
# 1 0.007927 -0.000752 -0.001822 0.000000 0.001660 0.000000
# 2 -0.000752 0.005998 -0.000169 0.000000 -0.000672 0.000000
# 3 -0.001822 -0.000169 0.012256 0.000000 -0.001243 0.000000
# 4 0.000000 0.000000 0.000000 0.034917 0.000000 -0.023598
# 5 0.001660 -0.000672 -0.001243 0.000000 0.026510 0.000000
# 6 0.000000 0.000000 0.000000 -0.023598 0.000000 0.056597
#
#
# Mechanical properties :
#
#
# Convention : Reuss Voigt Hill
#
# Bulk Modulus (GPa) = 48.31849 52.20860 50.26354
# Shear Modulus (GPa) = 31.93091 43.69202 37.81146
#
# Velocity S-wave (km/s) = 3.61057 4.22349 3.92900
# Velocity P-wave (km/s) = 6.09166 6.71556 6.41121
#
# Compressibility (1/GPa) = 0.02069601
#
# Stress axis : x y z
#
# Youngs Moduli (GPa) = 126.15108 166.72785 81.59533
#
# Poissons Ratio (x) = 0.12539 0.14863
# Poissons Ratio (y) = 0.09488 0.01376
# Poissons Ratio (z) = 0.22979 0.02811
#
# Static dielectric constant tensor:
#      x y z
#    x 1.873110 0.000000 0.039310 
#    y 0.000000 1.867120 0.000000 
#    z 0.039310 0.000000 1.946410 
# 
# From -- ./inp_files/14805.got.cif
#   From: 2010.05.17/outbox.cif.g08.bks.cpg/sg10_8_cif.got.tgz:14805.got - 2010.06.03 11:33:40.
