data_PCOD9143802
_publ_section_title
;
Structure prediction by ZEFSAII (Michael W. Deem and Ramdas Pophale) SiO2 
 PCOD9143802
Probable space group: P 2/M
;
_chemical_formula_sum "Si O2"
_cell_formula_units_Z 22
_cell_length_a 30.182982
_cell_length_b 7.868190
_cell_length_c 18.235950
_cell_angle_alpha 90.000000
_cell_angle_beta 164.801999
_cell_angle_gamma 90.000000
_cell_volume 1135.335888
_symmetry_space_group_name_H-M "P 2/M"
_symmetry_group_IT_number 10
_symmetry_cell_setting 'monoclinic'
loop_
_space_group_symop_operation_xyz
x,y,z
-x,y,-z
-x,-y,-z
x,-y,z
loop_
_atom_site_type_symbol
_atom_site_label
_atom_site_fract_x
_atom_site_fract_y
_atom_site_fract_z
Si Si1 0.874435 0.690682 0.572528
Si Si2 0.623516 0.000000 0.921805
Si Si3 0.162251 0.000000 0.868229
Si Si4 0.408038 0.306232 0.512736
Si Si5 0.956090 0.796766 0.013929
Si Si6 0.744607 0.308323 0.886134
Si Si7 0.784400 0.000000 0.331868
O O1 0.807309 0.500000 0.456506
O O2 0.776707 0.834423 0.371291
O O3 0.902363 0.735987 0.702356
O O4 0.065958 0.693112 0.845879
O O5 0.797652 0.000000 0.153496
O O6 0.521714 0.165866 0.733003
O O7 0.653906 0.000000 0.056841
O O8 0.249566 0.165282 0.043412
O O9 0.969268 0.000000 0.587520
O O10 0.467921 0.500000 0.617382
O O11 0.220411 0.289940 0.247120
O O12 0.378861 0.271873 0.379320
O O13 0.935455 0.000000 0.991134
O O14 0.000000 0.762564 0.000000
O O15 0.713170 0.500000 0.862738
#
# Coordination Sequence:
#
# PCOD9143802 Si02
#       7
#     4   2   2   4   4   4   2
#     4   9  17  32  55  80 106 137 172 214 264 311
#     4  12  24  36  51  74 104 145 187 224 262 306
#     4  10  20  34  55  75  98 134 183 231 273 304
#     4  10  21  36  53  78 113 145 171 207 266 328
#     4  10  18  32  60  92 114 132 162 211 265 317
#     4   8  16  31  52  77 104 132 166 214 269 324
#     4  10  21  38  54  71 102 143 190 230 255 298
#
# _framework density 19.377527000000001
#
# number of rings (size 3 to 8) (size 9 to 14) (size 15 to 20)
#    0.000    2.364    1.818    2.455    2.545    4.364 
#    0.000    1.818    0.000    7.636    0.000    2.545 
#    0.000    0.000    0.000    0.000    0.000    0.000 
#
# Total GULP energy -122840.441338 kJ/mol
# GULP energy per Si atom -5583.656424 kJ/mol
# Density = 1.933342 g / cm^3
# Si number density = 19.377527 Si / 1000 Ang^3
#
#
#
# Elastic Constant Matrix: (Units=GPa)
#
#
# Indices 1 2 3 4 5 6 
#
# 1 73.9221 42.1208 15.2112 0.0000 -30.8607 0.0000
# 2 42.1208 134.2302 53.9081 0.0000 -42.0172 0.0000
# 3 15.2112 53.9081 60.6616 0.0000 -34.0243 0.0000
# 4 0.0000 0.0000 0.0000 5.7070 0.0000 -0.0757
# 5 -30.8607 -42.0172 -34.0243 0.0000 35.2891 0.0000
# 6 0.0000 0.0000 0.0000 -0.0757 0.0000 -15.7370
#
#
#
# Elastic Compliance Matrix: (Units=1/GPa)
#
#
# Indices 1 2 3 4 5 6 
#
# 1 0.026757 -0.004257 0.016017 0.000000 0.033774 0.000000
# 2 -0.004257 0.013537 -0.008733 0.000000 0.003976 0.000000
# 3 0.016017 -0.008733 0.048460 0.000000 0.050332 0.000000
# 4 0.000000 0.000000 0.000000 0.175212 0.000000 -0.000843
# 5 0.033774 0.003976 0.050332 0.000000 0.111135 0.000000
# 6 0.000000 0.000000 0.000000 -0.000843 0.000000 -0.063540
#
#
# Mechanical properties :
#
#
# Convention : Reuss Voigt Hill
#
# Bulk Modulus (GPa) = 10.54760 54.58821 32.56790
# Shear Modulus (GPa) = 14.83199 15.55673 15.19436
#
# Velocity S-wave (km/s) = 2.76963 2.83649 2.80326
# Velocity P-wave (km/s) = 3.96015 6.24176 5.22697
#
# Compressibility (1/GPa) = 0.09480832
#
# Stress axis : x y z
#
# Youngs Moduli (GPa) = 37.37316 73.86955 20.63574
#
# Poissons Ratio (x) = 0.31444 -0.33051
# Poissons Ratio (y) = 0.15909 0.18021
# Poissons Ratio (z) = -0.59859 0.64508
#
# Static dielectric constant tensor:
#      x y z
#    x 1.685150 0.000000 0.029930 
#    y 0.000000 1.672110 0.000000 
#    z 0.029930 0.000000 1.663250 
# 
# From -- ./inp_files/68537.got.cif
#   From: 2010.05.17/outbox.cif.g08.bks.cpg/sg10_35_cif.got.tgz:68537.got - 2010.06.03 11:33:40.
