data_PCOD9143367
_publ_section_title
;
Structure prediction by ZEFSAII (Michael W. Deem and Ramdas Pophale) SiO2 
 PCOD9143367
Probable space group: P 2/M
;
_chemical_formula_sum "Si O2"
_cell_formula_units_Z 32
_cell_length_a 18.187901
_cell_length_b 8.740894
_cell_length_c 24.482239
_cell_angle_alpha 90.000000
_cell_angle_beta 30.619791
_cell_angle_gamma 90.000000
_cell_volume 1982.422623
_symmetry_space_group_name_H-M "P 2/M"
_symmetry_group_IT_number 10
_symmetry_cell_setting 'monoclinic'
loop_
_space_group_symop_operation_xyz
x,y,z
-x,y,-z
-x,-y,-z
x,-y,z
loop_
_atom_site_type_symbol
_atom_site_label
_atom_site_fract_x
_atom_site_fract_y
_atom_site_fract_z
Si Si1 0.455558 0.682506 0.638062
Si Si2 0.227482 0.816970 0.586646
Si Si3 0.903432 0.318886 0.434355
Si Si4 0.628218 0.184957 0.190818
Si Si5 0.672541 0.185091 0.667418
Si Si6 0.202689 0.815163 0.728245
Si Si7 0.120198 0.823161 0.374766
Si Si8 0.950917 0.814020 0.970804
O O1 0.460900 0.500000 0.635059
O O2 0.614683 0.748942 0.526582
O O3 0.398040 0.743994 0.732897
O O4 0.346170 0.741680 0.661754
O O5 0.118924 0.752805 0.610750
O O6 0.186303 0.777853 0.675070
O O7 0.235017 0.000000 0.576761
O O8 0.890942 0.500000 0.439680
O O9 0.774298 0.254206 0.555260
O O10 0.051737 0.270991 0.369319
O O11 0.492317 0.225548 0.239726
O O12 0.628492 0.000000 0.196855
O O13 0.784945 0.232096 0.068539
O O14 0.736583 0.232036 0.685359
O O15 0.687415 0.000000 0.655115
O O16 0.066138 0.764431 0.851955
O O17 0.216004 0.000000 0.724475
O O18 0.000000 0.820279 0.500000
O O19 0.137471 0.000000 0.346941
O O20 0.953877 0.000000 0.968725
O O21 0.000000 0.764806 0.000000
#
# Coordination Sequence:
#
# PCOD9143367 Si02
#       8
#     4   4   4   4   4   4   4   4
#     4  12  23  33  48  72 101 129 162 203 245 287
#     4  11  22  35  51  69  95 131 169 202 240 292
#     4  11  20  29  45  70  99 129 159 196 244 289
#     4  10  18  31  53  74  98 131 164 198 241 290
#     4   9  17  29  47  70  97 131 164 194 234 289
#     4  10  21  37  54  71  92 128 170 205 243 290
#     4   8  15  28  44  65  95 129 163 193 230 287
#     4   9  16  30  54  77  94 119 163 210 244 282
#
# _framework density 16.141864999999999
#
# number of rings (size 3 to 8) (size 9 to 14) (size 15 to 20)
#    0.000    2.000    2.500    3.750    0.000    4.750 
#    0.000    1.250    0.000    0.000    0.000    0.875 
#    0.000    7.000    0.000    0.000    0.000    0.000 
#
# Total GULP energy -178510.809682 kJ/mol
# GULP energy per Si atom -5578.462803 kJ/mol
# Density = 1.610513 g / cm^3
# Si number density = 16.141865 Si / 1000 Ang^3
#
#
#
# Elastic Constant Matrix: (Units=GPa)
#
#
# Indices 1 2 3 4 5 6 
#
# 1 152.3141 43.1174 44.2163 0.0000 -9.5612 0.0000
# 2 43.1174 34.9130 19.0228 0.0000 0.0124 0.0000
# 3 44.2163 19.0228 42.6969 0.0000 4.8166 0.0000
# 4 0.0000 0.0000 0.0000 -2.3227 0.0000 -1.4006
# 5 -9.5612 0.0124 4.8166 0.0000 21.8469 0.0000
# 6 0.0000 0.0000 0.0000 -1.4006 0.0000 -2.9429
#
#
#
# Elastic Compliance Matrix: (Units=1/GPa)
#
#
# Indices 1 2 3 4 5 6 
#
# 1 0.012788 -0.010709 -0.009336 0.000000 0.007661 0.000000
# 2 -0.010709 0.047101 -0.009602 0.000000 -0.002597 0.000000
# 3 -0.009336 -0.009602 0.038792 0.000000 -0.012633 0.000000
# 4 0.000000 0.000000 0.000000 -0.603827 0.000000 0.287372
# 5 0.007661 -0.002597 -0.012633 0.000000 0.051913 0.000000
# 6 0.000000 0.000000 0.000000 0.287372 0.000000 -0.476562
#
#
# Mechanical properties :
#
#
# Convention : Reuss Voigt Hill
#
# Bulk Modulus (GPa) = 25.38900 49.18190 37.28545
# Shear Modulus (GPa) = -5.83178 11.55409 2.86116
#
# Velocity S-wave (km/s) = -1.90281 2.67832 1.33280
# Velocity P-wave (km/s) = 3.30685 6.33239 5.05146
#
# Compressibility (1/GPa) = 0.03938713
#
# Stress axis : x y z
#
# Youngs Moduli (GPa) = 78.19778 21.23100 25.77823
#
# Poissons Ratio (x) = 0.22736 0.24067
# Poissons Ratio (y) = 0.83742 0.24752
# Poissons Ratio (z) = 0.73007 0.20386
#
# Static dielectric constant tensor:
#      x y z
#    x 1.558260 0.000000 -0.017340 
#    y 0.000000 1.536880 0.000000 
#    z -0.017340 0.000000 1.520960 
# 
# From -- ./inp_files/89937.got.cif
#   From: 2010.05.17/outbox.cif.g08.bks.cpg/sg10_45_cif.got.tgz:89937.got - 2010.06.03 11:33:40.
