data_PCOD9143798
_publ_section_title
;
Structure prediction by ZEFSAII (Michael W. Deem and Ramdas Pophale) SiO2 
 PCOD9143798
Probable space group: P 2/M
;
_chemical_formula_sum "Si O2"
_cell_formula_units_Z 32
_cell_length_a 20.942774
_cell_length_b 14.228219
_cell_length_c 9.141394
_cell_angle_alpha 90.000000
_cell_angle_beta 32.920687
_cell_angle_gamma 90.000000
_cell_volume 1480.399043
_symmetry_space_group_name_H-M "P 2/M"
_symmetry_group_IT_number 10
_symmetry_cell_setting 'monoclinic'
loop_
_space_group_symop_operation_xyz
x,y,z
-x,y,-z
-x,-y,-z
x,-y,z
loop_
_atom_site_type_symbol
_atom_site_label
_atom_site_fract_x
_atom_site_fract_y
_atom_site_fract_z
Si Si1 0.222828 0.710058 0.578363
Si Si2 0.603435 0.674755 0.207060
Si Si3 0.046844 0.257505 0.164609
Si Si4 0.455836 0.773930 0.242382
Si Si5 0.380029 0.870152 0.655667
Si Si6 0.829745 0.392522 0.614188
Si Si7 0.136874 0.867445 0.232263
Si Si8 0.866135 0.887515 0.424536
O O1 0.123454 0.695682 0.891495
O O2 0.346635 0.706623 0.419686
O O3 0.214431 0.637344 0.462493
O O4 0.204351 0.815742 0.544857
O O5 0.500000 0.624171 0.500000
O O6 0.550189 0.718711 0.159427
O O7 0.630190 0.764941 0.256806
O O8 0.722307 0.623297 0.932966
O O9 0.250951 0.090951 0.932906
O O10 0.115701 0.225530 0.175609
O O11 0.994813 0.161405 0.190321
O O12 0.408682 0.859234 0.430862
O O13 0.500000 0.804853 0.000000
O O14 0.500000 0.906129 0.500000
O O15 0.867523 0.500000 0.546897
O O16 0.939470 0.322457 0.420456
O O17 0.176267 0.870754 0.325930
O O18 0.000000 0.904109 0.500000
O O19 0.865853 0.000000 0.393932
#
# Coordination Sequence:
#
# PCOD9143798 Si02
#       8
#     4   4   4   4   4   4   4   4
#     4  11  21  38  61  90 121 164 200 247 306 368
#     4   9  19  34  56  86 112 158 203 256 298 352
#     4  10  22  37  61  90 119 160 202 251 305 365
#     4  10  18  32  59  91 113 152 204 250 296 363
#     4   9  18  32  59  90 113 155 202 247 305 366
#     4  11  22  38  61  89 126 164 203 249 306 363
#     4  10  19  34  58  89 119 152 196 253 298 363
#     4  10  22  37  60  91 125 159 198 252 310 367
#
# _framework density 21.615793
#
# number of rings (size 3 to 8) (size 9 to 14) (size 15 to 20)
#    0.000    2.250    2.500    3.750    1.750    4.500 
#    0.000    1.250    0.000   19.875    0.000    0.000 
#    0.000    0.000    0.000    0.000    0.000    0.000 
#
# Total GULP energy -178215.509085 kJ/mol
# GULP energy per Si atom -5569.234659 kJ/mol
# Density = 2.156659 g / cm^3
# Si number density = 21.615793 Si / 1000 Ang^3
#
#
#
# Elastic Constant Matrix: (Units=GPa)
#
#
# Indices 1 2 3 4 5 6 
#
# 1 82.6439 16.6672 38.6581 0.0000 -1.0810 0.0000
# 2 16.6672 92.5923 25.6364 0.0000 -6.0857 0.0000
# 3 38.6581 25.6364 187.1534 0.0000 2.3313 0.0000
# 4 0.0000 0.0000 0.0000 65.6914 0.0000 17.9461
# 5 -1.0810 -6.0857 2.3313 0.0000 44.2791 0.0000
# 6 0.0000 0.0000 0.0000 17.9461 0.0000 32.7454
#
#
#
# Elastic Compliance Matrix: (Units=1/GPa)
#
#
# Indices 1 2 3 4 5 6 
#
# 1 0.013662 -0.001727 -0.002588 0.000000 0.000232 0.000000
# 2 -0.001727 0.011562 -0.001247 0.000000 0.001613 0.000000
# 3 -0.002588 -0.001247 0.006056 0.000000 -0.000553 0.000000
# 4 0.000000 0.000000 0.000000 0.017903 0.000000 -0.009812
# 5 0.000232 0.001613 -0.000553 0.000000 0.022840 0.000000
# 6 0.000000 0.000000 0.000000 -0.009812 0.000000 0.035916
#
#
# Mechanical properties :
#
#
# Convention : Reuss Voigt Hill
#
# Bulk Modulus (GPa) = 49.61674 58.25701 53.93688
# Shear Modulus (GPa) = 39.75087 47.30505 43.52796
#
# Velocity S-wave (km/s) = 4.29298 4.68316 4.49231
# Velocity P-wave (km/s) = 6.89758 7.50015 7.20517
#
# Compressibility (1/GPa) = 0.02015449
#
# Stress axis : x y z
#
# Youngs Moduli (GPa) = 73.19438 86.48839 165.13717
#
# Poissons Ratio (x) = 0.14940 0.42743
# Poissons Ratio (y) = 0.12643 0.20594
# Poissons Ratio (z) = 0.18945 0.10786
#
# Static dielectric constant tensor:
#      x y z
#    x 1.820880 0.000000 -0.012120 
#    y 0.000000 1.759430 0.000000 
#    z -0.012120 0.000000 1.859720 
# 
# From -- ./inp_files/35097.got.cif
#   From: 2010.05.17/outbox.cif.g08.bks.cpg/sg10_18_cif.got.tgz:35097.got - 2010.06.03 11:33:40.
