data_PCOD9143445
_publ_section_title
;
Structure prediction by ZEFSAII (Michael W. Deem and Ramdas Pophale) SiO2 
 PCOD9143445
Probable space group: P 2/M
;
_chemical_formula_sum "Si O2"
_cell_formula_units_Z 24
_cell_length_a 11.724516
_cell_length_b 7.700343
_cell_length_c 22.300051
_cell_angle_alpha 90.000000
_cell_angle_beta 36.062076
_cell_angle_gamma 90.000000
_cell_volume 1185.158471
_symmetry_space_group_name_H-M "P 2/M"
_symmetry_group_IT_number 10
_symmetry_cell_setting 'monoclinic'
loop_
_space_group_symop_operation_xyz
x,y,z
-x,y,-z
-x,-y,-z
x,-y,z
loop_
_atom_site_type_symbol
_atom_site_label
_atom_site_fract_x
_atom_site_fract_y
_atom_site_fract_z
Si Si1 0.013423 0.302724 0.800406
Si Si2 0.401291 0.709530 0.694190
Si Si3 0.150267 0.000000 0.348721
Si Si4 0.359654 0.290114 0.968933
Si Si5 0.706919 0.000000 0.577968
Si Si6 0.791385 0.808092 0.791074
Si Si7 0.779241 0.710309 0.099458
O O1 0.027596 0.500000 0.817914
O O2 0.946336 0.305649 0.760092
O O3 0.226720 0.234257 0.723759
O O4 0.829042 0.226671 0.914752
O O5 0.438933 0.500000 0.673616
O O6 0.316597 0.750256 0.796521
O O7 0.588896 0.829400 0.607799
O O8 0.268429 0.000000 0.360008
O O9 0.193066 0.165431 0.287126
O O10 0.923551 0.000000 0.460300
O O11 0.358772 0.500000 0.971953
O O12 0.571553 0.236994 0.900606
O O13 0.335553 0.231032 0.910458
O O14 0.836688 0.000000 0.795372
O O15 0.785820 0.500000 0.093646
O O16 0.000000 0.772755 0.000000
#
# Coordination Sequence:
#
# PCOD9143445 Si02
#       7
#     4   4   2   4   2   4   4
#     4  10  20  35  55  86 125 159 195 236 282 353
#     4  10  21  37  62  95 122 155 200 238 297 363
#     4   9  24  45  61  85 114 145 196 255 308 352
#     4  10  18  31  54  82 117 163 198 231 289 345
#     4  11  22  45  71  84 116 151 187 263 316 346
#     4  10  22  37  53  76 114 154 200 239 282 345
#     4   9  15  29  51  80 119 153 185 238 287 336
#
# _framework density 20.250457000000001
#
# number of rings (size 3 to 8) (size 9 to 14) (size 15 to 20)
#    0.500    1.667    1.667    2.000    1.167    2.667 
#    0.000    6.250    0.000    2.000    0.000    0.000 
#    0.000    0.000    0.000    0.000    0.000    0.000 
#
# Total GULP energy -133736.819970 kJ/mol
# GULP energy per Si atom -5572.367499 kJ/mol
# Density = 2.020437 g / cm^3
# Si number density = 20.250457 Si / 1000 Ang^3
#
#
#
# Elastic Constant Matrix: (Units=GPa)
#
#
# Indices 1 2 3 4 5 6 
#
# 1 114.8281 14.0627 35.0798 0.0000 -25.4883 0.0000
# 2 14.0627 58.1382 23.4282 0.0000 -13.0553 0.0000
# 3 35.0798 23.4282 72.5933 0.0000 -23.3449 0.0000
# 4 0.0000 0.0000 0.0000 20.3018 0.0000 0.2033
# 5 -25.4883 -13.0553 -23.3449 0.0000 34.2939 0.0000
# 6 0.0000 0.0000 0.0000 0.2033 0.0000 26.3678
#
#
#
# Elastic Compliance Matrix: (Units=1/GPa)
#
#
# Indices 1 2 3 4 5 6 
#
# 1 0.011069 0.000042 -0.003472 0.000000 0.005880 0.000000
# 2 0.000042 0.020227 -0.005200 0.000000 0.004191 0.000000
# 3 -0.003472 -0.005200 0.020055 0.000000 0.009092 0.000000
# 4 0.000000 0.000000 0.000000 0.049260 0.000000 -0.000380
# 5 0.005880 0.004191 0.009092 0.000000 0.041315 0.000000
# 6 0.000000 0.000000 0.000000 -0.000380 0.000000 0.037928
#
#
# Mechanical properties :
#
#
# Convention : Reuss Voigt Hill
#
# Bulk Modulus (GPa) = 29.33314 43.41123 36.37218
# Shear Modulus (GPa) = 23.98327 27.72530 25.85429
#
# Velocity S-wave (km/s) = 3.44515 3.70418 3.57701
# Velocity P-wave (km/s) = 5.50836 6.30700 5.92116
#
# Compressibility (1/GPa) = 0.03409114
#
# Stress axis : x y z
#
# Youngs Moduli (GPa) = 90.34028 49.43881 49.86214
#
# Poissons Ratio (x) = -0.00207 0.17311
# Poissons Ratio (y) = -0.00378 0.25930
# Poissons Ratio (z) = 0.31364 0.25710
#
# Static dielectric constant tensor:
#      x y z
#    x 1.752930 0.000000 0.011270 
#    y 0.000000 1.742160 0.000000 
#    z 0.011270 0.000000 1.689990 
# 
# From -- ./inp_files/88639.got.cif
#   From: 2010.05.17/outbox.cif.g08.bks.cpg/sg10_45_cif.got.tgz:88639.got - 2010.06.03 11:33:40.
