data_PCOD9143726
_publ_section_title
;
Structure prediction by ZEFSAII (Michael W. Deem and Ramdas Pophale) SiO2 
 PCOD9143726
Probable space group: P 2/M
;
_chemical_formula_sum "Si O2"
_cell_formula_units_Z 32
_cell_length_a 22.795568
_cell_length_b 7.495097
_cell_length_c 14.928586
_cell_angle_alpha 90.000000
_cell_angle_beta 28.943537
_cell_angle_gamma 90.000000
_cell_volume 1234.367791
_symmetry_space_group_name_H-M "P 2/M"
_symmetry_group_IT_number 10
_symmetry_cell_setting 'monoclinic'
loop_
_space_group_symop_operation_xyz
x,y,z
-x,y,-z
-x,-y,-z
x,-y,z
loop_
_atom_site_type_symbol
_atom_site_label
_atom_site_fract_x
_atom_site_fract_y
_atom_site_fract_z
Si Si1 0.199463 0.282246 0.985121
Si Si2 0.900558 0.718069 0.703199
Si Si3 0.728068 0.283335 0.300866
Si Si4 0.206783 0.215501 0.478207
Si Si5 0.916777 0.794207 0.188265
Si Si6 0.293819 0.708538 0.173434
Si Si7 0.533933 0.704806 0.317060
Si Si8 0.461192 0.204027 0.216561
O O1 0.196621 0.500000 0.990391
O O2 0.191198 0.229502 0.892605
O O3 0.334082 0.221624 0.836467
O O4 0.104581 0.221144 0.187235
O O5 0.907220 0.500000 0.694914
O O6 0.774753 0.769961 0.823881
O O7 0.000000 0.781831 0.500000
O O8 0.726826 0.500000 0.308064
O O9 0.785911 0.211279 0.314301
O O10 0.589517 0.221072 0.474935
O O11 0.105665 0.283372 0.683127
O O12 0.206141 0.265353 0.375340
O O13 0.338844 0.278678 0.337011
O O14 0.204161 0.000000 0.485756
O O15 0.954717 0.000000 0.147624
O O16 0.000000 0.707661 0.000000
O O17 0.315560 0.500000 0.135607
O O18 0.425718 0.793079 0.002744
O O19 0.541329 0.500000 0.337782
O O20 0.505944 0.706271 0.248346
O O21 0.436859 0.000000 0.273215
#
# Coordination Sequence:
#
# PCOD9143726 Si02
#       8
#     4   4   4   4   4   4   4   4
#     4   9  17  32  53  80 114 145 175 218 279 335
#     4   9  18  33  53  78 109 144 180 219 269 326
#     4  10  20  33  57  86 111 141 181 233 280 325
#     4  10  22  39  57  80 111 149 186 226 280 335
#     4  10  22  41  60  77 108 154 194 229 276 332
#     4  11  22  36  58  87 113 144 184 231 278 328
#     4  10  18  32  55  83 112 143 180 223 277 333
#     4  11  21  35  57  82 112 150 184 221 276 336
#
# _framework density 25.924202000000001
#
# number of rings (size 3 to 8) (size 9 to 14) (size 15 to 20)
#    0.000    2.000    2.500    1.500    0.000    5.750 
#    0.000    1.875    0.000    3.000    0.000    0.000 
#    0.000    0.000    0.000    0.000    0.000    0.000 
#
# Total GULP energy -178943.388283 kJ/mol
# GULP energy per Si atom -5591.980884 kJ/mol
# Density = 2.586520 g / cm^3
# Si number density = 25.924202 Si / 1000 Ang^3
#
#
#
# Elastic Constant Matrix: (Units=GPa)
#
#
# Indices 1 2 3 4 5 6 
#
# 1 86.4220 -0.2877 17.5364 0.0000 29.6015 0.0000
# 2 -0.2877 81.7873 3.5225 0.0000 -1.3887 0.0000
# 3 17.5364 3.5225 155.5142 0.0000 38.0383 0.0000
# 4 0.0000 0.0000 0.0000 8.3957 0.0000 1.1658
# 5 29.6015 -1.3887 38.0383 0.0000 51.4040 0.0000
# 6 0.0000 0.0000 0.0000 1.1658 0.0000 14.4625
#
#
#
# Elastic Compliance Matrix: (Units=1/GPa)
#
#
# Indices 1 2 3 4 5 6 
#
# 1 0.014447 -0.000118 0.000500 0.000000 -0.008692 0.000000
# 2 -0.000118 0.012258 -0.000442 0.000000 0.000726 0.000000
# 3 0.000500 -0.000442 0.007884 0.000000 -0.006134 0.000000
# 4 0.000000 0.000000 0.000000 0.120456 0.000000 -0.009709
# 5 -0.008692 0.000726 -0.006134 0.000000 0.029018 0.000000
# 6 0.000000 0.000000 0.000000 -0.009709 0.000000 0.069927
#
#
# Mechanical properties :
#
#
# Convention : Reuss Voigt Hill
#
# Bulk Modulus (GPa) = 29.01276 40.58510 34.79893
# Shear Modulus (GPa) = 18.82529 35.04926 26.93728
#
# Velocity S-wave (km/s) = 2.69767 3.68093 3.22697
# Velocity P-wave (km/s) = 4.57372 5.80990 5.22847
#
# Compressibility (1/GPa) = 0.03446759
#
# Stress axis : x y z
#
# Youngs Moduli (GPa) = 69.22037 81.58078 126.83449
#
# Poissons Ratio (x) = 0.00965 -0.06338
# Poissons Ratio (y) = 0.00819 0.05606
# Poissons Ratio (z) = -0.03459 0.03606
#
# Static dielectric constant tensor:
#      x y z
#    x 1.998590 0.000000 -0.012130 
#    y 0.000000 1.965640 0.000000 
#    z -0.012130 0.000000 2.102920 
# 
# From -- ./inp_files/71439.got.cif
#   From: 2010.05.17/outbox.cif.g08.bks.cpg/sg10_36_cif.got.tgz:71439.got - 2010.06.03 11:33:40.
