data_PCOD9143725
_publ_section_title
;
Structure prediction by ZEFSAII (Michael W. Deem and Ramdas Pophale) SiO2 
 PCOD9143725
Probable space group: P 2/M
;
_chemical_formula_sum "Si O2"
_cell_formula_units_Z 32
_cell_length_a 23.603972
_cell_length_b 8.115604
_cell_length_c 24.092275
_cell_angle_alpha 90.000000
_cell_angle_beta 19.650624
_cell_angle_gamma 90.000000
_cell_volume 1551.992773
_symmetry_space_group_name_H-M "P 2/M"
_symmetry_group_IT_number 10
_symmetry_cell_setting 'monoclinic'
loop_
_space_group_symop_operation_xyz
x,y,z
-x,y,-z
-x,-y,-z
x,-y,z
loop_
_atom_site_type_symbol
_atom_site_label
_atom_site_fract_x
_atom_site_fract_y
_atom_site_fract_z
Si Si1 0.348880 0.700123 0.475234
Si Si2 0.666543 0.682608 0.381809
Si Si3 0.976570 0.702064 0.790500
Si Si4 0.478824 0.801459 0.083340
Si Si5 0.160883 0.185269 0.874645
Si Si6 0.712940 0.696672 0.125367
Si Si7 0.897851 0.800904 0.539111
Si Si8 0.839421 0.696991 0.798010
O O1 0.350141 0.500000 0.469160
O O2 0.355784 0.736198 0.534571
O O3 0.524299 0.761258 0.287237
O O4 0.170156 0.758455 0.616915
O O5 0.500000 0.655513 0.500000
O O6 0.751834 0.500000 0.305798
O O7 0.745059 0.819365 0.270411
O O8 0.980315 0.500000 0.788203
O O9 0.892831 0.753906 0.810084
O O10 0.861033 0.758463 0.948689
O O11 0.298367 0.744043 0.275416
O O12 0.468942 0.000000 0.090810
O O13 0.500000 0.742738 0.000000
O O14 0.652636 0.757112 0.953737
O O15 0.247353 0.270045 0.846778
O O16 0.120966 0.000000 0.930304
O O17 0.000000 0.281358 0.000000
O O18 0.708318 0.500000 0.122194
O O19 0.000000 0.747868 0.500000
O O20 0.013372 0.747782 0.380831
O O21 0.894203 0.000000 0.542338
O O22 0.832946 0.500000 0.804347
#
# Coordination Sequence:
#
# PCOD9143725 Si02
#       8
#     4   4   4   4   4   4   4   4
#     4   9  17  32  55  81 107 137 183 235 277 330
#     4  10  18  32  55  83 104 128 180 234 276 330
#     4   9  20  36  55  81 112 150 188 227 284 341
#     4  10  20  38  63  87 116 159 202 237 278 336
#     4  11  23  35  49  76 113 146 175 220 290 352
#     4  10  19  36  60  78 100 143 193 238 276 323
#     4  10  20  38  63  87 115 157 204 238 278 341
#     4  11  23  37  57  91 128 155 189 241 299 351
#
# _framework density 20.618652999999998
#
# number of rings (size 3 to 8) (size 9 to 14) (size 15 to 20)
#    0.000    2.000    2.500    1.500    0.000    4.250 
#    0.000    3.750    0.000    3.000    0.000    0.000 
#    0.000    0.000    0.000    0.000    0.000    0.000 
#
# Total GULP energy -178201.041622 kJ/mol
# GULP energy per Si atom -5568.782551 kJ/mol
# Density = 2.057172 g / cm^3
# Si number density = 20.618653 Si / 1000 Ang^3
#
#
#
# Elastic Constant Matrix: (Units=GPa)
#
#
# Indices 1 2 3 4 5 6 
#
# 1 75.5693 2.3112 40.2776 0.0000 -26.2690 0.0000
# 2 2.3112 11.7505 15.9657 0.0000 1.8493 0.0000
# 3 40.2776 15.9657 149.9034 0.0000 -28.0696 0.0000
# 4 0.0000 0.0000 0.0000 20.6690 0.0000 3.1835
# 5 -26.2690 1.8493 -28.0696 0.0000 34.0158 0.0000
# 6 0.0000 0.0000 0.0000 3.1835 0.0000 81.9527
#
#
#
# Elastic Compliance Matrix: (Units=1/GPa)
#
#
# Indices 1 2 3 4 5 6 
#
# 1 0.019082 -0.002422 -0.002466 0.000000 0.012833 0.000000
# 2 -0.002422 0.108581 -0.014630 0.000000 -0.019846 0.000000
# 3 -0.002466 -0.014630 0.010271 0.000000 0.007366 0.000000
# 4 0.000000 0.000000 0.000000 0.048673 0.000000 -0.001891
# 5 0.012833 -0.019846 0.007366 0.000000 0.046466 0.000000
# 6 0.000000 0.000000 0.000000 -0.001891 0.000000 0.012276
#
#
# Mechanical properties :
#
#
# Convention : Reuss Voigt Hill
#
# Bulk Modulus (GPa) = 10.11142 39.37026 24.74084
# Shear Modulus (GPa) = 15.75536 39.23874 27.49705
#
# Velocity S-wave (km/s) = 2.76729 4.36715 3.65581
# Velocity P-wave (km/s) = 3.88911 6.67572 5.46308
#
# Compressibility (1/GPa) = 0.09889804
#
# Stress axis : x y z
#
# Youngs Moduli (GPa) = 52.40419 9.20970 97.35941
#
# Poissons Ratio (x) = 0.02231 0.24012
# Poissons Ratio (y) = 0.12692 1.42437
# Poissons Ratio (z) = 0.12924 0.13474
#
# Static dielectric constant tensor:
#      x y z
#    x 1.704030 0.000000 -0.020850 
#    y 0.000000 1.786120 0.000000 
#    z -0.020850 0.000000 1.727970 
# 
# From -- ./inp_files/90627.got.cif
#   From: 2010.05.17/outbox.cif.g08.bks.cpg/sg10_46_cif.got.tgz:90627.got - 2010.06.03 11:33:40.
