data_PCOD9143051
_publ_section_title
;
Structure prediction by ZEFSAII (Michael W. Deem and Ramdas Pophale) SiO2 
 PCOD9143051
Probable space group: P 2/M
;
_chemical_formula_sum "Si O2"
_cell_formula_units_Z 20
_cell_length_a 12.835267
_cell_length_b 9.255243
_cell_length_c 29.623982
_cell_angle_alpha 90.000000
_cell_angle_beta 160.286822
_cell_angle_gamma 90.000000
_cell_volume 1187.046375
_symmetry_space_group_name_H-M "P 2/M"
_symmetry_group_IT_number 10
_symmetry_cell_setting 'monoclinic'
loop_
_space_group_symop_operation_xyz
x,y,z
-x,y,-z
-x,-y,-z
x,-y,z
loop_
_atom_site_type_symbol
_atom_site_label
_atom_site_fract_x
_atom_site_fract_y
_atom_site_fract_z
Si Si1 0.359649 0.671719 0.656416
Si Si2 0.368255 0.828356 0.145819
Si Si3 0.870633 0.670016 0.792891
Si Si4 0.178731 0.166157 0.840441
Si Si5 0.497896 0.329323 0.892334
O O1 0.410602 0.500000 0.685645
O O2 0.471275 0.761047 0.744932
O O3 0.570205 0.710322 0.699129
O O4 0.000000 0.694351 0.500000
O O5 0.486952 0.750211 0.149194
O O6 0.419647 0.000000 0.163970
O O7 0.000000 0.803416 0.000000
O O8 0.856523 0.500000 0.775492
O O9 0.931126 0.761931 0.772779
O O10 0.167911 0.688852 0.946949
O O11 0.249979 0.257970 0.824882
O O12 0.106436 0.000000 0.800508
O O13 0.500000 0.168088 0.000000
O O14 0.443834 0.500000 0.865013
#
# Coordination Sequence:
#
# PCOD9143051 Si02
#       5
#     4   4   4   4   4
#     4  10  21  37  56  78 106 142 181 218 259 311
#     4  11  22  34  52  78 109 141 175 218 266 313
#     4   9  17  30  49  74 103 136 174 214 256 308
#     4   9  17  28  45  72 105 136 168 211 262 313
#     4  10  18  30  51  76 104 136 173 217 262 309
#
# _framework density 16.848541999999998
#
# number of rings (size 3 to 8) (size 9 to 14) (size 15 to 20)
#    0.000    2.200    2.000    1.800    0.000    5.200 
#    0.000    0.000    0.000    1.200    0.000    8.400 
#    0.000    0.000    0.000    0.000    0.000    0.000 
#
# Total GULP energy -111591.449684 kJ/mol
# GULP energy per Si atom -5579.572484 kJ/mol
# Density = 1.681019 g / cm^3
# Si number density = 16.848542 Si / 1000 Ang^3
#
#
#
# Elastic Constant Matrix: (Units=GPa)
#
#
# Indices 1 2 3 4 5 6 
#
# 1 175.3257 106.0706 57.9667 0.0000 29.9313 0.0000
# 2 106.0706 113.9853 55.1062 0.0000 11.2324 0.0000
# 3 57.9667 55.1062 54.6636 0.0000 13.5302 0.0000
# 4 0.0000 0.0000 0.0000 13.2577 0.0000 -0.8113
# 5 29.9313 11.2324 13.5302 0.0000 21.5640 0.0000
# 6 0.0000 0.0000 0.0000 -0.8113 0.0000 13.1281
#
#
#
# Elastic Compliance Matrix: (Units=1/GPa)
#
#
# Indices 1 2 3 4 5 6 
#
# 1 0.017232 -0.014735 0.000712 0.000000 -0.016690 0.000000
# 2 -0.014735 0.029808 -0.018519 0.000000 0.016546 0.000000
# 3 0.000712 -0.018519 0.040327 0.000000 -0.016646 0.000000
# 4 0.000000 0.000000 0.000000 0.075714 0.000000 0.004679
# 5 -0.016690 0.016546 -0.016646 0.000000 0.071365 0.000000
# 6 0.000000 0.000000 0.000000 0.004679 0.000000 0.076462
#
#
# Mechanical properties :
#
#
# Convention : Reuss Voigt Hill
#
# Bulk Modulus (GPa) = 44.87633 86.91794 65.89714
# Shear Modulus (GPa) = 13.04054 17.91204 15.47629
#
# Velocity S-wave (km/s) = 2.78508 3.26409 3.03405
# Velocity P-wave (km/s) = 6.08565 8.11822 7.17428
#
# Compressibility (1/GPa) = 0.02228346
#
# Stress axis : x y z
#
# Youngs Moduli (GPa) = 58.03060 33.54839 24.79718
#
# Poissons Ratio (x) = 0.49435 -0.01766
# Poissons Ratio (y) = 0.85510 0.45921
# Poissons Ratio (z) = -0.04133 0.62127
#
# Static dielectric constant tensor:
#      x y z
#    x 1.547840 0.000000 0.013330 
#    y 0.000000 1.562240 0.000000 
#    z 0.013330 0.000000 1.547310 
# 
# From -- ./inp_files/22152.got.cif
#   From: 2010.05.17/outbox.cif.g08.bks.cpg/sg10_12_cif.got.tgz:22152.got - 2010.06.03 11:33:40.
