data_PCOD9143518
_publ_section_title
;
Structure prediction by ZEFSAII (Michael W. Deem and Ramdas Pophale) SiO2 
 PCOD9143518
Probable space group: P 2/M
;
_chemical_formula_sum "Si O2"
_cell_formula_units_Z 20
_cell_length_a 5.475017
_cell_length_b 22.655808
_cell_length_c 6.989761
_cell_angle_alpha 90.000000
_cell_angle_beta 101.630651
_cell_angle_gamma 90.000000
_cell_volume 849.214502
_symmetry_space_group_name_H-M "P 2/M"
_symmetry_group_IT_number 10
_symmetry_cell_setting 'monoclinic'
loop_
_space_group_symop_operation_xyz
x,y,z
-x,y,-z
-x,-y,-z
x,-y,z
loop_
_atom_site_type_symbol
_atom_site_label
_atom_site_fract_x
_atom_site_fract_y
_atom_site_fract_z
Si Si1 0.315234 0.930021 0.231260
Si Si2 0.423513 0.309057 0.273489
Si Si3 0.717815 0.565026 0.873603
Si Si4 0.079876 0.253829 0.738383
Si Si5 0.190039 0.881908 0.786784
O O1 0.579390 0.899769 0.308122
O O2 0.079544 0.906451 0.309125
O O3 0.337643 0.000000 0.250815
O O4 0.251092 0.911683 0.001600
O O5 0.500000 0.292376 0.500000
O O6 0.343069 0.377302 0.257679
O O7 0.678762 0.296251 0.198360
O O8 0.172865 0.272155 0.191675
O O9 0.707266 0.500000 0.776998
O O10 0.500000 0.564901 0.000000
O O11 0.000000 0.570884 0.000000
O O12 0.167332 0.188119 0.800423
O O13 0.000000 0.254989 0.500000
#
# Coordination Sequence:
#
# PCOD9143518 Si02
#       5
#     4   4   4   4   4
#     4  10  19  33  53  74 103 136 169 227 276 317
#     4  10  21  39  58  81 111 154 194 227 273 333
#     4  10  21  39  59  86 119 150 184 234 289 325
#     4  10  21  37  55  76 111 146 181 228 273 319
#     4  10  18  32  50  75 100 134 174 212 270 330
#
# _framework density 23.551175000000001
#
# number of rings (size 3 to 8) (size 9 to 14) (size 15 to 20)
#    0.000    2.000    0.000    5.400    0.000    0.400 
#   21.600    0.000    0.000   13.800    0.000    0.000 
#    0.000    0.000    0.000    0.000    0.000    0.000 
#
# Total GULP energy -111824.304560 kJ/mol
# GULP energy per Si atom -5591.215228 kJ/mol
# Density = 2.349757 g / cm^3
# Si number density = 23.551175 Si / 1000 Ang^3
#
#
#
# Elastic Constant Matrix: (Units=GPa)
#
#
# Indices 1 2 3 4 5 6 
#
# 1 252.9546 74.2326 40.7987 0.0000 23.6380 0.0000
# 2 74.2326 167.7215 -3.4947 0.0000 32.1104 0.0000
# 3 40.7987 -3.4947 59.3917 0.0000 13.7129 0.0000
# 4 0.0000 0.0000 0.0000 155.3977 0.0000 16.2543
# 5 23.6380 32.1104 13.7129 0.0000 39.6325 0.0000
# 6 0.0000 0.0000 0.0000 16.2543 0.0000 50.4986
#
#
#
# Elastic Compliance Matrix: (Units=1/GPa)
#
#
# Indices 1 2 3 4 5 6 
#
# 1 0.005267 -0.002439 -0.003796 0.000000 0.000148 0.000000
# 2 -0.002439 0.008386 0.003697 0.000000 -0.006619 0.000000
# 3 -0.003796 0.003697 0.021553 0.000000 -0.008189 0.000000
# 4 0.000000 0.000000 0.000000 0.006659 0.000000 -0.002143
# 5 0.000148 -0.006619 -0.008189 0.000000 0.033340 0.000000
# 6 0.000000 0.000000 0.000000 -0.002143 0.000000 0.020492
#
#
# Mechanical properties :
#
#
# Convention : Reuss Voigt Hill
#
# Bulk Modulus (GPa) = 33.18850 78.12678 55.65764
# Shear Modulus (GPa) = 45.11940 73.67450 59.39695
#
# Velocity S-wave (km/s) = 4.38174 5.59916 5.02744
# Velocity P-wave (km/s) = 6.30255 8.66291 7.57523
#
# Compressibility (1/GPa) = 0.03013092
#
# Stress axis : x y z
#
# Youngs Moduli (GPa) = 189.84735 119.24886 46.39681
#
# Poissons Ratio (x) = 0.29081 0.17612
# Poissons Ratio (y) = 0.46297 -0.17152
# Poissons Ratio (z) = 0.72066 -0.44085
#
# Static dielectric constant tensor:
#      x y z
#    x 1.898740 0.000000 -0.026410 
#    y 0.000000 1.815610 0.000000 
#    z -0.026410 0.000000 1.888120 
# 
# From -- ./inp_files/15166.got.cif
#   From: 2010.05.17/outbox.cif.g08.bks.cpg/sg10_8_cif.got.tgz:15166.got - 2010.06.03 11:33:40.
