data_PCOD9143499
_publ_section_title
;
Structure prediction by ZEFSAII (Michael W. Deem and Ramdas Pophale) SiO2 
 PCOD9143499
Probable space group: P 2/M
;
_chemical_formula_sum "Si O2"
_cell_formula_units_Z 32
_cell_length_a 30.932835
_cell_length_b 9.185849
_cell_length_c 17.129558
_cell_angle_alpha 90.000000
_cell_angle_beta 154.540397
_cell_angle_gamma 90.000000
_cell_volume 2092.314579
_symmetry_space_group_name_H-M "P 2/M"
_symmetry_group_IT_number 10
_symmetry_cell_setting 'monoclinic'
loop_
_space_group_symop_operation_xyz
x,y,z
-x,y,-z
-x,-y,-z
x,-y,z
loop_
_atom_site_type_symbol
_atom_site_label
_atom_site_fract_x
_atom_site_fract_y
_atom_site_fract_z
Si Si1 0.520163 0.824198 0.624527
Si Si2 0.313720 0.169285 0.369411
Si Si3 0.055667 0.830704 0.369399
Si Si4 0.183412 0.835426 0.000019
Si Si5 0.943936 0.675038 0.789015
Si Si6 0.895624 0.824199 0.375429
Si Si7 0.271028 0.327364 0.000044
Si Si8 0.154924 0.675038 0.211010
O O1 0.500000 0.788440 0.500000
O O2 0.423573 0.783365 0.519260
O O3 0.619258 0.745405 0.817056
O O4 0.532065 0.000000 0.647140
O O5 0.243868 0.177440 0.178583
O O6 0.256152 0.258133 0.341763
O O7 0.319891 0.000000 0.402584
O O8 0.085574 0.741870 0.341720
O O9 0.095713 0.783370 0.519323
O O10 0.082632 0.000000 0.402502
O O11 0.934700 0.822508 0.178612
O O12 0.220552 0.716379 0.000104
O O13 0.202953 0.000000 0.000011
O O14 0.943660 0.500000 0.783708
O O15 0.872689 0.717480 0.745365
O O16 0.057648 0.719041 0.000014
O O17 0.000000 0.788446 0.500000
O O18 0.884908 0.000000 0.352803
O O19 0.802207 0.745397 0.182910
O O20 0.277092 0.500000 0.000042
O O21 0.159953 0.500000 0.216315
#
# Coordination Sequence:
#
# PCOD9143499 Si02
#       8
#     4   4   4   4   4   4   4   4
#     4  10  20  36  54  70  96 134 170 205 247 296
#     4  10  19  31  51  74  95 129 172 208 241 283
#     4  10  19  31  51  74  95 129 172 208 241 283
#     4  10  18  32  49  69 100 134 169 202 244 293
#     4   9  18  31  46  68 102 138 164 194 244 298
#     4  10  20  36  54  70  96 134 170 205 247 296
#     4  12  24  34  48  73 102 131 168 211 248 288
#     4   9  18  31  46  68 102 138 164 194 244 298
#
# _framework density 15.294067999999999
#
# number of rings (size 3 to 8) (size 9 to 14) (size 15 to 20)
#    0.000    2.000    3.750    1.875    0.000    3.000 
#    0.000    1.250    0.000    0.000    0.000    0.875 
#    0.000    7.000    0.000    0.000    0.000    0.000 
#
# Total GULP energy -178455.668847 kJ/mol
# GULP energy per Si atom -5576.739651 kJ/mol
# Density = 1.525926 g / cm^3
# Si number density = 15.294068 Si / 1000 Ang^3
#
#
#
# Elastic Constant Matrix: (Units=GPa)
#
#
# Indices 1 2 3 4 5 6 
#
# 1 125.3485 49.9882 56.0970 0.0000 -1.0897 0.0000
# 2 49.9882 43.1293 45.7195 0.0000 -0.1357 0.0000
# 3 56.0970 45.7195 104.3656 0.0000 0.3894 0.0000
# 4 0.0000 0.0000 0.0000 18.9530 0.0000 -0.3057
# 5 -1.0897 -0.1357 0.3894 0.0000 19.4429 0.0000
# 6 0.0000 0.0000 0.0000 -0.3057 0.0000 27.3506
#
#
#
# Elastic Compliance Matrix: (Units=1/GPa)
#
#
# Indices 1 2 3 4 5 6 
#
# 1 0.014883 -0.016363 -0.000834 0.000000 0.000737 0.000000
# 2 -0.016363 0.061288 -0.018053 0.000000 -0.000128 0.000000
# 3 -0.000834 -0.018053 0.017940 0.000000 -0.000532 0.000000
# 4 0.000000 0.000000 0.000000 0.052772 0.000000 0.000590
# 5 0.000737 -0.000128 -0.000532 0.000000 0.051484 0.000000
# 6 0.000000 0.000000 0.000000 0.000590 0.000000 0.036569
#
#
# Mechanical properties :
#
#
# Convention : Reuss Voigt Hill
#
# Bulk Modulus (GPa) = 42.35265 64.05029 53.20147
# Shear Modulus (GPa) = 15.95879 21.21854 18.58866
#
# Velocity S-wave (km/s) = 3.23377 3.72878 3.49006
# Velocity P-wave (km/s) = 6.45719 7.77872 7.14856
#
# Compressibility (1/GPa) = 0.02361127
#
# Stress axis : x y z
#
# Youngs Moduli (GPa) = 67.19036 16.31631 55.74006
#
# Poissons Ratio (x) = 0.26699 0.04650
# Poissons Ratio (y) = 1.09946 1.00626
# Poissons Ratio (z) = 0.05605 0.29455
#
# Static dielectric constant tensor:
#      x y z
#    x 1.507510 0.000000 -0.000190 
#    y 0.000000 1.516020 0.000000 
#    z -0.000190 0.000000 1.502290 
# 
# From -- ./inp_files/72213.got.cif
#   From: 2010.05.17/outbox.cif.g08.bks.cpg/sg10_37_cif.got.tgz:72213.got - 2010.06.03 11:33:40.
