data_PCOD9143630
_publ_section_title
;
Structure prediction by ZEFSAII (Michael W. Deem and Ramdas Pophale) SiO2 
 PCOD9143630
Probable space group: P 2/M
;
_chemical_formula_sum "Si O2"
_cell_formula_units_Z 20
_cell_length_a 7.851175
_cell_length_b 21.539308
_cell_length_c 5.516891
_cell_angle_alpha 90.000000
_cell_angle_beta 61.336930
_cell_angle_gamma 90.000000
_cell_volume 818.626714
_symmetry_space_group_name_H-M "P 2/M"
_symmetry_group_IT_number 10
_symmetry_cell_setting 'monoclinic'
loop_
_space_group_symop_operation_xyz
x,y,z
-x,y,-z
-x,-y,-z
x,-y,z
loop_
_atom_site_type_symbol
_atom_site_label
_atom_site_fract_x
_atom_site_fract_y
_atom_site_fract_z
Si Si1 0.292545 0.633620 0.782612
Si Si2 0.789203 0.119586 0.359959
Si Si3 0.177049 0.253578 0.563880
Si Si4 0.500000 0.284827 0.000000
Si Si5 0.630599 0.500000 0.164363
Si Si6 0.229528 0.927811 0.123031
O O1 0.500000 0.629889 0.500000
O O2 0.165808 0.679623 0.703867
O O3 0.246521 0.563491 0.893226
O O4 0.337348 0.671644 0.993280
O O5 0.817947 0.192157 0.277305
O O6 0.705199 0.111075 0.687692
O O7 0.000707 0.087783 0.246940
O O8 0.689857 0.088274 0.197652
O O9 0.000000 0.246319 0.500000
O O10 0.384509 0.250443 0.286428
O O11 0.500000 0.500000 0.500000
O O12 0.500000 0.500000 0.000000
O O13 0.257455 0.000000 0.157438
#
# Coordination Sequence:
#
# PCOD9143630 Si02
#       6
#     4   4   4   2   2   4
#     4   9  20  37  61  94 125 168 223 270 322 392
#     4  10  19  31  53  85 122 165 205 256 328 378
#     4  11  23  39  60  94 134 172 215 269 330 403
#     4  10  22  39  62  88 127 170 220 268 330 384
#     4  10  18  36  67  95 125 174 226 273 325 386
#     4  10  18  32  53  87 122 158 218 267 308 388
#
# _framework density 24.431163000000002
#
# number of rings (size 3 to 8) (size 9 to 14) (size 15 to 20)
#    0.000    2.000    3.000    3.000    2.800    0.800 
#    0.000    0.500    0.000    1.200    0.000    7.700 
#    0.000    0.000    0.000    0.000    0.000    0.000 
#
# Total GULP energy -111670.512024 kJ/mol
# GULP energy per Si atom -5583.525601 kJ/mol
# Density = 2.437556 g / cm^3
# Si number density = 24.431163 Si / 1000 Ang^3
#
#
#
# Elastic Constant Matrix: (Units=GPa)
#
#
# Indices 1 2 3 4 5 6 
#
# 1 85.0560 11.8025 11.5739 0.0000 3.4219 0.0000
# 2 11.8025 186.5532 16.6588 0.0000 6.7342 0.0000
# 3 11.5739 16.6588 127.5955 0.0000 22.5576 0.0000
# 4 0.0000 0.0000 0.0000 -2.5130 0.0000 10.3401
# 5 3.4219 6.7342 22.5576 0.0000 29.5522 0.0000
# 6 0.0000 0.0000 0.0000 10.3401 0.0000 46.0550
#
#
#
# Elastic Compliance Matrix: (Units=1/GPa)
#
#
# Indices 1 2 3 4 5 6 
#
# 1 0.011993 -0.000658 -0.000905 0.000000 -0.000548 0.000000
# 2 -0.000658 0.005476 -0.000518 0.000000 -0.000776 0.000000
# 3 -0.000905 -0.000518 0.009187 0.000000 -0.006790 0.000000
# 4 0.000000 0.000000 0.000000 -0.206846 0.000000 0.046440
# 5 -0.000548 -0.000776 -0.006790 0.000000 0.039262 0.000000
# 6 0.000000 0.000000 0.000000 0.046440 0.000000 0.011287
#
#
# Mechanical properties :
#
#
# Convention : Reuss Voigt Hill
#
# Bulk Modulus (GPa) = 44.45521 53.25279 48.85400
# Shear Modulus (GPa) = -42.38037 38.56347 -1.90845
#
# Velocity S-wave (km/s) = -4.16947 3.97729 -0.88479
# Velocity P-wave (km/s) = 2.22345 6.55257 4.35846
#
# Compressibility (1/GPa) = 0.02249455
#
# Stress axis : x y z
#
# Youngs Moduli (GPa) = 83.37860 182.60426 108.84458
#
# Poissons Ratio (x) = 0.12019 0.09852
# Poissons Ratio (y) = 0.05488 0.05639
# Poissons Ratio (z) = 0.07547 0.09460
#
# Static dielectric constant tensor:
#      x y z
#    x 1.935040 0.000000 0.007780 
#    y 0.000000 1.914480 0.000000 
#    z 0.007780 0.000000 2.109680 
# 
# From -- ./inp_files/4707.got.cif
#   From: 2010.05.17/outbox.cif.g08.bks.cpg/sg10_3_cif.got.tgz:4707.got - 2010.06.03 11:33:40.
