data_PCOD9143586
_publ_section_title
;
Structure prediction by ZEFSAII (Michael W. Deem and Ramdas Pophale) SiO2 
 PCOD9143586
Probable space group: P 2/M
;
_chemical_formula_sum "Si O2"
_cell_formula_units_Z 28
_cell_length_a 28.622318
_cell_length_b 8.692021
_cell_length_c 22.056634
_cell_angle_alpha 90.000000
_cell_angle_beta 163.109956
_cell_angle_gamma 90.000000
_cell_volume 1594.280199
_symmetry_space_group_name_H-M "P 2/M"
_symmetry_group_IT_number 10
_symmetry_cell_setting 'monoclinic'
loop_
_space_group_symop_operation_xyz
x,y,z
-x,y,-z
-x,-y,-z
x,-y,z
loop_
_atom_site_type_symbol
_atom_site_label
_atom_site_fract_x
_atom_site_fract_y
_atom_site_fract_z
Si Si1 0.749590 0.186889 0.304969
Si Si2 0.319330 0.320718 0.247465
Si Si3 0.925223 0.815305 0.341082
Si Si4 0.517487 0.185498 0.122028
Si Si5 0.417865 0.317148 0.119109
Si Si6 0.831748 0.184542 0.823723
Si Si7 0.499333 0.687152 0.642361
O O1 0.660177 0.235104 0.254715
O O2 0.932946 0.233445 0.527974
O O3 0.746148 0.000000 0.299299
O O4 0.643919 0.233869 0.115197
O O5 0.500000 0.313489 0.500000
O O6 0.271983 0.500000 0.186425
O O7 0.198537 0.236984 0.143847
O O8 0.359079 0.263105 0.228786
O O9 0.000000 0.782449 0.500000
O O10 0.899650 0.000000 0.307058
O O11 0.760741 0.734842 0.120708
O O12 0.526195 0.250992 0.199661
O O13 0.514674 0.000000 0.121771
O O14 0.428270 0.500000 0.131738
O O15 0.462931 0.263566 0.242393
O O16 0.674901 0.251319 0.594517
O O17 0.826435 0.000000 0.815125
O O18 0.000000 0.233240 0.000000
O O19 0.494249 0.500000 0.632634
#
# Coordination Sequence:
#
# PCOD9143586 Si02
#       7
#     4   4   4   4   4   4   4
#     4   8  15  29  51  73  92 121 167 215 253 301
#     4   8  15  31  54  75  98 134 174 202 234 292
#     4  10  18  32  53  74  95 127 173 215 253 307
#     4   9  16  31  52  71  94 129 168 208 255 305
#     4  11  22  34  49  74 106 135 168 213 260 300
#     4  10  20  33  53  84 112 130 159 208 254 292
#     4   9  20  37  53  72 102 140 176 205 243 304
#
# _framework density 17.562784000000001
#
# number of rings (size 3 to 8) (size 9 to 14) (size 15 to 20)
#    0.000    2.714    1.429    2.571    0.000    5.143 
#    0.000    3.571    0.000    6.857    0.000    0.000 
#    0.000    0.000    0.000    0.000    0.000    0.000 
#
# Total GULP energy -155926.696995 kJ/mol
# GULP energy per Si atom -5568.810607 kJ/mol
# Density = 1.752281 g / cm^3
# Si number density = 17.562784 Si / 1000 Ang^3
#
#
#
# Elastic Constant Matrix: (Units=GPa)
#
#
# Indices 1 2 3 4 5 6 
#
# 1 174.1482 32.5009 53.1561 0.0000 3.0503 0.0000
# 2 32.5009 20.2580 15.3580 0.0000 1.3489 0.0000
# 3 53.1561 15.3580 47.2392 0.0000 9.5437 0.0000
# 4 0.0000 0.0000 0.0000 7.6625 0.0000 -0.0702
# 5 3.0503 1.3489 9.5437 0.0000 31.2881 0.0000
# 6 0.0000 0.0000 0.0000 -0.0702 0.0000 29.8811
#
#
#
# Elastic Compliance Matrix: (Units=1/GPa)
#
#
# Indices 1 2 3 4 5 6 
#
# 1 0.010209 -0.009940 -0.008677 0.000000 0.002080 0.000000
# 2 -0.009940 0.075640 -0.013794 0.000000 0.001915 0.000000
# 3 -0.008677 -0.013794 0.037433 0.000000 -0.009977 0.000000
# 4 0.000000 0.000000 0.000000 0.130509 0.000000 0.000307
# 5 0.002080 0.001915 -0.009977 0.000000 0.034719 0.000000
# 6 0.000000 0.000000 0.000000 0.000307 0.000000 0.033467
#
#
# Mechanical properties :
#
#
# Convention : Reuss Voigt Hill
#
# Bulk Modulus (GPa) = 17.10530 49.29729 33.20130
# Shear Modulus (GPa) = 12.30670 23.14169 17.72419
#
# Velocity S-wave (km/s) = 2.64999 3.63389 3.18022
# Velocity P-wave (km/s) = 4.37309 6.76291 5.69478
#
# Compressibility (1/GPa) = 0.05846140
#
# Stress axis : x y z
#
# Youngs Moduli (GPa) = 97.95017 13.22058 26.71475
#
# Poissons Ratio (x) = 0.13141 0.23180
# Poissons Ratio (y) = 0.97360 0.36849
# Poissons Ratio (z) = 0.84988 0.18236
#
# Static dielectric constant tensor:
#      x y z
#    x 1.655160 0.000000 0.016890 
#    y 0.000000 1.600860 0.000000 
#    z 0.016890 0.000000 1.582390 
# 
# From -- ./inp_files/86690.got.cif
#   From: 2010.05.17/outbox.cif.g08.bks.cpg/sg10_44_cif.got.tgz:86690.got - 2010.06.03 11:33:40.
