data_PCOD9143344
_publ_section_title
;
Structure prediction by ZEFSAII (Michael W. Deem and Ramdas Pophale) SiO2 
 PCOD9143344
Probable space group: P 2/M
;
_chemical_formula_sum "Si O2"
_cell_formula_units_Z 32
_cell_length_a 22.084503
_cell_length_b 10.137763
_cell_length_c 9.810777
_cell_angle_alpha 90.000000
_cell_angle_beta 134.653682
_cell_angle_gamma 90.000000
_cell_volume 1562.526575
_symmetry_space_group_name_H-M "P 2/M"
_symmetry_group_IT_number 10
_symmetry_cell_setting 'monoclinic'
loop_
_space_group_symop_operation_xyz
x,y,z
-x,y,-z
-x,-y,-z
x,-y,z
loop_
_atom_site_type_symbol
_atom_site_label
_atom_site_fract_x
_atom_site_fract_y
_atom_site_fract_z
Si Si1 0.812451 0.357405 0.025117
Si Si2 0.588527 0.651052 0.957456
Si Si3 0.173644 0.862257 0.574423
Si Si4 0.703245 0.850051 0.971653
Si Si5 0.093651 0.347020 0.090956
Si Si6 0.612448 0.349326 0.319962
Si Si7 0.752601 0.848739 0.594378
Si Si8 0.923207 0.353564 0.464937
O O1 0.771754 0.500000 0.927556
O O2 0.848679 0.366042 0.235022
O O3 0.748416 0.234256 0.923183
O O4 0.892981 0.344662 0.051828
O O5 0.612834 0.500000 0.957636
O O6 0.631531 0.758129 0.927428
O O7 0.486272 0.661082 0.794317
O O8 0.614574 0.667681 0.158057
O O9 0.239739 0.859809 0.557204
O O10 0.111463 0.738758 0.473103
O O11 0.124098 0.000000 0.485846
O O12 0.225748 0.862756 0.796940
O O13 0.677532 0.000000 0.894778
O O14 0.113266 0.500000 0.164438
O O15 0.164149 0.238591 0.241417
O O16 0.000000 0.317190 0.000000
O O17 0.641525 0.500000 0.393451
O O18 0.669884 0.241213 0.485522
O O19 0.752058 0.000000 0.646930
O O20 0.946968 0.500000 0.548949
O O21 0.000000 0.293338 0.500000
#
# Coordination Sequence:
#
# PCOD9143344 Si02
#       8
#     4   4   4   4   4   4   4   4
#     4   9  19  36  53  75 104 135 177 224 271 322
#     4   9  17  30  51  82 116 148 181 219 263 319
#     4   9  19  32  45  71 106 140 172 207 258 319
#     4  10  18  31  52  78 111 146 178 212 261 323
#     4  10  23  41  61  80 102 139 188 236 277 322
#     4   9  18  32  52  80 114 149 184 219 264 321
#     4  11  22  36  54  78 111 145 182 225 272 324
#     4   9  18  30  50  76  99 126 164 217 271 321
#
# _framework density 20.479651
#
# number of rings (size 3 to 8) (size 9 to 14) (size 15 to 20)
#    0.000    2.500    1.250    1.500    1.750    3.000 
#    0.000    1.250    0.000    0.750    0.000    5.250 
#    0.000    0.000    0.000    0.000    0.000    0.000 
#
# Total GULP energy -178233.994192 kJ/mol
# GULP energy per Si atom -5569.812319 kJ/mol
# Density = 2.043304 g / cm^3
# Si number density = 20.479651 Si / 1000 Ang^3
#
#
#
# Elastic Constant Matrix: (Units=GPa)
#
#
# Indices 1 2 3 4 5 6 
#
# 1 84.8919 63.1498 2.3824 0.0000 10.5096 0.0000
# 2 63.1498 160.9557 43.8119 0.0000 26.6283 0.0000
# 3 2.3824 43.8119 42.9336 0.0000 11.2188 0.0000
# 4 0.0000 0.0000 0.0000 -15.1289 0.0000 -24.5252
# 5 10.5096 26.6283 11.2188 0.0000 23.1326 0.0000
# 6 0.0000 0.0000 0.0000 -24.5252 0.0000 -4.6696
#
#
#
# Elastic Compliance Matrix: (Units=1/GPa)
#
#
# Indices 1 2 3 4 5 6 
#
# 1 0.018927 -0.009620 0.009298 0.000000 -0.002034 0.000000
# 2 -0.009620 0.014428 -0.012587 0.000000 -0.006133 0.000000
# 3 0.009298 -0.012587 0.037718 0.000000 -0.008028 0.000000
# 4 0.000000 0.000000 0.000000 0.008797 0.000000 -0.046201
# 5 -0.002034 -0.006133 -0.008028 0.000000 0.055107 0.000000
# 6 0.000000 0.000000 0.000000 -0.046201 0.000000 0.028500
#
#
# Mechanical properties :
#
#
# Convention : Reuss Voigt Hill
#
# Bulk Modulus (GPa) = 22.09666 56.38548 39.24107
# Shear Modulus (GPa) = 24.46435 12.62931 18.54683
#
# Velocity S-wave (km/s) = 3.46000 2.48599 3.01262
# Velocity P-wave (km/s) = 5.17447 5.98602 5.59498
#
# Compressibility (1/GPa) = 0.04525570
#
# Stress axis : x y z
#
# Youngs Moduli (GPa) = 52.83449 69.30879 26.51267
#
# Poissons Ratio (x) = 0.66678 -0.24653
# Poissons Ratio (y) = 0.50829 0.33371
# Poissons Ratio (z) = -0.49128 0.87238
#
# Static dielectric constant tensor:
#      x y z
#    x 1.723310 0.000000 -0.035660 
#    y 0.000000 1.800020 0.000000 
#    z -0.035660 0.000000 1.749420 
# 
# From -- ./inp_files/56460.got.cif
#   From: 2010.05.17/outbox.cif.g08.bks.cpg/sg10_29_cif.got.tgz:56460.got - 2010.06.03 11:33:40.
