data_PCOD9143752
_publ_section_title
;
Structure prediction by ZEFSAII (Michael W. Deem and Ramdas Pophale) SiO2 
 PCOD9143752
Probable space group: P 2/M
;
_chemical_formula_sum "Si O2"
_cell_formula_units_Z 24
_cell_length_a 22.804520
_cell_length_b 8.605717
_cell_length_c 17.139782
_cell_angle_alpha 90.000000
_cell_angle_beta 158.974902
_cell_angle_gamma 90.000000
_cell_volume 1206.806715
_symmetry_space_group_name_H-M "P 2/M"
_symmetry_group_IT_number 10
_symmetry_cell_setting 'monoclinic'
loop_
_space_group_symop_operation_xyz
x,y,z
-x,y,-z
-x,-y,-z
x,-y,z
loop_
_atom_site_type_symbol
_atom_site_label
_atom_site_fract_x
_atom_site_fract_y
_atom_site_fract_z
Si Si1 0.348726 0.178280 0.557141
Si Si2 0.039961 0.814307 0.636875
Si Si3 0.324215 0.319833 0.094002
Si Si4 0.319556 0.182428 0.255795
Si Si5 0.860144 0.819969 0.564840
Si Si6 0.013344 0.677804 0.132196
O O1 0.492963 0.287834 0.709535
O O2 0.313942 0.191083 0.607606
O O3 0.171066 0.223591 0.301083
O O4 0.388121 0.000000 0.587031
O O5 0.000000 0.762183 0.500000
O O6 0.889712 0.791607 0.511090
O O7 0.073534 0.000000 0.675999
O O8 0.194068 0.730064 0.866994
O O9 0.304477 0.500000 0.090862
O O10 0.301539 0.212240 0.141400
O O11 0.500000 0.244132 0.500000
O O12 0.314600 0.000000 0.267290
O O13 0.167116 0.262146 0.109427
O O14 0.966147 0.701935 0.748385
O O15 0.914049 0.000000 0.647368
O O16 0.033129 0.500000 0.135133
#
# Coordination Sequence:
#
# PCOD9143752 Si02
#       6
#     4   4   4   4   4   4
#     4   9  18  34  58  80 109 152 191 229 277 340
#     4  10  20  36  60  86 113 150 195 236 278 338
#     4  12  23  36  57  86 118 147 184 240 291 332
#     4  11  23  39  60  84 112 150 193 232 276 339
#     4   8  16  32  55  78 106 146 187 223 272 333
#     4  10  18  32  56  83 111 143 180 227 283 332
#
# _framework density 19.887194999999998
#
# number of rings (size 3 to 8) (size 9 to 14) (size 15 to 20)
#    1.000    1.000    1.667    3.500    0.000    1.667 
#    0.000    1.667    0.000   10.000    0.000    0.000 
#    0.000    0.000    0.000    0.000    0.000    0.000 
#
# Total GULP energy -133710.953482 kJ/mol
# GULP energy per Si atom -5571.289728 kJ/mol
# Density = 1.984193 g / cm^3
# Si number density = 19.887195 Si / 1000 Ang^3
#
#
#
# Elastic Constant Matrix: (Units=GPa)
#
#
# Indices 1 2 3 4 5 6 
#
# 1 70.0527 -7.0356 8.3038 0.0000 -6.0745 0.0000
# 2 -7.0356 35.1580 -11.2335 0.0000 -1.2741 0.0000
# 3 8.3038 -11.2335 51.8124 0.0000 0.1166 0.0000
# 4 0.0000 0.0000 0.0000 54.8518 0.0000 -52.5172
# 5 -6.0745 -1.2741 0.1166 0.0000 29.1471 0.0000
# 6 0.0000 0.0000 0.0000 -52.5172 0.0000 149.8123
#
#
#
# Elastic Compliance Matrix: (Units=1/GPa)
#
#
# Indices 1 2 3 4 5 6 
#
# 1 0.015032 0.002529 -0.001868 0.000000 0.003251 0.000000
# 2 0.002529 0.031036 0.006319 0.000000 0.001858 0.000000
# 3 -0.001868 0.006319 0.020970 0.000000 -0.000197 0.000000
# 4 0.000000 0.000000 0.000000 0.027441 0.000000 0.009620
# 5 0.003251 0.001858 -0.000197 0.000000 0.035068 0.000000
# 6 0.000000 0.000000 0.000000 0.009620 0.000000 0.010047
#
#
# Mechanical properties :
#
#
# Convention : Reuss Voigt Hill
#
# Bulk Modulus (GPa) = 12.34585 15.23248 13.78917
# Shear Modulus (GPa) = 32.75812 57.89479 45.32645
#
# Velocity S-wave (km/s) = 4.06297 5.40137 4.77925
# Velocity P-wave (km/s) = 5.31335 6.82465 6.11586
#
# Compressibility (1/GPa) = 0.08099888
#
# Stress axis : x y z
#
# Youngs Moduli (GPa) = 66.52333 32.22104 47.68633
#
# Poissons Ratio (x) = -0.08149 0.08909
# Poissons Ratio (y) = -0.16824 -0.30135
# Poissons Ratio (z) = 0.12428 -0.20362
#
# Static dielectric constant tensor:
#      x y z
#    x 1.756260 0.000000 0.015120 
#    y 0.000000 1.670610 0.000000 
#    z 0.015120 0.000000 1.714660 
# 
# From -- ./inp_files/80009.got.cif
#   From: 2010.05.17/outbox.cif.g08.bks.cpg/sg10_41_cif.got.tgz:80009.got - 2010.06.03 11:33:40.
