data_PCOD9143640
_publ_section_title
;
Structure prediction by ZEFSAII (Michael W. Deem and Ramdas Pophale) SiO2 
 PCOD9143640
Probable space group: P 2/M
;
_chemical_formula_sum "Si O2"
_cell_formula_units_Z 30
_cell_length_a 24.484115
_cell_length_b 7.777324
_cell_length_c 11.884090
_cell_angle_alpha 90.000000
_cell_angle_beta 41.091859
_cell_angle_gamma 90.000000
_cell_volume 1487.384097
_symmetry_space_group_name_H-M "P 2/M"
_symmetry_group_IT_number 10
_symmetry_cell_setting 'monoclinic'
loop_
_space_group_symop_operation_xyz
x,y,z
-x,y,-z
-x,-y,-z
x,-y,z
loop_
_atom_site_type_symbol
_atom_site_label
_atom_site_fract_x
_atom_site_fract_y
_atom_site_fract_z
Si Si1 0.878393 0.296247 0.007446
Si Si2 0.000000 0.750496 0.000000
Si Si3 0.612049 0.708125 0.927001
Si Si4 0.854921 0.210324 0.371730
Si Si5 0.923438 0.699796 0.690059
Si Si6 0.205563 0.797851 0.288610
Si Si7 0.728353 0.202889 0.372125
Si Si8 0.429828 0.293897 0.259933
O O1 0.899337 0.500000 0.991062
O O2 0.780892 0.281370 0.188236
O O3 0.927940 0.189487 0.025498
O O4 0.904179 0.232722 0.844478
O O5 0.935178 0.693964 0.197721
O O6 0.614512 0.500000 0.922407
O O7 0.696120 0.769543 0.854000
O O8 0.605268 0.767715 0.807042
O O9 0.525517 0.763817 0.118976
O O10 0.833820 0.259773 0.531334
O O11 0.778298 0.253119 0.408603
O O12 0.869028 0.000000 0.346008
O O13 0.944691 0.500000 0.676074
O O14 0.841591 0.710636 0.740787
O O15 0.000000 0.777883 0.500000
O O16 0.189545 0.000000 0.302960
O O17 0.633076 0.247609 0.543412
O O18 0.734547 0.000000 0.350707
O O19 0.432042 0.500000 0.249223
#
# Coordination Sequence:
#
# PCOD9143640 Si02
#       8
#     4   2   4   4   4   4   4   4
#     4  10  21  36  54  78 105 135 178 225 273 324
#     4  10  18  32  54  76 101 134 175 220 269 318
#     4   9  18  32  52  80 112 147 181 219 267 320
#     4   9  18  30  45  72 106 139 172 212 264 317
#     4  10  22  40  58  77 105 143 186 231 274 319
#     4  11  21  34  53  79 110 144 185 225 267 321
#     4  10  19  32  51  76 110 144 175 213 266 324
#     4   9  17  31  52  80 113 145 181 219 264 321
#
# _framework density 20.169640000000001
#
# number of rings (size 3 to 8) (size 9 to 14) (size 15 to 20)
#    0.000    2.267    1.333    2.800    0.000    1.867 
#    0.000    2.667    0.000    0.800    0.000    5.600 
#    0.000    0.000    0.000    0.000    0.000    0.000 
#
# Total GULP energy -167108.821444 kJ/mol
# GULP energy per Si atom -5570.294048 kJ/mol
# Density = 2.012373 g / cm^3
# Si number density = 20.169640 Si / 1000 Ang^3
#
#
#
# Elastic Constant Matrix: (Units=GPa)
#
#
# Indices 1 2 3 4 5 6 
#
# 1 77.2125 -1.0920 58.3159 0.0000 3.6330 0.0000
# 2 -1.0920 40.9350 10.7242 0.0000 4.1133 0.0000
# 3 58.3159 10.7242 179.6003 0.0000 -7.1563 0.0000
# 4 0.0000 0.0000 0.0000 119.1408 0.0000 -58.3701
# 5 3.6330 4.1133 -7.1563 0.0000 37.2506 0.0000
# 6 0.0000 0.0000 0.0000 -58.3701 0.0000 30.6799
#
#
#
# Elastic Compliance Matrix: (Units=1/GPa)
#
#
# Indices 1 2 3 4 5 6 
#
# 1 0.017665 0.002359 -0.006002 0.000000 -0.003136 0.000000
# 2 0.002359 0.025480 -0.002427 0.000000 -0.003510 0.000000
# 3 -0.006002 -0.002427 0.007755 0.000000 0.002343 0.000000
# 4 0.000000 0.000000 0.000000 0.123627 0.000000 0.235206
# 5 -0.003136 -0.003510 0.002343 0.000000 0.027989 0.000000
# 6 0.000000 0.000000 0.000000 0.235206 0.000000 0.480085
#
#
# Mechanical properties :
#
#
# Convention : Reuss Voigt Hill
#
# Bulk Modulus (GPa) = 25.79966 48.18265 36.99116
# Shear Modulus (GPa) = 7.06553 52.73424 29.89989
#
# Velocity S-wave (km/s) = 1.87367 5.11880 3.85440
# Velocity P-wave (km/s) = 4.18330 7.67312 6.17967
#
# Compressibility (1/GPa) = 0.03876019
#
# Stress axis : x y z
#
# Youngs Moduli (GPa) = 56.60913 39.24575 128.95028
#
# Poissons Ratio (x) = -0.09257 0.77391
# Poissons Ratio (y) = -0.13352 0.31299
# Poissons Ratio (z) = 0.33975 0.09526
#
# Static dielectric constant tensor:
#      x y z
#    x 1.679630 0.000000 -0.015590 
#    y 0.000000 1.805510 0.000000 
#    z -0.015590 0.000000 1.754090 
# 
# From -- ./inp_files/56628.got.cif
#   From: 2010.05.17/outbox.cif.g08.bks.cpg/sg10_29_cif.got.tgz:56628.got - 2010.06.03 11:33:40.
