data_PCOD9143584
_publ_section_title
;
Structure prediction by ZEFSAII (Michael W. Deem and Ramdas Pophale) SiO2 
 PCOD9143584
Probable space group: P 2/M
;
_chemical_formula_sum "Si O2"
_cell_formula_units_Z 28
_cell_length_a 25.288320
_cell_length_b 8.814077
_cell_length_c 20.053259
_cell_angle_alpha 90.000000
_cell_angle_beta 21.484815
_cell_angle_gamma 90.000000
_cell_volume 1637.061148
_symmetry_space_group_name_H-M "P 2/M"
_symmetry_group_IT_number 10
_symmetry_cell_setting 'monoclinic'
loop_
_space_group_symop_operation_xyz
x,y,z
-x,y,-z
-x,-y,-z
x,-y,z
loop_
_atom_site_type_symbol
_atom_site_label
_atom_site_fract_x
_atom_site_fract_y
_atom_site_fract_z
Si Si1 0.642369 0.324611 0.785647
Si Si2 0.142112 0.683822 0.913151
Si Si3 0.837181 0.816501 0.668160
Si Si4 0.561214 0.817240 0.080875
Si Si5 0.531779 0.819023 0.666123
Si Si6 0.413158 0.682724 0.669372
Si Si7 0.183934 0.316647 0.712260
O O1 0.676957 0.500000 0.731692
O O2 0.773685 0.248608 0.672810
O O3 0.578778 0.243833 0.794697
O O4 0.500000 0.319086 0.000000
O O5 0.141649 0.500000 0.911647
O O6 0.250344 0.730180 0.843524
O O7 0.198212 0.728150 0.773735
O O8 0.978064 0.730463 0.115846
O O9 0.000000 0.770283 0.500000
O O10 0.837801 0.000000 0.662848
O O11 0.712252 0.771234 0.868340
O O12 0.549969 0.769039 0.170954
O O13 0.556657 0.000000 0.082942
O O14 0.466720 0.754891 0.674249
O O15 0.695233 0.758917 0.474008
O O16 0.530328 0.000000 0.665751
O O17 0.500000 0.722891 0.500000
O O18 0.424156 0.500000 0.662855
O O19 0.196386 0.500000 0.694234
#
# Coordination Sequence:
#
# PCOD9143584 Si02
#       7
#     4   4   4   4   4   4   4
#     4   9  17  30  51  78 103 127 161 205 247 286
#     4   8  15  29  51  73  90 116 161 210 249 291
#     4   9  17  32  56  80 101 134 173 202 238 295
#     4   9  19  35  51  70 101 137 170 203 244 300
#     4  11  22  33  47  72 104 134 165 206 255 301
#     4  10  18  32  53  73  93 126 171 212 252 302
#     4   9  16  31  52  70  91 123 162 204 247 296
#
# _framework density 17.103821
#
# number of rings (size 3 to 8) (size 9 to 14) (size 15 to 20)
#    0.000    2.714    1.429    1.714    0.000    3.429 
#    0.000    3.571    0.000    5.143    0.000    0.000 
#    0.000    0.000    0.000    0.000    0.000    0.000 
#
# Total GULP energy -155906.505850 kJ/mol
# GULP energy per Si atom -5568.089495 kJ/mol
# Density = 1.706489 g / cm^3
# Si number density = 17.103821 Si / 1000 Ang^3
#
#
#
# Elastic Constant Matrix: (Units=GPa)
#
#
# Indices 1 2 3 4 5 6 
#
# 1 124.0287 32.9883 68.7851 0.0000 -8.2765 0.0000
# 2 32.9883 20.9939 24.1878 0.0000 -1.6308 0.0000
# 3 68.7851 24.1878 93.2934 0.0000 -11.1157 0.0000
# 4 0.0000 0.0000 0.0000 16.0901 0.0000 -8.0489
# 5 -8.2765 -1.6308 -11.1157 0.0000 29.5352 0.0000
# 6 0.0000 0.0000 0.0000 -8.0489 0.0000 -2.0311
#
#
#
# Elastic Compliance Matrix: (Units=1/GPa)
#
#
# Indices 1 2 3 4 5 6 
#
# 1 0.017347 -0.017927 -0.008041 0.000000 0.000845 0.000000
# 2 -0.017927 0.086706 -0.009726 0.000000 -0.003897 0.000000
# 3 -0.008041 -0.009726 0.019721 0.000000 0.004632 0.000000
# 4 0.000000 0.000000 0.000000 0.020839 0.000000 -0.082582
# 5 0.000845 -0.003897 0.004632 0.000000 0.035623 0.000000
# 6 0.000000 0.000000 0.000000 -0.082582 0.000000 -0.165086
#
#
# Mechanical properties :
#
#
# Convention : Reuss Voigt Hill
#
# Bulk Modulus (GPa) = 19.08976 54.47093 36.78034
# Shear Modulus (GPa) = 48.07658 16.20918 32.14288
#
# Velocity S-wave (km/s) = 5.30751 3.08180 4.33977
# Velocity P-wave (km/s) = 6.98176 6.67680 6.83098
#
# Compressibility (1/GPa) = 0.05238411
#
# Stress axis : x y z
#
# Youngs Moduli (GPa) = 57.64781 11.53325 50.70695
#
# Poissons Ratio (x) = 0.20676 0.40774
# Poissons Ratio (y) = 1.03347 0.49320
# Poissons Ratio (z) = 0.46355 0.11218
#
# Static dielectric constant tensor:
#      x y z
#    x 1.589290 0.000000 -0.015070 
#    y 0.000000 1.581630 0.000000 
#    z -0.015070 0.000000 1.594870 
# 
# From -- ./inp_files/86666.got.cif
#   From: 2010.05.17/outbox.cif.g08.bks.cpg/sg10_44_cif.got.tgz:86666.got - 2010.06.03 11:33:40.
