data_PCOD9143619
_publ_section_title
;
Structure prediction by ZEFSAII (Michael W. Deem and Ramdas Pophale) SiO2 
 PCOD9143619
Probable space group: P 2/M
;
_chemical_formula_sum "Si O2"
_cell_formula_units_Z 32
_cell_length_a 11.216762
_cell_length_b 8.675907
_cell_length_c 22.287790
_cell_angle_alpha 90.000000
_cell_angle_beta 49.518361
_cell_angle_gamma 90.000000
_cell_volume 1649.733307
_symmetry_space_group_name_H-M "P 2/M"
_symmetry_group_IT_number 10
_symmetry_cell_setting 'monoclinic'
loop_
_space_group_symop_operation_xyz
x,y,z
-x,y,-z
-x,-y,-z
x,-y,z
loop_
_atom_site_type_symbol
_atom_site_label
_atom_site_fract_x
_atom_site_fract_y
_atom_site_fract_z
Si Si1 0.362145 0.314060 0.999393
Si Si2 0.177215 0.684318 0.457719
Si Si3 0.942962 0.677593 0.835191
Si Si4 0.260502 0.815144 0.687587
Si Si5 0.152357 0.185267 0.592818
Si Si6 0.514452 0.817823 0.163252
Si Si7 0.520131 0.186332 0.693980
Si Si8 0.175142 0.322363 0.263010
O O1 0.359932 0.500000 0.004251
O O2 0.401646 0.265914 0.919101
O O3 0.500000 0.260485 0.000000
O O4 0.191413 0.259137 0.077070
O O5 0.178254 0.500000 0.458715
O O6 0.220373 0.750437 0.509008
O O7 0.307175 0.744277 0.369252
O O8 0.000000 0.735594 0.500000
O O9 0.978499 0.500000 0.839649
O O10 0.864548 0.675946 0.794807
O O11 0.104085 0.768175 0.774640
O O12 0.240040 0.762620 0.625270
O O13 0.411724 0.759810 0.674401
O O14 0.268590 0.000000 0.683009
O O15 0.975579 0.249237 0.656102
O O16 0.151172 0.000000 0.591790
O O17 0.558849 0.772413 0.216645
O O18 0.331073 0.775240 0.219768
O O19 0.536543 0.000000 0.149012
O O20 0.533224 0.000000 0.688083
O O21 0.197539 0.500000 0.275273
#
# Coordination Sequence:
#
# PCOD9143619 Si02
#       8
#     4   4   4   4   4   4   4   4
#     4  10  19  35  55  81 116 151 183 225 285 339
#     4  11  24  40  59  86 117 148 183 224 279 338
#     4   9  18  33  55  81 110 145 183 226 278 331
#     4   9  20  39  60  81 109 148 192 232 275 327
#     4  10  20  35  58  86 112 144 187 233 279 326
#     4  11  22  34  53  82 112 146 189 232 280 334
#     4  10  23  42  59  78 111 152 189 230 279 330
#     4  10  18  32  53  79 114 149 181 225 281 337
#
# _framework density 19.397074
#
# number of rings (size 3 to 8) (size 9 to 14) (size 15 to 20)
#    0.000    2.000    1.250    2.250    0.000    6.750 
#    0.000    3.125    0.000    3.750    0.000    0.000 
#    0.000    0.000    0.000    0.000    0.000    0.000 
#
# Total GULP energy -178651.094731 kJ/mol
# GULP energy per Si atom -5582.846710 kJ/mol
# Density = 1.935293 g / cm^3
# Si number density = 19.397074 Si / 1000 Ang^3
#
#
#
# Elastic Constant Matrix: (Units=GPa)
#
#
# Indices 1 2 3 4 5 6 
#
# 1 69.3296 5.0042 24.3401 0.0000 4.0059 0.0000
# 2 5.0042 5.7224 13.5717 0.0000 6.7271 0.0000
# 3 24.3401 13.5717 115.3316 0.0000 14.5256 0.0000
# 4 0.0000 0.0000 0.0000 57.7455 0.0000 17.1600
# 5 4.0059 6.7271 14.5256 0.0000 17.4041 0.0000
# 6 0.0000 0.0000 0.0000 17.1600 0.0000 23.1518
#
#
#
# Elastic Compliance Matrix: (Units=1/GPa)
#
#
# Indices 1 2 3 4 5 6 
#
# 1 0.015926 -0.011662 -0.002341 0.000000 0.002796 0.000000
# 2 -0.011662 0.407150 -0.029018 0.000000 -0.130470 0.000000
# 3 -0.002341 -0.029018 0.012403 0.000000 0.001404 0.000000
# 4 0.000000 0.000000 0.000000 0.022209 0.000000 -0.016461
# 5 0.002796 -0.130470 0.001404 0.000000 0.106072 0.000000
# 6 0.000000 0.000000 0.000000 -0.016461 0.000000 0.055394
#
#
# Mechanical properties :
#
#
# Convention : Reuss Voigt Hill
#
# Bulk Modulus (GPa) = 2.86175 30.69060 16.77618
# Shear Modulus (GPa) = 6.08514 29.49147 17.78830
#
# Velocity S-wave (km/s) = 1.77312 3.90347 3.03159
# Velocity P-wave (km/s) = 2.38128 6.01438 4.57402
#
# Compressibility (1/GPa) = 0.34943659
#
# Stress axis : x y z
#
# Youngs Moduli (GPa) = 62.79080 2.45610 80.62831
#
# Poissons Ratio (x) = 0.02864 0.18874
# Poissons Ratio (y) = 0.73226 2.33967
# Poissons Ratio (z) = 0.14698 0.07127
#
# Static dielectric constant tensor:
#      x y z
#    x 1.690440 0.000000 0.025590 
#    y 0.000000 1.655820 0.000000 
#    z 0.025590 0.000000 1.680880 
# 
# From -- ./inp_files/83568.got.cif
#   From: 2010.05.17/outbox.cif.g08.bks.cpg/sg10_42_cif.got.tgz:83568.got - 2010.06.03 11:33:40.
