data_PCOD9143063
_publ_section_title
;
Structure prediction by ZEFSAII (Michael W. Deem and Ramdas Pophale) SiO2 
 PCOD9143063
Probable space group: P 2/M
;
_chemical_formula_sum "Si O2"
_cell_formula_units_Z 26
_cell_length_a 14.156130
_cell_length_b 7.902311
_cell_length_c 15.384189
_cell_angle_alpha 90.000000
_cell_angle_beta 46.552930
_cell_angle_gamma 90.000000
_cell_volume 1249.441274
_symmetry_space_group_name_H-M "P 2/M"
_symmetry_group_IT_number 10
_symmetry_cell_setting 'monoclinic'
loop_
_space_group_symop_operation_xyz
x,y,z
-x,y,-z
-x,-y,-z
x,-y,z
loop_
_atom_site_type_symbol
_atom_site_label
_atom_site_fract_x
_atom_site_fract_y
_atom_site_fract_z
Si Si1 0.833591 0.203241 0.839626
Si Si2 0.393131 0.298496 0.136357
Si Si3 0.256605 0.203429 0.911341
Si Si4 0.376938 0.299106 0.524002
Si Si5 0.549684 0.703919 0.707335
Si Si6 0.000000 0.250749 0.000000
Si Si7 0.097035 0.189941 0.746455
O O1 0.749019 0.269563 0.813899
O O2 0.980415 0.268810 0.762740
O O3 0.842034 0.000000 0.827779
O O4 0.755095 0.239157 0.978499
O O5 0.415839 0.500000 0.126846
O O6 0.408602 0.229429 0.224185
O O7 0.500000 0.228638 0.000000
O O8 0.398865 0.249689 0.789897
O O9 0.231897 0.000000 0.912796
O O10 0.144059 0.310859 0.935753
O O11 0.500000 0.228232 0.500000
O O12 0.398562 0.500000 0.503819
O O13 0.375985 0.233323 0.425363
O O14 0.237141 0.274217 0.656167
O O15 0.562130 0.500000 0.702938
O O16 0.961313 0.178141 0.119334
O O17 0.119127 0.000000 0.700721
#
# Coordination Sequence:
#
# PCOD9143063 Si02
#       7
#     4   4   4   4   4   2   4
#     4   9  19  33  51  79 111 138 168 219 274 315
#     4  10  19  33  54  79 106 140 180 220 264 316
#     4  10  18  30  51  78 106 137 173 212 263 319
#     4  10  22  39  56  77 109 145 179 219 265 313
#     4  10  21  36  53  76 108 140 176 220 264 312
#     4  10  19  34  55  80 109 138 171 218 269 318
#     4  10  20  36  57  80 108 141 179 220 266 317
#
# _framework density 20.809301000000001
#
# number of rings (size 3 to 8) (size 9 to 14) (size 15 to 20)
#    0.000    2.154    1.538    3.231    0.000    2.462 
#    0.000    3.846    0.000    4.615    0.000    0.000 
#    0.000    0.000    0.000    0.000    0.000    0.000 
#
# Total GULP energy -144794.555251 kJ/mol
# GULP energy per Si atom -5569.021356 kJ/mol
# Density = 2.076194 g / cm^3
# Si number density = 20.809301 Si / 1000 Ang^3
#
#
#
# Elastic Constant Matrix: (Units=GPa)
#
#
# Indices 1 2 3 4 5 6 
#
# 1 147.4036 1.1489 58.5552 0.0000 3.6791 0.0000
# 2 1.1489 15.4205 1.7043 0.0000 14.0679 0.0000
# 3 58.5552 1.7043 106.0724 0.0000 1.6170 0.0000
# 4 0.0000 0.0000 0.0000 5.5997 0.0000 -6.3781
# 5 3.6791 14.0679 1.6170 0.0000 26.3542 0.0000
# 6 0.0000 0.0000 0.0000 -6.3781 0.0000 -30.2865
#
#
#
# Elastic Compliance Matrix: (Units=1/GPa)
#
#
# Indices 1 2 3 4 5 6 
#
# 1 0.008728 0.001411 -0.004815 0.000000 -0.001676 0.000000
# 2 0.001411 0.126740 -0.001783 0.000000 -0.067741 0.000000
# 3 -0.004815 -0.001783 0.012101 0.000000 0.000881 0.000000
# 4 0.000000 0.000000 0.000000 0.144031 0.000000 -0.030332
# 5 -0.001676 -0.067741 0.000881 0.000000 0.074285 0.000000
# 6 0.000000 0.000000 0.000000 -0.030332 0.000000 -0.026630
#
#
# Mechanical properties :
#
#
# Convention : Reuss Voigt Hill
#
# Bulk Modulus (GPa) = 7.28889 43.52369 25.40629
# Shear Modulus (GPa) = 12.64673 14.16602 13.40638
#
# Velocity S-wave (km/s) = 2.46792 2.61196 2.54096
# Velocity P-wave (km/s) = 3.41045 5.48246 4.56555
#
# Compressibility (1/GPa) = 0.13719504
#
# Stress axis : x y z
#
# Youngs Moduli (GPa) = 114.57776 7.89018 82.63913
#
# Poissons Ratio (x) = -0.01113 0.39791
# Poissons Ratio (y) = -0.16168 0.14732
# Poissons Ratio (z) = 0.55170 0.01407
#
# Static dielectric constant tensor:
#      x y z
#    x 1.766280 0.000000 0.008380 
#    y 0.000000 1.774830 0.000000 
#    z 0.008380 0.000000 1.717360 
# 
# From -- ./inp_files/55105.got.cif
#   From: 2010.05.17/outbox.cif.g08.bks.cpg/sg10_28_cif.got.tgz:55105.got - 2010.06.03 11:33:40.
