data_PCOD9143395
_publ_section_title
;
Structure prediction by ZEFSAII (Michael W. Deem and Ramdas Pophale) SiO2 
 PCOD9143395
Probable space group: P 2/M
;
_chemical_formula_sum "Si O2"
_cell_formula_units_Z 28
_cell_length_a 22.309981
_cell_length_b 11.945704
_cell_length_c 11.781331
_cell_angle_alpha 90.000000
_cell_angle_beta 30.473765
_cell_angle_gamma 90.000000
_cell_volume 1592.342225
_symmetry_space_group_name_H-M "P 2/M"
_symmetry_group_IT_number 10
_symmetry_cell_setting 'monoclinic'
loop_
_space_group_symop_operation_xyz
x,y,z
-x,y,-z
-x,-y,-z
x,-y,z
loop_
_atom_site_type_symbol
_atom_site_label
_atom_site_fract_x
_atom_site_fract_y
_atom_site_fract_z
Si Si1 0.666015 0.135509 0.448535
Si Si2 0.122714 0.128342 0.731221
Si Si3 0.244523 0.745461 0.167628
Si Si4 0.552636 0.134200 0.039091
Si Si5 0.202283 0.500000 0.188744
Si Si6 0.972824 0.500000 0.726985
Si Si7 0.976394 0.746837 0.317722
Si Si8 0.223012 0.865450 0.965585
O O1 0.774146 0.169310 0.353957
O O2 0.544276 0.166598 0.707563
O O3 0.668851 0.000000 0.442328
O O4 0.691960 0.170494 0.277309
O O5 0.099243 0.204801 0.662023
O O6 0.151232 0.000000 0.649403
O O7 0.000000 0.124932 0.000000
O O8 0.269693 0.614876 0.103166
O O9 0.109344 0.750882 0.432955
O O10 0.257041 0.813006 0.030332
O O11 0.329616 0.799265 0.122355
O O12 0.573418 0.000000 0.011524
O O13 0.500000 0.156946 0.000000
O O14 0.087549 0.500000 0.457869
O O15 0.145099 0.500000 0.156915
O O16 0.982873 0.619238 0.772211
O O17 0.091918 0.822011 0.148657
O O18 0.223302 0.000000 0.972275
#
# Coordination Sequence:
#
# PCOD9143395 Si02
#       8
#     4   4   4   4   2   2   4   4
#     4   9  19  35  53  76 112 151 179 210 263 331
#     4  10  18  31  53  80 109 143 178 214 269 326
#     4  11  22  35  56  81 106 143 184 226 269 317
#     4  10  21  38  58  81 109 142 180 221 267 320
#     4   9  18  36  55  74 105 146 186 217 268 328
#     4   9  18  34  53  75 106 149 182 216 274 323
#     4  11  20  33  54  80 111 141 180 227 268 321
#     4  11  21  32  52  83 113 141 174 221 276 325
#
# _framework density 17.584159
#
# number of rings (size 3 to 8) (size 9 to 14) (size 15 to 20)
#    0.000    1.857    2.857    2.143    0.000    4.571 
#    0.000    2.857    0.000    3.429    0.000    0.000 
#    0.000    0.000    0.000    0.000    0.000    0.000 
#
# Total GULP energy -156184.973529 kJ/mol
# GULP energy per Si atom -5578.034769 kJ/mol
# Density = 1.754414 g / cm^3
# Si number density = 17.584159 Si / 1000 Ang^3
#
#
#
# Elastic Constant Matrix: (Units=GPa)
#
#
# Indices 1 2 3 4 5 6 
#
# 1 78.9174 45.2016 15.7726 0.0000 9.3285 0.0000
# 2 45.2016 98.0445 22.8325 0.0000 7.2798 0.0000
# 3 15.7726 22.8325 69.6502 0.0000 5.8654 0.0000
# 4 0.0000 0.0000 0.0000 5.5111 0.0000 -4.9085
# 5 9.3285 7.2798 5.8654 0.0000 27.6732 0.0000
# 6 0.0000 0.0000 0.0000 -4.9085 0.0000 11.0658
#
#
#
# Elastic Compliance Matrix: (Units=1/GPa)
#
#
# Indices 1 2 3 4 5 6 
#
# 1 0.017709 -0.007608 -0.001203 0.000000 -0.003713 0.000000
# 2 -0.007608 0.014442 -0.002960 0.000000 -0.000607 0.000000
# 3 -0.001203 -0.002960 0.015782 0.000000 -0.002161 0.000000
# 4 0.000000 0.000000 0.000000 0.299961 0.000000 0.133056
# 5 -0.003713 -0.000607 -0.002161 0.000000 0.038005 0.000000
# 6 0.000000 0.000000 0.000000 0.133056 0.000000 0.149389
#
#
# Mechanical properties :
#
#
# Convention : Reuss Voigt Hill
#
# Bulk Modulus (GPa) = 41.00236 46.02507 43.51371
# Shear Modulus (GPa) = 8.81895 19.70371 14.26133
#
# Velocity S-wave (km/s) = 2.24191 3.35107 2.85095
# Velocity P-wave (km/s) = 5.48361 6.41903 5.96967
#
# Compressibility (1/GPa) = 0.02438884
#
# Stress axis : x y z
#
# Youngs Moduli (GPa) = 56.46940 69.24471 63.36200
#
# Poissons Ratio (x) = 0.52684 0.07625
# Poissons Ratio (y) = 0.42964 0.18756
# Poissons Ratio (z) = 0.06796 0.20497
#
# Static dielectric constant tensor:
#      x y z
#    x 1.595370 0.000000 0.016340 
#    y 0.000000 1.587560 0.000000 
#    z 0.016340 0.000000 1.621610 
# 
# From -- ./inp_files/55851.got.cif
#   From: 2010.05.17/outbox.cif.g08.bks.cpg/sg10_28_cif.got.tgz:55851.got - 2010.06.03 11:33:40.
