data_PCOD9143538
_publ_section_title
;
Structure prediction by ZEFSAII (Michael W. Deem and Ramdas Pophale) SiO2 
 PCOD9143538
Probable space group: P 2/M
;
_chemical_formula_sum "Si O2"
_cell_formula_units_Z 26
_cell_length_a 20.353954
_cell_length_b 13.525239
_cell_length_c 5.467138
_cell_angle_alpha 90.000000
_cell_angle_beta 106.638531
_cell_angle_gamma 90.000000
_cell_volume 1442.043356
_symmetry_space_group_name_H-M "P 2/M"
_symmetry_group_IT_number 10
_symmetry_cell_setting 'monoclinic'
loop_
_space_group_symop_operation_xyz
x,y,z
-x,y,-z
-x,-y,-z
x,-y,z
loop_
_atom_site_type_symbol
_atom_site_label
_atom_site_fract_x
_atom_site_fract_y
_atom_site_fract_z
Si Si1 0.688255 0.209885 0.975258
Si Si2 0.130118 0.758265 0.397606
Si Si3 0.456627 0.884585 0.204077
Si Si4 0.091463 0.606155 0.982849
Si Si5 0.252116 0.115702 0.460837
Si Si6 0.000000 0.308674 0.500000
Si Si7 0.224651 0.611626 0.781082
O O1 0.607835 0.188365 0.868195
O O2 0.721515 0.169415 0.758219
O O3 0.713353 0.152757 0.248524
O O4 0.714113 0.322159 0.044427
O O5 0.171682 0.857536 0.402254
O O6 0.188858 0.677838 0.533424
O O7 0.067216 0.756690 0.518120
O O8 0.095732 0.708098 0.130061
O O9 0.500000 0.870467 0.500000
O O10 0.432724 0.000000 0.181645
O O11 0.500000 0.872229 0.000000
O O12 0.089468 0.500000 0.114343
O O13 0.161962 0.604072 0.904549
O O14 0.025889 0.618847 0.740474
O O15 0.264725 0.000000 0.447383
O O16 0.243835 0.500000 0.728588
#
# Coordination Sequence:
#
# PCOD9143538 Si02
#       7
#     4   4   4   4   4   2   4
#     4  11  21  38  60  87 115 150 185 228 279 329
#     4  10  20  34  51  75 107 143 184 235 283 340
#     4  10  20  34  55  84 117 148 181 223 273 326
#     4  10  18  32  51  74 104 137 179 230 286 337
#     4  11  22  37  59  84 111 146 192 238 278 326
#     4  10  21  32  47  72 106 142 181 228 291 338
#     4   9  19  34  54  81 110 143 185 231 279 332
#
# _framework density 18.029969000000001
#
# number of rings (size 3 to 8) (size 9 to 14) (size 15 to 20)
#    0.000    1.846    1.538    3.462    0.000    3.692 
#    0.000    0.385    0.000    2.769    0.000    0.000 
#    0.000    0.000    0.000    0.000    0.000    0.000 
#
# Total GULP energy -144817.860294 kJ/mol
# GULP energy per Si atom -5569.917704 kJ/mol
# Density = 1.798893 g / cm^3
# Si number density = 18.029969 Si / 1000 Ang^3
#
#
#
# Elastic Constant Matrix: (Units=GPa)
#
#
# Indices 1 2 3 4 5 6 
#
# 1 81.3477 26.6576 26.2314 0.0000 12.1639 0.0000
# 2 26.6576 67.8591 22.6662 0.0000 9.7133 0.0000
# 3 26.2314 22.6662 96.7741 0.0000 2.3421 0.0000
# 4 0.0000 0.0000 0.0000 15.0635 0.0000 -8.5577
# 5 12.1639 9.7133 2.3421 0.0000 31.5319 0.0000
# 6 0.0000 0.0000 0.0000 -8.5577 0.0000 -6.8277
#
#
#
# Elastic Compliance Matrix: (Units=1/GPa)
#
#
# Indices 1 2 3 4 5 6 
#
# 1 0.015361 -0.004401 -0.003028 0.000000 -0.004345 0.000000
# 2 -0.004401 0.017961 -0.002926 0.000000 -0.003618 0.000000
# 3 -0.003028 -0.002926 0.011811 0.000000 0.001192 0.000000
# 4 0.000000 0.000000 0.000000 0.038775 0.000000 -0.048600
# 5 -0.004345 -0.003618 0.001192 0.000000 0.034416 0.000000
# 6 0.000000 0.000000 0.000000 -0.048600 0.000000 -0.085548
#
#
# Mechanical properties :
#
#
# Convention : Reuss Voigt Hill
#
# Bulk Modulus (GPa) = 40.94649 44.12126 42.53387
# Shear Modulus (GPa) = 81.13354 19.31526 50.22440
#
# Velocity S-wave (km/s) = 6.71543 3.27660 5.28361
# Velocity P-wave (km/s) = 9.10433 6.23210 7.80153
#
# Compressibility (1/GPa) = 0.02442212
#
# Stress axis : x y z
#
# Youngs Moduli (GPa) = 65.09895 55.67757 84.66998
#
# Poissons Ratio (x) = 0.24505 0.25636
# Poissons Ratio (y) = 0.28651 0.24776
# Poissons Ratio (z) = 0.19711 0.16292
#
# Static dielectric constant tensor:
#      x y z
#    x 1.649780 0.000000 -0.040420 
#    y 0.000000 1.615580 0.000000 
#    z -0.040420 0.000000 1.678450 
# 
# From -- ./inp_files/12343.got.cif
#   From: 2010.05.17/outbox.cif.g08.bks.cpg/sg10_7_cif.got.tgz:12343.got - 2010.06.03 11:33:40.
