data_PCOD9143846
_publ_section_title
;
Structure prediction by ZEFSAII (Michael W. Deem and Ramdas Pophale) SiO2 
 PCOD9143846
Probable space group: P 2/M
;
_chemical_formula_sum "Si O2"
_cell_formula_units_Z 24
_cell_length_a 13.480475
_cell_length_b 11.991223
_cell_length_c 9.632238
_cell_angle_alpha 90.000000
_cell_angle_beta 142.542746
_cell_angle_gamma 90.000000
_cell_volume 946.935557
_symmetry_space_group_name_H-M "P 2/M"
_symmetry_group_IT_number 10
_symmetry_cell_setting 'monoclinic'
loop_
_space_group_symop_operation_xyz
x,y,z
-x,y,-z
-x,-y,-z
x,-y,z
loop_
_atom_site_type_symbol
_atom_site_label
_atom_site_fract_x
_atom_site_fract_y
_atom_site_fract_z
Si Si1 0.094795 0.628033 0.766273
Si Si2 0.693669 0.619949 0.725504
Si Si3 0.235398 0.155711 0.284494
Si Si4 0.954776 0.879055 0.189668
Si Si5 0.472544 0.127743 0.770457
Si Si6 0.329060 0.279244 0.832506
O O1 0.024468 0.500000 0.699902
O O2 0.027176 0.755544 0.721152
O O3 0.180381 0.644622 0.710374
O O4 0.239423 0.622571 0.043943
O O5 0.500000 0.638712 0.500000
O O6 0.728264 0.500000 0.702426
O O7 0.785468 0.711941 0.741233
O O8 0.410241 0.131877 0.545056
O O9 0.102375 0.112269 0.243297
O O10 0.200492 0.121367 0.088340
O O11 0.951636 0.000000 0.264465
O O12 0.335911 0.194991 0.709970
O O13 0.484581 0.000000 0.825566
O O14 0.631886 0.195046 0.995311
O O15 0.500000 0.345100 0.000000
#
# Coordination Sequence:
#
# PCOD9143846 Si02
#       6
#     4   4   4   4   4   4
#     4  10  20  36  54  76 106 140 178 218 262 314
#     4   9  18  31  51  79 111 138 169 216 267 319
#     4  10  18  33  54  78 107 140 178 212 257 314
#     4  10  21  34  54  80 107 141 176 218 261 308
#     4   9  17  31  52  76 104 137 171 214 262 313
#     4   8  19  33  52  78  98 137 170 219 262 313
#
# _framework density 25.344912999999998
#
# number of rings (size 3 to 8) (size 9 to 14) (size 15 to 20)
#    1.000    1.500    0.000    4.000    0.000    2.333 
#    0.000    5.000    0.000   11.000    0.000    0.000 
#    0.000    0.000    0.000    0.000    0.000    0.000 
#
# Total GULP energy -133605.669002 kJ/mol
# GULP energy per Si atom -5566.902875 kJ/mol
# Density = 2.528723 g / cm^3
# Si number density = 25.344913 Si / 1000 Ang^3
#
#
#
# Elastic Constant Matrix: (Units=GPa)
#
#
# Indices 1 2 3 4 5 6 
#
# 1 64.6579 50.2312 -6.0463 0.0000 -4.1640 0.0000
# 2 50.2312 249.0334 21.6032 0.0000 4.1945 0.0000
# 3 -6.0463 21.6032 83.3572 0.0000 -15.6201 0.0000
# 4 0.0000 0.0000 0.0000 16.8287 0.0000 17.5981
# 5 -4.1640 4.1945 -15.6201 0.0000 26.1077 0.0000
# 6 0.0000 0.0000 0.0000 17.5981 0.0000 16.6446
#
#
#
# Elastic Compliance Matrix: (Units=1/GPa)
#
#
# Indices 1 2 3 4 5 6 
#
# 1 0.019598 -0.004374 0.003686 0.000000 0.006034 0.000000
# 2 -0.004374 0.005134 -0.002177 0.000000 -0.002825 0.000000
# 3 0.003686 -0.002177 0.014646 0.000000 0.009700 0.000000
# 4 0.000000 0.000000 0.000000 -0.562602 0.000000 0.594830
# 5 0.006034 -0.002825 0.009700 0.000000 0.045523 0.000000
# 6 0.000000 0.000000 0.000000 0.594830 0.000000 -0.568825
#
#
# Mechanical properties :
#
#
# Convention : Reuss Voigt Hill
#
# Bulk Modulus (GPa) = 29.72113 58.73610 44.22861
# Shear Modulus (GPa) = -4.85635 34.00022 14.57194
#
# Velocity S-wave (km/s) = -1.38574 3.66662 2.40040
# Velocity P-wave (km/s) = 3.03179 6.41487 5.01709
#
# Compressibility (1/GPa) = 0.03364610
#
# Stress axis : x y z
#
# Youngs Moduli (GPa) = 51.02680 194.76837 68.27853
#
# Poissons Ratio (x) = 0.85197 -0.25166
# Poissons Ratio (y) = 0.22321 0.14866
# Poissons Ratio (z) = -0.18807 0.42407
#
# Static dielectric constant tensor:
#      x y z
#    x 2.007050 0.000000 0.045300 
#    y 0.000000 1.986710 0.000000 
#    z 0.045300 0.000000 2.148030 
# 
# From -- ./inp_files/53406.got.cif
#   From: 2010.05.17/outbox.cif.g08.bks.cpg/sg10_27_cif.got.tgz:53406.got - 2010.06.03 11:33:40.
