data_PCOD9143869
_publ_section_title
;
Structure prediction by ZEFSAII (Michael W. Deem and Ramdas Pophale) SiO2 
 PCOD9143869
Probable space group: P 2/M
;
_chemical_formula_sum "Si O2"
_cell_formula_units_Z 32
_cell_length_a 8.564226
_cell_length_b 17.640617
_cell_length_c 23.985818
_cell_angle_alpha 90.000000
_cell_angle_beta 30.665223
_cell_angle_gamma 90.000000
_cell_volume 1848.180619
_symmetry_space_group_name_H-M "P 2/M"
_symmetry_group_IT_number 10
_symmetry_cell_setting 'monoclinic'
loop_
_space_group_symop_operation_xyz
x,y,z
-x,y,-z
-x,-y,-z
x,-y,z
loop_
_atom_site_type_symbol
_atom_site_label
_atom_site_fract_x
_atom_site_fract_y
_atom_site_fract_z
Si Si1 0.309008 0.915419 0.440961
Si Si2 0.654135 0.755371 0.713420
Si Si3 0.638580 0.239344 0.517527
Si Si4 0.198752 0.822970 0.062891
Si Si5 0.377691 0.085617 0.769543
Si Si6 0.289998 0.412891 0.119615
Si Si7 0.774957 0.706207 0.253585
Si Si8 0.665633 0.297320 0.077196
O O1 0.363289 0.850329 0.468328
O O2 0.568612 0.914427 0.313692
O O3 0.000000 0.900103 0.500000
O O4 0.281250 0.000000 0.472938
O O5 0.588382 0.845628 0.726676
O O6 0.442191 0.710853 0.734062
O O7 0.544276 0.733996 0.808594
O O8 0.005426 0.738068 0.592345
O O9 0.500000 0.255500 0.500000
O O10 0.436895 0.276250 0.628347
O O11 0.966415 0.887032 0.113331
O O12 0.019321 0.772426 0.164151
O O13 0.500000 0.853416 0.000000
O O14 0.280228 0.765802 0.987455
O O15 0.444583 0.000000 0.768528
O O16 0.233915 0.500000 0.152508
O O17 0.485938 0.367192 0.105065
O O18 0.977222 0.368153 0.201857
O O19 0.500000 0.411339 0.000000
O O20 0.000000 0.316322 0.000000
#
# Coordination Sequence:
#
# PCOD9143869 Si02
#       8
#     4   4   4   4   4   4   4   4
#     4  10  18  33  55  77 110 150 194 250 304 342
#     4  11  22  36  61  86 115 159 205 244 287 350
#     4  12  23  34  57  89 117 150 201 252 292 358
#     4  11  20  35  60  81 113 158 194 248 285 351
#     4  10  20  34  56  82 112 155 202 247 296 342
#     4  11  22  38  63  94 124 153 186 238 300 353
#     4  11  19  40  59  84 115 153 196 239 291 353
#     4  12  20  36  59  92 119 156 194 241 290 346
#
# _framework density 17.314326000000001
#
# number of rings (size 3 to 8) (size 9 to 14) (size 15 to 20)
#    0.000    1.000    8.750    1.125    0.000    0.750 
#    0.000    1.875    0.000    4.875    0.000    0.000 
#    0.000    0.000    0.000    0.000    0.000    0.000 
#
# Total GULP energy -178508.434811 kJ/mol
# GULP energy per Si atom -5578.388588 kJ/mol
# Density = 1.727492 g / cm^3
# Si number density = 17.314326 Si / 1000 Ang^3
#
#
#
# Elastic Constant Matrix: (Units=GPa)
#
#
# Indices 1 2 3 4 5 6 
#
# 1 71.2657 39.5396 37.3090 0.0000 -6.0597 0.0000
# 2 39.5396 93.5760 39.1126 0.0000 0.6369 0.0000
# 3 37.3090 39.1126 120.7949 0.0000 3.1898 0.0000
# 4 0.0000 0.0000 0.0000 17.3855 0.0000 -2.5140
# 5 -6.0597 0.6369 3.1898 0.0000 27.7299 0.0000
# 6 0.0000 0.0000 0.0000 -2.5140 0.0000 9.0354
#
#
#
# Elastic Compliance Matrix: (Units=1/GPa)
#
#
# Indices 1 2 3 4 5 6 
#
# 1 0.020536 -0.006944 -0.004230 0.000000 0.005134 0.000000
# 2 -0.006944 0.014708 -0.002576 0.000000 -0.001559 0.000000
# 3 -0.004230 -0.002576 0.010474 0.000000 -0.002070 0.000000
# 4 0.000000 0.000000 0.000000 0.059931 0.000000 0.016675
# 5 0.005134 -0.001559 -0.002070 0.000000 0.037458 0.000000
# 6 0.000000 0.000000 0.000000 0.016675 0.000000 0.115315
#
#
# Mechanical properties :
#
#
# Convention : Reuss Voigt Hill
#
# Bulk Modulus (GPa) = 54.89414 57.50657 56.20036
# Shear Modulus (GPa) = 17.12364 22.14186 19.63275
#
# Velocity S-wave (km/s) = 3.14823 3.57994 3.37100
# Velocity P-wave (km/s) = 6.70734 7.09742 6.90513
#
# Compressibility (1/GPa) = 0.01821688
#
# Stress axis : x y z
#
# Youngs Moduli (GPa) = 48.69592 67.98941 95.47611
#
# Poissons Ratio (x) = 0.47213 0.40384
# Poissons Ratio (y) = 0.33815 0.24599
# Poissons Ratio (z) = 0.20597 0.17517
#
# Static dielectric constant tensor:
#      x y z
#    x 1.588240 0.000000 -0.013240 
#    y 0.000000 1.587090 0.000000 
#    z -0.013240 0.000000 1.610280 
# 
# From -- ./inp_files/54161.got.cif
#   From: 2010.05.17/outbox.cif.g08.bks.cpg/sg10_28_cif.got.tgz:54161.got - 2010.06.03 11:33:40.
