data_PCOD9143520
_publ_section_title
;
Structure prediction by ZEFSAII (Michael W. Deem and Ramdas Pophale) SiO2 
 PCOD9143520
Probable space group: P 2/M
;
_chemical_formula_sum "Si O2"
_cell_formula_units_Z 30
_cell_length_a 9.451153
_cell_length_b 9.297628
_cell_length_c 24.427396
_cell_angle_alpha 90.000000
_cell_angle_beta 53.467135
_cell_angle_gamma 90.000000
_cell_volume 1724.758966
_symmetry_space_group_name_H-M "P 2/M"
_symmetry_group_IT_number 10
_symmetry_cell_setting 'monoclinic'
loop_
_space_group_symop_operation_xyz
x,y,z
-x,y,-z
-x,-y,-z
x,-y,z
loop_
_atom_site_type_symbol
_atom_site_label
_atom_site_fract_x
_atom_site_fract_y
_atom_site_fract_z
Si Si1 0.522321 0.334399 0.928684
Si Si2 0.142674 0.333226 0.418867
Si Si3 0.110236 0.330843 0.615435
Si Si4 0.500000 0.234057 0.500000
Si Si5 0.164530 0.326377 0.725683
Si Si6 0.169834 0.169848 0.996949
Si Si7 0.483122 0.162963 0.377785
Si Si8 0.875940 0.830041 0.861866
O O1 0.543286 0.500000 0.905929
O O2 0.345984 0.261628 0.945559
O O3 0.697242 0.240626 0.879174
O O4 0.500000 0.335694 0.000000
O O5 0.200535 0.500000 0.396483
O O6 0.302928 0.235176 0.400241
O O7 0.000000 0.338029 0.500000
O O8 0.036128 0.270716 0.391577
O O9 0.077322 0.500000 0.623451
O O10 0.311056 0.313229 0.548116
O O11 0.096271 0.280742 0.680928
O O12 0.490234 0.160093 0.442727
O O13 0.165776 0.500000 0.729057
O O14 0.360225 0.262260 0.680942
O O15 0.040109 0.254909 0.799097
O O16 0.205089 0.000000 0.978915
O O17 0.128532 0.185676 0.071136
O O18 0.000000 0.211489 0.000000
O O19 0.501797 0.000000 0.353801
O O20 0.883774 0.000000 0.847823
#
# Coordination Sequence:
#
# PCOD9143520 Si02
#       8
#     4   4   4   2   4   4   4   4
#     4   9  17  30  51  79 108 138 174 214 253 299
#     4  10  19  34  54  77 101 130 165 212 266 318
#     4   9  18  32  53  77 101 129 170 215 262 311
#     4  10  18  32  50  76 101 134 165 216 259 312
#     4  10  21  37  56  76 101 138 179 219 259 312
#     4   9  18  33  54  82 113 142 174 215 262 309
#     4  11  22  35  51  76 106 137 173 215 264 317
#     4  10  19  34  56  79 107 141 176 215 260 311
#
# _framework density 17.393736000000001
#
# number of rings (size 3 to 8) (size 9 to 14) (size 15 to 20)
#    0.000    2.267    1.333    2.000    0.000    3.733 
#    0.000    2.667    0.000    0.000    0.000    0.000 
#    0.000    0.000    0.000    0.000    0.000    0.000 
#
# Total GULP energy -167131.242438 kJ/mol
# GULP energy per Si atom -5571.041415 kJ/mol
# Density = 1.735415 g / cm^3
# Si number density = 17.393736 Si / 1000 Ang^3
#
#
#
# Elastic Constant Matrix: (Units=GPa)
#
#
# Indices 1 2 3 4 5 6 
#
# 1 136.3894 55.2966 25.3878 0.0000 -23.4191 0.0000
# 2 55.2966 94.6025 40.7595 0.0000 -12.9091 0.0000
# 3 25.3878 40.7595 62.6721 0.0000 -17.8099 0.0000
# 4 0.0000 0.0000 0.0000 15.1137 0.0000 -7.0481
# 5 -23.4191 -12.9091 -17.8099 0.0000 17.6350 0.0000
# 6 0.0000 0.0000 0.0000 -7.0481 0.0000 31.3873
#
#
#
# Elastic Compliance Matrix: (Units=1/GPa)
#
#
# Indices 1 2 3 4 5 6 
#
# 1 0.011766 -0.006419 0.003525 0.000000 0.014486 0.000000
# 2 -0.006419 0.018218 -0.011053 0.000000 -0.006351 0.000000
# 3 0.003525 -0.011053 0.029099 0.000000 0.025978 0.000000
# 4 0.000000 0.000000 0.000000 0.073904 0.000000 0.016595
# 5 0.014486 -0.006351 0.025978 0.000000 0.097529 0.000000
# 6 0.000000 0.000000 0.000000 0.016595 0.000000 0.035587
#
#
# Mechanical properties :
#
#
# Convention : Reuss Voigt Hill
#
# Bulk Modulus (GPa) = 32.06296 59.61686 45.83991
# Shear Modulus (GPa) = 16.42616 24.30854 20.36735
#
# Velocity S-wave (km/s) = 3.07640 3.74243 3.42564
# Velocity P-wave (km/s) = 5.57607 7.28174 6.48523
#
# Compressibility (1/GPa) = 0.03118863
#
# Stress axis : x y z
#
# Youngs Moduli (GPa) = 84.99260 54.88994 34.36579
#
# Poissons Ratio (x) = 0.35236 -0.12115
# Poissons Ratio (y) = 0.54561 0.37984
# Poissons Ratio (z) = -0.29963 0.60669
#
# Static dielectric constant tensor:
#      x y z
#    x 1.628820 0.000000 0.017570 
#    y 0.000000 1.588450 0.000000 
#    z 0.017570 0.000000 1.575480 
# 
# From -- ./inp_files/91833.got.cif
#   From: 2010.05.17/outbox.cif.g08.bks.cpg/sg10_46_cif.got.tgz:91833.got - 2010.06.03 11:33:40.
