data_PCOD9143552
_publ_section_title
;
Structure prediction by ZEFSAII (Michael W. Deem and Ramdas Pophale) SiO2 
 PCOD9143552
Probable space group: P 2/M
;
_chemical_formula_sum "Si O2"
_cell_formula_units_Z 28
_cell_length_a 20.994769
_cell_length_b 7.593340
_cell_length_c 24.045370
_cell_angle_alpha 90.000000
_cell_angle_beta 19.271042
_cell_angle_gamma 90.000000
_cell_volume 1265.139722
_symmetry_space_group_name_H-M "P 2/M"
_symmetry_group_IT_number 10
_symmetry_cell_setting 'monoclinic'
loop_
_space_group_symop_operation_xyz
x,y,z
-x,y,-z
-x,-y,-z
x,-y,z
loop_
_atom_site_type_symbol
_atom_site_label
_atom_site_fract_x
_atom_site_fract_y
_atom_site_fract_z
Si Si1 0.602370 0.295329 0.186789
Si Si2 0.118226 0.284557 0.457025
Si Si3 0.158397 0.203596 0.910568
Si Si4 0.437951 0.715865 0.904338
Si Si5 0.553833 0.206202 0.515187
Si Si6 0.776809 0.796712 0.433708
Si Si7 0.093600 0.702521 0.258573
O O1 0.547552 0.500000 0.228744
O O2 0.787710 0.279166 0.073854
O O3 0.630597 0.230795 0.100950
O O4 0.419007 0.206694 0.367802
O O5 0.122870 0.500000 0.455072
O O6 0.340839 0.228853 0.271281
O O7 0.000000 0.232868 0.500000
O O8 0.012609 0.220375 0.600092
O O9 0.357118 0.209104 0.712482
O O10 0.102212 0.000000 0.966537
O O11 0.000000 0.284427 0.000000
O O12 0.431839 0.500000 0.911050
O O13 0.291727 0.781019 0.071977
O O14 0.500000 0.285625 0.500000
O O15 0.715992 0.278827 0.423460
O O16 0.606371 0.000000 0.462205
O O17 0.943081 0.705110 0.331530
O O18 0.833328 0.000000 0.379894
O O19 0.135734 0.500000 0.238827
#
# Coordination Sequence:
#
# PCOD9143552 Si02
#       7
#     4   4   4   4   4   4   4
#     4  10  18  32  52  72 102 140 177 219 269 320
#     4   9  17  31  53  81 111 141 174 216 266 314
#     4   9  18  31  47  69  98 133 176 222 266 314
#     4   9  18  31  50  80 109 137 176 217 263 315
#     4   8  15  28  45  65  91 125 164 212 260 300
#     4  10  19  32  52  76 101 134 179 220 263 321
#     4  10  19  33  54  78 108 140 172 217 266 313
#
# _framework density 22.131943
#
# number of rings (size 3 to 8) (size 9 to 14) (size 15 to 20)
#    0.000    2.714    1.429    1.714    0.000    2.000 
#    0.000    5.714    0.000   11.143    0.000    1.000 
#    0.000    0.000    0.000    0.000    0.000    0.000 
#
# Total GULP energy -156198.496602 kJ/mol
# GULP energy per Si atom -5578.517736 kJ/mol
# Density = 2.208157 g / cm^3
# Si number density = 22.131943 Si / 1000 Ang^3
#
#
#
# Elastic Constant Matrix: (Units=GPa)
#
#
# Indices 1 2 3 4 5 6 
#
# 1 166.5778 -0.2483 85.3532 0.0000 -4.0960 0.0000
# 2 -0.2483 48.7627 1.3090 0.0000 1.5366 0.0000
# 3 85.3532 1.3090 131.2853 0.0000 3.7611 0.0000
# 4 0.0000 0.0000 0.0000 1.1227 0.0000 -8.8728
# 5 -4.0960 1.5366 3.7611 0.0000 22.2472 0.0000
# 6 0.0000 0.0000 0.0000 -8.8728 0.0000 22.9421
#
#
#
# Elastic Compliance Matrix: (Units=1/GPa)
#
#
# Indices 1 2 3 4 5 6 
#
# 1 0.009162 0.000124 -0.006035 0.000000 0.002699 0.000000
# 2 0.000124 0.020557 -0.000247 0.000000 -0.001355 0.000000
# 3 -0.006035 -0.000247 0.011631 0.000000 -0.003060 0.000000
# 4 0.000000 0.000000 0.000000 -0.433110 0.000000 -0.167505
# 5 0.002699 -0.001355 -0.003060 0.000000 0.046057 0.000000
# 6 0.000000 0.000000 0.000000 -0.167505 0.000000 -0.021195
#
#
# Mechanical properties :
#
#
# Convention : Reuss Voigt Hill
#
# Bulk Modulus (GPa) = 34.44209 57.71707 46.07958
# Shear Modulus (GPa) = -14.49683 26.60985 6.05651
#
# Velocity S-wave (km/s) = -2.56211 3.47122 1.65605
# Velocity P-wave (km/s) = 2.61599 6.49624 4.95199
#
# Compressibility (1/GPa) = 0.02903425
#
# Stress axis : x y z
#
# Youngs Moduli (GPa) = 109.14509 48.64424 85.97857
#
# Poissons Ratio (x) = -0.00601 0.51889
# Poissons Ratio (y) = -0.01349 0.02119
# Poissons Ratio (z) = 0.65871 0.01199
#
# Static dielectric constant tensor:
#      x y z
#    x 1.813010 0.000000 0.011670 
#    y 0.000000 1.845850 0.000000 
#    z 0.011670 0.000000 1.785680 
# 
# From -- ./inp_files/90371.got.cif
#   From: 2010.05.17/outbox.cif.g08.bks.cpg/sg10_46_cif.got.tgz:90371.got - 2010.06.03 11:33:40.
