data_PCOD9143429
_publ_section_title
;
Structure prediction by ZEFSAII (Michael W. Deem and Ramdas Pophale) SiO2 
 PCOD9143429
Probable space group: P 2/M
;
_chemical_formula_sum "Si O2"
_cell_formula_units_Z 24
_cell_length_a 15.392349
_cell_length_b 7.433221
_cell_length_c 15.442868
_cell_angle_alpha 90.000000
_cell_angle_beta 140.059945
_cell_angle_gamma 90.000000
_cell_volume 1134.319306
_symmetry_space_group_name_H-M "P 2/M"
_symmetry_group_IT_number 10
_symmetry_cell_setting 'monoclinic'
loop_
_space_group_symop_operation_xyz
x,y,z
-x,y,-z
-x,-y,-z
x,-y,z
loop_
_atom_site_type_symbol
_atom_site_label
_atom_site_fract_x
_atom_site_fract_y
_atom_site_fract_z
Si Si1 0.348699 0.709821 0.402395
Si Si2 0.649811 0.780768 0.085383
Si Si3 0.845209 0.780056 0.388764
Si Si4 0.148172 0.207123 0.099521
Si Si5 0.343273 0.782811 0.598094
Si Si6 0.355888 0.779737 0.115523
O O1 0.500000 0.784097 0.500000
O O2 0.352302 0.500000 0.381870
O O3 0.235700 0.792053 0.254089
O O4 0.317124 0.728582 0.479491
O O5 0.758843 0.722777 0.239321
O O6 0.650225 0.000000 0.086196
O O7 0.500000 0.724866 0.000000
O O8 0.674511 0.724615 0.005783
O O9 0.767191 0.722526 0.416156
O O10 0.000000 0.721669 0.500000
O O11 0.845048 0.000000 0.389316
O O12 0.244300 0.284763 0.098313
O O13 0.124667 0.000000 0.054824
O O14 0.000000 0.289050 0.000000
O O15 0.493508 0.722529 0.741199
O O16 0.344114 0.000000 0.600767
O O17 0.358124 0.000000 0.119318
#
# Coordination Sequence:
#
# PCOD9143429 Si02
#       6
#     4   4   4   4   4   4
#     4  11  23  37  55  79 106 143 187 227 270 318
#     4   9  14  23  40  64  96 130 162 197 249 312
#     4   9  17  27  43  74 109 134 164 214 268 314
#     4  10  21  36  55  81 110 139 175 223 275 320
#     4  10  18  31  54  79 104 139 178 219 268 315
#     4   9  16  27  47  74 103 136 171 210 259 317
#
# _framework density 21.158065000000001
#
# number of rings (size 3 to 8) (size 9 to 14) (size 15 to 20)
#    0.000    2.333    3.333    0.500    0.000    2.333 
#    0.000    5.000    0.000    0.500    0.000    3.500 
#    0.000    0.000    0.000    0.000    0.000    0.000 
#
# Total GULP energy -134073.218948 kJ/mol
# GULP energy per Si atom -5586.384123 kJ/mol
# Density = 2.110991 g / cm^3
# Si number density = 21.158065 Si / 1000 Ang^3
#
#
#
# Elastic Constant Matrix: (Units=GPa)
#
#
# Indices 1 2 3 4 5 6 
#
# 1 221.9259 -0.2221 124.3222 0.0000 1.5437 0.0000
# 2 -0.2221 66.1087 -6.8661 0.0000 7.2971 0.0000
# 3 124.3222 -6.8661 169.6852 0.0000 4.5958 0.0000
# 4 0.0000 0.0000 0.0000 -33.9826 0.0000 16.4028
# 5 1.5437 7.2971 4.5958 0.0000 47.4644 0.0000
# 6 0.0000 0.0000 0.0000 16.4028 0.0000 -13.7434
#
#
#
# Elastic Compliance Matrix: (Units=1/GPa)
#
#
# Indices 1 2 3 4 5 6 
#
# 1 0.007671 -0.000605 -0.005655 0.000000 0.000391 0.000000
# 2 -0.000605 0.015516 0.001138 0.000000 -0.002476 0.000000
# 3 -0.005655 0.001138 0.010109 0.000000 -0.000970 0.000000
# 4 0.000000 0.000000 0.000000 -0.069417 0.000000 -0.082850
# 5 0.000391 -0.002476 -0.000970 0.000000 0.021530 0.000000
# 6 0.000000 0.000000 0.000000 -0.082850 0.000000 -0.171644
#
#
# Mechanical properties :
#
#
# Convention : Reuss Voigt Hill
#
# Bulk Modulus (GPa) = 43.38045 76.90975 60.14510
# Shear Modulus (GPa) = -29.70754 22.64675 -3.53040
#
# Velocity S-wave (km/s) = -3.75117 3.27519 -1.29314
# Velocity P-wave (km/s) = 1.33637 7.12260 5.12432
#
# Compressibility (1/GPa) = 0.02305186
#
# Stress axis : x y z
#
# Youngs Moduli (GPa) = 130.36746 64.44942 98.92342
#
# Poissons Ratio (x) = 0.03897 0.55942
# Poissons Ratio (y) = 0.07884 -0.11257
# Poissons Ratio (z) = 0.73723 -0.07334
#
# Static dielectric constant tensor:
#      x y z
#    x 1.738190 0.000000 0.010330 
#    y 0.000000 1.790240 0.000000 
#    z 0.010330 0.000000 1.706970 
# 
# From -- ./inp_files/33790.got.cif
#   From: 2010.05.17/outbox.cif.g08.bks.cpg/sg10_17_cif.got.tgz:33790.got - 2010.06.03 11:33:40.
