data_PCOD9143005
_publ_section_title
;
Structure prediction by ZEFSAII (Michael W. Deem and Ramdas Pophale) SiO2 
 PCOD9143005
Probable space group: P 2/M
;
_chemical_formula_sum "Si O2"
_cell_formula_units_Z 22
_cell_length_a 25.688250
_cell_length_b 9.321543
_cell_length_c 14.894734
_cell_angle_alpha 90.000000
_cell_angle_beta 19.828673
_cell_angle_gamma 90.000000
_cell_volume 1209.823733
_symmetry_space_group_name_H-M "P 2/M"
_symmetry_group_IT_number 10
_symmetry_cell_setting 'monoclinic'
loop_
_space_group_symop_operation_xyz
x,y,z
-x,y,-z
-x,-y,-z
x,-y,z
loop_
_atom_site_type_symbol
_atom_site_label
_atom_site_fract_x
_atom_site_fract_y
_atom_site_fract_z
Si Si1 0.937766 0.172292 0.001958
Si Si2 0.811220 0.164478 0.907345
Si Si3 0.091036 0.825567 0.573088
Si Si4 0.500000 0.252848 0.500000
Si Si5 0.336039 0.174296 0.036194
Si Si6 0.380931 0.336209 0.501730
O O1 0.779643 0.253645 0.240431
O O2 0.911744 0.000000 0.037437
O O3 0.000000 0.203111 0.000000
O O4 0.057891 0.214897 0.729182
O O5 0.773020 0.221650 0.870452
O O6 0.948218 0.228828 0.743864
O O7 0.855960 0.000000 0.819660
O O8 0.651445 0.168708 0.221479
O O9 0.249192 0.785476 0.268375
O O10 0.087567 0.000000 0.576890
O O11 0.445590 0.334384 0.498997
O O12 0.353461 0.000000 0.003216
O O13 0.497014 0.249792 0.756709
O O14 0.364831 0.500000 0.498407
#
# Coordination Sequence:
#
# PCOD9143005 Si02
#       6
#     4   4   4   2   4   4
#     4  10  21  38  60  83 106 137 182 229 268 312
#     4   9  15  24  47  80 109 137 173 216 266 320
#     4   9  16  30  52  79 108 136 174 223 270 315
#     4  10  18  30  50  76 113 146 175 212 267 322
#     4   9  18  31  52  79 108 140 175 217 268 321
#     4  11  22  36  54  78 112 146 180 219 265 320
#
# _framework density 18.184467000000001
#
# number of rings (size 3 to 8) (size 9 to 14) (size 15 to 20)
#    0.000    2.364    1.818    1.636    0.000    4.000 
#    0.000    1.818    0.000    7.636    0.000    0.000 
#    0.000    0.000    0.000    0.000    0.000    0.000 
#
# Total GULP energy -122551.574929 kJ/mol
# GULP energy per Si atom -5570.526133 kJ/mol
# Density = 1.814308 g / cm^3
# Si number density = 18.184467 Si / 1000 Ang^3
#
#
#
# Elastic Constant Matrix: (Units=GPa)
#
#
# Indices 1 2 3 4 5 6 
#
# 1 73.3835 31.5170 62.7534 0.0000 21.6735 0.0000
# 2 31.5170 35.6968 29.3532 0.0000 4.5575 0.0000
# 3 62.7534 29.3532 135.9488 0.0000 35.4655 0.0000
# 4 0.0000 0.0000 0.0000 -7.6492 0.0000 0.3244
# 5 21.6735 4.5575 35.4655 0.0000 28.6727 0.0000
# 6 0.0000 0.0000 0.0000 0.3244 0.0000 1.2768
#
#
#
# Elastic Compliance Matrix: (Units=1/GPa)
#
#
# Indices 1 2 3 4 5 6 
#
# 1 0.032567 -0.021228 -0.007246 0.000000 -0.012281 0.000000
# 2 -0.021228 0.048482 -0.004200 0.000000 0.013535 0.000000
# 3 -0.007246 -0.004200 0.014770 0.000000 -0.012125 0.000000
# 4 0.000000 0.000000 0.000000 -0.129339 0.000000 0.032863
# 5 -0.012281 0.013535 -0.012125 0.000000 0.057005 0.000000
# 6 0.000000 0.000000 0.000000 0.032863 0.000000 0.774879
#
#
# Mechanical properties :
#
#
# Convention : Reuss Voigt Hill
#
# Bulk Modulus (GPa) = 32.81734 54.69736 43.75735
# Shear Modulus (GPa) = 5.72168 12.55376 9.13772
#
# Velocity S-wave (km/s) = 1.77575 2.63031 2.24409
# Velocity P-wave (km/s) = 4.72128 6.27449 5.55246
#
# Compressibility (1/GPa) = 0.03047170
#
# Stress axis : x y z
#
# Youngs Moduli (GPa) = 30.70559 20.62635 67.70379
#
# Poissons Ratio (x) = 0.43785 0.49057
# Poissons Ratio (y) = 0.65181 0.28436
# Poissons Ratio (z) = 0.22249 0.08663
#
# Static dielectric constant tensor:
#      x y z
#    x 1.636450 0.000000 0.016510 
#    y 0.000000 1.607770 0.000000 
#    z 0.016510 0.000000 1.628270 
# 
# From -- ./inp_files/72081.got.cif
#   From: 2010.05.17/outbox.cif.g08.bks.cpg/sg10_37_cif.got.tgz:72081.got - 2010.06.03 11:33:40.
