data_PCOD9143530
_publ_section_title
;
Structure prediction by ZEFSAII (Michael W. Deem and Ramdas Pophale) SiO2 
 PCOD9143530
Probable space group: P 2/M
;
_chemical_formula_sum "Si O2"
_cell_formula_units_Z 24
_cell_length_a 12.081504
_cell_length_b 8.457840
_cell_length_c 21.434769
_cell_angle_alpha 90.000000
_cell_angle_beta 38.452917
_cell_angle_gamma 90.000000
_cell_volume 1362.071167
_symmetry_space_group_name_H-M "P 2/M"
_symmetry_group_IT_number 10
_symmetry_cell_setting 'monoclinic'
loop_
_space_group_symop_operation_xyz
x,y,z
-x,y,-z
-x,-y,-z
x,-y,z
loop_
_atom_site_type_symbol
_atom_site_label
_atom_site_fract_x
_atom_site_fract_y
_atom_site_fract_z
Si Si1 0.971215 0.185544 0.419734
Si Si2 0.613739 0.191325 0.388158
Si Si3 0.651515 0.187816 0.884216
Si Si4 0.043201 0.314360 0.707288
Si Si5 0.399671 0.190439 0.359169
Si Si6 0.637950 0.315975 0.755152
O O1 0.914070 0.211837 0.373344
O O2 0.805122 0.234108 0.535012
O O3 0.151230 0.282931 0.347189
O O4 0.010570 0.000000 0.413121
O O5 0.500000 0.237957 0.500000
O O6 0.809237 0.264920 0.307996
O O7 0.516514 0.240049 0.367114
O O8 0.625275 0.000000 0.383440
O O9 0.593574 0.226178 0.838849
O O10 0.839402 0.273687 0.813530
O O11 0.681789 0.000000 0.875958
O O12 0.500000 0.234866 0.000000
O O13 0.057082 0.500000 0.686756
O O14 0.451918 0.257408 0.268906
O O15 0.404334 0.000000 0.354239
O O16 0.606550 0.500000 0.778423
#
# Coordination Sequence:
#
# PCOD9143530 Si02
#       6
#     4   4   4   4   4   4
#     4  10  18  32  51  71 101 143 186 219 253 304
#     4  10  19  35  54  74 104 148 193 222 251 299
#     4  10  21  39  63  83 100 131 177 224 267 317
#     4  11  21  32  51  81 113 141 172 218 272 318
#     4  10  20  33  51  72 102 146 186 219 253 301
#     4  11  22  33  49  77 110 138 168 215 274 324
#
# _framework density 17.620225000000001
#
# number of rings (size 3 to 8) (size 9 to 14) (size 15 to 20)
#    0.000    1.667    1.667    6.500    0.000    5.667 
#    0.000    0.000    0.000    1.000    0.000    7.000 
#    0.000    0.000    0.000    0.000    0.000    0.000 
#
# Total GULP energy -133984.360674 kJ/mol
# GULP energy per Si atom -5582.681695 kJ/mol
# Density = 1.758012 g / cm^3
# Si number density = 17.620225 Si / 1000 Ang^3
#
#
#
# Elastic Constant Matrix: (Units=GPa)
#
#
# Indices 1 2 3 4 5 6 
#
# 1 98.9513 5.4646 36.6668 0.0000 19.1776 0.0000
# 2 5.4646 26.2239 11.1237 0.0000 1.1740 0.0000
# 3 36.6668 11.1237 87.2859 0.0000 13.2144 0.0000
# 4 0.0000 0.0000 0.0000 33.0326 0.0000 -22.7550
# 5 19.1776 1.1740 13.2144 0.0000 14.4324 0.0000
# 6 0.0000 0.0000 0.0000 -22.7550 0.0000 4.1190
#
#
#
# Elastic Compliance Matrix: (Units=1/GPa)
#
#
# Indices 1 2 3 4 5 6 
#
# 1 0.014590 -0.000795 -0.003602 0.000000 -0.016025 0.000000
# 2 -0.000795 0.040390 -0.005196 0.000000 0.002529 0.000000
# 3 -0.003602 -0.005196 0.014910 0.000000 -0.008443 0.000000
# 4 0.000000 0.000000 0.000000 -0.010790 0.000000 -0.059610
# 5 -0.016025 0.002529 -0.008443 0.000000 0.098108 0.000000
# 6 0.000000 0.000000 0.000000 -0.059610 0.000000 -0.086535
#
#
# Mechanical properties :
#
#
# Convention : Reuss Voigt Hill
#
# Bulk Modulus (GPa) = 19.72221 35.44124 27.58172
# Shear Modulus (GPa) = 46.83403 20.93053 33.88228
#
# Velocity S-wave (km/s) = 5.16114 3.45029 4.38987
# Velocity P-wave (km/s) = 6.83621 6.00252 6.43289
#
# Compressibility (1/GPa) = 0.05070426
#
# Stress axis : x y z
#
# Youngs Moduli (GPa) = 68.53867 24.75875 67.06917
#
# Poissons Ratio (x) = 0.01969 0.24156
# Poissons Ratio (y) = 0.05450 0.34850
# Poissons Ratio (z) = 0.24685 0.12865
#
# Static dielectric constant tensor:
#      x y z
#    x 1.638150 0.000000 0.010590 
#    y 0.000000 1.589440 0.000000 
#    z 0.010590 0.000000 1.582340 
# 
# From -- ./inp_files/48878.got.cif
#   From: 2010.05.17/outbox.cif.g08.bks.cpg/sg10_25_cif.got.tgz:48878.got - 2010.06.03 11:33:40.
