data_PCOD9143432
_publ_section_title
;
Structure prediction by ZEFSAII (Michael W. Deem and Ramdas Pophale) SiO2 
 PCOD9143432
Probable space group: P 2/M
;
_chemical_formula_sum "Si O2"
_cell_formula_units_Z 28
_cell_length_a 12.865220
_cell_length_b 7.506098
_cell_length_c 17.585995
_cell_angle_alpha 90.000000
_cell_angle_beta 133.137995
_cell_angle_gamma 90.000000
_cell_volume 1239.219111
_symmetry_space_group_name_H-M "P 2/M"
_symmetry_group_IT_number 10
_symmetry_cell_setting 'monoclinic'
loop_
_space_group_symop_operation_xyz
x,y,z
-x,y,-z
-x,-y,-z
x,-y,z
loop_
_atom_site_type_symbol
_atom_site_label
_atom_site_fract_x
_atom_site_fract_y
_atom_site_fract_z
Si Si1 0.372337 0.287864 0.576371
Si Si2 0.618539 0.717565 0.246236
Si Si3 0.690783 0.788214 0.715491
Si Si4 0.160018 0.784271 0.058233
Si Si5 0.131430 0.289624 0.343252
Si Si6 0.187561 0.282055 0.791255
Si Si7 0.349432 0.294865 0.016677
O O1 0.351378 0.500000 0.571117
O O2 0.375798 0.217497 0.664440
O O3 0.527953 0.260906 0.618072
O O4 0.245844 0.215126 0.460726
O O5 0.609981 0.500000 0.245394
O O6 0.754391 0.764110 0.262840
O O7 0.479916 0.782481 0.130413
O O8 0.737398 0.721773 0.822120
O O9 0.799912 0.729091 0.705451
O O10 0.699548 0.000000 0.722695
O O11 0.214672 0.711745 0.005786
O O12 0.164951 0.000000 0.055913
O O13 0.000000 0.733357 0.000000
O O14 0.119201 0.500000 0.352402
O O15 0.971735 0.217788 0.271158
O O16 0.187743 0.500000 0.796335
O O17 0.298684 0.218210 0.911174
O O18 0.389642 0.500000 0.021934
#
# Coordination Sequence:
#
# PCOD9143432 Si02
#       7
#     4   4   4   4   4   4   4
#     4  10  20  35  55  79 106 138 175 216 259 305
#     4   9  17  31  53  80 108 137 172 214 259 307
#     4  11  22  36  55  77 104 139 177 216 261 314
#     4  10  21  35  51  74 106 140 171 210 261 312
#     4  10  21  35  53  78 108 139 174 217 260 305
#     4   9  18  32  52  81 110 137 172 214 260 308
#     4  10  18  31  54  80 105 135 172 213 256 306
#
# _framework density 22.594874000000001
#
# number of rings (size 3 to 8) (size 9 to 14) (size 15 to 20)
#    0.000    2.143    1.429    2.143    0.000    5.429 
#    0.000    2.857    0.000    4.286    0.000    2.000 
#    0.000    0.000    0.000    0.000    0.000    0.000 
#
# Total GULP energy -156494.383437 kJ/mol
# GULP energy per Si atom -5589.085123 kJ/mol
# Density = 2.254345 g / cm^3
# Si number density = 22.594874 Si / 1000 Ang^3
#
#
#
# Elastic Constant Matrix: (Units=GPa)
#
#
# Indices 1 2 3 4 5 6 
#
# 1 99.3508 -10.4502 -0.3139 0.0000 -12.2302 0.0000
# 2 -10.4502 62.6679 5.1404 0.0000 1.3959 0.0000
# 3 -0.3139 5.1404 42.0686 0.0000 -2.6774 0.0000
# 4 0.0000 0.0000 0.0000 -2.6011 0.0000 23.7775
# 5 -12.2302 1.3959 -2.6774 0.0000 33.7751 0.0000
# 6 0.0000 0.0000 0.0000 23.7775 0.0000 -224.0578
#
#
#
# Elastic Compliance Matrix: (Units=1/GPa)
#
#
# Indices 1 2 3 4 5 6 
#
# 1 0.010714 0.001692 0.000116 0.000000 0.003819 0.000000
# 2 0.001692 0.016409 -0.002007 0.000000 -0.000225 0.000000
# 3 0.000116 -0.002007 0.024147 0.000000 0.002039 0.000000
# 4 0.000000 0.000000 0.000000-12.861940 0.000000 -1.364936
# 5 0.003819 -0.000225 0.002039 0.000000 0.031161 0.000000
# 6 0.000000 0.000000 0.000000 -1.364936 0.000000 -0.149313
#
#
# Mechanical properties :
#
#
# Convention : Reuss Voigt Hill
#
# Bulk Modulus (GPa) = 19.65706 21.42665 20.54185
# Shear Modulus (GPa) = -0.38725 -24.59602 -12.49164
#
# Velocity S-wave (km/s) = -0.41444 -3.30292 -2.35383
# Velocity P-wave (km/s) = 2.91370 2.24548 1.31291
#
# Compressibility (1/GPa) = 0.05087231
#
# Stress axis : x y z
#
# Youngs Moduli (GPa) = 93.33768 60.94257 41.41375
#
# Poissons Ratio (x) = -0.10311 -0.00481
# Poissons Ratio (y) = -0.15793 0.08310
# Poissons Ratio (z) = -0.01085 0.12229
#
# Static dielectric constant tensor:
#      x y z
#    x 1.812870 0.000000 0.021940 
#    y 0.000000 1.890880 0.000000 
#    z 0.021940 0.000000 1.833110 
# 
# From -- ./inp_files/63900.got.cif
#   From: 2010.05.17/outbox.cif.g08.bks.cpg/sg10_32_cif.got.tgz:63900.got - 2010.06.03 11:33:40.
