data_PCOD9143076
_publ_section_title
;
Structure prediction by ZEFSAII (Michael W. Deem and Ramdas Pophale) SiO2 
 PCOD9143076
Probable space group: P 2/M
;
_chemical_formula_sum "Si O2"
_cell_formula_units_Z 32
_cell_length_a 32.910526
_cell_length_b 8.855036
_cell_length_c 12.961455
_cell_angle_alpha 90.000000
_cell_angle_beta 153.189470
_cell_angle_gamma 90.000000
_cell_volume 1703.709270
_symmetry_space_group_name_H-M "P 2/M"
_symmetry_group_IT_number 10
_symmetry_cell_setting 'monoclinic'
loop_
_space_group_symop_operation_xyz
x,y,z
-x,y,-z
-x,-y,-z
x,-y,z
loop_
_atom_site_type_symbol
_atom_site_label
_atom_site_fract_x
_atom_site_fract_y
_atom_site_fract_z
Si Si1 0.217585 0.679817 0.635884
Si Si2 0.389595 0.320873 0.515725
Si Si3 0.073620 0.184267 0.896062
Si Si4 0.152421 0.175534 0.283886
Si Si5 0.356981 0.174546 0.661740
Si Si6 0.124197 0.817648 0.621412
Si Si7 0.213035 0.817807 0.037645
Si Si8 0.414381 0.681430 0.999877
O O1 0.212120 0.500000 0.632408
O O2 0.159174 0.734633 0.405368
O O3 0.183448 0.756781 0.662035
O O4 0.321586 0.721260 0.846868
O O5 0.380523 0.500000 0.484929
O O6 0.370872 0.271585 0.591194
O O7 0.314085 0.241897 0.275955
O O8 0.493939 0.279102 0.733098
O O9 0.978686 0.230352 0.632460
O O10 0.076245 0.000000 0.904892
O O11 0.087601 0.233464 0.046028
O O12 0.154696 0.232548 0.004758
O O13 0.252313 0.180205 0.459454
O O14 0.131196 0.000000 0.258831
O O15 0.411890 0.237823 0.883382
O O16 0.379371 0.000000 0.691189
O O17 0.124998 0.000000 0.621959
O O18 0.163152 0.769278 0.820071
O O19 0.214816 0.000000 0.043759
O O20 0.414115 0.500000 0.982474
#
# Coordination Sequence:
#
# PCOD9143076 Si02
#       8
#     4   4   4   4   4   4   4   4
#     4  10  21  38  56  75 109 147 184 225 264 314
#     4  11  21  33  52  78 109 144 181 219 267 326
#     4   9  17  34  59  85 110 138 174 219 272 329
#     4   9  17  32  55  81 111 142 176 217 263 322
#     4  10  18  30  51  81 113 142 175 220 271 319
#     4  10  21  37  60  82 104 141 184 226 271 320
#     4  10  20  37  58  83 111 138 178 226 271 321
#     4   9  20  36  52  74 106 148 187 217 261 323
#
# _framework density 18.782547999999998
#
# number of rings (size 3 to 8) (size 9 to 14) (size 15 to 20)
#    0.000    2.250    1.250    1.875    0.000    6.000 
#    0.000    4.375    0.000    5.250    0.000    0.000 
#    0.000    0.000    0.000    0.000    0.000    0.000 
#
# Total GULP energy -178622.834260 kJ/mol
# GULP energy per Si atom -5581.963571 kJ/mol
# Density = 1.873980 g / cm^3
# Si number density = 18.782548 Si / 1000 Ang^3
#
#
#
# Elastic Constant Matrix: (Units=GPa)
#
#
# Indices 1 2 3 4 5 6 
#
# 1 269.1044 87.7283 475.3729 0.0000 -348.8613 0.0000
# 2 87.7283 37.8337 184.5358 0.0000 -122.6960 0.0000
# 3 475.3729 184.5358 1062.5764 0.0000 -706.7020 0.0000
# 4 0.0000 0.0000 0.0000 5.9227 0.0000 10.6485
# 5 -348.8613 -122.6960 -706.7020 0.0000 543.7872 0.0000
# 6 0.0000 0.0000 0.0000 10.6485 0.0000 15.9005
#
#
#
# Elastic Compliance Matrix: (Units=1/GPa)
#
#
# Indices 1 2 3 4 5 6 
#
# 1 0.026817 -0.024042 0.000091 0.000000 0.011898 0.000000
# 2 -0.024042 0.194394 -0.030154 0.000000 -0.010750 0.000000
# 3 0.000091 -0.030154 0.012170 0.000000 0.009070 0.000000
# 4 0.000000 0.000000 0.000000 -0.827426 0.000000 0.554125
# 5 0.011898 -0.010750 0.009070 0.000000 0.018834 0.000000
# 6 0.000000 0.000000 0.000000 0.554125 0.000000 -0.308205
#
#
# Mechanical properties :
#
#
# Convention : Reuss Voigt Hill
#
# Bulk Modulus (GPa) = 7.98908 318.30983 163.14945
# Shear Modulus (GPa) = -6.81679 154.58058 73.88189
#
# Velocity S-wave (km/s) = -1.90714 9.08178 6.27860
# Velocity P-wave (km/s) = 0.76610 16.72754 11.81575
#
# Compressibility (1/GPa) = 0.12517092
#
# Stress axis : x y z
#
# Youngs Moduli (GPa) = 37.28959 5.14420 82.17083
#
# Poissons Ratio (x) = 0.12368 -0.00749
# Poissons Ratio (y) = 0.89651 2.47780
# Poissons Ratio (z) = -0.00340 0.15512
#
# Static dielectric constant tensor:
#      x y z
#    x 1.625360 0.000000 0.020520 
#    y 0.000000 1.630990 0.000000 
#    z 0.020520 0.000000 1.678730 
# 
# From -- ./inp_files/58322.got.cif
#   From: 2010.05.17/outbox.cif.g08.bks.cpg/sg10_30_cif.got.tgz:58322.got - 2010.06.03 11:33:40.
