data_PCOD9143977
_publ_section_title
;
Structure prediction by ZEFSAII (Michael W. Deem and Ramdas Pophale) SiO2 
 PCOD9143977
Probable space group: P 2/M
;
_chemical_formula_sum "Si O2"
_cell_formula_units_Z 32
_cell_length_a 20.106145
_cell_length_b 17.383085
_cell_length_c 5.606664
_cell_angle_alpha 90.000000
_cell_angle_beta 60.327179
_cell_angle_gamma 90.000000
_cell_volume 1702.602313
_symmetry_space_group_name_H-M "P 2/M"
_symmetry_group_IT_number 10
_symmetry_cell_setting 'monoclinic'
loop_
_space_group_symop_operation_xyz
x,y,z
-x,y,-z
-x,-y,-z
x,-y,z
loop_
_atom_site_type_symbol
_atom_site_label
_atom_site_fract_x
_atom_site_fract_y
_atom_site_fract_z
Si Si1 0.774836 0.584245 0.283550
Si Si2 0.409165 0.151853 0.157133
Si Si3 0.034389 0.091374 0.186882
Si Si4 0.809633 0.169667 0.095535
Si Si5 0.932195 0.586653 0.304457
Si Si6 0.279602 0.733156 0.388880
Si Si7 0.840276 0.679375 0.781966
Si Si8 0.658713 0.909424 0.215490
O O1 0.739023 0.500000 0.361722
O O2 0.849817 0.585495 0.318436
O O3 0.722748 0.657603 0.438880
O O4 0.810932 0.602771 0.964223
O O5 0.363325 0.232266 0.211487
O O6 0.383352 0.115918 0.460893
O O7 0.500000 0.160168 0.000000
O O8 0.385241 0.106474 0.956431
O O9 0.124679 0.106894 0.012859
O O10 0.000000 0.121222 0.500000
O O11 0.018985 0.000000 0.213969
O O12 0.000000 0.123845 0.000000
O O13 0.850165 0.247968 0.934996
O O14 0.770106 0.197257 0.409597
O O15 0.738316 0.138179 0.068932
O O16 0.945054 0.500000 0.377058
O O17 0.917578 0.654514 0.515433
O O18 0.000000 0.602443 0.000000
O O19 0.231307 0.706002 0.249962
O O20 0.674087 0.000000 0.206212
#
# Coordination Sequence:
#
# PCOD9143977 Si02
#       8
#     4   4   4   4   4   4   4   4
#     4   9  18  33  55  80 108 147 195 242 285 340
#     4  11  23  40  62  91 126 158 189 235 296 357
#     4  10  23  41  59  81 110 149 199 251 300 343
#     4  10  21  38  56  80 113 151 197 246 291 348
#     4   9  18  32  48  73 110 146 185 233 291 350
#     4   9  20  37  56  82 114 148 194 235 284 357
#     4  10  18  34  52  76 107 147 192 240 283 347
#     4  11  23  39  63  91 120 158 198 239 292 355
#
# _framework density 18.794758999999999
#
# number of rings (size 3 to 8) (size 9 to 14) (size 15 to 20)
#    0.000    2.125    1.250    1.500    1.750    2.500 
#    6.750    4.375    0.000    0.375    0.000    0.875 
#    0.000    0.000    0.000    0.000    0.000    0.000 
#
# Total GULP energy -178225.712976 kJ/mol
# GULP energy per Si atom -5569.553530 kJ/mol
# Density = 1.875198 g / cm^3
# Si number density = 18.794759 Si / 1000 Ang^3
#
#
#
# Elastic Constant Matrix: (Units=GPa)
#
#
# Indices 1 2 3 4 5 6 
#
# 1 81.7940 5.4145 42.0429 0.0000 0.6848 0.0000
# 2 5.4145 58.1096 34.6581 0.0000 -6.6255 0.0000
# 3 42.0429 34.6581 87.5666 0.0000 -1.0882 0.0000
# 4 0.0000 0.0000 0.0000 3.7218 0.0000 -2.8990
# 5 0.6848 -6.6255 -1.0882 0.0000 29.6518 0.0000
# 6 0.0000 0.0000 0.0000 -2.8990 0.0000 9.9986
#
#
#
# Elastic Compliance Matrix: (Units=1/GPa)
#
#
# Indices 1 2 3 4 5 6 
#
# 1 0.017017 0.004333 -0.009882 0.000000 0.000212 0.000000
# 2 0.004333 0.024306 -0.011640 0.000000 0.004904 0.000000
# 3 -0.009882 -0.011640 0.020752 0.000000 -0.001611 0.000000
# 4 0.000000 0.000000 0.000000 0.347070 0.000000 0.100631
# 5 0.000212 0.004904 -0.001611 0.000000 0.034756 0.000000
# 6 0.000000 0.000000 0.000000 0.100631 0.000000 0.129192
#
#
# Mechanical properties :
#
#
# Convention : Reuss Voigt Hill
#
# Bulk Modulus (GPa) = 36.10592 43.52236 39.81414
# Shear Modulus (GPa) = 8.10762 18.36476 13.23619
#
# Velocity S-wave (km/s) = 2.07921 3.12928 2.65665
# Velocity P-wave (km/s) = 5.00165 6.02192 5.53534
#
# Compressibility (1/GPa) = 0.02769629
#
# Stress axis : x y z
#
# Youngs Moduli (GPa) = 58.76498 41.14138 48.18918
#
# Poissons Ratio (x) = -0.17826 0.47623
# Poissons Ratio (y) = -0.25462 0.56090
# Poissons Ratio (z) = 0.58074 0.47887
#
# Static dielectric constant tensor:
#      x y z
#    x 1.663180 0.000000 0.060640 
#    y 0.000000 1.672360 0.000000 
#    z 0.060640 0.000000 1.722510 
# 
# From -- ./inp_files/9816.got.cif
#   From: 2010.05.17/outbox.cif.g08.bks.cpg/sg10_5_cif.got.tgz:9816.got - 2010.06.03 11:33:40.
