data_PCOD9143172
_publ_section_title
;
Structure prediction by ZEFSAII (Michael W. Deem and Ramdas Pophale) SiO2 
 PCOD9143172
Probable space group: P 2/M
;
_chemical_formula_sum "Si O2"
_cell_formula_units_Z 24
_cell_length_a 22.148175
_cell_length_b 7.324561
_cell_length_c 14.219965
_cell_angle_alpha 90.000000
_cell_angle_beta 142.500126
_cell_angle_gamma 90.000000
_cell_volume 1404.313133
_symmetry_space_group_name_H-M "P 2/M"
_symmetry_group_IT_number 10
_symmetry_cell_setting 'monoclinic'
loop_
_space_group_symop_operation_xyz
x,y,z
-x,y,-z
-x,-y,-z
x,-y,z
loop_
_atom_site_type_symbol
_atom_site_label
_atom_site_fract_x
_atom_site_fract_y
_atom_site_fract_z
Si Si1 0.774448 0.722380 0.195636
Si Si2 0.135026 0.720313 0.879602
Si Si3 0.904014 0.000000 0.012012
Si Si4 0.860894 0.000000 0.739689
Si Si5 0.236697 0.288324 0.510314
Si Si6 0.613315 0.722708 0.148420
Si Si7 0.930586 0.712970 0.535021
O O1 0.776494 0.500000 0.202192
O O2 0.781354 0.768637 0.094463
O O3 0.681014 0.780169 0.143242
O O4 0.873347 0.786504 0.373438
O O5 0.133426 0.500000 0.890618
O O6 0.134965 0.826133 0.977310
O O7 0.033060 0.782246 0.702484
O O8 0.024771 0.000000 0.156085
O O9 0.867122 0.000000 0.859535
O O10 0.801417 0.828912 0.623419
O O11 0.250169 0.500000 0.501469
O O12 0.332704 0.222833 0.687707
O O13 0.149747 0.277165 0.480996
O O14 0.615296 0.500000 0.151165
O O15 0.500000 0.781101 0.000000
O O16 0.950153 0.500000 0.539039
#
# Coordination Sequence:
#
# PCOD9143172 Si02
#       7
#     4   4   2   2   4   4   4
#     4   8  14  24  43  69  99 131 154 183 232 285
#     4  10  18  31  47  66  95 129 161 193 236 285
#     4  11  24  34  46  68  92 124 169 216 244 266
#     4  11  22  36  48  65  94 125 166 212 246 277
#     4   9  17  31  51  71  96 130 159 189 237 289
#     4   8  14  27  50  80 106 126 154 191 231 284
#     4   8  13  24  43  66  92 124 156 182 217 277
#
# _framework density 17.090205000000001
#
# number of rings (size 3 to 8) (size 9 to 14) (size 15 to 20)
#    0.000    3.000    1.667    2.500    0.000    2.667 
#    0.000    7.083    0.000    0.000    0.000    2.333 
#    0.000    6.667    0.000    0.000    0.000    0.000 
#
# Total GULP energy -133720.169151 kJ/mol
# GULP energy per Si atom -5571.673715 kJ/mol
# Density = 1.705131 g / cm^3
# Si number density = 17.090205 Si / 1000 Ang^3
#
#
#
# Elastic Constant Matrix: (Units=GPa)
#
#
# Indices 1 2 3 4 5 6 
#
# 1 87.9255 34.5963 68.7655 0.0000 -22.0081 0.0000
# 2 34.5963 86.7705 41.1272 0.0000 -13.8775 0.0000
# 3 68.7655 41.1272 116.1616 0.0000 -12.0617 0.0000
# 4 0.0000 0.0000 0.0000 13.8886 0.0000 -9.5220
# 5 -22.0081 -13.8775 -12.0617 0.0000 29.2784 0.0000
# 6 0.0000 0.0000 0.0000 -9.5220 0.0000 10.7816
#
#
#
# Elastic Compliance Matrix: (Units=1/GPa)
#
#
# Indices 1 2 3 4 5 6 
#
# 1 0.025677 -0.001920 -0.013175 0.000000 0.012964 0.000000
# 2 -0.001920 0.014654 -0.003636 0.000000 0.004005 0.000000
# 3 -0.013175 -0.003636 0.017225 0.000000 -0.004530 0.000000
# 4 0.000000 0.000000 0.000000 0.182517 0.000000 0.161194
# 5 0.012964 0.004005 -0.004530 0.000000 0.043931 0.000000
# 6 0.000000 0.000000 0.000000 0.161194 0.000000 0.235114
#
#
# Mechanical properties :
#
#
# Convention : Reuss Voigt Hill
#
# Bulk Modulus (GPa) = 49.76358 64.42619 57.09488
# Shear Modulus (GPa) = 8.87664 20.54763 14.71213
#
# Velocity S-wave (km/s) = 2.28151 3.47119 2.93721
# Velocity P-wave (km/s) = 6.01014 7.33792 6.70697
#
# Compressibility (1/GPa) = 0.02009502
#
# Stress axis : x y z
#
# Youngs Moduli (GPa) = 38.94493 68.24094 58.05634
#
# Poissons Ratio (x) = 0.13103 0.76487
# Poissons Ratio (y) = 0.07478 0.21108
# Poissons Ratio (z) = 0.51308 0.24811
#
# Static dielectric constant tensor:
#      x y z
#    x 1.584620 0.000000 0.007500 
#    y 0.000000 1.656190 0.000000 
#    z 0.007500 0.000000 1.558320 
# 
# From -- ./inp_files/55053.got.cif
#   From: 2010.05.17/outbox.cif.g08.bks.cpg/sg10_28_cif.got.tgz:55053.got - 2010.06.03 11:33:40.
