data_PCOD9143428
_publ_section_title
;
Structure prediction by ZEFSAII (Michael W. Deem and Ramdas Pophale) SiO2 
 PCOD9143428
Probable space group: P 2/M
;
_chemical_formula_sum "Si O2"
_cell_formula_units_Z 28
_cell_length_a 14.979742
_cell_length_b 7.396477
_cell_length_c 21.804747
_cell_angle_alpha 90.000000
_cell_angle_beta 30.080374
_cell_angle_gamma 90.000000
_cell_volume 1210.887517
_symmetry_space_group_name_H-M "P 2/M"
_symmetry_group_IT_number 10
_symmetry_cell_setting 'monoclinic'
loop_
_space_group_symop_operation_xyz
x,y,z
-x,y,-z
-x,-y,-z
x,-y,z
loop_
_atom_site_type_symbol
_atom_site_label
_atom_site_fract_x
_atom_site_fract_y
_atom_site_fract_z
Si Si1 0.174475 0.704379 0.862086
Si Si2 0.135817 0.780373 0.471248
Si Si3 0.539489 0.720075 0.405360
Si Si4 0.215129 0.279139 0.175668
Si Si5 0.536566 0.792530 0.213028
Si Si6 0.842720 0.703733 0.404786
Si Si7 0.500348 0.282381 0.096940
O O1 0.119557 0.500000 0.876699
O O2 0.284590 0.781555 0.737356
O O3 0.323172 0.696680 0.826992
O O4 0.000000 0.787165 0.000000
O O5 0.336425 0.722098 0.338105
O O6 0.097720 0.702616 0.560197
O O7 0.000000 0.722234 0.500000
O O8 0.130411 0.000000 0.477703
O O9 0.500000 0.769099 0.500000
O O10 0.551393 0.500000 0.395673
O O11 0.355689 0.780590 0.481552
O O12 0.204657 0.500000 0.183905
O O13 0.307886 0.220461 0.184745
O O14 0.020533 0.210437 0.271644
O O15 0.356051 0.233132 0.039638
O O16 0.565907 0.785590 0.123122
O O17 0.539980 0.000000 0.231561
O O18 0.825751 0.500000 0.389764
O O19 0.492656 0.500000 0.105155
#
# Coordination Sequence:
#
# PCOD9143428 Si02
#       7
#     4   4   4   4   4   4   4
#     4  10  21  38  60  83 106 140 185 231 284 342
#     4  10  21  35  51  75 110 148 181 217 267 322
#     4   9  18  33  54  81 109 135 174 231 284 330
#     4   8  16  30  50  78 107 141 180 226 274 319
#     4  11  22  35  53  78 110 144 181 225 275 326
#     4  10  18  31  54  79 104 135 178 224 269 322
#     4   9  17  32  52  75 109 144 180 221 269 328
#
# _framework density 23.123536000000001
#
# number of rings (size 3 to 8) (size 9 to 14) (size 15 to 20)
#    0.000    2.429    1.429    2.143    0.000    2.286 
#    0.000    6.429    0.000    1.714    0.000    0.000 
#    0.000    0.000    0.000    0.000    0.000    0.000 
#
# Total GULP energy -156103.262726 kJ/mol
# GULP energy per Si atom -5575.116526 kJ/mol
# Density = 2.307091 g / cm^3
# Si number density = 23.123536 Si / 1000 Ang^3
#
#
#
# Elastic Constant Matrix: (Units=GPa)
#
#
# Indices 1 2 3 4 5 6 
#
# 1 76.4369 -2.2460 48.8852 0.0000 0.0276 0.0000
# 2 -2.2460 79.1970 5.7034 0.0000 -6.1187 0.0000
# 3 48.8852 5.7034 166.6370 0.0000 -12.2014 0.0000
# 4 0.0000 0.0000 0.0000 40.4772 0.0000 25.4511
# 5 0.0276 -6.1187 -12.2014 0.0000 37.3932 0.0000
# 6 0.0000 0.0000 0.0000 25.4511 0.0000 15.5196
#
#
#
# Elastic Compliance Matrix: (Units=1/GPa)
#
#
# Indices 1 2 3 4 5 6 
#
# 1 0.016235 0.000697 -0.004896 0.000000 -0.001495 0.000000
# 2 0.000697 0.012832 -0.000502 0.000000 0.001935 0.000000
# 3 -0.004896 -0.000502 0.007631 0.000000 0.002412 0.000000
# 4 0.000000 0.000000 0.000000 -0.793208 0.000000 1.300803
# 5 -0.001495 0.001935 0.002412 0.000000 0.027848 0.000000
# 6 0.000000 0.000000 0.000000 1.300803 0.000000 -2.068786
#
#
# Mechanical properties :
#
#
# Convention : Reuss Voigt Hill
#
# Bulk Modulus (GPa) = 36.63416 47.43955 42.03685
# Shear Modulus (GPa) = -1.79924 36.67322 17.43699
#
# Velocity S-wave (km/s) = -0.88306 3.98674 2.74903
# Velocity P-wave (km/s) = 3.85194 6.46161 5.31930
#
# Compressibility (1/GPa) = 0.02729692
#
# Stress axis : x y z
#
# Youngs Moduli (GPa) = 61.59513 77.92886 131.04142
#
# Poissons Ratio (x) = -0.05435 0.64160
# Poissons Ratio (y) = -0.04296 0.06580
# Poissons Ratio (z) = 0.30158 0.03913
#
# Static dielectric constant tensor:
#      x y z
#    x 1.836100 0.000000 0.015760 
#    y 0.000000 1.916220 0.000000 
#    z 0.015760 0.000000 1.989620 
# 
# From -- ./inp_files/49535.got.cif
#   From: 2010.05.17/outbox.cif.g08.bks.cpg/sg10_25_cif.got.tgz:49535.got - 2010.06.03 11:33:40.
