data_PCOD9143791
_publ_section_title
;
Structure prediction by ZEFSAII (Michael W. Deem and Ramdas Pophale) SiO2 
 PCOD9143791
Probable space group: P 2/M
;
_chemical_formula_sum "Si O2"
_cell_formula_units_Z 32
_cell_length_a 11.184520
_cell_length_b 13.336276
_cell_length_c 9.656820
_cell_angle_alpha 90.000000
_cell_angle_beta 91.218324
_cell_angle_gamma 90.000000
_cell_volume 1440.084154
_symmetry_space_group_name_H-M "P 2/M"
_symmetry_group_IT_number 10
_symmetry_cell_setting 'monoclinic'
loop_
_space_group_symop_operation_xyz
x,y,z
-x,y,-z
-x,-y,-z
x,-y,z
loop_
_atom_site_type_symbol
_atom_site_label
_atom_site_fract_x
_atom_site_fract_y
_atom_site_fract_z
Si Si1 0.187432 0.613142 0.472750
Si Si2 0.900344 0.188179 0.096322
Si Si3 0.035130 0.385346 0.208784
Si Si4 0.668107 0.325610 0.269661
Si Si5 0.596113 0.327821 0.708956
Si Si6 0.728248 0.889295 0.303385
Si Si7 0.259303 0.338766 0.026837
Si Si8 0.624962 0.889884 0.588363
O O1 0.157748 0.500000 0.509273
O O2 0.085093 0.645240 0.362045
O O3 0.226160 0.664981 0.615836
O O4 0.308160 0.616715 0.384167
O O5 0.851958 0.125518 0.224022
O O6 0.953777 0.294580 0.152910
O O7 0.789564 0.225194 0.998907
O O8 0.000000 0.141149 0.000000
O O9 0.987543 0.500000 0.210333
O O10 0.149003 0.388191 0.106897
O O11 0.539862 0.359375 0.321890
O O12 0.652074 0.205609 0.250189
O O13 0.705033 0.373915 0.125516
O O14 0.629062 0.345939 0.868820
O O15 0.621632 0.210229 0.677537
O O16 0.725705 0.881881 0.470260
O O17 0.679988 0.000000 0.270029
O O18 0.500000 0.889369 0.500000
O O19 0.636156 0.000000 0.655676
#
# Coordination Sequence:
#
# PCOD9143791 Si02
#       8
#     4   4   4   4   4   4   4   4
#     4  10  21  36  58  86 114 150 194 242 297 353
#     4   9  19  38  61  84 114 159 195 241 303 346
#     4   9  19  39  65  86 110 147 194 249 302 352
#     4  11  20  35  56  86 120 159 193 232 290 347
#     4  11  19  35  56  83 121 163 192 235 286 345
#     4  10  20  35  58  88 117 150 197 242 289 349
#     4   9  21  34  54  84 119 154 195 236 285 349
#     4  10  18  32  58  89 117 154 199 244 294 342
#
# _framework density 22.220924
#
# number of rings (size 3 to 8) (size 9 to 14) (size 15 to 20)
#    0.000    2.125    2.500    0.750    0.000    4.000 
#    0.000    6.875    2.750   19.500    0.000    0.000 
#    0.000    0.000    0.000    0.000    0.000    0.000 
#
# Total GULP energy -178418.281401 kJ/mol
# GULP energy per Si atom -5575.571294 kJ/mol
# Density = 2.217035 g / cm^3
# Si number density = 22.220924 Si / 1000 Ang^3
#
#
#
# Elastic Constant Matrix: (Units=GPa)
#
#
# Indices 1 2 3 4 5 6 
#
# 1 53.2284 0.6937 26.8316 0.0000 -9.4730 0.0000
# 2 0.6937 74.0656 21.8780 0.0000 6.0180 0.0000
# 3 26.8316 21.8780 126.6881 0.0000 -9.3756 0.0000
# 4 0.0000 0.0000 0.0000 -11.2909 0.0000 4.3731
# 5 -9.4730 6.0180 -9.3756 0.0000 42.5300 0.0000
# 6 0.0000 0.0000 0.0000 4.3731 0.0000 11.6320
#
#
#
# Elastic Compliance Matrix: (Units=1/GPa)
#
#
# Indices 1 2 3 4 5 6 
#
# 1 0.021687 0.000810 -0.004457 0.000000 0.003733 0.000000
# 2 0.000810 0.014545 -0.002869 0.000000 -0.002510 0.000000
# 3 -0.004457 -0.002869 0.009443 0.000000 0.001495 0.000000
# 4 0.000000 0.000000 0.000000 -0.077310 0.000000 0.029065
# 5 0.003733 -0.002510 0.001495 0.000000 0.025029 0.000000
# 6 0.000000 0.000000 0.000000 0.029065 0.000000 0.075043
#
#
# Mechanical properties :
#
#
# Convention : Reuss Voigt Hill
#
# Bulk Modulus (GPa) = 30.63319 39.19875 34.91597
# Shear Modulus (GPa) = 54.14053 22.21279 38.17666
#
# Velocity S-wave (km/s) = 4.94141 3.16513 4.14943
# Velocity P-wave (km/s) = 6.80973 5.57101 6.22128
#
# Compressibility (1/GPa) = 0.03264433
#
# Stress axis : x y z
#
# Youngs Moduli (GPa) = 46.10951 68.75002 105.89336
#
# Poissons Ratio (x) = -0.05569 0.47195
# Poissons Ratio (y) = -0.03735 0.30383
# Poissons Ratio (z) = 0.20550 0.19726
#
# Static dielectric constant tensor:
#      x y z
#    x 1.872600 0.000000 -0.031220 
#    y 0.000000 1.821800 0.000000 
#    z -0.031220 0.000000 1.868130 
# 
# From -- ./inp_files/25310.got.cif
#   From: 2010.05.17/outbox.cif.g08.bks.cpg/sg10_13_cif.got.tgz:25310.got - 2010.06.03 11:33:40.
