data_PCOD9143984
_publ_section_title
;
Structure prediction by ZEFSAII (Michael W. Deem and Ramdas Pophale) SiO2 
 PCOD9143984
Probable space group: P 2/M
;
_chemical_formula_sum "Si O2"
_cell_formula_units_Z 30
_cell_length_a 30.125973
_cell_length_b 9.500207
_cell_length_c 12.284896
_cell_angle_alpha 90.000000
_cell_angle_beta 29.567036
_cell_angle_gamma 90.000000
_cell_volume 1734.927539
_symmetry_space_group_name_H-M "P 2/M"
_symmetry_group_IT_number 10
_symmetry_cell_setting 'monoclinic'
loop_
_space_group_symop_operation_xyz
x,y,z
-x,y,-z
-x,-y,-z
x,-y,z
loop_
_atom_site_type_symbol
_atom_site_label
_atom_site_fract_x
_atom_site_fract_y
_atom_site_fract_z
Si Si1 0.037360 0.161320 0.798586
Si Si2 0.614666 0.666582 0.871149
Si Si3 0.403002 0.332781 0.344820
Si Si4 0.259141 0.170222 0.787825
Si Si5 0.086698 0.658664 0.091489
Si Si6 0.000000 0.267730 0.500000
Si Si7 0.239111 0.831894 0.303669
Si Si8 0.807929 0.165696 0.836117
O O1 0.143680 0.188348 0.567274
O O2 0.985084 0.270761 0.835150
O O3 0.023563 0.000000 0.787037
O O4 0.000000 0.168914 0.000000
O O5 0.631184 0.500000 0.849546
O O6 0.625040 0.698222 0.720353
O O7 0.681926 0.754208 0.801705
O O8 0.510042 0.692189 0.123191
O O9 0.387278 0.500000 0.397533
O O10 0.346650 0.237174 0.546733
O O11 0.257400 0.000000 0.784134
O O12 0.172870 0.239471 0.912964
O O13 0.246398 0.214437 0.941575
O O14 0.111219 0.500000 0.006481
O O15 0.042979 0.654329 0.305243
O O16 0.914071 0.186357 0.633407
O O17 0.223273 0.776944 0.213879
O O18 0.256644 0.000000 0.263849
O O19 0.792996 0.000000 0.861288
#
# Coordination Sequence:
#
# PCOD9143984 Si02
#       8
#     4   4   4   4   4   2   4   4
#     4  10  22  38  54  77 111 148 187 228 269 316
#     4   9  20  38  60  83 109 144 179 219 275 333
#     4   9  19  39  61  82 110 141 178 224 274 329
#     4  10  21  35  56  82 109 141 183 228 272 323
#     4  11  22  35  53  80 111 146 185 226 272 321
#     4  10  18  34  54  76 107 146 191 230 265 310
#     4  10  20  36  56  81 112 145 183 229 273 319
#     4   9  18  33  54  79 107 145 186 224 272 323
#
# _framework density 17.291789000000001
#
# number of rings (size 3 to 8) (size 9 to 14) (size 15 to 20)
#    0.000    2.267    1.333    2.000    1.867    2.933 
#    0.000    3.333    0.000    4.000    0.000    0.000 
#    0.000    0.000    0.000    0.000    0.000    0.000 
#
# Total GULP energy -167243.940213 kJ/mol
# GULP energy per Si atom -5574.798007 kJ/mol
# Density = 1.725243 g / cm^3
# Si number density = 17.291789 Si / 1000 Ang^3
#
#
#
# Elastic Constant Matrix: (Units=GPa)
#
#
# Indices 1 2 3 4 5 6 
#
# 1 131.4477 55.8270 58.3726 0.0000 -12.6527 0.0000
# 2 55.8270 63.2743 55.0089 0.0000 -1.6302 0.0000
# 3 58.3726 55.0089 112.0104 0.0000 7.0425 0.0000
# 4 0.0000 0.0000 0.0000 36.3180 0.0000 -15.3487
# 5 -12.6527 -1.6302 7.0425 0.0000 14.1182 0.0000
# 6 0.0000 0.0000 0.0000 -15.3487 0.0000 27.6484
#
#
#
# Elastic Compliance Matrix: (Units=1/GPa)
#
#
# Indices 1 2 3 4 5 6 
#
# 1 0.014576 -0.008943 -0.004088 0.000000 0.014069 0.000000
# 2 -0.008943 0.034586 -0.012463 0.000000 0.002195 0.000000
# 3 -0.004088 -0.012463 0.018066 0.000000 -0.014115 0.000000
# 4 0.000000 0.000000 0.000000 0.035975 0.000000 0.019971
# 5 0.014069 0.002195 -0.014115 0.000000 0.090734 0.000000
# 6 0.000000 0.000000 0.000000 0.019971 0.000000 0.047255
#
#
# Mechanical properties :
#
#
# Convention : Reuss Voigt Hill
#
# Bulk Modulus (GPa) = 61.57928 71.68329 66.63128
# Shear Modulus (GPa) = 16.80140 24.78518 20.79329
#
# Velocity S-wave (km/s) = 3.12050 3.79007 3.47146
# Velocity P-wave (km/s) = 6.97657 7.79089 7.39494
#
# Compressibility (1/GPa) = 0.01623923
#
# Stress axis : x y z
#
# Youngs Moduli (GPa) = 68.60708 28.91314 55.35150
#
# Poissons Ratio (x) = 0.25858 0.22630
# Poissons Ratio (y) = 0.61358 0.68984
# Poissons Ratio (z) = 0.28049 0.36034
#
# Static dielectric constant tensor:
#      x y z
#    x 1.581010 0.000000 0.022290 
#    y 0.000000 1.583090 0.000000 
#    z 0.022290 0.000000 1.586010 
# 
# From -- ./inp_files/57965.got.cif
#   From: 2010.05.17/outbox.cif.g08.bks.cpg/sg10_29_cif.got.tgz:57965.got - 2010.06.03 11:33:40.
