data_PCOD9143654
_publ_section_title
;
Structure prediction by ZEFSAII (Michael W. Deem and Ramdas Pophale) SiO2 
 PCOD9143654
Probable space group: P 2/M
;
_chemical_formula_sum "Si O2"
_cell_formula_units_Z 32
_cell_length_a 15.245384
_cell_length_b 7.418014
_cell_length_c 23.009098
_cell_angle_alpha 90.000000
_cell_angle_beta 32.637563
_cell_angle_gamma 90.000000
_cell_volume 1403.377584
_symmetry_space_group_name_H-M "P 2/M"
_symmetry_group_IT_number 10
_symmetry_cell_setting 'monoclinic'
loop_
_space_group_symop_operation_xyz
x,y,z
-x,y,-z
-x,-y,-z
x,-y,z
loop_
_atom_site_type_symbol
_atom_site_label
_atom_site_fract_x
_atom_site_fract_y
_atom_site_fract_z
Si Si1 0.732727 0.790750 0.988528
Si Si2 0.043249 0.780261 0.346869
Si Si3 0.981650 0.778953 0.251135
Si Si4 0.836642 0.718371 0.058560
Si Si5 0.547501 0.288543 0.302527
Si Si6 0.624892 0.220159 0.783205
Si Si7 0.351021 0.782905 0.623019
Si Si8 0.232726 0.794907 0.417632
O O1 0.854996 0.715582 0.872308
O O2 0.708621 0.000000 0.986236
O O3 0.822958 0.780869 0.000232
O O4 0.552734 0.713075 0.099142
O O5 0.229827 0.732097 0.254377
O O6 0.981490 0.722913 0.318286
O O7 0.927186 0.714383 0.463703
O O8 0.034667 0.000000 0.352594
O O9 0.821308 0.719757 0.305971
O O10 0.981975 0.000000 0.249856
O O11 0.836148 0.500000 0.058553
O O12 0.679526 0.780257 0.182489
O O13 0.000000 0.777001 0.000000
O O14 0.525118 0.500000 0.304614
O O15 0.616168 0.264703 0.328638
O O16 0.372829 0.202398 0.388442
O O17 0.683849 0.283250 0.686563
O O18 0.613453 0.000000 0.786836
O O19 0.500000 0.718454 0.500000
O O20 0.349527 0.000000 0.620684
O O21 0.189252 0.000000 0.425633
#
# Coordination Sequence:
#
# PCOD9143654 Si02
#       8
#     4   4   4   4   4   4   4   4
#     4  10  19  32  51  77 107 133 166 216 262 303
#     4   9  17  30  51  78 106 137 172 212 256 307
#     4   9  18  31  48  75 107 137 172 214 261 305
#     4  10  21  36  52  72 100 136 175 210 253 311
#     4  11  22  34  52  78 105 135 171 214 264 310
#     4   9  17  29  49  79 107 134 171 213 260 307
#     4  10  20  35  54  76 104 141 181 214 250 305
#     4  10  18  32  54  78 106 137 173 214 255 307
#
# _framework density 22.802129999999998
#
# number of rings (size 3 to 8) (size 9 to 14) (size 15 to 20)
#    0.000    2.250    1.250    2.250    0.000    5.000 
#    0.000    2.500    0.000    3.000    0.000    0.875 
#    0.000    0.000    0.000    0.000    0.000    0.000 
#
# Total GULP energy -178876.205687 kJ/mol
# GULP energy per Si atom -5589.881428 kJ/mol
# Density = 2.275023 g / cm^3
# Si number density = 22.802130 Si / 1000 Ang^3
#
#
#
# Elastic Constant Matrix: (Units=GPa)
#
#
# Indices 1 2 3 4 5 6 
#
# 1 73.2252 -6.1073 8.1675 0.0000 -9.3891 0.0000
# 2 -6.1073 77.5302 8.3150 0.0000 -0.9921 0.0000
# 3 8.1675 8.3150 125.9195 0.0000 -5.8143 0.0000
# 4 0.0000 0.0000 0.0000 -5.7116 0.0000 5.9649
# 5 -9.3891 -0.9921 -5.8143 0.0000 44.4490 0.0000
# 6 0.0000 0.0000 0.0000 5.9649 0.0000 -22.8489
#
#
#
# Elastic Compliance Matrix: (Units=1/GPa)
#
#
# Indices 1 2 3 4 5 6 
#
# 1 0.014233 0.001252 -0.000871 0.000000 0.002920 0.000000
# 2 0.001252 0.013102 -0.000926 0.000000 0.000436 0.000000
# 3 -0.000871 -0.000926 0.008099 0.000000 0.000855 0.000000
# 4 0.000000 0.000000 0.000000 -0.240710 0.000000 -0.062840
# 5 0.002920 0.000436 0.000855 0.000000 0.023236 0.000000
# 6 0.000000 0.000000 0.000000 -0.062840 0.000000 -0.060171
#
#
# Mechanical properties :
#
#
# Convention : Reuss Voigt Hill
#
# Bulk Modulus (GPa) = 29.11855 33.04724 31.08290
# Shear Modulus (GPa) = -21.77002 20.93102 -0.41950
#
# Velocity S-wave (km/s) = -3.09323 3.03304 -0.42939
# Velocity P-wave (km/s) = 0.20093 5.17593 3.66270
#
# Compressibility (1/GPa) = 0.03434237
#
# Stress axis : x y z
#
# Youngs Moduli (GPa) = 70.26157 76.32577 123.47646
#
# Poissons Ratio (x) = -0.09555 0.10755
# Poissons Ratio (y) = -0.08796 0.11437
# Poissons Ratio (z) = 0.06120 0.07070
#
# Static dielectric constant tensor:
#      x y z
#    x 1.793600 0.000000 -0.007230 
#    y 0.000000 1.893740 0.000000 
#    z -0.007230 0.000000 1.833920 
# 
# From -- ./inp_files/89474.got.cif
#   From: 2010.05.17/outbox.cif.g08.bks.cpg/sg10_45_cif.got.tgz:89474.got - 2010.06.03 11:33:40.
