data_PCOD9143304
_publ_section_title
;
Structure prediction by ZEFSAII (Michael W. Deem and Ramdas Pophale) SiO2 
 PCOD9143304
Probable space group: P 2/M
;
_chemical_formula_sum "Si O2"
_cell_formula_units_Z 32
_cell_length_a 26.547174
_cell_length_b 9.038563
_cell_length_c 17.392291
_cell_angle_alpha 90.000000
_cell_angle_beta 156.113805
_cell_angle_gamma 90.000000
_cell_volume 1689.838082
_symmetry_space_group_name_H-M "P 2/M"
_symmetry_group_IT_number 10
_symmetry_cell_setting 'monoclinic'
loop_
_space_group_symop_operation_xyz
x,y,z
-x,y,-z
-x,-y,-z
x,-y,z
loop_
_atom_site_type_symbol
_atom_site_label
_atom_site_fract_x
_atom_site_fract_y
_atom_site_fract_z
Si Si1 0.187589 0.677303 0.623272
Si Si2 0.741390 0.822584 0.657628
Si Si3 0.486839 0.823083 0.768155
Si Si4 0.337206 0.671846 0.688469
Si Si5 0.146301 0.824110 0.029327
Si Si6 0.097570 0.675389 0.805468
Si Si7 0.771758 0.177356 0.156298
Si Si8 0.096431 0.327968 0.240878
O O1 0.201088 0.500000 0.653794
O O2 0.294294 0.726427 0.712318
O O3 0.192092 0.760812 0.709920
O O4 0.051090 0.700739 0.396394
O O5 0.612551 0.780278 0.436355
O O6 0.849631 0.738004 0.762724
O O7 0.759012 0.000000 0.672239
O O8 0.752082 0.791235 0.762885
O O9 0.441103 0.756082 0.785075
O O10 0.482598 0.000000 0.768957
O O11 0.626819 0.781044 0.943001
O O12 0.373197 0.500000 0.745517
O O13 0.212161 0.679168 0.461850
O O14 0.162252 0.743936 0.970556
O O15 0.016802 0.766699 0.884583
O O16 0.141378 0.000000 0.010606
O O17 0.117479 0.500000 0.829997
O O18 0.147003 0.750483 0.797174
O O19 0.784147 0.000000 0.171595
O O20 0.060376 0.500000 0.182971
#
# Coordination Sequence:
#
# PCOD9143304 Si02
#       8
#     4   4   4   4   4   4   4   4
#     4  10  21  39  60  84 114 146 181 226 283 340
#     4   9  19  35  54  79 111 151 190 225 273 330
#     4   9  20  39  58  79 114 152 188 230 274 326
#     4   9  18  34  56  83 114 148 186 225 272 333
#     4  11  21  33  54  83 113 145 186 231 277 331
#     4  11  23  41  61  82 113 148 185 229 282 337
#     4  11  24  40  59  84 110 144 191 236 280 329
#     4  10  18  31  51  80 117 152 184 224 276 331
#
# _framework density 18.936724999999999
#
# number of rings (size 3 to 8) (size 9 to 14) (size 15 to 20)
#    0.000    2.000    1.250    2.250    0.000    7.500 
#    0.000    3.125    0.000    3.750    0.000    0.000 
#    0.000    0.000    0.000    0.000    0.000    0.000 
#
# Total GULP energy -178710.037745 kJ/mol
# GULP energy per Si atom -5584.688680 kJ/mol
# Density = 1.889362 g / cm^3
# Si number density = 18.936725 Si / 1000 Ang^3
#
#
#
# Elastic Constant Matrix: (Units=GPa)
#
#
# Indices 1 2 3 4 5 6 
#
# 1 446.3291 118.3749 61.1097 0.0000 -16.2549 0.0000
# 2 118.3749 61.7821 37.3788 0.0000 -6.7798 0.0000
# 3 61.1097 37.3788 49.0136 0.0000 -11.8856 0.0000
# 4 0.0000 0.0000 0.0000 19.5248 0.0000 -2.9483
# 5 -16.2549 -6.7798 -11.8856 0.0000 34.4593 0.0000
# 6 0.0000 0.0000 0.0000 -2.9483 0.0000 31.4784
#
#
#
# Elastic Compliance Matrix: (Units=1/GPa)
#
#
# Indices 1 2 3 4 5 6 
#
# 1 0.004672 -0.010141 0.002139 0.000000 0.000946 0.000000
# 2 -0.010141 0.052215 -0.028204 0.000000 -0.004239 0.000000
# 3 0.002139 -0.028204 0.041626 0.000000 0.009817 0.000000
# 4 0.000000 0.000000 0.000000 0.051952 0.000000 0.004866
# 5 0.000946 -0.004239 0.009817 0.000000 0.032018 0.000000
# 6 0.000000 0.000000 0.000000 0.004866 0.000000 0.032224
#
#
# Mechanical properties :
#
#
# Convention : Reuss Voigt Hill
#
# Bulk Modulus (GPa) = 38.31546 110.09463 74.20505
# Shear Modulus (GPa) = 16.90215 39.77657 28.33936
#
# Velocity S-wave (km/s) = 2.99081 4.58809 3.87270
# Velocity P-wave (km/s) = 5.67485 9.29149 7.69856
#
# Compressibility (1/GPa) = 0.02609912
#
# Stress axis : x y z
#
# Youngs Moduli (GPa) = 214.05054 19.15147 24.02343
#
# Poissons Ratio (x) = 0.19422 -0.05138
# Poissons Ratio (y) = 2.17073 0.67757
# Poissons Ratio (z) = -0.45777 0.54016
#
# Static dielectric constant tensor:
#      x y z
#    x 1.628630 0.000000 -0.017740 
#    y 0.000000 1.630590 0.000000 
#    z -0.017740 0.000000 1.687680 
# 
# From -- ./inp_files/71621.got.cif
#   From: 2010.05.17/outbox.cif.g08.bks.cpg/sg10_36_cif.got.tgz:71621.got - 2010.06.03 11:33:40.
