data_PCOD9143782
_publ_section_title
;
Structure prediction by ZEFSAII (Michael W. Deem and Ramdas Pophale) SiO2 
 PCOD9143782
Probable space group: P 2/M
;
_chemical_formula_sum "Si O2"
_cell_formula_units_Z 32
_cell_length_a 14.167752
_cell_length_b 20.675303
_cell_length_c 13.185091
_cell_angle_alpha 90.000000
_cell_angle_beta 22.827454
_cell_angle_gamma 90.000000
_cell_volume 1498.372690
_symmetry_space_group_name_H-M "P 2/M"
_symmetry_group_IT_number 10
_symmetry_cell_setting 'monoclinic'
loop_
_space_group_symop_operation_xyz
x,y,z
-x,y,-z
-x,-y,-z
x,-y,z
loop_
_atom_site_type_symbol
_atom_site_label
_atom_site_fract_x
_atom_site_fract_y
_atom_site_fract_z
Si Si1 0.045045 0.921744 0.671382
Si Si2 0.540370 0.073586 0.078700
Si Si3 0.921117 0.702982 0.422260
Si Si4 0.576621 0.761597 0.266520
Si Si5 0.424908 0.755298 0.969847
Si Si6 0.020038 0.428254 0.752343
Si Si7 0.472494 0.391020 0.647485
Si Si8 0.077484 0.804064 0.769723
O O1 0.031070 0.878098 0.784679
O O2 0.809835 0.902167 0.837533
O O3 0.048416 0.000000 0.680233
O O4 0.294991 0.899133 0.370535
O O5 0.546813 0.000000 0.112460
O O6 0.500000 0.069802 0.000000
O O7 0.652102 0.705799 0.736022
O O8 0.909393 0.753974 0.339762
O O9 0.983557 0.631794 0.320868
O O10 0.155869 0.727276 0.251003
O O11 0.587248 0.781293 0.135228
O O12 0.538180 0.684813 0.311957
O O13 0.347843 0.796575 0.542706
O O14 0.833186 0.778932 0.062997
O O15 0.500000 0.793064 0.000000
O O16 0.008205 0.500000 0.718562
O O17 0.280931 0.420573 0.549752
O O18 0.782596 0.420049 0.059651
O O19 0.500000 0.396750 0.500000
#
# Coordination Sequence:
#
# PCOD9143782 Si02
#       8
#     4   4   4   4   4   4   4   4
#     4  10  19  30  45  72  97 129 181 228 271 325
#     4   9  17  30  44  60  97 142 174 216 274 332
#     4  10  19  37  53  76 108 144 187 217 280 318
#     4  10  19  37  55  79 110 143 184 222 280 322
#     4  10  18  32  58  78 103 140 185 239 277 310
#     4  12  23  40  62  86 120 154 180 220 274 335
#     4  12  23  40  62  89 119 149 183 221 267 337
#     4  10  18  33  56  68 103 147 173 224 280 320
#
# _framework density 21.356501999999999
#
# number of rings (size 3 to 8) (size 9 to 14) (size 15 to 20)
#    0.000    1.625    5.000    2.250    0.000    3.000 
#    0.000   15.000    0.000    2.250    0.000    0.000 
#    0.000    3.000    0.000    0.000    0.000    0.000 
#
# Total GULP energy -178311.069399 kJ/mol
# GULP energy per Si atom -5572.220919 kJ/mol
# Density = 2.130789 g / cm^3
# Si number density = 21.356502 Si / 1000 Ang^3
#
#
#
# Elastic Constant Matrix: (Units=GPa)
#
#
# Indices 1 2 3 4 5 6 
#
# 1 35.6001 0.6125 22.2136 0.0000 -5.7368 0.0000
# 2 0.6125 89.5086 24.2613 0.0000 -4.9495 0.0000
# 3 22.2136 24.2613 191.1400 0.0000 -32.4932 0.0000
# 4 0.0000 0.0000 0.0000 8.9770 0.0000 2.5653
# 5 -5.7368 -4.9495 -32.4932 0.0000 34.8917 0.0000
# 6 0.0000 0.0000 0.0000 2.5653 0.0000 29.6934
#
#
#
# Elastic Compliance Matrix: (Units=1/GPa)
#
#
# Indices 1 2 3 4 5 6 
#
# 1 0.030461 0.000797 -0.003292 0.000000 0.002056 0.000000
# 2 0.000797 0.011594 -0.001500 0.000000 0.000379 0.000000
# 3 -0.003292 -0.001500 0.006744 0.000000 0.005527 0.000000
# 4 0.000000 0.000000 0.000000 0.114215 0.000000 -0.009867
# 5 0.002056 0.000379 0.005527 0.000000 0.034199 0.000000
# 6 0.000000 0.000000 0.000000 -0.009867 0.000000 0.034530
#
#
# Mechanical properties :
#
#
# Convention : Reuss Voigt Hill
#
# Bulk Modulus (GPa) = 24.50301 45.60261 35.05281
# Shear Modulus (GPa) = 19.73664 32.65650 26.19657
#
# Velocity S-wave (km/s) = 3.04328 3.91463 3.50613
# Velocity P-wave (km/s) = 4.88334 6.46775 5.73057
#
# Compressibility (1/GPa) = 0.04081131
#
# Stress axis : x y z
#
# Youngs Moduli (GPa) = 32.82843 86.25034 148.27507
#
# Poissons Ratio (x) = -0.06878 0.48810
# Poissons Ratio (y) = -0.02618 0.22240
# Poissons Ratio (z) = 0.10807 0.12937
#
# Static dielectric constant tensor:
#      x y z
#    x 1.763120 0.000000 -0.002330 
#    y 0.000000 1.779700 0.000000 
#    z -0.002330 0.000000 1.819090 
# 
# From -- ./inp_files/67953.got.cif
#   From: 2010.05.17/outbox.cif.g08.bks.cpg/sg10_34_cif.got.tgz:67953.got - 2010.06.03 11:33:40.
