data_PCOD9143943
_publ_section_title
;
Structure prediction by ZEFSAII (Michael W. Deem and Ramdas Pophale) SiO2 
 PCOD9143943
Probable space group: P 2/M
;
_chemical_formula_sum "Si O2"
_cell_formula_units_Z 32
_cell_length_a 23.060211
_cell_length_b 8.337383
_cell_length_c 23.277624
_cell_angle_alpha 90.000000
_cell_angle_beta 160.096176
_cell_angle_gamma 90.000000
_cell_volume 1523.614865
_symmetry_space_group_name_H-M "P 2/M"
_symmetry_group_IT_number 10
_symmetry_cell_setting 'monoclinic'
loop_
_space_group_symop_operation_xyz
x,y,z
-x,y,-z
-x,-y,-z
x,-y,z
loop_
_atom_site_type_symbol
_atom_site_label
_atom_site_fract_x
_atom_site_fract_y
_atom_site_fract_z
Si Si1 0.121938 0.804424 0.434149
Si Si2 0.333313 0.307936 0.189882
Si Si3 0.403662 0.807686 0.468611
Si Si4 0.502173 0.806338 0.232200
Si Si5 0.024762 0.693882 0.089643
Si Si6 0.251796 0.806000 0.900713
Si Si7 0.697470 0.678759 0.180467
Si Si8 0.114093 0.818479 0.555860
O O1 0.302135 0.749444 0.576010
O O2 0.132010 0.749579 0.510112
O O3 0.929197 0.759095 0.237573
O O4 0.126183 0.000000 0.435494
O O5 0.329450 0.500000 0.185580
O O6 0.480624 0.254524 0.371446
O O7 0.385523 0.244308 0.176395
O O8 0.145284 0.251902 0.035019
O O9 0.500000 0.754140 0.500000
O O10 0.206809 0.752404 0.283107
O O11 0.404372 0.000000 0.471065
O O12 0.507638 0.000000 0.234685
O O13 0.410976 0.752053 0.088037
O O14 0.028645 0.500000 0.094265
O O15 0.000000 0.744380 0.000000
O O16 0.250571 0.741354 0.834341
O O17 0.255841 0.000000 0.901260
O O18 0.770907 0.500000 0.258689
O O19 0.717017 0.807184 0.250438
O O20 0.500000 0.655871 0.000000
O O21 0.000000 0.742780 0.500000
O O22 0.052988 0.000000 0.490603
#
# Coordination Sequence:
#
# PCOD9143943 Si02
#       8
#     4   4   4   4   4   4   4   4
#     4   9  18  35  58  85 113 145 192 244 297 356
#     4  11  24  42  64  90 126 168 210 250 296 365
#     4  11  23  38  63  98 132 163 202 254 306 356
#     4  10  22  39  60  85 116 154 201 252 298 346
#     4  10  21  39  64  93 128 170 205 241 296 359
#     4  10  20  38  61  80 106 150 198 246 297 349
#     4  11  23  35  50  79 117 149 183 234 297 361
#     4  10  18  33  58  83 108 140 184 237 289 353
#
# _framework density 21.002683000000001
#
# number of rings (size 3 to 8) (size 9 to 14) (size 15 to 20)
#    0.000    1.750    2.500    1.875    0.000    5.500 
#    0.000    2.500    0.000    0.000    0.000    0.000 
#    0.000    0.000    0.000    0.000    0.000    0.000 
#
# Total GULP energy -178252.125410 kJ/mol
# GULP energy per Si atom -5570.378919 kJ/mol
# Density = 2.095488 g / cm^3
# Si number density = 21.002683 Si / 1000 Ang^3
#
#
#
# Elastic Constant Matrix: (Units=GPa)
#
#
# Indices 1 2 3 4 5 6 
#
# 1 62.6539 -1.8782 11.1709 0.0000 19.8168 0.0000
# 2 -1.8782 19.0829 13.8719 0.0000 6.4368 0.0000
# 3 11.1709 13.8719 107.4025 0.0000 24.2661 0.0000
# 4 0.0000 0.0000 0.0000 18.6701 0.0000 5.8815
# 5 19.8168 6.4368 24.2661 0.0000 41.7390 0.0000
# 6 0.0000 0.0000 0.0000 5.8815 0.0000 18.6583
#
#
#
# Elastic Compliance Matrix: (Units=1/GPa)
#
#
# Indices 1 2 3 4 5 6 
#
# 1 0.019293 0.005560 -0.000531 0.000000 -0.009708 0.000000
# 2 0.005560 0.060459 -0.006544 0.000000 -0.008159 0.000000
# 3 -0.000531 -0.006544 0.011427 0.000000 -0.005382 0.000000
# 4 0.000000 0.000000 0.000000 0.059467 0.000000 -0.018745
# 5 -0.009708 -0.008159 -0.005382 0.000000 0.032955 0.000000
# 6 0.000000 0.000000 0.000000 -0.018745 0.000000 0.059505
#
#
# Mechanical properties :
#
#
# Convention : Reuss Voigt Hill
#
# Bulk Modulus (GPa) = 11.34445 26.16315 18.75380
# Shear Modulus (GPa) = 18.14759 26.87845 22.51302
#
# Velocity S-wave (km/s) = 2.94268 3.58126 3.27756
# Velocity P-wave (km/s) = 4.11813 5.43918 4.82409
#
# Compressibility (1/GPa) = 0.08814879
#
# Stress axis : x y z
#
# Youngs Moduli (GPa) = 51.83302 16.54011 87.51043
#
# Poissons Ratio (x) = -0.09196 0.04649
# Poissons Ratio (y) = -0.28818 0.57263
# Poissons Ratio (z) = 0.02754 0.10823
#
# Static dielectric constant tensor:
#      x y z
#    x 1.750190 0.000000 0.038070 
#    y 0.000000 1.786360 0.000000 
#    z 0.038070 0.000000 1.811770 
# 
# From -- ./inp_files/90666.got.cif
#   From: 2010.05.17/outbox.cif.g08.bks.cpg/sg10_46_cif.got.tgz:90666.got - 2010.06.03 11:33:40.
