data_PCOD9143009
_publ_section_title
;
Structure prediction by ZEFSAII (Michael W. Deem and Ramdas Pophale) SiO2 
 PCOD9143009
Probable space group: P 2/M
;
_chemical_formula_sum "Si O2"
_cell_formula_units_Z 28
_cell_length_a 12.218372
_cell_length_b 7.560655
_cell_length_c 14.701495
_cell_angle_alpha 90.000000
_cell_angle_beta 68.868280
_cell_angle_gamma 90.000000
_cell_volume 1266.780670
_symmetry_space_group_name_H-M "P 2/M"
_symmetry_group_IT_number 10
_symmetry_cell_setting 'monoclinic'
loop_
_space_group_symop_operation_xyz
x,y,z
-x,y,-z
-x,-y,-z
x,-y,z
loop_
_atom_site_type_symbol
_atom_site_label
_atom_site_fract_x
_atom_site_fract_y
_atom_site_fract_z
Si Si1 0.011847 0.705584 0.393343
Si Si2 0.362825 0.789616 0.520445
Si Si3 0.565200 0.785736 0.688499
Si Si4 0.842957 0.304092 0.291466
Si Si5 0.315847 0.789270 0.820270
Si Si6 0.632178 0.216651 0.991334
Si Si7 0.751262 0.787229 0.777217
O O1 0.973770 0.500000 0.413087
O O2 0.142328 0.713492 0.313731
O O3 0.000000 0.780206 0.500000
O O4 0.932724 0.787052 0.335404
O O5 0.500000 0.767202 0.500000
O O6 0.355151 0.725773 0.419164
O O7 0.275631 0.695408 0.613680
O O8 0.337429 0.000000 0.536365
O O9 0.432017 0.721603 0.732670
O O10 0.630376 0.745944 0.761708
O O11 0.560586 0.000000 0.679016
O O12 0.890146 0.500000 0.260851
O O13 0.799651 0.238899 0.205914
O O14 0.329690 0.000000 0.821684
O O15 0.328385 0.724053 0.920006
O O16 0.728185 0.270690 0.887172
O O17 0.629462 0.000000 0.992238
O O18 0.500000 0.270453 0.000000
O O19 0.765643 0.000000 0.772116
#
# Coordination Sequence:
#
# PCOD9143009 Si02
#       7
#     4   4   4   4   4   4   4
#     4  10  23  43  60  75 106 152 194 232 279 330
#     4  10  18  30  50  77 108 141 175 214 272 339
#     4   9  16  28  50  81 112 139 171 216 270 329
#     4  11  23  37  53  76 108 146 189 234 277 324
#     4  10  18  33  56  81 113 148 176 214 275 335
#     4   9  16  30  57  89 118 145 177 223 278 331
#     4  10  19  33  58  89 112 138 185 234 274 324
#
# _framework density 22.103273000000002
#
# number of rings (size 3 to 8) (size 9 to 14) (size 15 to 20)
#    0.000    2.143    2.857    1.286    0.000    1.714 
#    0.000    2.143    0.000    5.143    0.000    0.000 
#    0.000    0.000    0.000    0.000    0.000    0.000 
#
# Total GULP energy -156108.619894 kJ/mol
# GULP energy per Si atom -5575.307853 kJ/mol
# Density = 2.205296 g / cm^3
# Si number density = 22.103273 Si / 1000 Ang^3
#
#
#
# Elastic Constant Matrix: (Units=GPa)
#
#
# Indices 1 2 3 4 5 6 
#
# 1 100.4436 6.8758 46.7466 0.0000 24.0079 0.0000
# 2 6.8758 42.6804 0.0722 0.0000 5.6046 0.0000
# 3 46.7466 0.0722 139.9428 0.0000 29.0083 0.0000
# 4 0.0000 0.0000 0.0000 -15.1408 0.0000 0.5358
# 5 24.0079 5.6046 29.0083 0.0000 39.5969 0.0000
# 6 0.0000 0.0000 0.0000 0.5358 0.0000 15.3662
#
#
#
# Elastic Compliance Matrix: (Units=1/GPa)
#
#
# Indices 1 2 3 4 5 6 
#
# 1 0.012780 -0.001368 -0.003186 0.000000 -0.005221 0.000000
# 2 -0.001368 0.024098 0.001155 0.000000 -0.003428 0.000000
# 3 -0.003186 0.001155 0.009247 0.000000 -0.005006 0.000000
# 4 0.000000 0.000000 0.000000 -0.065965 0.000000 0.002300
# 5 -0.005221 -0.003428 -0.005006 0.000000 0.032573 0.000000
# 6 0.000000 0.000000 0.000000 0.002300 0.000000 0.064998
#
#
# Mechanical properties :
#
#
# Convention : Reuss Voigt Hill
#
# Bulk Modulus (GPa) = 25.42732 43.38399 34.40566
# Shear Modulus (GPa) = 51.20955 23.25596 37.23275
#
# Velocity S-wave (km/s) = 4.81857 3.24721 4.10871
# Velocity P-wave (km/s) = 6.51820 5.80772 6.17319
#
# Compressibility (1/GPa) = 0.03932778
#
# Stress axis : x y z
#
# Youngs Moduli (GPa) = 78.24584 41.49642 108.14101
#
# Poissons Ratio (x) = 0.05676 0.34456
# Poissons Ratio (y) = 0.10703 -0.12491
# Poissons Ratio (z) = 0.24931 -0.04793
#
# Static dielectric constant tensor:
#      x y z
#    x 1.829990 0.000000 0.064240 
#    y 0.000000 1.859690 0.000000 
#    z 0.064240 0.000000 1.834920 
# 
# From -- ./inp_files/63373.got.cif
#   From: 2010.05.17/outbox.cif.g08.bks.cpg/sg10_32_cif.got.tgz:63373.got - 2010.06.03 11:33:40.
