data_PCOD9143319
_publ_section_title
;
Structure prediction by ZEFSAII (Michael W. Deem and Ramdas Pophale) SiO2 
 PCOD9143319
Probable space group: P 2/M
;
_chemical_formula_sum "Si O2"
_cell_formula_units_Z 24
_cell_length_a 11.719984
_cell_length_b 17.322810
_cell_length_c 17.974756
_cell_angle_alpha 90.000000
_cell_angle_beta 160.022704
_cell_angle_gamma 90.000000
_cell_volume 1246.771697
_symmetry_space_group_name_H-M "P 2/M"
_symmetry_group_IT_number 10
_symmetry_cell_setting 'monoclinic'
loop_
_space_group_symop_operation_xyz
x,y,z
-x,y,-z
-x,-y,-z
x,-y,z
loop_
_atom_site_type_symbol
_atom_site_label
_atom_site_fract_x
_atom_site_fract_y
_atom_site_fract_z
Si Si1 0.474915 0.914290 0.575634
Si Si2 0.465095 0.737719 0.812731
Si Si3 0.691795 0.314472 0.449653
Si Si4 0.146973 0.825136 0.743713
Si Si5 0.235445 0.759588 0.270286
Si Si6 0.724951 0.585767 0.211977
O O1 0.500000 0.917194 0.500000
O O2 0.706959 0.841258 0.736578
O O3 0.113604 0.890556 0.388991
O O4 0.567257 0.000000 0.658437
O O5 0.378158 0.721553 0.674070
O O6 0.258382 0.806058 0.726911
O O7 0.385030 0.656724 0.804035
O O8 0.855395 0.754496 0.060348
O O9 0.353681 0.308915 0.288797
O O10 0.955294 0.254114 0.648162
O O11 0.887438 0.394469 0.567122
O O12 0.500000 0.834911 0.000000
O O13 0.500000 0.757679 0.500000
O O14 0.690761 0.500000 0.223412
O O15 0.500000 0.588719 0.000000
#
# Coordination Sequence:
#
# PCOD9143319 Si02
#       6
#     4   4   4   4   4   4
#     4   9  18  32  51  78 107 135 175 226 272 312
#     4  11  20  33  54  80 108 139 180 223 265 316
#     4  10  20  33  53  79 107 139 178 220 264 319
#     4  10  18  31  52  75 102 138 179 220 262 312
#     4  10  19  35  57  77 104 140 180 224 267 320
#     4  10  20  35  55  79 109 142 176 217 264 313
#
# _framework density 19.249714999999998
#
# number of rings (size 3 to 8) (size 9 to 14) (size 15 to 20)
#    0.000    2.000    0.000    8.500    0.000    1.667 
#    0.000    1.667    0.000   21.000    0.000    2.333 
#    0.000    0.000    0.000    0.000    0.000    0.000 
#
# Total GULP energy -133605.657730 kJ/mol
# GULP energy per Si atom -5566.902405 kJ/mol
# Density = 1.920590 g / cm^3
# Si number density = 19.249715 Si / 1000 Ang^3
#
#
#
# Elastic Constant Matrix: (Units=GPa)
#
#
# Indices 1 2 3 4 5 6 
#
# 1 103.9583 28.0708 38.4969 0.0000 15.3963 0.0000
# 2 28.0708 89.4550 24.0735 0.0000 8.5554 0.0000
# 3 38.4969 24.0735 80.5131 0.0000 13.3594 0.0000
# 4 0.0000 0.0000 0.0000 10.7550 0.0000 9.1320
# 5 15.3963 8.5554 13.3594 0.0000 36.8304 0.0000
# 6 0.0000 0.0000 0.0000 9.1320 0.0000 10.1202
#
#
#
# Elastic Compliance Matrix: (Units=1/GPa)
#
#
# Indices 1 2 3 4 5 6 
#
# 1 0.012451 -0.002344 -0.004766 0.000000 -0.002932 0.000000
# 2 -0.002344 0.012688 -0.002497 0.000000 -0.001062 0.000000
# 3 -0.004766 -0.002497 0.015981 0.000000 -0.003224 0.000000
# 4 0.000000 0.000000 0.000000 0.397656 0.000000 -0.358827
# 5 -0.002932 -0.001062 -0.003224 0.000000 0.029793 0.000000
# 6 0.000000 0.000000 0.000000 -0.358827 0.000000 0.422602
#
#
# Mechanical properties :
#
#
# Convention : Reuss Voigt Hill
#
# Bulk Modulus (GPa) = 45.64975 50.57875 48.11425
# Shear Modulus (GPa) = 5.44848 23.76013 14.60431
#
# Velocity S-wave (km/s) = 1.68421 3.51709 2.75740
# Velocity P-wave (km/s) = 5.24863 6.54411 5.93184
#
# Compressibility (1/GPa) = 0.02190593
#
# Stress axis : x y z
#
# Youngs Moduli (GPa) = 80.31239 78.81567 62.57525
#
# Poissons Ratio (x) = 0.18476 0.29825
# Poissons Ratio (y) = 0.18827 0.15623
# Poissons Ratio (z) = 0.38278 0.19678
#
# Static dielectric constant tensor:
#      x y z
#    x 1.763990 0.000000 0.004200 
#    y 0.000000 1.657920 0.000000 
#    z 0.004200 0.000000 1.696310 
# 
# From -- ./inp_files/77184.got.cif
#   From: 2010.05.17/outbox.cif.g08.bks.cpg/sg10_39_cif.got.tgz:77184.got - 2010.06.03 11:33:40.
