data_PCOD9143860
_publ_section_title
;
Structure prediction by ZEFSAII (Michael W. Deem and Ramdas Pophale) SiO2 
 PCOD9143860
Probable space group: P 2/M
;
_chemical_formula_sum "Si O2"
_cell_formula_units_Z 28
_cell_length_a 29.026578
_cell_length_b 8.530725
_cell_length_c 9.820653
_cell_angle_alpha 90.000000
_cell_angle_beta 139.748916
_cell_angle_gamma 90.000000
_cell_volume 1571.258761
_symmetry_space_group_name_H-M "P 2/M"
_symmetry_group_IT_number 10
_symmetry_cell_setting 'monoclinic'
loop_
_space_group_symop_operation_xyz
x,y,z
-x,y,-z
-x,-y,-z
x,-y,z
loop_
_atom_site_type_symbol
_atom_site_label
_atom_site_fract_x
_atom_site_fract_y
_atom_site_fract_z
Si Si1 0.928719 0.818442 0.933274
Si Si2 0.855818 0.188361 0.503397
Si Si3 0.579779 0.690095 0.647698
Si Si4 0.594521 0.816055 0.096082
Si Si5 0.299953 0.688167 0.870407
Si Si6 0.558419 0.685557 0.299566
Si Si7 0.010393 0.687454 0.366175
O O1 0.871424 0.755092 0.694688
O O2 0.912759 0.000000 0.928259
O O3 0.000000 0.815094 0.000000
O O4 0.947886 0.735393 0.118345
O O5 0.778344 0.244904 0.284352
O O6 0.917404 0.247078 0.540271
O O7 0.859552 0.000000 0.515528
O O8 0.500000 0.749084 0.500000
O O9 0.594216 0.724912 0.523024
O O10 0.587656 0.000000 0.053029
O O11 0.642228 0.744274 0.887369
O O12 0.565219 0.500000 0.287565
O O13 0.666099 0.748333 0.193563
O O14 0.589098 0.782658 0.243923
O O15 0.525836 0.725092 0.880471
O O16 0.297289 0.500000 0.866123
O O17 0.576884 0.500000 0.654140
O O18 0.014910 0.500000 0.378407
O O19 0.000000 0.741212 0.500000
#
# Coordination Sequence:
#
# PCOD9143860 Si02
#       7
#     4   4   4   4   4   4   4
#     4   8  16  32  54  78 106 140 176 214 258 309
#     4  10  21  37  55  80 112 144 180 222 270 322
#     4   9  17  32  54  79 103 133 180 232 275 322
#     4  11  21  33  49  75 106 134 170 219 270 321
#     4  11  21  36  57  79 105 141 182 225 276 328
#     4  10  18  33  55  75  98 132 176 222 270 320
#     4  10  20  34  56  87 116 143 180 221 258 308
#
# _framework density 17.820107
#
# number of rings (size 3 to 8) (size 9 to 14) (size 15 to 20)
#    0.000    2.143    1.429    4.714    0.000    4.286 
#    0.000    5.000    0.000    1.714    0.000    0.000 
#    0.000    0.000    0.000    0.000    0.000    0.000 
#
# Total GULP energy -156098.282010 kJ/mol
# GULP energy per Si atom -5574.938643 kJ/mol
# Density = 1.777955 g / cm^3
# Si number density = 17.820107 Si / 1000 Ang^3
#
#
#
# Elastic Constant Matrix: (Units=GPa)
#
#
# Indices 1 2 3 4 5 6 
#
# 1 80.1662 19.2457 55.3598 0.0000 -5.2570 0.0000
# 2 19.2457 46.1277 19.6486 0.0000 -4.0325 0.0000
# 3 55.3598 19.6486 125.1245 0.0000 -4.4055 0.0000
# 4 0.0000 0.0000 0.0000 13.1872 0.0000 -4.1562
# 5 -5.2570 -4.0325 -4.4055 0.0000 25.7404 0.0000
# 6 0.0000 0.0000 0.0000 -4.1562 0.0000 -19.3140
#
#
#
# Elastic Compliance Matrix: (Units=1/GPa)
#
#
# Indices 1 2 3 4 5 6 
#
# 1 0.018925 -0.004495 -0.007602 0.000000 0.001860 0.000000
# 2 -0.004495 0.024539 -0.001772 0.000000 0.002623 0.000000
# 3 -0.007602 -0.001772 0.011639 0.000000 0.000162 0.000000
# 4 0.000000 0.000000 0.000000 0.071014 0.000000 -0.015282
# 5 0.001860 0.002623 0.000162 0.000000 0.039668 0.000000
# 6 0.000000 0.000000 0.000000 -0.015282 0.000000 -0.048487
#
#
# Mechanical properties :
#
#
# Convention : Reuss Voigt Hill
#
# Bulk Modulus (GPa) = 36.54370 48.88073 42.71221
# Shear Modulus (GPa) = 32.43450 14.40036 23.41743
#
# Velocity S-wave (km/s) = 4.27090 2.84579 3.62899
# Velocity P-wave (km/s) = 6.69868 6.18770 6.44825
#
# Compressibility (1/GPa) = 0.02736450
#
# Stress axis : x y z
#
# Youngs Moduli (GPa) = 52.84130 40.75211 85.91626
#
# Poissons Ratio (x) = 0.18319 0.65310
# Poissons Ratio (y) = 0.23754 0.15225
# Poissons Ratio (z) = 0.40168 0.07222
#
# Static dielectric constant tensor:
#      x y z
#    x 1.594370 0.000000 -0.016170 
#    y 0.000000 1.599450 0.000000 
#    z -0.016170 0.000000 1.644800 
# 
# From -- ./inp_files/38064.got.cif
#   From: 2010.05.17/outbox.cif.g08.bks.cpg/sg10_20_cif.got.tgz:38064.got - 2010.06.03 11:33:40.
