data_PCOD9143715
_publ_section_title
;
Structure prediction by ZEFSAII (Michael W. Deem and Ramdas Pophale) SiO2 
 PCOD9143715
Probable space group: P 2/M
;
_chemical_formula_sum "Si O2"
_cell_formula_units_Z 32
_cell_length_a 10.652391
_cell_length_b 26.333979
_cell_length_c 5.419140
_cell_angle_alpha 90.000000
_cell_angle_beta 72.953154
_cell_angle_gamma 90.000000
_cell_volume 1453.387936
_symmetry_space_group_name_H-M "P 2/M"
_symmetry_group_IT_number 10
_symmetry_cell_setting 'monoclinic'
loop_
_space_group_symop_operation_xyz
x,y,z
-x,y,-z
-x,-y,-z
x,-y,z
loop_
_atom_site_type_symbol
_atom_site_label
_atom_site_fract_x
_atom_site_fract_y
_atom_site_fract_z
Si Si1 0.649063 0.060004 0.697758
Si Si2 0.327313 0.299835 0.659710
Si Si3 0.349943 0.899069 0.799902
Si Si4 0.623639 0.209665 0.090880
Si Si5 0.887487 0.341418 0.875235
Si Si6 0.217077 0.558246 0.065332
Si Si7 0.358563 0.409748 0.479662
Si Si8 0.853288 0.755366 0.593441
O O1 0.712304 0.073259 0.398275
O O2 0.498903 0.079732 0.748041
O O3 0.646549 0.000000 0.742426
O O4 0.709846 0.088197 0.898356
O O5 0.422310 0.262289 0.755023
O O6 0.363959 0.347215 0.463730
O O7 0.229353 0.256869 0.604316
O O8 0.249469 0.330997 0.911242
O O9 0.350627 0.838982 0.753614
O O10 0.500000 0.192750 0.000000
O O11 0.751619 0.220339 0.847144
O O12 0.895212 0.400363 0.811191
O O13 0.880804 0.302422 0.660949
O O14 0.000000 0.326605 0.000000
O O15 0.177919 0.500000 0.103709
O O16 0.320595 0.569702 0.230133
O O17 0.264072 0.569765 0.755416
O O18 0.500000 0.425920 0.500000
O O19 0.000000 0.779190 0.500000
#
# Coordination Sequence:
#
# PCOD9143715 Si02
#       8
#     4   4   4   4   4   4   4   4
#     4  10  18  32  55  80 121 176 221 255 308 382
#     4  10  23  37  61  83 120 159 209 252 307 378
#     4  10  19  33  51  81 127 166 208 261 319 366
#     4  11  25  37  56  93 133 170 205 263 328 375
#     4  10  20  39  62  85 113 150 200 260 311 372
#     4  11  24  41  62  91 119 152 198 257 322 380
#     4  11  24  41  61  86 119 161 205 248 302 385
#     4  11  22  40  65  86 115 169 218 256 308 388
#
# _framework density 22.017520000000001
#
# number of rings (size 3 to 8) (size 9 to 14) (size 15 to 20)
#    0.000    1.500    3.750    2.625    3.500    1.750 
#    0.000    0.000    0.000    2.625    0.000    0.000 
#    0.000    5.500    0.000    0.000    0.000    0.000 
#
# Total GULP energy -178288.072125 kJ/mol
# GULP energy per Si atom -5571.502254 kJ/mol
# Density = 2.196741 g / cm^3
# Si number density = 22.017520 Si / 1000 Ang^3
#
#
#
# Elastic Constant Matrix: (Units=GPa)
#
#
# Indices 1 2 3 4 5 6 
#
# 1 25.4719 -15.2937 3.5399 0.0000 3.1371 0.0000
# 2 -15.2937 136.1408 7.7212 0.0000 3.3304 0.0000
# 3 3.5399 7.7212 84.2134 0.0000 12.5364 0.0000
# 4 0.0000 0.0000 0.0000 30.3400 0.0000 4.4035
# 5 3.1371 3.3304 12.5364 0.0000 37.6613 0.0000
# 6 0.0000 0.0000 0.0000 4.4035 0.0000 22.2294
#
#
#
# Elastic Compliance Matrix: (Units=1/GPa)
#
#
# Indices 1 2 3 4 5 6 
#
# 1 0.042931 0.005006 -0.001752 0.000000 -0.003436 0.000000
# 2 0.005006 0.007975 -0.000815 0.000000 -0.000851 0.000000
# 3 -0.001752 -0.000815 0.012616 0.000000 -0.003981 0.000000
# 4 0.000000 0.000000 0.000000 0.033935 0.000000 -0.006722
# 5 -0.003436 -0.000851 -0.003981 0.000000 0.028239 0.000000
# 6 0.000000 0.000000 0.000000 -0.006722 0.000000 0.046317
#
#
# Mechanical properties :
#
#
# Convention : Reuss Voigt Hill
#
# Bulk Modulus (GPa) = 14.61989 26.41787 20.51888
# Shear Modulus (GPa) = 26.32475 34.70338 30.51406
#
# Velocity S-wave (km/s) = 3.46154 3.97441 3.72681
# Velocity P-wave (km/s) = 4.75719 5.75203 5.27810
#
# Compressibility (1/GPa) = 0.06839998
#
# Stress axis : x y z
#
# Youngs Moduli (GPa) = 23.29301 125.39570 79.26660
#
# Poissons Ratio (x) = -0.62776 0.13889
# Poissons Ratio (y) = -0.11661 0.06460
# Poissons Ratio (z) = 0.04081 0.10219
#
# Static dielectric constant tensor:
#      x y z
#    x 1.017320 0.000000 0.258040 
#    y 0.000000 1.792380 0.000000 
#    z 0.258040 0.000000 2.011950 
# 
# From -- ./inp_files/8083.got.cif
#   From: 2010.05.17/outbox.cif.g08.bks.cpg/sg10_5_cif.got.tgz:8083.got - 2010.06.03 11:33:40.
