data_PCOD9143897
_publ_section_title
;
Structure prediction by ZEFSAII (Michael W. Deem and Ramdas Pophale) SiO2 
 PCOD9143897
Probable space group: P 2/M
;
_chemical_formula_sum "Si O2"
_cell_formula_units_Z 24
_cell_length_a 18.001688
_cell_length_b 7.467197
_cell_length_c 25.496263
_cell_angle_alpha 90.000000
_cell_angle_beta 160.681141
_cell_angle_gamma 90.000000
_cell_volume 1133.824216
_symmetry_space_group_name_H-M "P 2/M"
_symmetry_group_IT_number 10
_symmetry_cell_setting 'monoclinic'
loop_
_space_group_symop_operation_xyz
x,y,z
-x,y,-z
-x,-y,-z
x,-y,z
loop_
_atom_site_type_symbol
_atom_site_label
_atom_site_fract_x
_atom_site_fract_y
_atom_site_fract_z
Si Si1 0.490522 0.795425 0.052084
Si Si2 0.969144 0.283373 0.418796
Si Si3 0.220847 0.709776 0.975563
Si Si4 0.270715 0.719226 0.319987
Si Si5 0.755959 0.718085 0.817914
Si Si6 0.541659 0.280826 0.283764
O O1 0.741186 0.787891 0.242387
O O2 0.417186 0.000000 0.996295
O O3 0.500000 0.712370 0.000000
O O4 0.326159 0.722784 0.987814
O O5 0.951354 0.500000 0.404739
O O6 0.000000 0.233837 0.500000
O O7 0.199890 0.225445 0.545597
O O8 0.203193 0.500000 0.976382
O O9 0.966928 0.779953 0.813340
O O10 0.396534 0.780793 0.136451
O O11 0.500000 0.779158 0.500000
O O12 0.271532 0.500000 0.322489
O O13 0.278333 0.774298 0.264395
O O14 0.753355 0.500000 0.816106
O O15 0.577186 0.775646 0.741984
O O16 0.000000 0.774406 0.000000
O O17 0.543810 0.500000 0.283321
#
# Coordination Sequence:
#
# PCOD9143897 Si02
#       6
#     4   4   4   4   4   4
#     4  11  25  41  55  76 109 146 186 228 275 331
#     4  10  19  34  57  84 111 138 179 229 273 322
#     4  10  18  33  56  79 107 141 178 224 276 322
#     4   9  17  27  44  76 111 138 171 217 265 318
#     4   9  14  23  41  67 103 140 167 200 255 313
#     4   9  16  27  48  79 110 141 174 214 266 321
#
# _framework density 21.167301999999999
#
# number of rings (size 3 to 8) (size 9 to 14) (size 15 to 20)
#    0.000    2.333    3.333    0.500    0.000    3.000 
#    0.000    3.333    0.000    0.500    0.000    3.500 
#    0.000    0.000    0.000    0.000    0.000    0.000 
#
# Total GULP energy -133971.391525 kJ/mol
# GULP energy per Si atom -5582.141314 kJ/mol
# Density = 2.111912 g / cm^3
# Si number density = 21.167302 Si / 1000 Ang^3
#
#
#
# Elastic Constant Matrix: (Units=GPa)
#
#
# Indices 1 2 3 4 5 6 
#
# 1 188.0926 -6.4482 94.2100 0.0000 13.3288 0.0000
# 2 -6.4482 53.8272 -3.7842 0.0000 0.9693 0.0000
# 3 94.2100 -3.7842 132.5207 0.0000 1.6907 0.0000
# 4 0.0000 0.0000 0.0000 39.5715 0.0000 39.8966
# 5 13.3288 0.9693 1.6907 0.0000 45.8038 0.0000
# 6 0.0000 0.0000 0.0000 39.8966 0.0000 41.2966
#
#
#
# Elastic Compliance Matrix: (Units=1/GPa)
#
#
# Indices 1 2 3 4 5 6 
#
# 1 0.008503 0.000638 -0.005998 0.000000 -0.002266 0.000000
# 2 0.000638 0.018671 0.000087 0.000000 -0.000584 0.000000
# 3 -0.005998 0.000087 0.011796 0.000000 0.001308 0.000000
# 4 0.000000 0.000000 0.000000 0.973393 0.000000 -0.940395
# 5 -0.002266 -0.000584 0.001308 0.000000 0.022456 0.000000
# 6 0.000000 0.000000 0.000000 -0.940395 0.000000 0.932731
#
#
# Mechanical properties :
#
#
# Convention : Reuss Voigt Hill
#
# Bulk Modulus (GPa) = 35.18129 60.26619 47.72374
# Shear Modulus (GPa) = 2.51564 44.69856 23.60710
#
# Velocity S-wave (km/s) = 1.09134 4.60029 3.34318
# Velocity P-wave (km/s) = 4.27138 7.53326 6.12351
#
# Compressibility (1/GPa) = 0.02842420
#
# Stress axis : x y z
#
# Youngs Moduli (GPa) = 117.60368 53.55892 84.77670
#
# Poissons Ratio (x) = -0.03416 0.50848
# Poissons Ratio (y) = -0.07501 -0.00739
# Poissons Ratio (z) = 0.70537 -0.00467
#
# Static dielectric constant tensor:
#      x y z
#    x 1.805300 0.000000 0.006100 
#    y 0.000000 1.822440 0.000000 
#    z 0.006100 0.000000 1.717680 
# 
# From -- ./inp_files/76049.got.cif
#   From: 2010.05.17/outbox.cif.g08.bks.cpg/sg10_39_cif.got.tgz:76049.got - 2010.06.03 11:33:40.
