data_PCOD9143320
_publ_section_title
;
Structure prediction by ZEFSAII (Michael W. Deem and Ramdas Pophale) SiO2 
 PCOD9143320
Probable space group: P 2/M
;
_chemical_formula_sum "Si O2"
_cell_formula_units_Z 32
_cell_length_a 23.558123
_cell_length_b 8.858790
_cell_length_c 20.964478
_cell_angle_alpha 90.000000
_cell_angle_beta 155.943378
_cell_angle_gamma 90.000000
_cell_volume 1783.508303
_symmetry_space_group_name_H-M "P 2/M"
_symmetry_group_IT_number 10
_symmetry_cell_setting 'monoclinic'
loop_
_space_group_symop_operation_xyz
x,y,z
-x,y,-z
-x,-y,-z
x,-y,z
loop_
_atom_site_type_symbol
_atom_site_label
_atom_site_fract_x
_atom_site_fract_y
_atom_site_fract_z
Si Si1 0.653206 0.320044 0.522080
Si Si2 0.750384 0.181196 0.489469
Si Si3 0.200388 0.181465 0.658774
Si Si4 0.594583 0.825785 0.661330
Si Si5 0.768865 0.182370 0.163925
Si Si6 0.838230 0.681341 0.836738
Si Si7 0.978067 0.320818 0.638077
Si Si8 0.547395 0.182160 0.166258
O O1 0.650956 0.500000 0.512153
O O2 0.706760 0.241832 0.513189
O O3 0.499712 0.262477 0.384515
O O4 0.759182 0.284229 0.689092
O O5 0.634476 0.228108 0.317949
O O6 0.894634 0.248673 0.611319
O O7 0.758314 0.000000 0.497509
O O8 0.180252 0.217724 0.711921
O O9 0.357836 0.218006 0.797810
O O10 0.102925 0.265628 0.508742
O O11 0.179618 0.000000 0.629436
O O12 0.500000 0.820550 0.500000
O O13 0.742701 0.754996 0.793717
O O14 0.610662 0.000000 0.696615
O O15 0.867617 0.257440 0.213404
O O16 0.774228 0.000000 0.163172
O O17 0.609931 0.236542 0.995965
O O18 0.835268 0.500000 0.842154
O O19 0.000000 0.729308 0.000000
O O20 0.976154 0.500000 0.640610
O O21 0.539008 0.000000 0.158717
#
# Coordination Sequence:
#
# PCOD9143320 Si02
#       8
#     4   4   4   4   4   4   4   4
#     4  10  19  33  55  79 103 134 170 205 246 296
#     4  10  20  37  57  74  95 128 172 212 249 296
#     4   9  17  31  52  75  97 126 164 204 250 305
#     4   9  17  30  50  77 106 135 169 205 239 281
#     4  10  18  31  52  75  98 125 161 206 256 304
#     4   9  18  33  53  79 111 141 167 202 250 296
#     4  11  22  34  48  70 102 135 167 204 248 299
#     4   8  16  31  52  75  96 122 161 210 254 294
#
# _framework density 17.942164999999999
#
# number of rings (size 3 to 8) (size 9 to 14) (size 15 to 20)
#    0.000    2.500    0.000    3.750    0.000    5.750 
#    0.000    4.375    0.000    3.750    0.000    0.000 
#    0.000    0.000    0.000    0.000    0.000    0.000 
#
# Total GULP energy -178478.417790 kJ/mol
# GULP energy per Si atom -5577.450556 kJ/mol
# Density = 1.790133 g / cm^3
# Si number density = 17.942165 Si / 1000 Ang^3
#
#
#
# Elastic Constant Matrix: (Units=GPa)
#
#
# Indices 1 2 3 4 5 6 
#
# 1 115.6267 49.6697 38.3368 0.0000 34.6861 0.0000
# 2 49.6697 54.5782 26.8837 0.0000 14.4713 0.0000
# 3 38.3368 26.8837 83.7520 0.0000 38.8538 0.0000
# 4 0.0000 0.0000 0.0000 -2.9490 0.0000 16.2802
# 5 34.6861 14.4713 38.8538 0.0000 29.0417 0.0000
# 6 0.0000 0.0000 0.0000 16.2802 0.0000 19.7143
#
#
#
# Elastic Compliance Matrix: (Units=1/GPa)
#
#
# Indices 1 2 3 4 5 6 
#
# 1 0.021576 -0.016233 0.009323 0.000000 -0.030154 0.000000
# 2 -0.016233 0.034149 -0.012209 0.000000 0.018705 0.000000
# 3 0.009323 -0.012209 0.036734 0.000000 -0.054197 0.000000
# 4 0.000000 0.000000 0.000000 -0.061001 0.000000 0.050375
# 5 -0.030154 0.018705 -0.054197 0.000000 0.133635 0.000000
# 6 0.000000 0.000000 0.000000 0.050375 0.000000 0.009125
#
#
# Mechanical properties :
#
#
# Convention : Reuss Voigt Hill
#
# Bulk Modulus (GPa) = 18.44238 53.74859 36.09548
# Shear Modulus (GPa) = 21.68914 18.43250 20.06082
#
# Velocity S-wave (km/s) = 3.48060 3.20867 3.34740
# Velocity P-wave (km/s) = 5.14334 6.61431 5.92465
#
# Compressibility (1/GPa) = 0.05422294
#
# Stress axis : x y z
#
# Youngs Moduli (GPa) = 46.34731 29.28311 27.22278
#
# Poissons Ratio (x) = 0.47535 -0.25380
# Poissons Ratio (y) = 0.75235 0.33235
# Poissons Ratio (z) = -0.43211 0.35751
#
# Static dielectric constant tensor:
#      x y z
#    x 1.596680 0.000000 0.010260 
#    y 0.000000 1.602490 0.000000 
#    z 0.010260 0.000000 1.636310 
# 
# From -- ./inp_files/90630.got.cif
#   From: 2010.05.17/outbox.cif.g08.bks.cpg/sg10_46_cif.got.tgz:90630.got - 2010.06.03 11:33:40.
