data_PCOD9143036
_publ_section_title
;
Structure prediction by ZEFSAII (Michael W. Deem and Ramdas Pophale) SiO2 
 PCOD9143036
Probable space group: P 2/M
;
_chemical_formula_sum "Si O2"
_cell_formula_units_Z 28
_cell_length_a 18.386733
_cell_length_b 7.519904
_cell_length_c 15.986600
_cell_angle_alpha 90.000000
_cell_angle_beta 141.700493
_cell_angle_gamma 90.000000
_cell_volume 1369.951279
_symmetry_space_group_name_H-M "P 2/M"
_symmetry_group_IT_number 10
_symmetry_cell_setting 'monoclinic'
loop_
_space_group_symop_operation_xyz
x,y,z
-x,y,-z
-x,-y,-z
x,-y,z
loop_
_atom_site_type_symbol
_atom_site_label
_atom_site_fract_x
_atom_site_fract_y
_atom_site_fract_z
Si Si1 0.609207 0.290270 0.853217
Si Si2 0.033806 0.217247 0.662929
Si Si3 0.135234 0.797246 0.921130
Si Si4 0.870179 0.299445 0.897276
Si Si5 0.183703 0.216882 0.643156
Si Si6 0.553697 0.214534 0.136911
Si Si7 0.394194 0.282926 0.342592
O O1 0.630648 0.500000 0.866866
O O2 0.515152 0.261226 0.840925
O O3 0.581364 0.230270 0.732485
O O4 0.731164 0.201788 0.990379
O O5 0.055672 0.279016 0.776117
O O6 0.135902 0.271804 0.690834
O O7 0.912373 0.272080 0.511487
O O8 0.036065 0.000000 0.667833
O O9 0.099563 0.000000 0.907549
O O10 0.137127 0.694799 0.009117
O O11 0.875455 0.500000 0.866279
O O12 0.740385 0.224072 0.755973
O O13 0.000000 0.216528 0.000000
O O14 0.312879 0.278605 0.739670
O O15 0.183538 0.000000 0.643278
O O16 0.554428 0.000000 0.133827
O O17 0.500000 0.277083 0.000000
O O18 0.500000 0.226788 0.500000
O O19 0.391163 0.500000 0.342348
#
# Coordination Sequence:
#
# PCOD9143036 Si02
#       7
#     4   4   4   4   4   4   4
#     4  10  20  33  50  73 100 129 165 204 246 294
#     4   8  14  26  45  68  92 124 161 196 237 284
#     4  10  18  30  51  74  96 124 163 201 242 291
#     4   9  18  33  51  73  99 127 163 204 248 296
#     4   8  14  26  44  66  95 126 159 197 235 280
#     4  10  19  31  49  73 100 131 167 203 242 289
#     4   8  15  31  53  71  91 127 170 204 242 298
#
# _framework density 20.438685
#
# number of rings (size 3 to 8) (size 9 to 14) (size 15 to 20)
#    0.000    3.000    0.000    3.429    0.000    2.857 
#    2.571    0.000    0.000   11.571    0.000    6.000 
#    0.000    0.000    0.000    0.000    0.000    0.000 
#
# Total GULP energy -156009.527490 kJ/mol
# GULP energy per Si atom -5571.768839 kJ/mol
# Density = 2.039217 g / cm^3
# Si number density = 20.438685 Si / 1000 Ang^3
#
#
#
# Elastic Constant Matrix: (Units=GPa)
#
#
# Indices 1 2 3 4 5 6 
#
# 1 116.4888 -0.6676 66.4156 0.0000 30.5139 0.0000
# 2 -0.6676 56.6326 3.1984 0.0000 -1.0650 0.0000
# 3 66.4156 3.1984 123.1843 0.0000 2.8731 0.0000
# 4 0.0000 0.0000 0.0000 2.1780 0.0000 -6.0106
# 5 30.5139 -1.0650 2.8731 0.0000 29.4543 0.0000
# 6 0.0000 0.0000 0.0000 -6.0106 0.0000 12.3847
#
#
#
# Elastic Compliance Matrix: (Units=1/GPa)
#
#
# Indices 1 2 3 4 5 6 
#
# 1 0.019193 0.000431 -0.009918 0.000000 -0.018900 0.000000
# 2 0.000431 0.017707 -0.000698 0.000000 0.000262 0.000000
# 3 -0.009918 -0.000698 0.013275 0.000000 0.008955 0.000000
# 4 0.000000 0.000000 0.000000 -1.353047 0.000000 -0.656666
# 5 -0.018900 0.000262 0.008955 0.000000 0.052667 0.000000
# 6 0.000000 0.000000 0.000000 -0.656666 0.000000 -0.237951
#
#
# Mechanical properties :
#
#
# Convention : Reuss Voigt Hill
#
# Bulk Modulus (GPa) = 33.55320 48.24431 40.89875
# Shear Modulus (GPa) = -3.42970 23.96070 10.26550
#
# Velocity S-wave (km/s) = -1.29680 3.42763 2.24354
# Velocity P-wave (km/s) = 3.76960 6.27061 5.17351
#
# Compressibility (1/GPa) = 0.02980342
#
# Stress axis : x y z
#
# Youngs Moduli (GPa) = 52.10359 56.47453 75.33179
#
# Poissons Ratio (x) = -0.02434 0.74715
# Poissons Ratio (y) = -0.02245 0.05260
# Poissons Ratio (z) = 0.51677 0.03943
#
# Static dielectric constant tensor:
#      x y z
#    x 1.725540 0.000000 0.027330 
#    y 0.000000 1.795660 0.000000 
#    z 0.027330 0.000000 1.724650 
# 
# From -- ./inp_files/68679.got.cif
#   From: 2010.05.17/outbox.cif.g08.bks.cpg/sg10_35_cif.got.tgz:68679.got - 2010.06.03 11:33:40.
