data_PCOD9143209
_publ_section_title
;
Structure prediction by ZEFSAII (Michael W. Deem and Ramdas Pophale) SiO2 
 PCOD9143209
Probable space group: P 2/M
;
_chemical_formula_sum "Si O2"
_cell_formula_units_Z 28
_cell_length_a 12.990997
_cell_length_b 7.574752
_cell_length_c 15.577351
_cell_angle_alpha 90.000000
_cell_angle_beta 106.271708
_cell_angle_gamma 90.000000
_cell_volume 1471.466228
_symmetry_space_group_name_H-M "P 2/M"
_symmetry_group_IT_number 10
_symmetry_cell_setting 'monoclinic'
loop_
_space_group_symop_operation_xyz
x,y,z
-x,y,-z
-x,-y,-z
x,-y,z
loop_
_atom_site_type_symbol
_atom_site_label
_atom_site_fract_x
_atom_site_fract_y
_atom_site_fract_z
Si Si1 0.415569 0.711952 0.098647
Si Si2 0.738481 0.784290 0.589431
Si Si3 0.403591 0.790117 0.287486
Si Si4 0.815434 0.294046 0.279878
Si Si5 0.346830 0.283996 0.898526
Si Si6 0.642226 0.213722 0.384584
Si Si7 0.032394 0.795374 0.415375
O O1 0.418409 0.500000 0.095432
O O2 0.372806 0.762017 0.181533
O O3 0.539304 0.772180 0.116195
O O4 0.351352 0.771281 0.999033
O O5 0.679551 0.720640 0.661484
O O6 0.671974 0.736537 0.488610
O O7 0.860193 0.721634 0.602555
O O8 0.739752 0.000000 0.594402
O O9 0.524380 0.720858 0.330786
O O10 0.410861 0.000000 0.302901
O O11 0.836951 0.500000 0.270580
O O12 0.751683 0.222227 0.182364
O O13 0.733059 0.276388 0.340072
O O14 0.928213 0.210621 0.331472
O O15 0.345581 0.500000 0.895775
O O16 0.643573 0.000000 0.380695
O O17 0.000000 0.714397 0.500000
O O18 0.059592 0.000000 0.440151
#
# Coordination Sequence:
#
# PCOD9143209 Si02
#       7
#     4   4   4   4   4   4   4
#     4   9  16  31  51  69  95 130 162 190 239 302
#     4   9  18  33  50  68  97 135 167 194 233 291
#     4  10  19  30  49  76 101 126 160 203 242 281
#     4  11  20  31  50  75 101 124 158 206 248 277
#     4   8  16  30  49  70  95 130 161 190 240 299
#     4  10  18  31  49  71  99 133 164 189 234 297
#     4  10  19  34  53  70  93 131 172 199 233 287
#
# _framework density 19.028638000000001
#
# number of rings (size 3 to 8) (size 9 to 14) (size 15 to 20)
#    0.000    2.429    2.857    1.714    0.000    2.000 
#    0.000    4.286    0.000    2.571    0.000    6.000 
#    0.000    0.000    0.000    0.000    0.000    0.000 
#
# Total GULP energy -156224.276733 kJ/mol
# GULP energy per Si atom -5579.438455 kJ/mol
# Density = 1.898533 g / cm^3
# Si number density = 19.028638 Si / 1000 Ang^3
#
#
#
# Elastic Constant Matrix: (Units=GPa)
#
#
# Indices 1 2 3 4 5 6 
#
# 1 93.1875 -1.6486 63.6128 0.0000 -14.9326 0.0000
# 2 -1.6486 39.0968 -9.6597 0.0000 -0.3688 0.0000
# 3 63.6128 -9.6597 139.6378 0.0000 -6.5629 0.0000
# 4 0.0000 0.0000 0.0000 17.9050 0.0000 -4.2742
# 5 -14.9326 -0.3688 -6.5629 0.0000 23.4560 0.0000
# 6 0.0000 0.0000 0.0000 -4.2742 0.0000 3.8061
#
#
#
# Elastic Compliance Matrix: (Units=1/GPa)
#
#
# Indices 1 2 3 4 5 6 
#
# 1 0.017270 -0.001047 -0.007523 0.000000 0.008873 0.000000
# 2 -0.001047 0.026106 0.002301 0.000000 0.000388 0.000000
# 3 -0.007523 0.002301 0.010664 0.000000 -0.001769 0.000000
# 4 0.000000 0.000000 0.000000 0.076306 0.000000 0.085692
# 5 0.008873 0.000388 -0.001769 0.000000 0.047793 0.000000
# 6 0.000000 0.000000 0.000000 0.085692 0.000000 0.358971
#
#
# Mechanical properties :
#
#
# Convention : Reuss Voigt Hill
#
# Bulk Modulus (GPa) = 24.09481 41.83679 32.96580
# Shear Modulus (GPa) = 8.87342 23.67460 16.27401
#
# Velocity S-wave (km/s) = 2.16179 3.53109 2.92762
# Velocity P-wave (km/s) = 4.34982 6.21761 5.36562
#
# Compressibility (1/GPa) = 0.04150271
#
# Stress axis : x y z
#
# Youngs Moduli (GPa) = 57.90546 38.30606 93.77009
#
# Poissons Ratio (x) = 0.04010 0.70540
# Poissons Ratio (y) = 0.06061 -0.21576
# Poissons Ratio (z) = 0.43560 -0.08814
#
# Static dielectric constant tensor:
#      x y z
#    x 1.642280 0.000000 -0.000850 
#    y 0.000000 1.720670 0.000000 
#    z -0.000850 0.000000 1.667010 
# 
# From -- ./inp_files/49110.got.cif
#   From: 2010.05.17/outbox.cif.g08.bks.cpg/sg10_25_cif.got.tgz:49110.got - 2010.06.03 11:33:40.
