data_PCOD9143257
_publ_section_title
;
Structure prediction by ZEFSAII (Michael W. Deem and Ramdas Pophale) SiO2 
 PCOD9143257
Probable space group: P 2/M
;
_chemical_formula_sum "Si O2"
_cell_formula_units_Z 28
_cell_length_a 23.228320
_cell_length_b 11.749875
_cell_length_c 29.227353
_cell_angle_alpha 90.000000
_cell_angle_beta 11.434653
_cell_angle_gamma 90.000000
_cell_volume 1581.445115
_symmetry_space_group_name_H-M "P 2/M"
_symmetry_group_IT_number 10
_symmetry_cell_setting 'monoclinic'
loop_
_space_group_symop_operation_xyz
x,y,z
-x,y,-z
-x,-y,-z
x,-y,z
loop_
_atom_site_type_symbol
_atom_site_label
_atom_site_fract_x
_atom_site_fract_y
_atom_site_fract_z
Si Si1 0.201873 0.132054 0.298140
Si Si2 0.215337 0.866762 0.456503
Si Si3 0.915428 0.000000 0.990510
Si Si4 0.817410 0.765229 0.351261
Si Si5 0.194811 0.234778 0.973896
Si Si6 0.724110 0.363921 0.183938
Si Si7 0.815751 0.133238 0.856112
Si Si8 0.479777 0.000000 0.614244
O O1 0.000000 0.135015 0.500000
O O2 0.015085 0.177551 0.401390
O O3 0.259736 0.000000 0.240283
O O4 0.516278 0.177557 0.067278
O O5 0.502815 0.792131 0.236090
O O6 0.059449 0.866629 0.627037
O O7 0.287558 0.000000 0.389093
O O8 0.901233 0.112605 0.971401
O O9 0.644345 0.000000 0.237124
O O10 0.204228 0.000000 0.795751
O O11 0.569553 0.685279 0.565226
O O12 0.665395 0.887396 0.461918
O O13 0.069274 0.792155 0.191780
O O14 0.959508 0.723009 0.193645
O O15 0.239327 0.314729 0.895489
O O16 0.717730 0.500000 0.188191
O O17 0.000000 0.326180 0.000000
O O18 0.772422 0.000000 0.904258
#
# Coordination Sequence:
#
# PCOD9143257 Si02
#       8
#     4   4   2   4   4   4   4   2
#     4   9  17  27  43  73 115 158 195 227 267 327
#     4  10  18  31  50  78 118 159 193 227 274 338
#     4  11  21  35  55  83 119 152 184 227 287 356
#     4  12  23  37  60  88 117 152 191 235 290 348
#     4  12  23  37  60  88 117 152 191 235 290 348
#     4  11  26  47  65  82 109 147 196 251 298 344
#     4  10  18  31  50  78 118 159 193 227 274 338
#     4  11  21  35  55  83 119 152 184 227 287 356
#
# _framework density 17.705324999999998
#
# number of rings (size 3 to 8) (size 9 to 14) (size 15 to 20)
#    0.000    1.286    4.286    2.571    0.000    6.286 
#    0.000    1.429    0.000    0.000    0.000    2.000 
#    0.000    3.429    0.000    0.000    0.000    0.000 
#
# Total GULP energy -156402.132780 kJ/mol
# GULP energy per Si atom -5585.790456 kJ/mol
# Density = 1.766503 g / cm^3
# Si number density = 17.705325 Si / 1000 Ang^3
#
#
#
# Elastic Constant Matrix: (Units=GPa)
#
#
# Indices 1 2 3 4 5 6 
#
# 1 35.9488 28.0996 141.1792 0.0000 -7.8541 0.0000
# 2 28.0996 45.7846 28.1975 0.0000 -0.2794 0.0000
# 3 141.1792 28.1975 37.1775 0.0000 6.3830 0.0000
# 4 0.0000 0.0000 0.0000 21.6581 0.0000 -21.4235
# 5 -7.8541 -0.2794 6.3830 0.0000 39.4371 0.0000
# 6 0.0000 0.0000 0.0000 -21.4235 0.0000 24.9090
#
#
#
# Elastic Compliance Matrix: (Units=1/GPa)
#
#
# Indices 1 2 3 4 5 6 
#
# 1 -0.001220 -0.004285 0.008158 0.000000 -0.001594 0.000000
# 2 -0.004285 0.027123 -0.004305 0.000000 0.000036 0.000000
# 3 0.008158 -0.004305 -0.001122 0.000000 0.001776 0.000000
# 4 0.000000 0.000000 0.000000 0.309357 0.000000 0.266068
# 5 -0.001594 0.000036 0.001776 0.000000 0.024752 0.000000
# 6 0.000000 0.000000 0.000000 0.266068 0.000000 0.268982
#
#
# Mechanical properties :
#
#
# Convention : Reuss Voigt Hill
#
# Bulk Modulus (GPa) = 41.81219 57.09595 49.45407
# Shear Modulus (GPa) = 7.85288 11.96316 9.90802
#
# Velocity S-wave (km/s) = 2.10830 2.60221 2.36817
# Velocity P-wave (km/s) = 5.43999 6.43013 5.95567
#
# Compressibility (1/GPa) = 0.02391647
#
# Stress axis : x y z
#
# Youngs Moduli (GPa) = -819.39048 36.86900 -891.55898
#
# Poissons Ratio (x) = 0.15799 7.27349
# Poissons Ratio (y) = -3.51118 -3.83846
# Poissons Ratio (z) = 6.68473 0.15873
#
# Static dielectric constant tensor:
#      x y z
#    x 1.629060 0.000000 -0.006620 
#    y 0.000000 1.563580 0.000000 
#    z -0.006620 0.000000 1.628040 
# 
# From -- ./inp_files/95812.got.cif
#   From: 2010.05.17/outbox.cif.g08.bks.cpg/sg10_48_cif.got.tgz:95812.got - 2010.06.03 11:33:40.
