data_PCOD9143369
_publ_section_title
;
Structure prediction by ZEFSAII (Michael W. Deem and Ramdas Pophale) SiO2 
 PCOD9143369
Probable space group: P 2/M
;
_chemical_formula_sum "Si O2"
_cell_formula_units_Z 28
_cell_length_a 29.372271
_cell_length_b 7.543219
_cell_length_c 10.332413
_cell_angle_alpha 90.000000
_cell_angle_beta 36.704289
_cell_angle_gamma 90.000000
_cell_volume 1368.259512
_symmetry_space_group_name_H-M "P 2/M"
_symmetry_group_IT_number 10
_symmetry_cell_setting 'monoclinic'
loop_
_space_group_symop_operation_xyz
x,y,z
-x,y,-z
-x,-y,-z
x,-y,z
loop_
_atom_site_type_symbol
_atom_site_label
_atom_site_fract_x
_atom_site_fract_y
_atom_site_fract_z
Si Si1 0.617035 0.795732 0.872022
Si Si2 0.498397 0.782979 0.354151
Si Si3 0.040074 0.713781 0.279866
Si Si4 0.051812 0.282907 0.761309
Si Si5 0.630895 0.216231 0.549580
Si Si6 0.801497 0.208449 0.192550
Si Si7 0.210316 0.701804 0.492167
O O1 0.607167 0.720840 0.748607
O O2 0.707047 0.790305 0.697306
O O3 0.592409 0.000000 0.916621
O O4 0.568426 0.722949 0.102536
O O5 0.500000 0.722929 0.500000
O O6 0.423997 0.728838 0.441293
O O7 0.499646 0.000000 0.356786
O O8 0.037478 0.500000 0.285933
O O9 0.000000 0.779436 0.500000
O O10 0.991304 0.775028 0.268502
O O11 0.127939 0.763300 0.062067
O O12 0.054811 0.500000 0.756573
O O13 0.138966 0.221544 0.576720
O O14 0.000000 0.227703 0.000000
O O15 0.719004 0.268709 0.330493
O O16 0.628395 0.000000 0.558286
O O17 0.816393 0.298006 0.297009
O O18 0.794936 0.000000 0.235901
O O19 0.223005 0.500000 0.421046
#
# Coordination Sequence:
#
# PCOD9143369 Si02
#       7
#     4   4   4   4   4   4   4
#     4   9  17  30  49  74 100 124 159 204 245 286
#     4   9  16  28  48  72  97 128 164 197 235 291
#     4  10  20  35  53  72  97 133 174 205 236 292
#     4   9  16  30  52  73  94 126 168 206 239 284
#     4   8  15  28  47  69  94 127 160 194 241 292
#     4  10  19  32  51  75 104 129 160 206 255 291
#     4  10  18  31  53  75  98 129 167 204 246 292
#
# _framework density 20.463954999999999
#
# number of rings (size 3 to 8) (size 9 to 14) (size 15 to 20)
#    0.000    2.714    1.429    2.143    0.000    2.000 
#    2.571    2.143    0.000    8.143    0.000    0.000 
#    0.000    0.000    0.000    0.000    0.000    0.000 
#
# Total GULP energy -156177.968466 kJ/mol
# GULP energy per Si atom -5577.784588 kJ/mol
# Density = 2.041738 g / cm^3
# Si number density = 20.463955 Si / 1000 Ang^3
#
#
#
# Elastic Constant Matrix: (Units=GPa)
#
#
# Indices 1 2 3 4 5 6 
#
# 1 162.3315 4.8182 109.8367 0.0000 7.1107 0.0000
# 2 4.8182 49.6772 -1.0467 0.0000 3.9164 0.0000
# 3 109.8367 -1.0467 167.7066 0.0000 5.9769 0.0000
# 4 0.0000 0.0000 0.0000 8.9922 0.0000 -10.4979
# 5 7.1107 3.9164 5.9769 0.0000 26.7695 0.0000
# 6 0.0000 0.0000 0.0000 -10.4979 0.0000 8.0343
#
#
#
# Elastic Compliance Matrix: (Units=1/GPa)
#
#
# Indices 1 2 3 4 5 6 
#
# 1 0.011174 -0.001145 -0.007283 0.000000 -0.001174 0.000000
# 2 -0.001145 0.020491 0.000981 0.000000 -0.002913 0.000000
# 3 -0.007283 0.000981 0.010761 0.000000 -0.000612 0.000000
# 4 0.000000 0.000000 0.000000 -0.211645 0.000000 -0.276546
# 5 -0.001174 -0.002913 -0.000612 0.000000 0.038231 0.000000
# 6 0.000000 0.000000 0.000000 -0.276546 0.000000 -0.236880
#
#
# Mechanical properties :
#
#
# Convention : Reuss Voigt Hill
#
# Bulk Modulus (GPa) = 36.32052 67.43686 51.87869
# Shear Modulus (GPa) = -14.54340 26.49966 5.97813
#
# Velocity S-wave (km/s) = -2.66876 3.60244 1.71103
# Velocity P-wave (km/s) = 2.87936 7.09429 5.41385
#
# Compressibility (1/GPa) = 0.02753264
#
# Stress axis : x y z
#
# Youngs Moduli (GPa) = 89.49605 48.80120 92.92989
#
# Poissons Ratio (x) = 0.05586 0.67684
# Poissons Ratio (y) = 0.10244 -0.09120
# Poissons Ratio (z) = 0.65183 -0.04789
#
# Static dielectric constant tensor:
#      x y z
#    x 1.713260 0.000000 -0.012510 
#    y 0.000000 1.787710 0.000000 
#    z -0.012510 0.000000 1.709660 
# 
# From -- ./inp_files/37961.got.cif
#   From: 2010.05.17/outbox.cif.g08.bks.cpg/sg10_19_cif.got.tgz:37961.got - 2010.06.03 11:33:40.
