data_PCOD9143573
_publ_section_title
;
Structure prediction by ZEFSAII (Michael W. Deem and Ramdas Pophale) SiO2 
 PCOD9143573
Probable space group: P 2/M
;
_chemical_formula_sum "Si O2"
_cell_formula_units_Z 20
_cell_length_a 5.399136
_cell_length_b 24.824889
_cell_length_c 9.282451
_cell_angle_alpha 90.000000
_cell_angle_beta 54.436606
_cell_angle_gamma 90.000000
_cell_volume 1012.085329
_symmetry_space_group_name_H-M "P 2/M"
_symmetry_group_IT_number 10
_symmetry_cell_setting 'monoclinic'
loop_
_space_group_symop_operation_xyz
x,y,z
-x,y,-z
-x,-y,-z
x,-y,z
loop_
_atom_site_type_symbol
_atom_site_label
_atom_site_fract_x
_atom_site_fract_y
_atom_site_fract_z
Si Si1 0.866202 0.559865 0.383788
Si Si2 0.555330 0.936035 0.694680
Si Si3 0.956797 0.109344 0.293192
Si Si4 0.868209 0.220373 0.881780
Si Si5 0.134449 0.658346 0.115561
O O1 0.500000 0.562959 0.500000
O O2 0.952035 0.500000 0.297933
O O3 0.000000 0.562954 0.500000
O O4 0.998179 0.609650 0.251821
O O5 0.215087 0.916138 0.784308
O O6 0.750385 0.908311 0.499615
O O7 0.716349 0.916145 0.784306
O O8 0.578748 0.000000 0.671243
O O9 0.988830 0.172873 0.261181
O O10 0.944560 0.281052 0.805411
O O11 0.500000 0.214937 0.000000
O O12 0.000000 0.214941 0.000000
O O13 0.500000 0.654380 0.000000
O O14 0.000000 0.654385 0.000000
#
# Coordination Sequence:
#
# PCOD9143573 Si02
#       5
#     4   4   4   4   4
#     4  10  21  38  58  87 123 155 187 240 300 333
#     4  10  19  33  55  76 101 130 165 225 270 311
#     4  10  18  32  52  76  98 131 171 207 265 324
#     4  10  21  37  54  74 107 144 175 220 268 314
#     4  10  21  38  59  83 113 156 202 234 277 340
#
# _framework density 19.761178000000001
#
# number of rings (size 3 to 8) (size 9 to 14) (size 15 to 20)
#    0.000    2.000    0.000    5.400    0.000    0.800 
#    7.200    0.000    0.000   20.400    0.000    0.000 
#    0.000    0.000    0.000    0.000    0.000    0.000 
#
# Total GULP energy -111586.497757 kJ/mol
# GULP energy per Si atom -5579.324888 kJ/mol
# Density = 1.971620 g / cm^3
# Si number density = 19.761178 Si / 1000 Ang^3
#
#
#
# Elastic Constant Matrix: (Units=GPa)
#
#
# Indices 1 2 3 4 5 6 
#
# 1 198.4626 62.6094 24.3734 0.0000 15.6499 0.0000
# 2 62.6094 255.9410 73.0122 0.0000 -0.9930 0.0000
# 3 24.3734 73.0122 42.6785 0.0000 -1.1202 0.0000
# 4 0.0000 0.0000 0.0000 79.2356 0.0000 -3.9580
# 5 15.6499 -0.9930 -1.1202 0.0000 4.7939 0.0000
# 6 0.0000 0.0000 0.0000 -3.9580 0.0000 36.8796
#
#
#
# Elastic Compliance Matrix: (Units=1/GPa)
#
#
# Indices 1 2 3 4 5 6 
#
# 1 0.007909 -0.001073 -0.003385 0.000000 -0.026832 0.000000
# 2 -0.001073 0.007788 -0.012653 0.000000 0.002160 0.000000
# 3 -0.003385 -0.012653 0.047523 0.000000 0.019536 0.000000
# 4 0.000000 0.000000 0.000000 0.012689 0.000000 0.001362
# 5 -0.026832 0.002160 0.019536 0.000000 0.301208 0.000000
# 6 0.000000 0.000000 0.000000 0.001362 0.000000 0.027261
#
#
# Mechanical properties :
#
#
# Convention : Reuss Voigt Hill
#
# Bulk Modulus (GPa) = 34.48636 90.78578 62.63607
# Shear Modulus (GPa) = 11.15410 46.65429 28.90420
#
# Velocity S-wave (km/s) = 2.37838 4.86419 3.82864
# Velocity P-wave (km/s) = 5.00317 8.80842 7.16310
#
# Compressibility (1/GPa) = 0.02899698
#
# Stress axis : x y z
#
# Youngs Moduli (GPa) = 126.44000 128.40988 21.04236
#
# Poissons Ratio (x) = 0.13780 0.07123
# Poissons Ratio (y) = 0.13568 0.26625
# Poissons Ratio (z) = 0.42802 1.62477
#
# Static dielectric constant tensor:
#      x y z
#    x 1.709120 0.000000 0.005970 
#    y 0.000000 1.677400 0.000000 
#    z 0.005970 0.000000 1.645220 
# 
# From -- ./inp_files/4474.got.cif
#   From: 2010.05.17/outbox.cif.g08.bks.cpg/sg10_3_cif.got.tgz:4474.got - 2010.06.03 11:33:40.
