data_PCOD9143034
_publ_section_title
;
Structure prediction by ZEFSAII (Michael W. Deem and Ramdas Pophale) SiO2 
 PCOD9143034
Probable space group: P 2/M
;
_chemical_formula_sum "Si O2"
_cell_formula_units_Z 28
_cell_length_a 20.970060
_cell_length_b 7.366186
_cell_length_c 11.252284
_cell_angle_alpha 90.000000
_cell_angle_beta 128.811750
_cell_angle_gamma 90.000000
_cell_volume 1354.369759
_symmetry_space_group_name_H-M "P 2/M"
_symmetry_group_IT_number 10
_symmetry_cell_setting 'monoclinic'
loop_
_space_group_symop_operation_xyz
x,y,z
-x,y,-z
-x,-y,-z
x,-y,z
loop_
_atom_site_type_symbol
_atom_site_label
_atom_site_fract_x
_atom_site_fract_y
_atom_site_fract_z
Si Si1 0.222482 0.718410 0.373019
Si Si2 0.583695 0.207681 0.044800
Si Si3 0.244248 0.211264 0.669171
Si Si4 0.964778 0.793754 0.837048
Si Si5 0.942543 0.777871 0.543723
Si Si6 0.460380 0.719881 0.270405
Si Si7 0.376148 0.279274 0.413627
O O1 0.215780 0.500000 0.361230
O O2 0.254882 0.772382 0.540270
O O3 0.132455 0.796501 0.256672
O O4 0.287440 0.779927 0.351450
O O5 0.672563 0.289781 0.178054
O O6 0.586689 0.000000 0.095175
O O7 0.500000 0.290723 0.000000
O O8 0.571092 0.207371 0.889710
O O9 0.152044 0.283266 0.584948
O O10 0.240473 0.000000 0.701230
O O11 0.973112 0.718197 0.711571
O O12 0.997868 0.000000 0.870341
O O13 0.000000 0.709052 0.000000
O O14 0.000000 0.726120 0.500000
O O15 0.941074 0.000000 0.547120
O O16 0.459057 0.500000 0.262843
O O17 0.552984 0.774952 0.411111
O O18 0.404936 0.776768 0.317080
O O19 0.376266 0.500000 0.413830
#
# Coordination Sequence:
#
# PCOD9143034 Si02
#       7
#     4   4   4   4   4   4   4
#     4  10  18  30  51  74  95 122 160 198 241 287
#     4  10  20  32  45  68 102 130 154 196 249 287
#     4   9  18  32  48  68  96 127 159 194 236 288
#     4   9  18  33  50  72  99 125 160 202 243 291
#     4   8  14  28  50  69  87 120 161 197 235 280
#     4   9  17  32  51  67  91 127 167 201 232 280
#     4   8  16  31  49  69  93 125 161 200 241 281
#
# _framework density 20.673821
#
# number of rings (size 3 to 8) (size 9 to 14) (size 15 to 20)
#    0.000    3.000    0.000    3.000    0.000    1.143 
#    2.571    3.571    0.000    6.857    0.000    0.000 
#    0.000    0.000    0.000    0.000    0.000    0.000 
#
# Total GULP energy -156063.458495 kJ/mol
# GULP energy per Si atom -5573.694946 kJ/mol
# Density = 2.062677 g / cm^3
# Si number density = 20.673821 Si / 1000 Ang^3
#
#
#
# Elastic Constant Matrix: (Units=GPa)
#
#
# Indices 1 2 3 4 5 6 
#
# 1 131.8688 4.6190 65.7061 0.0000 -3.2281 0.0000
# 2 4.6190 74.2050 1.9364 0.0000 3.3630 0.0000
# 3 65.7061 1.9364 160.2188 0.0000 -12.9056 0.0000
# 4 0.0000 0.0000 0.0000 5.7313 0.0000 -4.6943
# 5 -3.2281 3.3630 -12.9056 0.0000 10.6332 0.0000
# 6 0.0000 0.0000 0.0000 -4.6943 0.0000 8.1367
#
#
#
# Elastic Compliance Matrix: (Units=1/GPa)
#
#
# Indices 1 2 3 4 5 6 
#
# 1 0.009583 -0.000403 -0.004079 0.000000 -0.001914 0.000000
# 2 -0.000403 0.013736 -0.000399 0.000000 -0.004952 0.000000
# 3 -0.004079 -0.000399 0.008678 0.000000 0.009421 0.000000
# 4 0.000000 0.000000 0.000000 0.330796 0.000000 0.190848
# 5 -0.001914 -0.004952 0.009421 0.000000 0.106464 0.000000
# 6 0.000000 0.000000 0.000000 0.190848 0.000000 0.233007
#
#
# Mechanical properties :
#
#
# Convention : Reuss Voigt Hill
#
# Bulk Modulus (GPa) = 44.97811 56.75727 50.86769
# Shear Modulus (GPa) = 6.94985 24.50232 15.72609
#
# Velocity S-wave (km/s) = 1.83547 3.44639 2.76103
# Velocity P-wave (km/s) = 5.12789 6.58408 5.90107
#
# Compressibility (1/GPa) = 0.02223303
#
# Stress axis : x y z
#
# Youngs Moduli (GPa) = 104.34922 72.80074 115.23277
#
# Poissons Ratio (x) = 0.02936 0.47008
# Poissons Ratio (y) = 0.04208 0.04603
# Poissons Ratio (z) = 0.42568 0.02908
#
# Static dielectric constant tensor:
#      x y z
#    x 1.718800 0.000000 0.010540 
#    y 0.000000 1.795380 0.000000 
#    z 0.010540 0.000000 1.717540 
# 
# From -- ./inp_files/54986.got.cif
#   From: 2010.05.17/outbox.cif.g08.bks.cpg/sg10_28_cif.got.tgz:54986.got - 2010.06.03 11:33:40.
