data_PCOD9143632
_publ_section_title
;
Structure prediction by ZEFSAII (Michael W. Deem and Ramdas Pophale) SiO2 
 PCOD9143632
Probable space group: P 2/M
;
_chemical_formula_sum "Si O2"
_cell_formula_units_Z 30
_cell_length_a 12.573477
_cell_length_b 8.829951
_cell_length_c 30.682908
_cell_angle_alpha 90.000000
_cell_angle_beta 151.019987
_cell_angle_gamma 90.000000
_cell_volume 1650.471421
_symmetry_space_group_name_H-M "P 2/M"
_symmetry_group_IT_number 10
_symmetry_cell_setting 'monoclinic'
loop_
_space_group_symop_operation_xyz
x,y,z
-x,y,-z
-x,-y,-z
x,-y,z
loop_
_atom_site_type_symbol
_atom_site_label
_atom_site_fract_x
_atom_site_fract_y
_atom_site_fract_z
Si Si1 0.000000 0.257715 0.000000
Si Si2 0.275833 0.180500 0.730596
Si Si3 0.181764 0.318595 0.408576
Si Si4 0.303152 0.821758 0.963239
Si Si5 0.653265 0.175768 0.803143
Si Si6 0.813803 0.184052 0.767617
Si Si7 0.414524 0.332588 0.092984
Si Si8 0.376191 0.816537 0.393403
O O1 0.857569 0.179041 0.910406
O O2 0.806413 0.337610 0.957228
O O3 0.437174 0.238415 0.749775
O O4 0.417760 0.216840 0.824553
O O5 0.045430 0.264203 0.651879
O O6 0.242850 0.000000 0.714837
O O7 0.196399 0.500000 0.412027
O O8 0.387273 0.250344 0.508922
O O9 0.210044 0.248770 0.370214
O O10 0.070827 0.777117 0.859154
O O11 0.287444 0.000000 0.970178
O O12 0.500000 0.805615 0.000000
O O13 0.349596 0.724334 0.022374
O O14 0.716373 0.241959 0.778746
O O15 0.603465 0.000000 0.777786
O O16 0.693530 0.230203 0.680249
O O17 0.802376 0.000000 0.764428
O O18 0.514014 0.500000 0.127828
O O19 0.379887 0.000000 0.397739
#
# Coordination Sequence:
#
# PCOD9143632 Si02
#       8
#     2   4   4   4   4   4   4   4
#     4  10  18  32  54  74 113 154 191 226 273 328
#     4  10  21  36  58  83 109 143 188 235 280 332
#     4  11  22  39  60  84 115 145 181 233 285 339
#     4  10  21  36  55  80 112 151 191 231 275 326
#     4   9  17  31  55  85 109 141 189 237 278 322
#     4   9  18  34  56  84 115 144 186 236 278 324
#     4  11  22  35  52  80 114 151 188 230 278 329
#     4  10  20  36  62  88 113 147 187 230 277 337
#
# _framework density 18.176624
#
# number of rings (size 3 to 8) (size 9 to 14) (size 15 to 20)
#    0.000    2.000    1.333    3.600    1.867    1.333 
#    0.000    2.000    0.000    4.000    0.000    0.000 
#    0.000    0.000    0.000    0.000    0.000    0.000 
#
# Total GULP energy -167231.195736 kJ/mol
# GULP energy per Si atom -5574.373191 kJ/mol
# Density = 1.813525 g / cm^3
# Si number density = 18.176624 Si / 1000 Ang^3
#
#
#
# Elastic Constant Matrix: (Units=GPa)
#
#
# Indices 1 2 3 4 5 6 
#
# 1 113.9111 33.0645 73.8542 0.0000 -5.8045 0.0000
# 2 33.0645 67.5578 20.9709 0.0000 2.3244 0.0000
# 3 73.8542 20.9709 85.5667 0.0000 1.2428 0.0000
# 4 0.0000 0.0000 0.0000 -78.8854 0.0000 93.5797
# 5 -5.8045 2.3244 1.2428 0.0000 37.8363 0.0000
# 6 0.0000 0.0000 0.0000 93.5797 0.0000 -92.0152
#
#
#
# Elastic Compliance Matrix: (Units=1/GPa)
#
#
# Indices 1 2 3 4 5 6 
#
# 1 0.022152 -0.005450 -0.017847 0.000000 0.004319 0.000000
# 2 -0.005450 0.017390 0.000470 0.000000 -0.001920 0.000000
# 3 -0.017847 0.000470 0.027028 0.000000 -0.003655 0.000000
# 4 0.000000 0.000000 0.000000 0.061404 0.000000 0.062448
# 5 0.004319 -0.001920 -0.003655 0.000000 0.027330 0.000000
# 6 0.000000 0.000000 0.000000 0.062448 0.000000 0.052642
#
#
# Mechanical properties :
#
#
# Convention : Reuss Voigt Hill
#
# Bulk Modulus (GPa) = 47.80904 58.09053 52.94979
# Shear Modulus (GPa) = 19.18855 -17.33645 0.92605
#
# Velocity S-wave (km/s) = 3.25264 -3.09168 0.71455
# Velocity P-wave (km/s) = 6.36127 4.39132 5.46578
#
# Compressibility (1/GPa) = 0.02091655
#
# Stress axis : x y z
#
# Youngs Moduli (GPa) = 45.14319 57.50508 36.99830
#
# Poissons Ratio (x) = 0.31343 0.66029
# Poissons Ratio (y) = 0.24605 -0.01740
# Poissons Ratio (z) = 0.80565 -0.02705
#
# Static dielectric constant tensor:
#      x y z
#    x 1.638460 0.000000 0.005360 
#    y 0.000000 1.624350 0.000000 
#    z 0.005360 0.000000 1.600600 
# 
# From -- ./inp_files/94896.got.cif
#   From: 2010.05.17/outbox.cif.g08.bks.cpg/sg10_48_cif.got.tgz:94896.got - 2010.06.03 11:33:40.
