data_PCOD9143804
_publ_section_title
;
Structure prediction by ZEFSAII (Michael W. Deem and Ramdas Pophale) SiO2 
 PCOD9143804
Probable space group: P 2/M
;
_chemical_formula_sum "Si O2"
_cell_formula_units_Z 28
_cell_length_a 8.960254
_cell_length_b 21.872740
_cell_length_c 15.521600
_cell_angle_alpha 90.000000
_cell_angle_beta 150.551453
_cell_angle_gamma 90.000000
_cell_volume 1495.576955
_symmetry_space_group_name_H-M "P 2/M"
_symmetry_group_IT_number 10
_symmetry_cell_setting 'monoclinic'
loop_
_space_group_symop_operation_xyz
x,y,z
-x,y,-z
-x,-y,-z
x,-y,z
loop_
_atom_site_type_symbol
_atom_site_label
_atom_site_fract_x
_atom_site_fract_y
_atom_site_fract_z
Si Si1 0.805454 0.716155 0.992112
Si Si2 0.712437 0.927984 0.689883
Si Si3 0.356581 0.374388 0.691110
Si Si4 0.323452 0.850495 0.001539
Si Si5 0.295517 0.500000 0.084486
Si Si6 0.332199 0.359980 0.326359
Si Si7 0.785385 0.500000 0.712930
Si Si8 0.641122 0.927997 0.309671
O O1 0.499394 0.676497 0.825961
O O2 0.737283 0.782823 0.993178
O O3 0.000000 0.719087 0.000000
O O4 0.027320 0.678655 0.166468
O O5 0.500000 0.918844 0.500000
O O6 0.530231 0.914784 0.686527
O O7 0.798587 0.000000 0.735189
O O8 0.006237 0.885982 0.831370
O O9 0.512462 0.438979 0.796875
O O10 0.459045 0.347639 0.650323
O O11 0.000000 0.383476 0.500000
O O12 0.511177 0.887503 0.167723
O O13 0.500000 0.848826 0.000000
O O14 0.000000 0.500000 0.000000
O O15 0.156811 0.500000 0.917270
O O16 0.500000 0.349984 0.500000
O O17 0.266324 0.431691 0.280024
O O18 0.500000 0.500000 0.500000
O O19 0.000000 0.918103 0.500000
O O20 0.592878 0.000000 0.266239
#
# Coordination Sequence:
#
# PCOD9143804 Si02
#       8
#     4   4   4   4   2   4   2   4
#     4  10  22  41  59  78 110 161 204 242 294 357
#     4  10  21  39  64  94 126 158 197 247 302 362
#     4  11  22  36  59  90 116 149 192 246 299 350
#     4  12  25  39  60  88 122 162 206 251 300 355
#     4  12  17  36  63  87 118 152 195 232 289 368
#     4  10  20  37  62  84 112 153 194 237 295 362
#     4  10  18  32  62  90 113 145 196 238 288 352
#     4  10  21  39  64  93 124 158 197 246 301 356
#
# _framework density 18.721872000000001
#
# number of rings (size 3 to 8) (size 9 to 14) (size 15 to 20)
#    0.000    1.429    2.857    3.214    0.000    5.714 
#    0.000    2.857    0.000    1.714    0.000    0.000 
#    0.000    0.000    0.000    0.000    0.000    0.000 
#
# Total GULP energy -155976.697513 kJ/mol
# GULP energy per Si atom -5570.596340 kJ/mol
# Density = 1.867926 g / cm^3
# Si number density = 18.721872 Si / 1000 Ang^3
#
#
#
# Elastic Constant Matrix: (Units=GPa)
#
#
# Indices 1 2 3 4 5 6 
#
# 1 64.8396 52.2702 56.7033 0.0000 0.2507 0.0000
# 2 52.2702 125.3341 91.0094 0.0000 3.1729 0.0000
# 3 56.7033 91.0094 170.6857 0.0000 0.7139 0.0000
# 4 0.0000 0.0000 0.0000 10.6935 0.0000 -40.6542
# 5 0.2507 3.1729 0.7139 0.0000 36.7199 0.0000
# 6 0.0000 0.0000 0.0000 -40.6542 0.0000 2.5532
#
#
#
# Elastic Compliance Matrix: (Units=1/GPa)
#
#
# Indices 1 2 3 4 5 6 
#
# 1 0.025212 -0.007253 -0.004511 0.000000 0.000542 0.000000
# 2 -0.007253 0.015142 -0.005659 0.000000 -0.001149 0.000000
# 3 -0.004511 -0.005659 0.010373 0.000000 0.000318 0.000000
# 4 0.000000 0.000000 0.000000 -0.001571 0.000000 -0.025011
# 5 0.000542 -0.001149 0.000318 0.000000 0.027323 0.000000
# 6 0.000000 0.000000 0.000000 -0.025011 0.000000 -0.006579
#
#
# Mechanical properties :
#
#
# Convention : Reuss Voigt Hill
#
# Bulk Modulus (GPa) = 62.96622 84.53612 73.75117
# Shear Modulus (GPa) = 45.43754 20.71843 33.07798
#
# Velocity S-wave (km/s) = 4.93178 3.33023 4.20790
# Velocity P-wave (km/s) = 8.13237 7.74848 7.94274
#
# Compressibility (1/GPa) = 0.01588153
#
# Stress axis : x y z
#
# Youngs Moduli (GPa) = 39.66320 66.04087 96.39978
#
# Poissons Ratio (x) = 0.47900 0.43483
# Poissons Ratio (y) = 0.28768 0.54557
# Poissons Ratio (z) = 0.17891 0.37375
#
# Static dielectric constant tensor:
#      x y z
#    x 0.807800 0.000000 -0.013970 
#    y 0.000000 1.618090 0.000000 
#    z -0.013970 0.000000 1.664250 
# 
# From -- ./inp_files/62650.got.cif
#   From: 2010.05.17/outbox.cif.g08.bks.cpg/sg10_32_cif.got.tgz:62650.got - 2010.06.03 11:33:40.
