data_PCOD9143587
_publ_section_title
;
Structure prediction by ZEFSAII (Michael W. Deem and Ramdas Pophale) SiO2 
 PCOD9143587
Probable space group: P 2/M
;
_chemical_formula_sum "Si O2"
_cell_formula_units_Z 24
_cell_length_a 7.102343
_cell_length_b 14.769744
_cell_length_c 13.539859
_cell_angle_alpha 90.000000
_cell_angle_beta 130.728998
_cell_angle_gamma 90.000000
_cell_volume 1076.330787
_symmetry_space_group_name_H-M "P 2/M"
_symmetry_group_IT_number 10
_symmetry_cell_setting 'monoclinic'
loop_
_space_group_symop_operation_xyz
x,y,z
-x,y,-z
-x,-y,-z
x,-y,z
loop_
_atom_site_type_symbol
_atom_site_label
_atom_site_fract_x
_atom_site_fract_y
_atom_site_fract_z
Si Si1 0.025206 0.211776 0.718724
Si Si2 0.325565 0.103926 0.536821
Si Si3 0.884512 0.399262 0.616452
Si Si4 0.454415 0.784792 0.205412
Si Si5 0.227232 0.103886 0.960826
Si Si6 0.417698 0.600100 0.683546
O O1 0.891174 0.308367 0.682706
O O2 0.308722 0.226958 0.785713
O O3 0.036053 0.152127 0.820772
O O4 0.909563 0.157913 0.586401
O O5 0.500000 0.102594 0.500000
O O6 0.454556 0.157355 0.669583
O O7 0.272904 0.000000 0.546811
O O8 0.861453 0.500000 0.653453
O O9 0.152164 0.397803 0.651254
O O10 0.672211 0.389755 0.460483
O O11 0.409010 0.682061 0.223632
O O12 0.264605 0.840341 0.073807
O O13 0.155994 0.000000 0.952914
O O14 0.500000 0.101298 0.000000
O O15 0.523033 0.500000 0.734946
#
# Coordination Sequence:
#
# PCOD9143587 Si02
#       6
#     4   4   4   4   4   4
#     4  10  18  32  53  74  96 130 167 198 241 293
#     4  11  23  35  48  71 100 126 161 211 252 285
#     4   8  13  23  43  72 100 123 153 197 244 286
#     4  10  18  32  53  74  96 130 167 198 241 293
#     4   9  18  30  46  72 102 127 161 209 246 279
#     4   8  13  23  43  72 100 123 153 197 244 286
#
# _framework density 22.297976999999999
#
# number of rings (size 3 to 8) (size 9 to 14) (size 15 to 20)
#    0.000    2.667    1.667    2.500    0.000    2.667 
#    0.000    1.667    0.000   10.000    0.000    0.000 
#    0.000    2.667    0.000    0.000    0.000    0.000 
#
# Total GULP energy -134097.265838 kJ/mol
# GULP energy per Si atom -5587.386077 kJ/mol
# Density = 2.224723 g / cm^3
# Si number density = 22.297977 Si / 1000 Ang^3
#
#
#
# Elastic Constant Matrix: (Units=GPa)
#
#
# Indices 1 2 3 4 5 6 
#
# 1 62.1030 12.4481 8.0294 0.0000 -7.9156 0.0000
# 2 12.4481 271.0887 114.9960 0.0000 -18.8986 0.0000
# 3 8.0294 114.9960 143.4870 0.0000 -24.8223 0.0000
# 4 0.0000 0.0000 0.0000 36.8279 0.0000 -7.4203
# 5 -7.9156 -18.8986 -24.8223 0.0000 26.0389 0.0000
# 6 0.0000 0.0000 0.0000 -7.4203 0.0000 -6.4415
#
#
#
# Elastic Compliance Matrix: (Units=1/GPa)
#
#
# Indices 1 2 3 4 5 6 
#
# 1 0.016815 -0.000593 0.000412 0.000000 0.005074 0.000000
# 2 -0.000593 0.005611 -0.004539 0.000000 -0.000435 0.000000
# 3 0.000412 -0.004539 0.012018 0.000000 0.008287 0.000000
# 4 0.000000 0.000000 0.000000 0.022038 0.000000 -0.025387
# 5 0.005074 -0.000435 0.008287 0.000000 0.047531 0.000000
# 6 0.000000 0.000000 0.000000 -0.025387 0.000000 -0.125999
#
#
# Mechanical properties :
#
#
# Convention : Reuss Voigt Hill
#
# Bulk Modulus (GPa) = 39.99466 83.06950 61.53208
# Shear Modulus (GPa) = -1187.10079 34.03209 -576.53435
#
# Velocity S-wave (km/s) = -23.09840 3.91095 -16.09722
# Velocity P-wave (km/s) = 26.33261 7.59797 17.82803
#
# Compressibility (1/GPa) = 0.02500334
#
# Stress axis : x y z
#
# Youngs Moduli (GPa) = 59.47210 178.21364 83.21122
#
# Poissons Ratio (x) = 0.10573 -0.03431
# Poissons Ratio (y) = 0.03528 0.37770
# Poissons Ratio (z) = -0.02452 0.80893
#
# Static dielectric constant tensor:
#      x y z
#    x 1.919970 0.000000 0.017580 
#    y 0.000000 1.814620 0.000000 
#    z 0.017580 0.000000 1.760050 
# 
# From -- ./inp_files/56049.got.cif
#   From: 2010.05.17/outbox.cif.g08.bks.cpg/sg10_29_cif.got.tgz:56049.got - 2010.06.03 11:33:40.
