data_PCOD9143169
_publ_section_title
;
Structure prediction by ZEFSAII (Michael W. Deem and Ramdas Pophale) SiO2 
 PCOD9143169
Probable space group: P 2/M
;
_chemical_formula_sum "Si O2"
_cell_formula_units_Z 28
_cell_length_a 9.798521
_cell_length_b 12.070199
_cell_length_c 19.316512
_cell_angle_alpha 90.000000
_cell_angle_beta 51.880543
_cell_angle_gamma 90.000000
_cell_volume 1797.326010
_symmetry_space_group_name_H-M "P 2/M"
_symmetry_group_IT_number 10
_symmetry_cell_setting 'monoclinic'
loop_
_space_group_symop_operation_xyz
x,y,z
-x,y,-z
-x,-y,-z
x,-y,z
loop_
_atom_site_type_symbol
_atom_site_label
_atom_site_fract_x
_atom_site_fract_y
_atom_site_fract_z
Si Si1 0.096304 0.787347 0.541300
Si Si2 0.914859 0.367904 0.703777
Si Si3 0.531262 0.756500 0.638569
Si Si4 0.189742 0.366634 0.733596
Si Si5 0.841995 0.366011 0.095772
Si Si6 0.542308 0.633148 0.780844
Si Si7 0.788848 0.000000 0.420349
Si Si8 0.542333 0.000000 0.372377
O O1 0.292549 0.752181 0.460765
O O2 0.000000 0.818439 0.500000
O O3 0.992395 0.691044 0.612134
O O4 0.107422 0.890920 0.589956
O O5 0.928701 0.500000 0.691297
O O6 0.710876 0.341302 0.773583
O O7 0.032766 0.336814 0.732227
O O8 0.367554 0.693484 0.656216
O O9 0.562096 0.696664 0.702019
O O10 0.478250 0.885574 0.662484
O O11 0.214389 0.500000 0.724133
O O12 0.150610 0.334607 0.825491
O O13 0.852948 0.500000 0.091128
O O14 0.648019 0.337291 0.130852
O O15 0.000000 0.322791 0.000000
O O16 0.540779 0.500000 0.768150
O O17 0.714501 0.000000 0.366036
O O18 0.619700 0.000000 0.523395
#
# Coordination Sequence:
#
# PCOD9143169 Si02
#       8
#     4   4   4   4   4   4   2   2
#     4  11  20  31  45  64  87 125 161 191 222 265
#     4  10  20  31  43  65  95 123 152 187 225 263
#     4  10  18  31  47  64  88 119 158 191 224 263
#     4   9  18  31  47  67  93 120 148 186 227 266
#     4   8  14  27  48  69  87 114 149 179 218 274
#     4   9  17  30  46  66  94 121 146 185 228 263
#     4   9  19  32  44  60  87 113 152 201 241 251
#     4   9  18  30  46  64  83 114 151 199 232 264
#
# _framework density 15.5787
#
# number of rings (size 3 to 8) (size 9 to 14) (size 15 to 20)
#    0.000    2.571    1.429    2.357    0.000    3.143 
#    0.000    2.143    0.000    4.286    0.000    8.000 
#    0.000    0.000    0.000   17.571    0.000    5.714 
#
# Total GULP energy -155902.223102 kJ/mol
# GULP energy per Si atom -5567.936539 kJ/mol
# Density = 1.554324 g / cm^3
# Si number density = 15.578700 Si / 1000 Ang^3
#
#
#
# Elastic Constant Matrix: (Units=GPa)
#
#
# Indices 1 2 3 4 5 6 
#
# 1 115.0855 27.7262 31.5075 0.0000 -26.5938 0.0000
# 2 27.7262 31.3942 18.0342 0.0000 -9.2163 0.0000
# 3 31.5075 18.0342 70.6210 0.0000 -25.4089 0.0000
# 4 0.0000 0.0000 0.0000 -0.0887 0.0000 0.4998
# 5 -26.5938 -9.2163 -25.4089 0.0000 18.5678 0.0000
# 6 0.0000 0.0000 0.0000 0.4998 0.0000 19.8114
#
#
#
# Elastic Compliance Matrix: (Units=1/GPa)
#
#
# Indices 1 2 3 4 5 6 
#
# 1 0.014844 -0.008715 0.003341 0.000000 0.021506 0.000000
# 2 -0.008715 0.043579 -0.007779 0.000000 -0.001496 0.000000
# 3 0.003341 -0.007779 0.029525 0.000000 0.041327 0.000000
# 4 0.000000 0.000000 0.000000 -9.875180 0.000000 0.249152
# 5 0.021506 -0.001496 0.041327 0.000000 0.140469 0.000000
# 6 0.000000 0.000000 0.000000 0.249152 0.000000 0.044190
#
#
# Mechanical properties :
#
#
# Convention : Reuss Voigt Hill
#
# Bulk Modulus (GPa) = 16.22280 41.29293 28.75787
# Shear Modulus (GPa) = -0.52325 16.98030 8.22853
#
# Velocity S-wave (km/s) = -0.58017 3.30505 2.30073
# Velocity P-wave (km/s) = 3.16026 6.41311 5.05546
#
# Compressibility (1/GPa) = 0.06164165
#
# Stress axis : x y z
#
# Youngs Moduli (GPa) = 67.36847 22.94677 33.86932
#
# Poissons Ratio (x) = 0.19998 -0.11314
# Poissons Ratio (y) = 0.58712 0.26346
# Poissons Ratio (z) = -0.22505 0.17850
#
# Static dielectric constant tensor:
#      x y z
#    x 1.555730 0.000000 -0.019090 
#    y 0.000000 1.516180 0.000000 
#    z -0.019090 0.000000 1.504160 
# 
# From -- ./inp_files/67129.got.cif
#   From: 2010.05.17/outbox.cif.g08.bks.cpg/sg10_34_cif.got.tgz:67129.got - 2010.06.03 11:33:40.
