data_PCOD9143560
_publ_section_title
;
Structure prediction by ZEFSAII (Michael W. Deem and Ramdas Pophale) SiO2 
 PCOD9143560
Probable space group: P 2/M
;
_chemical_formula_sum "Si O2"
_cell_formula_units_Z 32
_cell_length_a 18.513582
_cell_length_b 9.209831
_cell_length_c 26.062046
_cell_angle_alpha 90.000000
_cell_angle_beta 23.098461
_cell_angle_gamma 90.000000
_cell_volume 1743.342299
_symmetry_space_group_name_H-M "P 2/M"
_symmetry_group_IT_number 10
_symmetry_cell_setting 'monoclinic'
loop_
_space_group_symop_operation_xyz
x,y,z
-x,y,-z
-x,-y,-z
x,-y,z
loop_
_atom_site_type_symbol
_atom_site_label
_atom_site_fract_x
_atom_site_fract_y
_atom_site_fract_z
Si Si1 0.710542 0.168075 0.363361
Si Si2 0.695009 0.327233 0.581852
Si Si3 0.549823 0.170734 0.865781
Si Si4 0.973621 0.828382 0.578300
Si Si5 0.147721 0.832823 0.612325
Si Si6 0.942748 0.666451 0.894494
Si Si7 0.203973 0.666496 0.127923
Si Si8 0.407113 0.828740 0.842130
O O1 0.500000 0.218653 0.500000
O O2 0.781135 0.169064 0.375851
O O3 0.854718 0.265021 0.238100
O O4 0.715385 0.000000 0.342299
O O5 0.684412 0.500000 0.588255
O O6 0.716610 0.260523 0.511291
O O7 0.526561 0.257809 0.722984
O O8 0.879070 0.270763 0.489887
O O9 0.764511 0.206577 0.730819
O O10 0.498772 0.189941 0.838803
O O11 0.523331 0.000000 0.894685
O O12 0.406144 0.263842 0.992521
O O13 0.000000 0.810326 0.500000
O O14 0.007002 0.000000 0.567074
O O15 0.944283 0.762211 0.744640
O O16 0.140597 0.000000 0.599824
O O17 0.941233 0.500000 0.912906
O O18 0.870967 0.667054 0.882111
O O19 0.797178 0.764335 0.019918
O O20 0.206802 0.500000 0.143847
O O21 0.406858 0.000000 0.831213
#
# Coordination Sequence:
#
# PCOD9143560 Si02
#       8
#     4   4   4   4   4   4   4   4
#     4   9  18  34  58  86 110 135 171 212 253 304
#     4  12  24  35  50  75 107 140 175 218 266 312
#     4   9  17  30  51  74  98 130 173 220 262 307
#     4  10  19  35  53  73 101 136 179 223 263 311
#     4  10  20  36  56  76 103 139 175 209 253 312
#     4   9  17  29  48  79 111 137 168 209 258 307
#     4   9  17  30  49  73 103 133 167 214 261 306
#     4  10  18  32  52  74 101 138 180 218 258 304
#
# _framework density 18.355547000000001
#
# number of rings (size 3 to 8) (size 9 to 14) (size 15 to 20)
#    0.000    2.250    1.250    2.625    0.000    5.000 
#    0.000    0.625    0.000    4.500    0.000    5.250 
#    0.000    0.000    0.000    0.000    0.000    0.000 
#
# Total GULP energy -178632.504784 kJ/mol
# GULP energy per Si atom -5582.265774 kJ/mol
# Density = 1.831377 g / cm^3
# Si number density = 18.355547 Si / 1000 Ang^3
#
#
#
# Elastic Constant Matrix: (Units=GPa)
#
#
# Indices 1 2 3 4 5 6 
#
# 1 9.5763 11.9260 18.7654 0.0000 -3.6134 0.0000
# 2 11.9260 128.1776 79.7963 0.0000 -3.3281 0.0000
# 3 18.7654 79.7963 137.0070 0.0000 -19.5120 0.0000
# 4 0.0000 0.0000 0.0000 19.8504 0.0000 4.3669
# 5 -3.6134 -3.3281 -19.5120 0.0000 20.1047 0.0000
# 6 0.0000 0.0000 0.0000 4.3669 0.0000 14.8677
#
#
#
# Elastic Compliance Matrix: (Units=1/GPa)
#
#
# Indices 1 2 3 4 5 6 
#
# 1 0.144328 -0.002652 -0.016932 0.000000 0.009068 0.000000
# 2 -0.002652 0.012873 -0.008005 0.000000 -0.006115 0.000000
# 3 -0.016932 -0.008005 0.015849 0.000000 0.011014 0.000000
# 4 0.000000 0.000000 0.000000 0.053857 0.000000 -0.015819
# 5 0.009068 -0.006115 0.011014 0.000000 0.061046 0.000000
# 6 0.000000 0.000000 0.000000 -0.015819 0.000000 0.071906
#
#
# Mechanical properties :
#
#
# Convention : Reuss Voigt Hill
#
# Bulk Modulus (GPa) = 8.48385 55.08181 31.78283
# Shear Modulus (GPa) = 11.00525 21.91610 16.46068
#
# Velocity S-wave (km/s) = 2.45125 3.45915 2.99786
# Velocity P-wave (km/s) = 3.55577 6.78437 5.41623
#
# Compressibility (1/GPa) = 0.11787098
#
# Stress axis : x y z
#
# Youngs Moduli (GPa) = 6.92867 77.67954 63.09526
#
# Poissons Ratio (x) = 0.20603 1.06832
# Poissons Ratio (y) = 0.01838 0.50510
# Poissons Ratio (z) = 0.11732 0.62186
#
# Static dielectric constant tensor:
#      x y z
#    x 1.641310 0.000000 0.011950 
#    y 0.000000 1.613740 0.000000 
#    z 0.011950 0.000000 1.619730 
# 
# From -- ./inp_files/55194.got.cif
#   From: 2010.05.17/outbox.cif.g08.bks.cpg/sg10_28_cif.got.tgz:55194.got - 2010.06.03 11:33:40.
