data_PCOD9143129
_publ_section_title
;
Structure prediction by ZEFSAII (Michael W. Deem and Ramdas Pophale) SiO2 
 PCOD9143129
Probable space group: P 2/M
;
_chemical_formula_sum "Si O2"
_cell_formula_units_Z 32
_cell_length_a 12.668134
_cell_length_b 8.588820
_cell_length_c 32.205989
_cell_angle_alpha 90.000000
_cell_angle_beta 28.455629
_cell_angle_gamma 90.000000
_cell_volume 1669.650927
_symmetry_space_group_name_H-M "P 2/M"
_symmetry_group_IT_number 10
_symmetry_cell_setting 'monoclinic'
loop_
_space_group_symop_operation_xyz
x,y,z
-x,y,-z
-x,-y,-z
x,-y,z
loop_
_atom_site_type_symbol
_atom_site_label
_atom_site_fract_x
_atom_site_fract_y
_atom_site_fract_z
Si Si1 0.021062 0.321047 0.229774
Si Si2 0.838200 0.820273 0.989660
Si Si3 0.121816 0.809962 0.500300
Si Si4 0.373267 0.186983 0.680416
Si Si5 0.253594 0.188242 0.307414
Si Si6 0.706190 0.810404 0.197326
Si Si7 0.371198 0.314291 0.177417
Si Si8 0.758417 0.829625 0.919132
O O1 0.979208 0.500000 0.254710
O O2 0.198290 0.255409 0.201782
O O3 0.140590 0.303091 0.143991
O O4 0.788910 0.238121 0.300469
O O5 0.089844 0.755070 0.902440
O O6 0.793056 0.816399 0.955845
O O7 0.842764 0.000000 0.002496
O O8 0.624312 0.742397 0.083946
O O9 0.375371 0.756348 0.412982
O O10 0.000000 0.762216 0.500000
O O11 0.968367 0.762411 0.591840
O O12 0.124823 0.000000 0.499061
O O13 0.288738 0.237645 0.755821
O O14 0.381436 0.000000 0.678930
O O15 0.469023 0.230763 0.260327
O O16 0.281972 0.259880 0.252499
O O17 0.252736 0.000000 0.304446
O O18 0.723482 0.000000 0.191451
O O19 0.374390 0.500000 0.173131
O O20 0.852490 0.000000 0.873590
O O21 0.500000 0.832133 0.000000
#
# Coordination Sequence:
#
# PCOD9143129 Si02
#       8
#     4   4   4   4   4   4   4   4
#     4  11  23  36  52  77 113 154 194 231 275 327
#     4  10  19  33  55  83 112 145 185 228 277 331
#     4   9  16  31  62  96 117 135 170 227 290 341
#     4  10  18  33  59  91 119 140 172 228 289 339
#     4  10  20  37  61  86 111 144 185 226 275 340
#     4   9  17  31  56  88 116 140 173 222 281 337
#     4  11  25  41  53  72 110 160 200 231 269 318
#     4  10  18  30  53  82 108 138 183 235 283 327
#
# _framework density 19.165683000000001
#
# number of rings (size 3 to 8) (size 9 to 14) (size 15 to 20)
#    0.000    2.000    3.750    0.750    0.000    2.750 
#    0.000    5.000    0.000    4.500    0.000    0.000 
#    0.000    0.000    0.000    0.000    0.000    0.000 
#
# Total GULP energy -178395.319053 kJ/mol
# GULP energy per Si atom -5574.853720 kJ/mol
# Density = 1.912206 g / cm^3
# Si number density = 19.165683 Si / 1000 Ang^3
#
#
#
# Elastic Constant Matrix: (Units=GPa)
#
#
# Indices 1 2 3 4 5 6 
#
# 1 51.8247 13.2000 48.6569 0.0000 -3.8281 0.0000
# 2 13.2000 14.2791 23.9636 0.0000 -0.9868 0.0000
# 3 48.6569 23.9636 169.3737 0.0000 -12.3719 0.0000
# 4 0.0000 0.0000 0.0000 -5.5283 0.0000 0.0649
# 5 -3.8281 -0.9868 -12.3719 0.0000 31.9485 0.0000
# 6 0.0000 0.0000 0.0000 0.0649 0.0000 10.6147
#
#
#
# Elastic Compliance Matrix: (Units=1/GPa)
#
#
# Indices 1 2 3 4 5 6 
#
# 1 0.029268 -0.017024 -0.005950 0.000000 0.000677 0.000000
# 2 -0.017024 0.101899 -0.009720 0.000000 -0.002657 0.000000
# 3 -0.005950 -0.009720 0.009174 0.000000 0.002539 0.000000
# 4 0.000000 0.000000 0.000000 -0.180873 0.000000 0.001105
# 5 0.000677 -0.002657 0.002539 0.000000 0.032283 0.000000
# 6 0.000000 0.000000 0.000000 0.001105 0.000000 0.094203
#
#
# Mechanical properties :
#
#
# Convention : Reuss Voigt Hill
#
# Bulk Modulus (GPa) = 13.34177 45.23539 29.28858
# Shear Modulus (GPa) = 28.35627 17.38410 22.87018
#
# Velocity S-wave (km/s) = 3.85064 3.01498 3.45815
# Velocity P-wave (km/s) = 5.17169 5.98111 5.59107
#
# Compressibility (1/GPa) = 0.07495255
#
# Stress axis : x y z
#
# Youngs Moduli (GPa) = 34.16671 9.81359 109.00172
#
# Poissons Ratio (x) = 0.16707 0.64856
# Poissons Ratio (y) = 0.58166 1.05955
# Poissons Ratio (z) = 0.20329 0.09539
#
# Static dielectric constant tensor:
#      x y z
#    x 1.683050 0.000000 -0.036480 
#    y 0.000000 1.677930 0.000000 
#    z -0.036480 0.000000 1.687940 
# 
# From -- ./inp_files/94915.got.cif
#   From: 2010.05.17/outbox.cif.g08.bks.cpg/sg10_48_cif.got.tgz:94915.got - 2010.06.03 11:33:40.
