data_PCOD9143914
_publ_section_title
;
Structure prediction by ZEFSAII (Michael W. Deem and Ramdas Pophale) SiO2 
 PCOD9143914
Probable space group: P 2/M
;
_chemical_formula_sum "Si O2"
_cell_formula_units_Z 32
_cell_length_a 23.162127
_cell_length_b 7.717016
_cell_length_c 29.539275
_cell_angle_alpha 90.000000
_cell_angle_beta 161.958581
_cell_angle_gamma 90.000000
_cell_volume 1635.215854
_symmetry_space_group_name_H-M "P 2/M"
_symmetry_group_IT_number 10
_symmetry_cell_setting 'monoclinic'
loop_
_space_group_symop_operation_xyz
x,y,z
-x,y,-z
-x,-y,-z
x,-y,z
loop_
_atom_site_type_symbol
_atom_site_label
_atom_site_fract_x
_atom_site_fract_y
_atom_site_fract_z
Si Si1 0.804848 0.795675 0.873489
Si Si2 0.213087 0.700429 0.036441
Si Si3 0.794650 0.709325 0.237434
Si Si4 0.114890 0.203295 0.542351
Si Si5 0.799249 0.209662 0.708049
Si Si6 0.458567 0.789575 0.398081
Si Si7 0.540790 0.703121 0.860371
Si Si8 0.582545 0.288222 0.991947
O O1 0.629457 0.726174 0.714295
O O2 0.809994 0.000000 0.866518
O O3 0.787881 0.779596 0.914349
O O4 0.000000 0.721477 0.000000
O O5 0.262361 0.500000 0.080178
O O6 0.004458 0.714947 0.861507
O O7 0.354093 0.778874 0.104723
O O8 0.800697 0.500000 0.242247
O O9 0.619227 0.762610 0.138174
O O10 0.984278 0.773629 0.401213
O O11 0.738471 0.765025 0.144757
O O12 0.318259 0.284547 0.690032
O O13 0.000000 0.274233 0.500000
O O14 0.145683 0.000000 0.573305
O O15 0.689832 0.252695 0.672962
O O16 0.661767 0.270123 0.565576
O O17 0.816255 0.000000 0.719599
O O18 0.472956 0.000000 0.408465
O O19 0.592547 0.500000 0.900096
O O20 0.599019 0.775266 0.952932
O O21 0.582385 0.500000 0.991315
#
# Coordination Sequence:
#
# PCOD9143914 Si02
#       8
#     4   4   4   4   4   4   4   4
#     4  10  18  33  57  80 103 140 182 219 262 312
#     4  11  23  35  50  78 111 142 176 217 267 317
#     4   9  16  30  56  82 101 129 174 220 261 306
#     4  11  22  34  51  81 113 138 171 220 271 315
#     4   9  16  32  55  76 101 133 172 217 258 311
#     4   8  15  29  54  82 100 126 176 221 254 304
#     4  10  21  38  56  73 103 146 183 214 258 321
#     4   8  15  30  54  80  99 128 178 221 251 305
#
# _framework density 19.569282000000001
#
# number of rings (size 3 to 8) (size 9 to 14) (size 15 to 20)
#    0.000    2.500    2.500    2.250    0.000    1.750 
#    0.000    5.000    0.000    4.500    0.000    0.000 
#    0.000    0.000    0.000    0.000    0.000    0.000 
#
# Total GULP energy -178462.588338 kJ/mol
# GULP energy per Si atom -5576.955886 kJ/mol
# Density = 1.952474 g / cm^3
# Si number density = 19.569282 Si / 1000 Ang^3
#
#
#
# Elastic Constant Matrix: (Units=GPa)
#
#
# Indices 1 2 3 4 5 6 
#
# 1 120.9370 -6.5549 69.2837 0.0000 -15.8856 0.0000
# 2 -6.5549 25.4030 -13.8251 0.0000 -1.2832 0.0000
# 3 69.2837 -13.8251 115.2234 0.0000 -23.4478 0.0000
# 4 0.0000 0.0000 0.0000 -78.7574 0.0000 14.0989
# 5 -15.8856 -1.2832 -23.4478 0.0000 30.0864 0.0000
# 6 0.0000 0.0000 0.0000 14.0989 0.0000 3.9823
#
#
#
# Elastic Compliance Matrix: (Units=1/GPa)
#
#
# Indices 1 2 3 4 5 6 
#
# 1 0.012649 -0.000805 -0.007547 0.000000 0.000762 0.000000
# 2 -0.000805 0.043376 0.007106 0.000000 0.006963 0.000000
# 3 -0.007547 0.007106 0.015831 0.000000 0.008656 0.000000
# 4 0.000000 0.000000 0.000000 -0.007772 0.000000 0.027515
# 5 0.000762 0.006963 0.008656 0.000000 0.040683 0.000000
# 6 0.000000 0.000000 0.000000 0.027515 0.000000 0.153698
#
#
# Mechanical properties :
#
#
# Convention : Reuss Voigt Hill
#
# Bulk Modulus (GPa) = 14.41695 39.93008 27.17351
# Shear Modulus (GPa) = 17.60063 5.23960 11.42011
#
# Velocity S-wave (km/s) = 3.00225 1.63807 2.41835
# Velocity P-wave (km/s) = 4.40468 4.90168 4.65981
#
# Compressibility (1/GPa) = 0.06936281
#
# Stress axis : x y z
#
# Youngs Moduli (GPa) = 79.05720 23.05399 63.16712
#
# Poissons Ratio (x) = 0.01856 0.47674
# Poissons Ratio (y) = 0.06364 -0.44883
# Poissons Ratio (z) = 0.59667 -0.16381
#
# Static dielectric constant tensor:
#      x y z
#    x 1.692290 0.000000 -0.025180 
#    y 0.000000 1.714150 0.000000 
#    z -0.025180 0.000000 1.680470 
# 
# From -- ./inp_files/93770.got.cif
#   From: 2010.05.17/outbox.cif.g08.bks.cpg/sg10_47_cif.got.tgz:93770.got - 2010.06.03 11:33:40.
