data_PCOD9143885
_publ_section_title
;
Structure prediction by ZEFSAII (Michael W. Deem and Ramdas Pophale) SiO2 
 PCOD9143885
Probable space group: P 2/M
;
_chemical_formula_sum "Si O2"
_cell_formula_units_Z 26
_cell_length_a 12.750776
_cell_length_b 14.737625
_cell_length_c 8.383155
_cell_angle_alpha 90.000000
_cell_angle_beta 61.372567
_cell_angle_gamma 90.000000
_cell_volume 1382.751927
_symmetry_space_group_name_H-M "P 2/M"
_symmetry_group_IT_number 10
_symmetry_cell_setting 'monoclinic'
loop_
_space_group_symop_operation_xyz
x,y,z
-x,y,-z
-x,-y,-z
x,-y,z
loop_
_atom_site_type_symbol
_atom_site_label
_atom_site_fract_x
_atom_site_fract_y
_atom_site_fract_z
Si Si1 0.546129 0.260784 0.642860
Si Si2 0.727038 0.397124 0.665343
Si Si3 0.315798 0.259014 0.026797
Si Si4 0.000000 0.642959 0.500000
Si Si5 0.937147 0.104042 0.380187
Si Si6 0.053428 0.740623 0.122394
Si Si7 0.671737 0.105703 0.708622
O O1 0.500000 0.272867 0.500000
O O2 0.657059 0.328716 0.597373
O O3 0.583753 0.157447 0.653537
O O4 0.435839 0.275490 0.842467
O O5 0.681892 0.500000 0.686761
O O6 0.701457 0.347600 0.851294
O O7 0.871275 0.399923 0.548994
O O8 0.196146 0.247027 0.009360
O O9 0.324686 0.170712 0.137304
O O10 0.030009 0.691374 0.308981
O O11 0.798809 0.110232 0.526162
O O12 0.000000 0.132460 0.500000
O O13 0.982567 0.165832 0.204691
O O14 0.969838 0.000000 0.326612
O O15 0.000000 0.697858 0.000000
O O16 0.645598 0.000000 0.762647
#
# Coordination Sequence:
#
# PCOD9143885 Si02
#       7
#     4   4   4   2   4   4   4
#     4  11  25  39  58  87 126 158 202 248 298 365
#     4  10  21  41  68  89 117 158 197 245 305 359
#     4  10  22  38  58  90 115 156 209 251 290 366
#     4  10  21  40  63  96 122 150 199 246 302 368
#     4  10  18  33  55  83 117 152 198 251 302 357
#     4  11  21  34  62  87 121 162 197 247 313 359
#     4  10  20  38  62  83 115 163 203 250 306 353
#
# _framework density 18.803082
#
# number of rings (size 3 to 8) (size 9 to 14) (size 15 to 20)
#    0.000    1.692    2.308    3.923    4.308    3.385 
#    0.000    0.000    0.000    2.308    0.000    0.000 
#    0.000    0.000    0.000    0.000    0.000    0.000 
#
# Total GULP energy -144808.034991 kJ/mol
# GULP energy per Si atom -5569.539807 kJ/mol
# Density = 1.876029 g / cm^3
# Si number density = 18.803082 Si / 1000 Ang^3
#
#
#
# Elastic Constant Matrix: (Units=GPa)
#
#
# Indices 1 2 3 4 5 6 
#
# 1 111.7384 33.3670 35.6961 0.0000 5.4129 0.0000
# 2 33.3670 90.8716 23.8064 0.0000 -1.2501 0.0000
# 3 35.6961 23.8064 46.9257 0.0000 -5.5345 0.0000
# 4 0.0000 0.0000 0.0000 4.3161 0.0000 -3.5929
# 5 5.4129 -1.2501 -5.5345 0.0000 30.1408 0.0000
# 6 0.0000 0.0000 0.0000 -3.5929 0.0000 11.1144
#
#
#
# Elastic Compliance Matrix: (Units=1/GPa)
#
#
# Indices 1 2 3 4 5 6 
#
# 1 0.012710 -0.002382 -0.008934 0.000000 -0.004022 0.000000
# 2 -0.002382 0.013151 -0.004850 0.000000 0.000083 0.000000
# 3 -0.008934 -0.004850 0.031413 0.000000 0.007171 0.000000
# 4 0.000000 0.000000 0.000000 0.316999 0.000000 0.102475
# 5 -0.004022 0.000083 0.007171 0.000000 0.035220 0.000000
# 6 0.000000 0.000000 0.000000 0.102475 0.000000 0.123100
#
#
# Mechanical properties :
#
#
# Convention : Reuss Voigt Hill
#
# Bulk Modulus (GPa) = 40.09434 48.36386 44.22910
# Shear Modulus (GPa) = 8.72237 19.55865 14.14051
#
# Velocity S-wave (km/s) = 2.15612 3.22869 2.74529
# Velocity P-wave (km/s) = 5.25053 6.29891 5.79846
#
# Compressibility (1/GPa) = 0.02494118
#
# Stress axis : x y z
#
# Youngs Moduli (GPa) = 78.68038 76.04078 31.83393
#
# Poissons Ratio (x) = 0.18110 0.28441
# Poissons Ratio (y) = 0.18738 0.15440
# Poissons Ratio (z) = 0.70295 0.36882
#
# Static dielectric constant tensor:
#      x y z
#    x 1.751900 0.000000 -0.062820 
#    y 0.000000 1.671450 0.000000 
#    z -0.062820 0.000000 1.678940 
# 
# From -- ./inp_files/24806.got.cif
#   From: 2010.05.17/outbox.cif.g08.bks.cpg/sg10_13_cif.got.tgz:24806.got - 2010.06.03 11:33:40.
