data_PCOD9143061
_publ_section_title
;
Structure prediction by ZEFSAII (Michael W. Deem and Ramdas Pophale) SiO2 
 PCOD9143061
Probable space group: P 2/M
;
_chemical_formula_sum "Si O2"
_cell_formula_units_Z 28
_cell_length_a 20.622984
_cell_length_b 7.311326
_cell_length_c 11.152743
_cell_angle_alpha 90.000000
_cell_angle_beta 49.789910
_cell_angle_gamma 90.000000
_cell_volume 1284.227901
_symmetry_space_group_name_H-M "P 2/M"
_symmetry_group_IT_number 10
_symmetry_cell_setting 'monoclinic'
loop_
_space_group_symop_operation_xyz
x,y,z
-x,y,-z
-x,-y,-z
x,-y,z
loop_
_atom_site_type_symbol
_atom_site_label
_atom_site_fract_x
_atom_site_fract_y
_atom_site_fract_z
Si Si1 0.493194 0.790140 0.872672
Si Si2 0.444283 0.212775 0.455150
Si Si3 0.142681 0.720887 0.362475
Si Si4 0.267685 0.279072 0.789213
Si Si5 0.920146 0.723150 0.017999
Si Si6 0.697885 0.722230 0.976078
Si Si7 0.993219 0.278215 0.680515
O O1 0.539956 0.710714 0.697807
O O2 0.394832 0.784791 0.951882
O O3 0.524004 0.000000 0.847712
O O4 0.500000 0.710654 0.000000
O O5 0.500000 0.290808 0.500000
O O6 0.347516 0.222635 0.613977
O O7 0.470700 0.000000 0.414033
O O8 0.150226 0.500000 0.361447
O O9 0.090219 0.782973 0.542164
O O10 0.072985 0.765788 0.344766
O O11 0.232270 0.785016 0.204637
O O12 0.267386 0.500000 0.792121
O O13 0.176663 0.218245 0.846382
O O14 0.279954 0.220747 0.913861
O O15 0.918524 0.500000 0.026087
O O16 0.000000 0.783673 0.000000
O O17 0.947624 0.781647 0.853645
O O18 0.698237 0.500000 0.976367
O O19 0.996721 0.500000 0.679247
#
# Coordination Sequence:
#
# PCOD9143061 Si02
#       7
#     4   4   4   4   4   4   4
#     4  10  22  40  57  73  99 135 171 210 262 318
#     4  10  20  36  58  80 100 131 179 220 254 315
#     4   8  13  22  39  64  92 122 158 200 238 279
#     4  10  19  31  51  80 109 137 173 217 263 304
#     4   9  16  27  42  64 101 141 171 204 250 303
#     4  10  18  30  51  78 106 132 166 214 261 304
#     4   8  12  21  38  59  88 126 163 194 232 283
#
# _framework density 21.802983000000001
#
# number of rings (size 3 to 8) (size 9 to 14) (size 15 to 20)
#    0.000    2.714    2.857    0.857    0.000    1.143 
#    2.571    0.000    0.000    0.429    0.000    3.000 
#    0.000    0.000    0.000    0.000    0.000    0.000 
#
# Total GULP energy -156014.937075 kJ/mol
# GULP energy per Si atom -5571.962038 kJ/mol
# Density = 2.175336 g / cm^3
# Si number density = 21.802983 Si / 1000 Ang^3
#
#
#
# Elastic Constant Matrix: (Units=GPa)
#
#
# Indices 1 2 3 4 5 6 
#
# 1 105.3548 -1.3924 60.0352 0.0000 -9.7569 0.0000
# 2 -1.3924 85.8115 -5.6718 0.0000 5.9032 0.0000
# 3 60.0352 -5.6718 189.9833 0.0000 -24.4616 0.0000
# 4 0.0000 0.0000 0.0000 11.3977 0.0000 -23.8669
# 5 -9.7569 5.9032 -24.4616 0.0000 33.7657 0.0000
# 6 0.0000 0.0000 0.0000 -23.8669 0.0000 -0.1555
#
#
#
# Elastic Compliance Matrix: (Units=1/GPa)
#
#
# Indices 1 2 3 4 5 6 
#
# 1 0.011595 -0.000102 -0.003566 0.000000 0.000785 0.000000
# 2 -0.000102 0.011798 0.000127 0.000000 -0.002000 0.000000
# 3 -0.003566 0.000127 0.006903 0.000000 0.003948 0.000000
# 4 0.000000 0.000000 0.000000 0.000272 0.000000 -0.041769
# 5 0.000785 -0.002000 0.003948 0.000000 0.033052 0.000000
# 6 0.000000 0.000000 0.000000 -0.041769 0.000000 -0.019947
#
#
# Mechanical properties :
#
#
# Convention : Reuss Voigt Hill
#
# Bulk Modulus (GPa) = 43.07772 54.12130 48.59951
# Shear Modulus (GPa) = 85.48055 30.88015 58.18035
#
# Velocity S-wave (km/s) = 6.26825 3.76749 5.17132
# Velocity P-wave (km/s) = 8.49639 6.61832 7.61547
#
# Compressibility (1/GPa) = 0.02321386
#
# Stress axis : x y z
#
# Youngs Moduli (GPa) = 86.24282 84.76177 144.87239
#
# Poissons Ratio (x) = 0.00861 0.51663
# Poissons Ratio (y) = 0.00876 -0.01837
# Poissons Ratio (z) = 0.30755 -0.01075
#
# Static dielectric constant tensor:
#      x y z
#    x 1.542990 0.000000 -0.104180 
#    y 0.000000 1.865090 0.000000 
#    z -0.104180 0.000000 1.741460 
# 
# From -- ./inp_files/55512.got.cif
#   From: 2010.05.17/outbox.cif.g08.bks.cpg/sg10_28_cif.got.tgz:55512.got - 2010.06.03 11:33:40.
