data_PCOD9143571
_publ_section_title
;
Structure prediction by ZEFSAII (Michael W. Deem and Ramdas Pophale) SiO2 
 PCOD9143571
Probable space group: P 2/M
;
_chemical_formula_sum "Si O2"
_cell_formula_units_Z 32
_cell_length_a 19.573141
_cell_length_b 9.165383
_cell_length_c 21.352423
_cell_angle_alpha 90.000000
_cell_angle_beta 156.810685
_cell_angle_gamma 90.000000
_cell_volume 1508.347744
_symmetry_space_group_name_H-M "P 2/M"
_symmetry_group_IT_number 10
_symmetry_cell_setting 'monoclinic'
loop_
_space_group_symop_operation_xyz
x,y,z
-x,y,-z
-x,-y,-z
x,-y,z
loop_
_atom_site_type_symbol
_atom_site_label
_atom_site_fract_x
_atom_site_fract_y
_atom_site_fract_z
Si Si1 0.000676 0.826409 0.691631
Si Si2 0.481570 0.325336 0.623921
Si Si3 0.625355 0.337490 0.158259
Si Si4 0.187872 0.836092 0.588721
Si Si5 0.887370 0.322995 0.964572
Si Si6 0.689722 0.340255 0.015071
Si Si7 0.482401 0.162437 0.223560
Si Si8 0.885674 0.324652 0.724619
O O1 0.926009 0.767741 0.562917
O O2 0.937439 0.749615 0.702295
O O3 0.202034 0.784797 0.860188
O O4 0.967359 0.000000 0.666485
O O5 0.478498 0.500000 0.634643
O O6 0.434464 0.228891 0.644667
O O7 0.322706 0.298647 0.441819
O O8 0.683792 0.284703 0.783204
O O9 0.679328 0.500000 0.181377
O O10 0.780894 0.248148 0.320223
O O11 0.500000 0.269348 0.000000
O O12 0.491040 0.356518 0.101997
O O13 0.372149 0.849476 0.707394
O O14 0.126402 0.000000 0.549429
O O15 0.890892 0.500000 0.969174
O O16 0.989581 0.274295 0.113593
O O17 0.000000 0.274630 0.000000
O O18 0.774166 0.500000 0.086705
O O19 0.654178 0.281416 0.915742
O O20 0.410312 0.000000 0.172921
O O21 0.904559 0.500000 0.735228
#
# Coordination Sequence:
#
# PCOD9143571 Si02
#       8
#     4   4   4   4   4   4   4   4
#     4  11  21  35  53  79 112 141 173 217 274 333
#     4  10  19  31  52  80 107 139 182 228 277 331
#     4   9  19  36  56  77 102 137 181 222 263 315
#     4   9  19  33  51  76 105 137 173 214 261 317
#     4   9  19  35  52  74 107 143 183 232 277 324
#     4  10  20  33  52  78 107 139 176 222 270 320
#     4  10  18  32  52  76 105 138 174 216 270 325
#     4  10  20  33  54  82 109 141 182 229 281 333
#
# _framework density 21.215268999999999
#
# number of rings (size 3 to 8) (size 9 to 14) (size 15 to 20)
#    0.000    2.250    1.250    1.875    0.000    3.750 
#    0.000    3.125    0.000    5.250    0.000    1.750 
#    0.000    0.000    0.000    0.000    0.000    0.000 
#
# Total GULP energy -178175.831419 kJ/mol
# GULP energy per Si atom -5567.994732 kJ/mol
# Density = 2.116698 g / cm^3
# Si number density = 21.215269 Si / 1000 Ang^3
#
#
#
# Elastic Constant Matrix: (Units=GPa)
#
#
# Indices 1 2 3 4 5 6 
#
# 1 46.6042 11.7635 22.0255 0.0000 -2.9151 0.0000
# 2 11.7635 28.2343 11.8521 0.0000 -4.7287 0.0000
# 3 22.0255 11.8521 97.5036 0.0000 -12.0387 0.0000
# 4 0.0000 0.0000 0.0000 10.7688 0.0000 5.5956
# 5 -2.9151 -4.7287 -12.0387 0.0000 27.5458 0.0000
# 6 0.0000 0.0000 0.0000 5.5956 0.0000 -4.1012
#
#
#
# Elastic Compliance Matrix: (Units=1/GPa)
#
#
# Indices 1 2 3 4 5 6 
#
# 1 0.025964 -0.008917 -0.004895 0.000000 -0.000922 0.000000
# 2 -0.008917 0.040964 -0.002340 0.000000 0.005066 0.000000
# 3 -0.004895 -0.002340 0.012190 0.000000 0.004408 0.000000
# 4 0.000000 0.000000 0.000000 0.054338 0.000000 0.074137
# 5 -0.000922 0.005066 0.004408 0.000000 0.039002 0.000000
# 6 0.000000 0.000000 0.000000 0.074137 0.000000 -0.142678
#
#
# Mechanical properties :
#
#
# Convention : Reuss Voigt Hill
#
# Bulk Modulus (GPa) = 21.36095 29.29159 25.32627
# Shear Modulus (GPa) = 64.36005 15.28941 39.82473
#
# Velocity S-wave (km/s) = 5.51385 2.68746 4.33734
# Velocity P-wave (km/s) = 7.11528 4.84425 6.08662
#
# Compressibility (1/GPa) = 0.04681440
#
# Stress axis : x y z
#
# Youngs Moduli (GPa) = 38.51519 24.41192 82.03151
#
# Poissons Ratio (x) = 0.21768 0.40155
# Poissons Ratio (y) = 0.34345 0.19192
# Poissons Ratio (z) = 0.18853 0.05711
#
# Static dielectric constant tensor:
#      x y z
#    x 1.806080 0.000000 0.030570 
#    y 0.000000 1.772360 0.000000 
#    z 0.030570 0.000000 1.849780 
# 
# From -- ./inp_files/90655.got.cif
#   From: 2010.05.17/outbox.cif.g08.bks.cpg/sg10_46_cif.got.tgz:90655.got - 2010.06.03 11:33:40.
