data_PCOD9143138
_publ_section_title
;
Structure prediction by ZEFSAII (Michael W. Deem and Ramdas Pophale) SiO2 
 PCOD9143138
Probable space group: P 2/M
;
_chemical_formula_sum "Si O2"
_cell_formula_units_Z 28
_cell_length_a 12.228809
_cell_length_b 7.368051
_cell_length_c 16.090505
_cell_angle_alpha 90.000000
_cell_angle_beta 123.017112
_cell_angle_gamma 90.000000
_cell_volume 1215.664129
_symmetry_space_group_name_H-M "P 2/M"
_symmetry_group_IT_number 10
_symmetry_cell_setting 'monoclinic'
loop_
_space_group_symop_operation_xyz
x,y,z
-x,y,-z
-x,-y,-z
x,-y,z
loop_
_atom_site_type_symbol
_atom_site_label
_atom_site_fract_x
_atom_site_fract_y
_atom_site_fract_z
Si Si1 0.674911 0.722437 0.735986
Si Si2 0.411140 0.290774 0.694896
Si Si3 0.428412 0.207891 0.889196
Si Si4 0.843550 0.280181 0.147150
Si Si5 0.137682 0.721735 0.520432
Si Si6 0.869699 0.279070 0.673733
Si Si7 0.146375 0.720809 0.036761
O O1 0.673502 0.500000 0.734800
O O2 0.527266 0.786830 0.687064
O O3 0.755852 0.780153 0.688922
O O4 0.755308 0.778242 0.851036
O O5 0.400332 0.500000 0.664634
O O6 0.452433 0.288532 0.808537
O O7 0.266338 0.214911 0.622536
O O8 0.274587 0.217342 0.844564
O O9 0.471669 0.000000 0.901217
O O10 0.500000 0.289188 0.000000
O O11 0.842124 0.500000 0.148849
O O12 0.987236 0.222031 0.235309
O O13 0.819951 0.221281 0.042423
O O14 0.132981 0.500000 0.522416
O O15 0.150217 0.774286 0.429458
O O16 0.000000 0.784623 0.500000
O O17 0.870504 0.500000 0.676382
O O18 0.146728 0.500000 0.036280
O O19 0.000000 0.776513 0.000000
#
# Coordination Sequence:
#
# PCOD9143138 Si02
#       7
#     4   4   4   4   4   4   4
#     4   9  16  26  43  74 109 135 167 211 258 307
#     4  10  20  34  54  78 103 134 175 219 256 301
#     4  11  24  39  53  72 103 138 171 211 262 314
#     4  10  18  30  54  80 103 136 175 213 253 303
#     4   9  17  29  46  72 107 140 172 212 258 303
#     4   9  16  27  47  78 111 138 165 208 264 307
#     4   9  14  23  41  71 106 132 159 202 254 301
#
# _framework density 23.032679999999999
#
# number of rings (size 3 to 8) (size 9 to 14) (size 15 to 20)
#    0.000    2.429    1.429    2.143    0.000    5.143 
#    0.000    2.857    0.000    5.143    0.000    1.000 
#    0.000    0.000    0.000    0.000    0.000    0.000 
#
# Total GULP energy -156505.624685 kJ/mol
# GULP energy per Si atom -5589.486596 kJ/mol
# Density = 2.298026 g / cm^3
# Si number density = 23.032680 Si / 1000 Ang^3
#
#
#
# Elastic Constant Matrix: (Units=GPa)
#
#
# Indices 1 2 3 4 5 6 
#
# 1 180.8787 -2.9219 67.6307 0.0000 8.4157 0.0000
# 2 -2.9219 80.5117 0.8138 0.0000 5.0633 0.0000
# 3 67.6307 0.8138 124.5500 0.0000 3.1147 0.0000
# 4 0.0000 0.0000 0.0000 -19.4233 0.0000 16.8682
# 5 8.4157 5.0633 3.1147 0.0000 38.1009 0.0000
# 6 0.0000 0.0000 0.0000 16.8682 0.0000 16.4565
#
#
#
# Elastic Compliance Matrix: (Units=1/GPa)
#
#
# Indices 1 2 3 4 5 6 
#
# 1 0.007006 0.000373 -0.003774 0.000000 -0.001289 0.000000
# 2 0.000373 0.012545 -0.000241 0.000000 -0.001730 0.000000
# 3 -0.003774 -0.000241 0.010079 0.000000 0.000042 0.000000
# 4 0.000000 0.000000 0.000000 -0.027238 0.000000 0.027919
# 5 -0.001289 -0.001730 0.000042 0.000000 0.026757 0.000000
# 6 0.000000 0.000000 0.000000 0.027919 0.000000 0.032148
#
#
# Mechanical properties :
#
#
# Convention : Reuss Voigt Hill
#
# Bulk Modulus (GPa) = 44.75232 57.44286 51.09759
# Shear Modulus (GPa) = 65.76263 28.38798 47.07531
#
# Velocity S-wave (km/s) = 5.34919 3.51452 4.52580
# Velocity P-wave (km/s) = 7.59104 6.43918 7.03871
#
# Compressibility (1/GPa) = 0.02234521
#
# Stress axis : x y z
#
# Youngs Moduli (GPa) = 142.73911 79.71086 99.21697
#
# Poissons Ratio (x) = -0.02977 0.37448
# Poissons Ratio (y) = -0.05330 0.02396
# Poissons Ratio (z) = 0.53875 0.01925
#
# Static dielectric constant tensor:
#      x y z
#    x 1.828110 0.000000 0.018460 
#    y 0.000000 1.895230 0.000000 
#    z 0.018460 0.000000 1.817780 
# 
# From -- ./inp_files/63905.got.cif
#   From: 2010.05.17/outbox.cif.g08.bks.cpg/sg10_32_cif.got.tgz:63905.got - 2010.06.03 11:33:40.
