data_PCOD9143926
_publ_section_title
;
Structure prediction by ZEFSAII (Michael W. Deem and Ramdas Pophale) SiO2 
 PCOD9143926
Probable space group: P 2/M
;
_chemical_formula_sum "Si O2"
_cell_formula_units_Z 32
_cell_length_a 12.400669
_cell_length_b 14.841064
_cell_length_c 15.182649
_cell_angle_alpha 90.000000
_cell_angle_beta 29.395283
_cell_angle_gamma 90.000000
_cell_volume 1371.483536
_symmetry_space_group_name_H-M "P 2/M"
_symmetry_group_IT_number 10
_symmetry_cell_setting 'monoclinic'
loop_
_space_group_symop_operation_xyz
x,y,z
-x,y,-z
-x,-y,-z
x,-y,z
loop_
_atom_site_type_symbol
_atom_site_label
_atom_site_fract_x
_atom_site_fract_y
_atom_site_fract_z
Si Si1 0.606830 0.795928 0.173301
Si Si2 0.318564 0.602372 0.562741
Si Si3 0.800039 0.389373 0.533255
Si Si4 0.148832 0.892040 0.480944
Si Si5 0.070057 0.899664 0.175093
Si Si6 0.300065 0.390318 0.201153
Si Si7 0.273092 0.167333 0.714682
Si Si8 0.039472 0.343601 0.065369
O O1 0.358276 0.826331 0.333660
O O2 0.676269 0.844528 0.217427
O O3 0.742666 0.835662 0.994669
O O4 0.717460 0.695865 0.100674
O O5 0.500000 0.638633 0.500000
O O6 0.389780 0.500000 0.496354
O O7 0.311526 0.649582 0.474289
O O8 0.072069 0.602044 0.776694
O O9 0.800325 0.500000 0.530481
O O10 0.689441 0.365470 0.703802
O O11 0.055190 0.362113 0.348220
O O12 0.000000 0.876569 0.500000
O O13 0.023405 0.875025 0.662608
O O14 0.209137 0.000000 0.438141
O O15 0.878651 0.897620 0.236572
O O16 0.160202 0.000000 0.117597
O O17 0.303855 0.500000 0.193869
O O18 0.500000 0.356098 0.000000
O O19 0.500000 0.172211 0.500000
O O20 0.123311 0.257196 0.820374
O O21 0.000000 0.391045 0.000000
#
# Coordination Sequence:
#
# PCOD9143926 Si02
#       8
#     4   4   4   4   4   4   4   4
#     4  10  20  36  57  84 117 155 204 250 294 346
#     4  10  20  36  56  85 123 156 187 236 307 379
#     4   8  15  28  47  76 108 139 176 218 273 343
#     4  10  21  36  56  88 128 168 204 236 287 351
#     4  10  20  32  52  86 122 160 199 241 293 341
#     4   8  13  25  48  75 102 136 177 216 261 326
#     4  10  18  33  57  83 112 150 200 248 297 349
#     4   9  20  36  56  83 110 150 202 246 295 361
#
# _framework density 23.332398000000001
#
# number of rings (size 3 to 8) (size 9 to 14) (size 15 to 20)
#    0.000    2.625    1.250    2.625    0.000    2.500 
#    2.250    1.875    0.000    0.000   19.500    0.000 
#    0.000    0.500    0.000    0.000    0.000    0.000 
#
# Total GULP energy -178597.203882 kJ/mol
# GULP energy per Si atom -5581.162621 kJ/mol
# Density = 2.327929 g / cm^3
# Si number density = 23.332398 Si / 1000 Ang^3
#
#
#
# Elastic Constant Matrix: (Units=GPa)
#
#
# Indices 1 2 3 4 5 6 
#
# 1 176.3408 20.4071 74.9247 0.0000 3.8278 0.0000
# 2 20.4071 48.2810 14.6765 0.0000 -6.1711 0.0000
# 3 74.9247 14.6765 162.3829 0.0000 9.7197 0.0000
# 4 0.0000 0.0000 0.0000 25.2032 0.0000 3.2890
# 5 3.8278 -6.1711 9.7197 0.0000 23.8810 0.0000
# 6 0.0000 0.0000 0.0000 3.2890 0.0000 0.0666
#
#
#
# Elastic Compliance Matrix: (Units=1/GPa)
#
#
# Indices 1 2 3 4 5 6 
#
# 1 0.007261 -0.002177 -0.003126 0.000000 -0.000454 0.000000
# 2 -0.002177 0.022963 -0.001483 0.000000 0.006887 0.000000
# 3 -0.003126 -0.001483 0.007921 0.000000 -0.003106 0.000000
# 4 0.000000 0.000000 0.000000 -0.007286 0.000000 0.359877
# 5 -0.000454 0.006887 -0.003106 0.000000 0.044991 0.000000
# 6 0.000000 0.000000 0.000000 0.359877 0.000000 -2.757676
#
#
# Mechanical properties :
#
#
# Convention : Reuss Voigt Hill
#
# Bulk Modulus (GPa) = 40.69635 67.44682 54.07159
# Shear Modulus (GPa) = -1.87965 28.29658 13.20846
#
# Velocity S-wave (km/s) = -0.89853 3.48625 2.38187
# Velocity P-wave (km/s) = 4.05011 6.72123 5.54880
#
# Compressibility (1/GPa) = 0.02457223
#
# Stress axis : x y z
#
# Youngs Moduli (GPa) = 137.72347 43.54788 126.25008
#
# Poissons Ratio (x) = 0.09479 0.39470
# Poissons Ratio (y) = 0.29978 0.18727
# Poissons Ratio (z) = 0.43057 0.06460
#
# Static dielectric constant tensor:
#      x y z
#    x 1.923510 0.000000 -0.000860 
#    y 0.000000 1.880450 0.000000 
#    z -0.000860 0.000000 1.886060 
# 
# From -- ./inp_files/65377.got.cif
#   From: 2010.05.17/outbox.cif.g08.bks.cpg/sg10_33_cif.got.tgz:65377.got - 2010.06.03 11:33:40.
