data_PCOD9143541
_publ_section_title
;
Structure prediction by ZEFSAII (Michael W. Deem and Ramdas Pophale) SiO2 
 PCOD9143541
Probable space group: P 2/M
;
_chemical_formula_sum "Si O2"
_cell_formula_units_Z 32
_cell_length_a 12.183405
_cell_length_b 14.454453
_cell_length_c 15.424589
_cell_angle_alpha 90.000000
_cell_angle_beta 140.057399
_cell_angle_gamma 90.000000
_cell_volume 1743.943488
_symmetry_space_group_name_H-M "P 2/M"
_symmetry_group_IT_number 10
_symmetry_cell_setting 'monoclinic'
loop_
_space_group_symop_operation_xyz
x,y,z
-x,y,-z
-x,-y,-z
x,-y,z
loop_
_atom_site_type_symbol
_atom_site_label
_atom_site_fract_x
_atom_site_fract_y
_atom_site_fract_z
Si Si1 0.853853 0.896771 0.483016
Si Si2 0.908119 0.161161 0.227225
Si Si3 0.323781 0.609756 0.442691
Si Si4 0.058878 0.283543 0.172607
Si Si5 0.370772 0.728823 0.845833
Si Si6 0.357563 0.707587 0.645128
Si Si7 0.611107 0.896297 0.929718
Si Si8 0.743815 0.753620 0.878380
O O1 0.722326 0.811501 0.406000
O O2 0.000000 0.878937 0.500000
O O3 0.964211 0.894954 0.636756
O O4 0.781757 0.000000 0.425522
O O5 0.807806 0.241217 0.219818
O O6 0.019142 0.208327 0.220598
O O7 0.755362 0.104745 0.091122
O O8 0.500000 0.640812 0.500000
O O9 0.335081 0.500000 0.460475
O O10 0.168117 0.637180 0.284730
O O11 0.294746 0.654620 0.520658
O O12 0.166876 0.239866 0.159762
O O13 0.873250 0.304343 0.018132
O O14 0.335083 0.676292 0.732886
O O15 0.468006 0.823237 0.873836
O O16 0.500000 0.690636 0.000000
O O17 0.561360 0.707154 0.757763
O O18 0.702329 0.850085 0.901522
O O19 0.549918 0.000000 0.879494
#
# Coordination Sequence:
#
# PCOD9143541 Si02
#       8
#     4   4   4   4   4   4   4   4
#     4  11  22  33  52  84 120 161 203 242 290 344
#     4  10  18  32  51  77 112 157 196 242 292 339
#     4  11  23  40  67  95 117 149 195 247 307 368
#     4  10  19  38  60  81 118 151 192 240 294 353
#     4   9  19  32  53  83 111 159 203 238 298 344
#     4  11  20  38  61  85 125 156 192 253 302 349
#     4   9  18  31  50  77 113 154 209 258 288 335
#     4   9  20  35  57  83 110 164 197 236 303 356
#
# _framework density 18.349218
#
# number of rings (size 3 to 8) (size 9 to 14) (size 15 to 20)
#    0.000    2.000    3.750    1.125    0.000    4.750 
#    0.000    7.500    0.000    4.875    0.000    0.000 
#    0.000    0.000    0.000    0.000    0.000    0.000 
#
# Total GULP energy -178149.650401 kJ/mol
# GULP energy per Si atom -5567.176575 kJ/mol
# Density = 1.830745 g / cm^3
# Si number density = 18.349218 Si / 1000 Ang^3
#
#
#
# Elastic Constant Matrix: (Units=GPa)
#
#
# Indices 1 2 3 4 5 6 
#
# 1 88.7435 21.7037 37.1171 0.0000 -26.5156 0.0000
# 2 21.7037 37.4797 22.3387 0.0000 -9.4699 0.0000
# 3 37.1171 22.3387 109.6473 0.0000 -11.0524 0.0000
# 4 0.0000 0.0000 0.0000 6.2838 0.0000 6.0886
# 5 -26.5156 -9.4699 -11.0524 0.0000 31.1579 0.0000
# 6 0.0000 0.0000 0.0000 6.0886 0.0000 13.2114
#
#
#
# Elastic Compliance Matrix: (Units=1/GPa)
#
#
# Indices 1 2 3 4 5 6 
#
# 1 0.017697 -0.004919 -0.003756 0.000000 0.012233 0.000000
# 2 -0.004919 0.033424 -0.004711 0.000000 0.004302 0.000000
# 3 -0.003756 -0.004711 0.011288 0.000000 -0.000624 0.000000
# 4 0.000000 0.000000 0.000000 0.287538 0.000000 -0.132515
# 5 0.012233 0.004302 -0.000624 0.000000 0.043592 0.000000
# 6 0.000000 0.000000 0.000000 -0.132515 0.000000 0.136763
#
#
# Mechanical properties :
#
#
# Convention : Reuss Voigt Hill
#
# Bulk Modulus (GPa) = 28.05883 44.24326 36.15105
# Shear Modulus (GPa) = 8.78807 20.44469 14.61638
#
# Velocity S-wave (km/s) = 2.19083 3.34158 2.82541
# Velocity P-wave (km/s) = 4.66095 6.24919 5.51257
#
# Compressibility (1/GPa) = 0.03563941
#
# Stress axis : x y z
#
# Youngs Moduli (GPa) = 56.50554 29.91846 88.58688
#
# Poissons Ratio (x) = 0.14716 0.33269
# Poissons Ratio (y) = 0.27794 0.41732
# Poissons Ratio (z) = 0.21221 0.14094
#
# Static dielectric constant tensor:
#      x y z
#    x 1.726280 0.000000 -0.095710 
#    y 0.000000 1.609100 0.000000 
#    z -0.095710 0.000000 1.760000 
# 
# From -- ./inp_files/65122.got.cif
#   From: 2010.05.17/outbox.cif.g08.bks.cpg/sg10_33_cif.got.tgz:65122.got - 2010.06.03 11:33:40.
