data_PCOD9143223
_publ_section_title
;
Structure prediction by ZEFSAII (Michael W. Deem and Ramdas Pophale) SiO2 
 PCOD9143223
Probable space group: P 2/M
;
_chemical_formula_sum "Si O2"
_cell_formula_units_Z 32
_cell_length_a 19.831475
_cell_length_b 7.325199
_cell_length_c 25.772564
_cell_angle_alpha 90.000000
_cell_angle_beta 157.972853
_cell_angle_gamma 90.000000
_cell_volume 1404.159496
_symmetry_space_group_name_H-M "P 2/M"
_symmetry_group_IT_number 10
_symmetry_cell_setting 'monoclinic'
loop_
_space_group_symop_operation_xyz
x,y,z
-x,y,-z
-x,-y,-z
x,-y,z
loop_
_atom_site_type_symbol
_atom_site_label
_atom_site_fract_x
_atom_site_fract_y
_atom_site_fract_z
Si Si1 0.292551 0.777455 0.353583
Si Si2 0.939913 0.222759 0.711358
Si Si3 0.650918 0.778944 0.974061
Si Si4 0.629458 0.222746 0.840727
Si Si5 0.736183 0.214511 0.463587
Si Si6 0.989446 0.222516 0.933084
Si Si7 0.996857 0.720300 0.438224
Si Si8 0.377796 0.708797 0.868682
O O1 0.500000 0.718317 0.500000
O O2 0.183108 0.722781 0.327284
O O3 0.179445 0.719861 0.222262
O O4 0.294032 0.000000 0.354946
O O5 0.852525 0.286292 0.594824
O O6 0.943847 0.000000 0.714282
O O7 0.147330 0.279500 0.866372
O O8 0.607663 0.722617 0.884727
O O9 0.498797 0.709309 0.903890
O O10 0.647478 0.000000 0.973778
O O11 0.464728 0.287380 0.687893
O O12 0.627193 0.000000 0.838169
O O13 0.825450 0.278605 0.961886
O O14 0.838624 0.233015 0.481879
O O15 0.716839 0.000000 0.460715
O O16 0.984633 0.000000 0.929946
O O17 0.000000 0.282135 0.000000
O O18 0.988200 0.500000 0.434403
O O19 0.815476 0.789727 0.281444
O O20 0.000000 0.784692 0.500000
O O21 0.341867 0.500000 0.859936
O O22 0.500000 0.796545 0.000000
#
# Coordination Sequence:
#
# PCOD9143223 Si02
#       8
#     4   4   4   4   4   4   4   4
#     4   9  16  25  39  61  93 133 166 191 229 283
#     4   9  17  29  43  65  98 129 160 199 240 281
#     4  10  18  31  50  68  93 129 159 191 239 289
#     4   9  17  29  43  65  96 127 160 199 239 275
#     4  10  20  31  48  72  97 127 161 199 241 286
#     4   9  16  25  39  61  93 132 166 193 229 281
#     4  10  21  37  53  70  96 127 158 198 246 289
#     4  10  21  35  51  72  96 121 154 200 244 281
#
# _framework density 22.789432999999999
#
# number of rings (size 3 to 8) (size 9 to 14) (size 15 to 20)
#    0.000    2.500    1.250    1.500    1.750    1.000 
#    0.000    0.000    0.000    0.000    0.000    0.000 
#    0.000    6.000    0.000    0.000    0.000    0.000 
#
# Total GULP energy -178846.240092 kJ/mol
# GULP energy per Si atom -5588.945003 kJ/mol
# Density = 2.273756 g / cm^3
# Si number density = 22.789433 Si / 1000 Ang^3
#
#
#
# Elastic Constant Matrix: (Units=GPa)
#
#
# Indices 1 2 3 4 5 6 
#
# 1 70.6384 -15.4798 13.2413 0.0000 -9.1335 0.0000
# 2 -15.4798 90.5261 0.8067 0.0000 -5.6935 0.0000
# 3 13.2413 0.8067 153.5149 0.0000 -5.3300 0.0000
# 4 0.0000 0.0000 0.0000 -16.4851 0.0000 37.4411
# 5 -9.1335 -5.6935 -5.3300 0.0000 45.1443 0.0000
# 6 0.0000 0.0000 0.0000 37.4411 0.0000 85.0321
#
#
#
# Elastic Compliance Matrix: (Units=1/GPa)
#
#
# Indices 1 2 3 4 5 6 
#
# 1 0.015447 0.002862 -0.001231 0.000000 0.003341 0.000000
# 2 0.002862 0.011665 -0.000238 0.000000 0.002022 0.000000
# 3 -0.001231 -0.000238 0.006639 0.000000 0.000505 0.000000
# 4 0.000000 0.000000 0.000000 -0.030330 0.000000 0.013355
# 5 0.003341 0.002022 0.000505 0.000000 0.023142 0.000000
# 6 0.000000 0.000000 0.000000 0.013355 0.000000 0.005880
#
#
# Mechanical properties :
#
#
# Convention : Reuss Voigt Hill
#
# Bulk Modulus (GPa) = 27.36942 34.64620 31.00781
# Shear Modulus (GPa) = 119.51425 43.81234 81.66330
#
# Velocity S-wave (km/s) = 7.24960 4.38937 5.99263
# Velocity P-wave (km/s) = 9.06153 6.39723 7.84334
#
# Compressibility (1/GPa) = 0.03653712
#
# Stress axis : x y z
#
# Youngs Moduli (GPa) = 64.73884 85.72420 150.62488
#
# Poissons Ratio (x) = -0.24538 0.18548
# Poissons Ratio (y) = -0.18531 0.03585
# Poissons Ratio (z) = 0.07972 0.02040
#
# Static dielectric constant tensor:
#      x y z
#    x 1.790810 0.000000 -0.027270 
#    y 0.000000 1.871530 0.000000 
#    z -0.027270 0.000000 1.817700 
# 
# From -- ./inp_files/32163.got.cif
#   From: 2010.05.17/outbox.cif.g08.bks.cpg/sg10_17_cif.got.tgz:32163.got - 2010.06.03 11:33:40.
