data_PCOD9143695
_publ_section_title
;
Structure prediction by ZEFSAII (Michael W. Deem and Ramdas Pophale) SiO2 
 PCOD9143695
Probable space group: P 2/M
;
_chemical_formula_sum "Si O2"
_cell_formula_units_Z 28
_cell_length_a 20.449519
_cell_length_b 7.361354
_cell_length_c 23.551569
_cell_angle_alpha 90.000000
_cell_angle_beta 159.623947
_cell_angle_gamma 90.000000
_cell_volume 1234.425290
_symmetry_space_group_name_H-M "P 2/M"
_symmetry_group_IT_number 10
_symmetry_cell_setting 'monoclinic'
loop_
_space_group_symop_operation_xyz
x,y,z
-x,y,-z
-x,-y,-z
x,-y,z
loop_
_atom_site_type_symbol
_atom_site_label
_atom_site_fract_x
_atom_site_fract_y
_atom_site_fract_z
Si Si1 0.045629 0.278758 0.392693
Si Si2 0.749577 0.709743 0.965600
Si Si3 0.845040 0.206508 0.915874
Si Si4 0.397708 0.278554 0.745436
Si Si5 0.611127 0.721315 0.034027
Si Si6 0.477092 0.279525 0.546316
Si Si7 0.881074 0.278129 0.673803
O O1 0.039357 0.500000 0.389581
O O2 0.187725 0.218244 0.557920
O O3 0.136759 0.227995 0.406313
O O4 0.828521 0.218965 0.214963
O O5 0.741324 0.500000 0.976508
O O6 0.806181 0.713964 0.946026
O O7 0.544737 0.779460 0.815769
O O8 0.919967 0.788853 0.140552
O O9 0.651590 0.212696 0.724657
O O10 0.906787 0.000000 0.977109
O O11 0.000000 0.291200 0.000000
O O12 0.386129 0.500000 0.737685
O O13 0.496023 0.221201 0.884257
O O14 0.615767 0.500000 0.035665
O O15 0.500000 0.774612 0.000000
O O16 0.500000 0.221656 0.500000
O O17 0.481077 0.500000 0.550350
O O18 0.285861 0.219891 0.420842
O O19 0.880625 0.500000 0.675300
#
# Coordination Sequence:
#
# PCOD9143695 Si02
#       7
#     4   4   4   4   4   4   4
#     4   9  15  24  38  59  91 128 168 208 248 303
#     4  10  18  32  55  76  96 127 171 218 260 304
#     4  11  24  38  50  70 103 138 169 206 260 317
#     4   9  16  26  43  67  92 126 169 212 259 300
#     4   9  16  25  36  57  95 137 171 203 248 311
#     4  10  20  34  53  77  99 126 171 218 259 306
#     4   9  16  28  48  73  97 122 161 218 266 299
#
# _framework density 22.68262
#
# number of rings (size 3 to 8) (size 9 to 14) (size 15 to 20)
#    0.000    2.429    1.429    2.143    0.000    5.429 
#    0.000    3.571    0.000    0.000    0.000    0.000 
#    0.000    0.571    0.000    4.000    0.000    4.286 
#
# Total GULP energy -156368.745608 kJ/mol
# GULP energy per Si atom -5584.598057 kJ/mol
# Density = 2.263099 g / cm^3
# Si number density = 22.682620 Si / 1000 Ang^3
#
#
#
# Elastic Constant Matrix: (Units=GPa)
#
#
# Indices 1 2 3 4 5 6 
#
# 1 145.1191 -0.2708 87.4280 0.0000 3.9685 0.0000
# 2 -0.2708 77.8853 0.0941 0.0000 2.3638 0.0000
# 3 87.4280 0.0941 196.0221 0.0000 -11.2310 0.0000
# 4 0.0000 0.0000 0.0000 29.5607 0.0000 -47.3738
# 5 3.9685 2.3638 -11.2310 0.0000 33.1015 0.0000
# 6 0.0000 0.0000 0.0000 -47.3738 0.0000 18.2040
#
#
#
# Elastic Compliance Matrix: (Units=1/GPa)
#
#
# Indices 1 2 3 4 5 6 
#
# 1 0.009650 0.000120 -0.004457 0.000000 -0.002678 0.000000
# 2 0.000120 0.012869 -0.000116 0.000000 -0.000973 0.000000
# 3 -0.004457 -0.000116 0.007262 0.000000 0.003006 0.000000
# 4 0.000000 0.000000 0.000000 -0.010670 0.000000 -0.027766
# 5 -0.002678 -0.000973 0.003006 0.000000 0.031621 0.000000
# 6 0.000000 0.000000 0.000000 -0.027766 0.000000 -0.017326
#
#
# Mechanical properties :
#
#
# Convention : Reuss Voigt Hill
#
# Bulk Modulus (GPa) = 47.90269 65.94768 56.92518
# Shear Modulus (GPa) = 101.48171 38.29158 69.88664
#
# Velocity S-wave (km/s) = 6.69604 4.11316 5.55676
# Velocity P-wave (km/s) = 8.99706 7.18990 8.14377
#
# Compressibility (1/GPa) = 0.02087565
#
# Stress axis : x y z
#
# Youngs Moduli (GPa) = 103.63002 77.70328 137.70674
#
# Poissons Ratio (x) = -0.00934 0.61381
# Poissons Ratio (y) = -0.01246 0.01591
# Poissons Ratio (z) = 0.46192 0.00898
#
# Static dielectric constant tensor:
#      x y z
#    x 1.816440 0.000000 0.017570 
#    y 0.000000 1.873820 0.000000 
#    z 0.017570 0.000000 1.808510 
# 
# From -- ./inp_files/37906.got.cif
#   From: 2010.05.17/outbox.cif.g08.bks.cpg/sg10_19_cif.got.tgz:37906.got - 2010.06.03 11:33:40.
