data_PCOD9143215
_publ_section_title
;
Structure prediction by ZEFSAII (Michael W. Deem and Ramdas Pophale) SiO2 
 PCOD9143215
Probable space group: P 2/M
;
_chemical_formula_sum "Si O2"
_cell_formula_units_Z 32
_cell_length_a 11.633915
_cell_length_b 8.670903
_cell_length_c 21.980521
_cell_angle_alpha 90.000000
_cell_angle_beta 116.332106
_cell_angle_gamma 90.000000
_cell_volume 1987.245656
_symmetry_space_group_name_H-M "P 2/M"
_symmetry_group_IT_number 10
_symmetry_cell_setting 'monoclinic'
loop_
_space_group_symop_operation_xyz
x,y,z
-x,y,-z
-x,-y,-z
x,-y,z
loop_
_atom_site_type_symbol
_atom_site_label
_atom_site_fract_x
_atom_site_fract_y
_atom_site_fract_z
Si Si1 0.206203 0.184529 0.703642
Si Si2 0.531597 0.185679 0.601419
Si Si3 0.694538 0.684975 0.532650
Si Si4 0.508496 0.812838 0.271417
Si Si5 0.984201 0.314161 0.566587
Si Si6 0.284587 0.314792 0.843682
Si Si7 0.646350 0.316055 0.011986
Si Si8 0.435434 0.815520 0.125868
O O1 0.344813 0.235665 0.708878
O O2 0.195176 0.249786 0.769593
O O3 0.093124 0.241318 0.634055
O O4 0.208109 0.000000 0.707109
O O5 0.398197 0.238846 0.539361
O O6 0.641615 0.257500 0.584979
O O7 0.534514 0.238542 0.672102
O O8 0.539375 0.000000 0.600557
O O9 0.681112 0.500000 0.525571
O O10 0.841756 0.726559 0.555635
O O11 0.420230 0.768572 0.192967
O O12 0.510172 0.000000 0.273472
O O13 0.996867 0.500000 0.572295
O O14 0.000000 0.267020 0.500000
O O15 0.285033 0.500000 0.841829
O O16 0.266072 0.267815 0.910046
O O17 0.425726 0.253507 0.858928
O O18 0.656026 0.500000 0.007188
O O19 0.500000 0.283080 0.000000
O O20 0.660328 0.240774 0.949184
O O21 0.443006 0.000000 0.124990
#
# Coordination Sequence:
#
# PCOD9143215 Si02
#       8
#     4   4   4   4   4   4   4   4
#     4  10  19  30  45  65  88 113 147 186 218 253
#     4  10  18  31  50  66  85 114 146 176 214 261
#     4  10  20  33  47  66  89 109 140 182 217 253
#     4   8  16  28  41  62  89 115 143 178 217 254
#     4  10  21  35  49  65  88 118 146 174 215 263
#     4   9  16  26  38  53  80 115 147 177 212 256
#     4   8  14  23  34  51  77 111 146 176 209 252
#     4   9  15  23  36  56  82 110 143 181 216 250
#
# _framework density 16.102689999999999
#
# number of rings (size 3 to 8) (size 9 to 14) (size 15 to 20)
#    0.000    2.750    0.000    4.875    0.000    4.000 
#    0.000    6.875    0.000    0.000    0.000    0.000 
#    0.000    1.000    0.000   11.250    0.000    7.125 
#
# Total GULP energy -178159.228072 kJ/mol
# GULP energy per Si atom -5567.475877 kJ/mol
# Density = 1.606604 g / cm^3
# Si number density = 16.102690 Si / 1000 Ang^3
#
#
#
# Elastic Constant Matrix: (Units=GPa)
#
#
# Indices 1 2 3 4 5 6 
#
# 1 48.7168 18.3533 53.7502 0.0000 -12.3868 0.0000
# 2 18.3533 30.5132 36.6345 0.0000 -2.1827 0.0000
# 3 53.7502 36.6345 178.9804 0.0000 -28.2508 0.0000
# 4 0.0000 0.0000 0.0000 21.0854 0.0000 8.5902
# 5 -12.3868 -2.1827 -28.2508 0.0000 20.6262 0.0000
# 6 0.0000 0.0000 0.0000 8.5902 0.0000 3.2785
#
#
#
# Elastic Compliance Matrix: (Units=1/GPa)
#
#
# Indices 1 2 3 4 5 6 
#
# 1 0.034976 -0.012944 -0.006067 0.000000 0.011325 0.000000
# 2 -0.012944 0.049808 -0.008552 0.000000 -0.014215 0.000000
# 3 -0.006067 -0.008552 0.010770 0.000000 0.010203 0.000000
# 4 0.000000 0.000000 0.000000 -0.702976 0.000000 1.841926
# 5 0.011325 -0.014215 0.010203 0.000000 0.067754 0.000000
# 6 0.000000 0.000000 0.000000 1.841926 0.000000 -4.521167
#
#
# Mechanical properties :
#
#
# Convention : Reuss Voigt Hill
#
# Bulk Modulus (GPa) = 24.73383 52.85406 38.79395
# Shear Modulus (GPa) = -1.00156 18.96284 8.98064
#
# Velocity S-wave (km/s) = -0.78951 3.43537 2.36415
# Velocity P-wave (km/s) = 3.81606 6.97353 5.62105
#
# Compressibility (1/GPa) = 0.04043045
#
# Stress axis : x y z
#
# Youngs Moduli (GPa) = 28.59066 20.07691 92.85055
#
# Poissons Ratio (x) = 0.25987 0.56331
# Poissons Ratio (y) = 0.37007 0.79402
# Poissons Ratio (z) = 0.17346 0.17169
#
# Static dielectric constant tensor:
#      x y z
#    x 1.520570 0.000000 -0.018320 
#    y 0.000000 1.544390 0.000000 
#    z -0.018320 0.000000 1.594410 
# 
# From -- ./inp_files/83378.got.cif
#   From: 2010.05.17/outbox.cif.g08.bks.cpg/sg10_42_cif.got.tgz:83378.got - 2010.06.03 11:33:40.
