data_PCOD9143449
_publ_section_title
;
Structure prediction by ZEFSAII (Michael W. Deem and Ramdas Pophale) SiO2 
 PCOD9143449
Probable space group: P 2/M
;
_chemical_formula_sum "Si O2"
_cell_formula_units_Z 32
_cell_length_a 11.571675
_cell_length_b 13.025970
_cell_length_c 24.520573
_cell_angle_alpha 90.000000
_cell_angle_beta 152.516434
_cell_angle_gamma 90.000000
_cell_volume 1705.701926
_symmetry_space_group_name_H-M "P 2/M"
_symmetry_group_IT_number 10
_symmetry_cell_setting 'monoclinic'
loop_
_space_group_symop_operation_xyz
x,y,z
-x,y,-z
-x,-y,-z
x,-y,z
loop_
_atom_site_type_symbol
_atom_site_label
_atom_site_fract_x
_atom_site_fract_y
_atom_site_fract_z
Si Si1 0.220121 0.268744 0.888324
Si Si2 0.838704 0.885174 0.783701
Si Si3 0.639578 0.625130 0.329070
Si Si4 0.148152 0.250070 0.111237
Si Si5 0.882047 0.305145 0.539680
Si Si6 0.138756 0.617113 0.747627
Si Si7 0.378202 0.882201 0.508031
Si Si8 0.294854 0.616393 0.024505
O O1 0.101223 0.306740 0.782266
O O2 0.260547 0.365453 0.945454
O O3 0.048554 0.185978 0.845134
O O4 0.500000 0.225504 0.000000
O O5 0.759632 0.832791 0.806904
O O6 0.609694 0.887282 0.646314
O O7 0.930881 0.000000 0.831302
O O8 0.657841 0.500000 0.331088
O O9 0.377393 0.671312 0.198290
O O10 0.679556 0.655607 0.410108
O O11 0.861355 0.681571 0.388077
O O12 0.920164 0.316606 0.039580
O O13 0.000000 0.196926 0.000000
O O14 0.808331 0.197470 0.538774
O O15 0.936713 0.374984 0.615373
O O16 0.154572 0.500000 0.773786
O O17 0.417604 0.644237 0.842215
O O18 0.500000 0.850998 0.500000
O O19 0.277928 0.000000 0.459369
O O20 0.257644 0.500000 0.024935
#
# Coordination Sequence:
#
# PCOD9143449 Si02
#       8
#     4   4   4   4   4   4   4   4
#     4   9  18  32  54  83 113 149 186 236 287 348
#     4  10  21  39  58  80 112 147 188 243 301 348
#     4  11  23  39  59  84 121 163 196 236 294 351
#     4  11  22  37  58  83 111 150 197 243 287 343
#     4  11  21  37  58  85 119 155 196 242 291 348
#     4  10  18  31  54  83 117 155 194 233 287 347
#     4  10  21  40  66  89 113 153 199 244 297 349
#     4   9  18  32  52  80 114 150 191 233 279 341
#
# _framework density 18.760605000000002
#
# number of rings (size 3 to 8) (size 9 to 14) (size 15 to 20)
#    0.000    1.875    1.250    3.750    0.000    4.000 
#    0.000    1.875    0.000   12.375    0.000    0.000 
#    0.000    0.000    0.000    0.000    0.000    0.000 
#
# Total GULP energy -178161.518084 kJ/mol
# GULP energy per Si atom -5567.547440 kJ/mol
# Density = 1.871790 g / cm^3
# Si number density = 18.760605 Si / 1000 Ang^3
#
#
#
# Elastic Constant Matrix: (Units=GPa)
#
#
# Indices 1 2 3 4 5 6 
#
# 1 71.7981 46.7190 20.9755 0.0000 -9.9470 0.0000
# 2 46.7190 91.2969 21.9767 0.0000 5.2824 0.0000
# 3 20.9755 21.9767 76.7394 0.0000 -19.3018 0.0000
# 4 0.0000 0.0000 0.0000 19.8992 0.0000 6.6925
# 5 -9.9470 5.2824 -19.3018 0.0000 30.6876 0.0000
# 6 0.0000 0.0000 0.0000 6.6925 0.0000 -1.1557
#
#
#
# Elastic Compliance Matrix: (Units=1/GPa)
#
#
# Indices 1 2 3 4 5 6 
#
# 1 0.023474 -0.012445 -0.000475 0.000000 0.009452 0.000000
# 2 -0.012445 0.019023 -0.004615 0.000000 -0.010211 0.000000
# 3 -0.000475 -0.004615 0.017395 0.000000 0.011582 0.000000
# 4 0.000000 0.000000 0.000000 0.017049 0.000000 0.098729
# 5 0.009452 -0.010211 0.011582 0.000000 0.044693 0.000000
# 6 0.000000 0.000000 0.000000 0.098729 0.000000 -0.293559
#
#
# Mechanical properties :
#
#
# Convention : Reuss Voigt Hill
#
# Bulk Modulus (GPa) = 40.28303 46.57519 43.42911
# Shear Modulus (GPa) = -38.88584 19.89712 -9.49436
#
# Velocity S-wave (km/s) = -4.55767 3.26019 -2.25206
# Velocity P-wave (km/s) = 2.48551 6.24914 4.05425
#
# Compressibility (1/GPa) = 0.02482435
#
# Stress axis : x y z
#
# Youngs Moduli (GPa) = 42.60013 52.56725 57.48614
#
# Poissons Ratio (x) = 0.65420 0.02729
# Poissons Ratio (y) = 0.53016 0.26527
# Poissons Ratio (z) = 0.02023 0.24257
#
# Static dielectric constant tensor:
#      x y z
#    x 1.734440 0.000000 -0.035800 
#    y 0.000000 1.638750 0.000000 
#    z -0.035800 0.000000 1.677720 
# 
# From -- ./inp_files/88950.got.cif
#   From: 2010.05.17/outbox.cif.g08.bks.cpg/sg10_45_cif.got.tgz:88950.got - 2010.06.03 11:33:40.
