data_PCOD9143551
_publ_section_title
;
Structure prediction by ZEFSAII (Michael W. Deem and Ramdas Pophale) SiO2 
 PCOD9143551
Probable space group: P 2/M
;
_chemical_formula_sum "Si O2"
_cell_formula_units_Z 20
_cell_length_a 14.625238
_cell_length_b 7.883451
_cell_length_c 33.198762
_cell_angle_alpha 90.000000
_cell_angle_beta 17.791815
_cell_angle_gamma 90.000000
_cell_volume 1169.598194
_symmetry_space_group_name_H-M "P 2/M"
_symmetry_group_IT_number 10
_symmetry_cell_setting 'monoclinic'
loop_
_space_group_symop_operation_xyz
x,y,z
-x,y,-z
-x,-y,-z
x,-y,z
loop_
_atom_site_type_symbol
_atom_site_label
_atom_site_fract_x
_atom_site_fract_y
_atom_site_fract_z
Si Si1 0.475705 0.000000 0.320525
Si Si2 0.839399 0.199364 0.855784
Si Si3 0.845359 0.704817 0.358028
Si Si4 0.986139 0.697883 0.390020
Si Si5 0.179029 0.000000 0.362029
Si Si6 0.347595 0.689403 0.702463
O O1 0.636593 0.166355 0.270430
O O2 0.423203 0.000000 0.294879
O O3 0.144618 0.000000 0.479761
O O4 0.968394 0.221962 0.756931
O O5 0.063144 0.288398 0.792988
O O6 0.838681 0.000000 0.866422
O O7 0.500000 0.263574 0.000000
O O8 0.500000 0.761467 0.500000
O O9 0.845778 0.500000 0.354021
O O10 0.973681 0.745114 0.348231
O O11 0.077145 0.500000 0.356054
O O12 0.645063 0.708756 0.549950
O O13 0.177505 0.831527 0.335283
O O14 0.354688 0.500000 0.716708
#
# Coordination Sequence:
#
# PCOD9143551 Si02
#       6
#     2   4   4   4   2   4
#     4   9  18  32  46  73 102 131 177 213 254 323
#     4  11  23  35  49  76 111 142 178 216 252 309
#     4  10  19  32  51  76 104 139 178 212 254 312
#     4   9  18  30  48  77 104 131 175 213 251 314
#     4   9  18  30  48  70 104 138 163 215 274 296
#     4  10  18  32  52  72 101 139 172 211 260 305
#
# _framework density 17.099889999999998
#
# number of rings (size 3 to 8) (size 9 to 14) (size 15 to 20)
#    0.000    2.200    3.000    0.600    1.400    2.800 
#    0.000    4.000    0.000    0.000    0.000    2.800 
#    0.000    4.800    0.000    0.000    0.000    0.000 
#
# Total GULP energy -111566.572128 kJ/mol
# GULP energy per Si atom -5578.328606 kJ/mol
# Density = 1.706097 g / cm^3
# Si number density = 17.099890 Si / 1000 Ang^3
#
#
#
# Elastic Constant Matrix: (Units=GPa)
#
#
# Indices 1 2 3 4 5 6 
#
# 1 129.9847 68.7164 38.1475 0.0000 -21.6966 -0.0001
# 2 68.7164 96.0892 25.9926 0.0000 -17.2241 0.0000
# 3 38.1475 25.9926 57.8671 -0.0001 -0.3384 0.0001
# 4 0.0000 0.0000 -0.0001 16.6150 0.0000 -8.2674
# 5 -21.6966 -17.2241 -0.3384 0.0000 15.7488 0.0000
# 6 -0.0001 0.0000 0.0001 -8.2674 0.0000 45.5508
#
#
#
# Elastic Compliance Matrix: (Units=1/GPa)
#
#
# Indices 1 2 3 4 5 6 
#
# 1 0.015773 -0.006773 -0.007273 0.000000 0.014166 0.000000
# 2 -0.006773 0.018082 -0.003596 0.000000 0.010367 0.000000
# 3 -0.007273 -0.003596 0.023612 0.000000 -0.013445 0.000000
# 4 0.000000 0.000000 0.000000 0.066162 0.000000 0.012008
# 5 0.014166 0.010367 -0.013445 0.000000 0.094062 0.000000
# 6 0.000000 0.000000 0.000000 0.012008 0.000000 0.024133
#
#
# Mechanical properties :
#
#
# Convention : Reuss Voigt Hill
#
# Bulk Modulus (GPa) = 45.08057 61.07266 53.07662
# Shear Modulus (GPa) = 17.57462 25.65522 21.61492
#
# Velocity S-wave (km/s) = 3.20935 3.87759 3.55919
# Velocity P-wave (km/s) = 6.33668 7.47264 6.92799
#
# Compressibility (1/GPa) = 0.02218250
#
# Stress axis : x y z
#
# Youngs Moduli (GPa) = 63.40134 55.30426 42.35127
#
# Poissons Ratio (x) = 0.37457 0.30800
# Poissons Ratio (y) = 0.42942 0.15231
# Poissons Ratio (z) = 0.46109 0.19890
#
# Static dielectric constant tensor:
#      x y z
#    x 1.554650 0.000000 -0.002690 
#    y 0.000000 1.602610 0.000000 
#    z -0.002690 0.000000 1.556560 
# 
# From -- ./inp_files/22406.got.cif
#   From: 2010.05.17/outbox.cif.g08.bks.cpg/sg10_12_cif.got.tgz:22406.got - 2010.06.03 11:33:40.
