data_PCOD9143736
_publ_section_title
;
Structure prediction by ZEFSAII (Michael W. Deem and Ramdas Pophale) SiO2 
 PCOD9143736
Probable space group: P 2/M
;
_chemical_formula_sum "Si O2"
_cell_formula_units_Z 32
_cell_length_a 20.267661
_cell_length_b 7.523659
_cell_length_c 25.688882
_cell_angle_alpha 90.000000
_cell_angle_beta 22.215335
_cell_angle_gamma 90.000000
_cell_volume 1481.056061
_symmetry_space_group_name_H-M "P 2/M"
_symmetry_group_IT_number 10
_symmetry_cell_setting 'monoclinic'
loop_
_space_group_symop_operation_xyz
x,y,z
-x,y,-z
-x,-y,-z
x,-y,z
loop_
_atom_site_type_symbol
_atom_site_label
_atom_site_fract_x
_atom_site_fract_y
_atom_site_fract_z
Si Si1 0.329728 0.285228 0.093067
Si Si2 0.526423 0.283059 0.420940
Si Si3 0.917819 0.282589 0.114228
Si Si4 0.563761 0.282727 0.100141
Si Si5 0.172563 0.299002 0.400104
Si Si6 0.942536 0.799462 0.406570
Si Si7 0.825412 0.714073 0.375807
Si Si8 0.102004 0.717264 0.086035
O O1 0.323922 0.500000 0.098155
O O2 0.150421 0.223194 0.249386
O O3 0.500000 0.227004 0.000000
O O4 0.353669 0.231375 0.015658
O O5 0.500000 0.230103 0.500000
O O6 0.525004 0.500000 0.421014
O O7 0.717151 0.225639 0.264103
O O8 0.363770 0.223067 0.505131
O O9 0.918946 0.500000 0.114248
O O10 0.024843 0.225227 0.087088
O O11 0.000000 0.225131 0.000000
O O12 0.558486 0.500000 0.105478
O O13 0.364372 0.219860 0.250561
O O14 0.701187 0.226940 0.043971
O O15 0.182385 0.500000 0.370535
O O16 0.135807 0.308715 0.488434
O O17 0.000000 0.215139 0.500000
O O18 0.868180 0.760449 0.403727
O O19 0.900597 0.000000 0.451112
O O20 0.826325 0.500000 0.372207
O O21 0.972658 0.774400 0.227188
O O22 0.100206 0.500000 0.087257
#
# Coordination Sequence:
#
# PCOD9143736 Si02
#       8
#     4   4   4   4   4   4   4   4
#     4  10  19  35  61  88 110 137 181 234 280 325
#     4   9  15  25  45  74 102 136 178 222 282 339
#     4   9  16  24  37  68 110 138 163 213 279 337
#     4   9  17  30  53  82 107 136 178 226 280 333
#     4  10  21  39  61  83 109 144 188 235 281 332
#     4  12  25  38  54  81 118 154 188 227 275 334
#     4  10  18  32  56  79 106 142 185 236 280 327
#     4   9  15  26  47  75 108 138 168 222 284 332
#
# _framework density 21.606204999999999
#
# number of rings (size 3 to 8) (size 9 to 14) (size 15 to 20)
#    0.000    2.250    2.500    1.875    0.000    3.500 
#    0.000    4.375    0.000    0.375    0.000    0.000 
#    0.000    2.000    0.000    0.000    0.000    0.000 
#
# Total GULP energy -178756.277532 kJ/mol
# GULP energy per Si atom -5586.133673 kJ/mol
# Density = 2.155703 g / cm^3
# Si number density = 21.606205 Si / 1000 Ang^3
#
#
#
# Elastic Constant Matrix: (Units=GPa)
#
#
# Indices 1 2 3 4 5 6 
#
# 1 94.8871 0.8963 22.2772 0.0000 -14.6874 0.0000
# 2 0.8963 57.8635 1.9698 0.0000 -3.1468 0.0000
# 3 22.2772 1.9698 116.8534 0.0000 -11.0752 0.0000
# 4 0.0000 0.0000 0.0000 -19.9499 0.0000 -39.7135
# 5 -14.6874 -3.1468 -11.0752 0.0000 46.1413 0.0000
# 6 0.0000 0.0000 0.0000 -39.7135 0.0000 -66.9798
#
#
#
# Elastic Compliance Matrix: (Units=1/GPa)
#
#
# Indices 1 2 3 4 5 6 
#
# 1 0.011477 0.000061 -0.001885 0.000000 0.003205 0.000000
# 2 0.000061 0.017351 -0.000194 0.000000 0.001156 0.000000
# 3 -0.001885 -0.000194 0.009069 0.000000 0.001563 0.000000
# 4 0.000000 0.000000 0.000000 0.278016 0.000000 -0.164840
# 5 0.003205 0.001156 0.001563 0.000000 0.023147 0.000000
# 6 0.000000 0.000000 0.000000 -0.164840 0.000000 0.082807
#
#
# Mechanical properties :
#
#
# Convention : Reuss Voigt Hill
#
# Bulk Modulus (GPa) = 29.53510 35.54341 32.53926
# Shear Modulus (GPa) = 11.43669 8.13971 9.78820
#
# Velocity S-wave (km/s) = 2.30320 1.94306 2.13075
# Velocity P-wave (km/s) = 4.55767 4.63899 4.59851
#
# Compressibility (1/GPa) = 0.03385801
#
# Stress axis : x y z
#
# Youngs Moduli (GPa) = 87.13114 57.63492 110.27074
#
# Poissons Ratio (x) = -0.00350 0.20789
# Poissons Ratio (y) = -0.00529 0.02145
# Poissons Ratio (z) = 0.16426 0.01121
#
# Static dielectric constant tensor:
#      x y z
#    x 1.757330 0.000000 -0.023240 
#    y 0.000000 2.374270 0.000000 
#    z -0.023240 0.000000 1.753150 
# 
# From -- ./inp_files/93689.got.cif
#   From: 2010.05.17/outbox.cif.g08.bks.cpg/sg10_47_cif.got.tgz:93689.got - 2010.06.03 11:33:40.
