data_PCOD9143253
_publ_section_title
;
Structure prediction by ZEFSAII (Michael W. Deem and Ramdas Pophale) SiO2 
 PCOD9143253
Probable space group: P 2/M
;
_chemical_formula_sum "Si O2"
_cell_formula_units_Z 24
_cell_length_a 25.349993
_cell_length_b 7.594851
_cell_length_c 12.737648
_cell_angle_alpha 90.000000
_cell_angle_beta 146.572060
_cell_angle_gamma 90.000000
_cell_volume 1350.981764
_symmetry_space_group_name_H-M "P 2/M"
_symmetry_group_IT_number 10
_symmetry_cell_setting 'monoclinic'
loop_
_space_group_symop_operation_xyz
x,y,z
-x,y,-z
-x,-y,-z
x,-y,z
loop_
_atom_site_type_symbol
_atom_site_label
_atom_site_fract_x
_atom_site_fract_y
_atom_site_fract_z
Si Si1 0.393788 0.208418 0.531061
Si Si2 0.882456 0.500000 0.421891
Si Si3 0.601198 0.711714 0.216678
Si Si4 0.748627 0.214319 0.881217
Si Si5 0.400915 0.799021 0.191258
Si Si6 0.895504 0.500000 0.191097
Si Si7 0.292165 0.701320 0.806162
O O1 0.386705 0.232671 0.643630
O O2 0.302032 0.265451 0.312310
O O3 0.494564 0.283056 0.654192
O O4 0.399349 0.000000 0.522149
O O5 0.881126 0.500000 0.293490
O O6 0.819697 0.667275 0.357413
O O7 0.990982 0.500000 0.639665
O O8 0.600299 0.500000 0.218823
O O9 0.681111 0.767959 0.264674
O O10 0.500000 0.771802 0.000000
O O11 0.671729 0.272841 0.842789
O O12 0.763091 0.000000 0.911252
O O13 0.843367 0.326889 0.059226
O O14 0.416474 0.000000 0.251776
O O15 0.345498 0.798740 0.988259
O O16 0.332370 0.500000 0.879933
#
# Coordination Sequence:
#
# PCOD9143253 Si02
#       7
#     4   2   4   4   4   2   4
#     4  10  21  33  49  75 112 148 179 213 254 317
#     4   9  20  36  57  79 108 129 178 227 278 321
#     4  10  19  30  49  75 106 141 178 217 248 306
#     4  10  21  37  54  80 113 142 178 223 268 320
#     4  10  18  31  50  75 110 146 172 207 265 319
#     4  11  20  38  61  82 102 142 176 229 279 325
#     4   9  17  33  50  72 109 136 164 221 262 308
#
# _framework density 17.764859000000001
#
# number of rings (size 3 to 8) (size 9 to 14) (size 15 to 20)
#    0.500    1.667    3.333    0.500    1.167    3.000 
#    0.000    3.333    0.000    2.000    0.000    2.333 
#    0.000    0.000    0.000    0.000    0.000    0.000 
#
# Total GULP energy -133672.317036 kJ/mol
# GULP energy per Si atom -5569.679876 kJ/mol
# Density = 1.772443 g / cm^3
# Si number density = 17.764859 Si / 1000 Ang^3
#
#
#
# Elastic Constant Matrix: (Units=GPa)
#
#
# Indices 1 2 3 4 5 6 
#
# 1 62.4517 8.2563 55.6357 0.0000 12.9796 0.0000
# 2 8.2563 52.4153 29.3305 0.0000 6.3339 0.0000
# 3 55.6357 29.3305 142.8451 0.0000 10.5824 0.0000
# 4 0.0000 0.0000 0.0000 13.8758 0.0000 -3.6861
# 5 12.9796 6.3339 10.5824 0.0000 30.2569 0.0000
# 6 0.0000 0.0000 0.0000 -3.6861 0.0000 18.1361
#
#
#
# Elastic Compliance Matrix: (Units=1/GPa)
#
#
# Indices 1 2 3 4 5 6 
#
# 1 0.026529 0.002559 -0.010241 0.000000 -0.008334 0.000000
# 2 0.002559 0.022078 -0.005242 0.000000 -0.003886 0.000000
# 3 -0.010241 -0.005242 0.011969 0.000000 0.001304 0.000000
# 4 0.000000 0.000000 0.000000 0.076181 0.000000 0.015483
# 5 -0.008334 -0.003886 0.001304 0.000000 0.036983 0.000000
# 6 0.000000 0.000000 0.000000 0.015483 0.000000 0.058286
#
#
# Mechanical properties :
#
#
# Convention : Reuss Voigt Hill
#
# Bulk Modulus (GPa) = 28.79469 49.35078 39.07274
# Shear Modulus (GPa) = 18.55630 23.41973 20.98802
#
# Velocity S-wave (km/s) = 3.23546 3.63480 3.44093
# Velocity P-wave (km/s) = 5.49560 6.74211 6.15051
#
# Compressibility (1/GPa) = 0.03472862
#
# Stress axis : x y z
#
# Youngs Moduli (GPa) = 37.69423 45.29333 83.54995
#
# Poissons Ratio (x) = -0.11590 0.85561
# Poissons Ratio (y) = -0.09645 0.43798
# Poissons Ratio (z) = 0.38601 0.23743
#
# Static dielectric constant tensor:
#      x y z
#    x 1.629400 0.000000 -0.001530 
#    y 0.000000 1.677750 0.000000 
#    z -0.001530 0.000000 1.594580 
# 
# From -- ./inp_files/45209.got.cif
#   From: 2010.05.17/outbox.cif.g08.bks.cpg/sg10_23_cif.got.tgz:45209.got - 2010.06.03 11:33:40.
