data_PCOD9143633
_publ_section_title
;
Structure prediction by ZEFSAII (Michael W. Deem and Ramdas Pophale) SiO2 
 PCOD9143633
Probable space group: P 2/M
;
_chemical_formula_sum "Si O2"
_cell_formula_units_Z 30
_cell_length_a 11.379297
_cell_length_b 7.431109
_cell_length_c 16.949689
_cell_angle_alpha 90.000000
_cell_angle_beta 113.975213
_cell_angle_gamma 90.000000
_cell_volume 1309.617780
_symmetry_space_group_name_H-M "P 2/M"
_symmetry_group_IT_number 10
_symmetry_cell_setting 'monoclinic'
loop_
_space_group_symop_operation_xyz
x,y,z
-x,y,-z
-x,-y,-z
x,-y,z
loop_
_atom_site_type_symbol
_atom_site_label
_atom_site_fract_x
_atom_site_fract_y
_atom_site_fract_z
Si Si1 0.261741 0.789176 0.742072
Si Si2 0.439522 0.220153 0.651081
Si Si3 0.997092 0.717026 0.589553
Si Si4 0.277917 0.215097 0.215884
Si Si5 0.500000 0.248229 0.500000
Si Si6 0.760340 0.711404 0.627092
Si Si7 0.148184 0.780301 0.021080
Si Si8 0.649364 0.780004 0.060660
O O1 0.334295 0.717219 0.684694
O O2 0.307713 0.719418 0.839638
O O3 0.113120 0.772259 0.678372
O O4 0.295725 0.000000 0.754016
O O5 0.575896 0.267878 0.727224
O O6 0.431186 0.308358 0.562816
O O7 0.429917 0.000000 0.637290
O O8 0.998255 0.500000 0.587718
O O9 0.866091 0.773306 0.595379
O O10 0.000000 0.782005 0.500000
O O11 0.197369 0.269566 0.270853
O O12 0.275469 0.000000 0.211329
O O13 0.225828 0.280776 0.119326
O O14 0.371405 0.182366 0.421701
O O15 0.728575 0.500000 0.607119
O O16 0.237245 0.725204 0.970348
O O17 0.144430 0.000000 0.015937
O O18 0.000000 0.725552 0.000000
O O19 0.648339 0.000000 0.058758
O O20 0.500000 0.726665 0.000000
#
# Coordination Sequence:
#
# PCOD9143633 Si02
#       8
#     4   4   4   4   2   4   4   4
#     4  10  20  33  55  82 108 137 180 225 262 310
#     4   9  17  30  48  76 107 134 166 212 263 306
#     4  10  22  39  54  72 104 144 179 215 267 321
#     4   9  18  32  52  75 103 135 165 206 259 311
#     4  10  18  32  54  74  99 136 177 210 257 318
#     4  10  21  35  53  75 102 132 171 218 261 309
#     4   9  17  28  46  73 103 132 168 210 252 306
#     4   9  17  30  50  77 109 142 174 216 270 320
#
# _framework density 22.907446
#
# number of rings (size 3 to 8) (size 9 to 14) (size 15 to 20)
#    0.000    2.533    0.000    2.000    1.867    4.533 
#    0.000    2.667    0.000    1.600    0.000    0.000 
#    0.000    0.000    0.000    0.000    0.000    0.000 
#
# Total GULP energy -167137.873161 kJ/mol
# GULP energy per Si atom -5571.262439 kJ/mol
# Density = 2.285531 g / cm^3
# Si number density = 22.907446 Si / 1000 Ang^3
#
#
#
# Elastic Constant Matrix: (Units=GPa)
#
#
# Indices 1 2 3 4 5 6 
#
# 1 152.6302 3.6373 73.8725 0.0000 -26.7059 0.0000
# 2 3.6373 75.8250 7.4011 0.0000 -3.9377 0.0000
# 3 73.8725 7.4011 178.2729 0.0000 -19.1425 0.0000
# 4 0.0000 0.0000 0.0000 2.3237 0.0000 -7.8432
# 5 -26.7059 -3.9377 -19.1425 0.0000 42.6446 0.0000
# 6 0.0000 0.0000 0.0000 -7.8432 0.0000 -21.2647
#
#
#
# Elastic Compliance Matrix: (Units=1/GPa)
#
#
# Indices 1 2 3 4 5 6 
#
# 1 0.008824 0.000104 -0.003222 0.000000 0.004089 0.000000
# 2 0.000104 0.013286 -0.000479 0.000000 0.001077 0.000000
# 3 -0.003222 -0.000479 0.007084 0.000000 0.001118 0.000000
# 4 0.000000 0.000000 0.000000 0.191698 0.000000 -0.070705
# 5 0.004089 0.001077 0.001118 0.000000 0.026612 0.000000
# 6 0.000000 0.000000 0.000000 -0.070705 0.000000 -0.020948
#
#
# Mechanical properties :
#
#
# Convention : Reuss Voigt Hill
#
# Bulk Modulus (GPa) = 45.45381 64.06109 54.75745
# Shear Modulus (GPa) = 20.73964 26.19521 23.46742
#
# Velocity S-wave (km/s) = 3.01220 3.38527 3.20417
# Velocity P-wave (km/s) = 5.65537 6.58073 6.13552
#
# Compressibility (1/GPa) = 0.02200035
#
# Stress axis : x y z
#
# Youngs Moduli (GPa) = 113.32537 75.26748 141.15627
#
# Poissons Ratio (x) = -0.00779 0.45477
# Poissons Ratio (y) = -0.01173 0.06760
# Poissons Ratio (z) = 0.36510 0.03604
#
# Static dielectric constant tensor:
#      x y z
#    x 1.873010 0.000000 -0.010660 
#    y 0.000000 1.980750 0.000000 
#    z -0.010660 0.000000 1.831320 
# 
# From -- ./inp_files/63873.got.cif
#   From: 2010.05.17/outbox.cif.g08.bks.cpg/sg10_32_cif.got.tgz:63873.got - 2010.06.03 11:33:40.
