data_PCOD9143181
_publ_section_title
;
Structure prediction by ZEFSAII (Michael W. Deem and Ramdas Pophale) SiO2 
 PCOD9143181
Probable space group: P 2/M
;
_chemical_formula_sum "Si O2"
_cell_formula_units_Z 28
_cell_length_a 14.003774
_cell_length_b 7.382227
_cell_length_c 13.861304
_cell_angle_alpha 90.000000
_cell_angle_beta 122.934839
_cell_angle_gamma 90.000000
_cell_volume 1202.675130
_symmetry_space_group_name_H-M "P 2/M"
_symmetry_group_IT_number 10
_symmetry_cell_setting 'monoclinic'
loop_
_space_group_symop_operation_xyz
x,y,z
-x,y,-z
-x,-y,-z
x,-y,z
loop_
_atom_site_type_symbol
_atom_site_label
_atom_site_fract_x
_atom_site_fract_y
_atom_site_fract_z
Si Si1 0.685654 0.217368 0.735470
Si Si2 0.129803 0.789429 0.482435
Si Si3 0.077917 0.221413 0.752498
Si Si4 0.651020 0.712585 0.502679
Si Si5 0.055469 0.220890 0.131434
Si Si6 0.503690 0.795407 0.238184
Si Si7 0.719750 0.221929 0.255485
O O1 0.624738 0.254014 0.599826
O O2 0.814211 0.284663 0.796798
O O3 0.612838 0.288693 0.786066
O O4 0.689601 0.000000 0.748512
O O5 0.218941 0.775177 0.443357
O O6 0.200350 0.715865 0.611412
O O7 0.009726 0.717430 0.379789
O O8 0.111097 0.000000 0.494794
O O9 0.206969 0.273573 0.797706
O O10 0.022409 0.280921 0.822056
O O11 0.075657 0.000000 0.750575
O O12 0.642718 0.500000 0.479884
O O13 0.577795 0.804147 0.378340
O O14 0.058614 0.000000 0.138211
O O15 0.000000 0.271451 0.000000
O O16 0.591789 0.715208 0.208743
O O17 0.477746 0.000000 0.191166
O O18 0.714143 0.000000 0.255538
#
# Coordination Sequence:
#
# PCOD9143181 Si02
#       7
#     4   4   4   4   4   4   4
#     4  10  18  31  48  64  87 120 155 187 223 267
#     4   9  15  26  43  64  89 121 156 184 215 263
#     4   9  14  23  43  66  88 114 149 191 223 258
#     4  11  20  28  42  67  97 124 150 184 224 268
#     4   9  17  28  45  70  92 112 147 194 236 267
#     4   9  18  30  45  64  90 123 155 183 213 264
#     4   8  14  23  39  65  89 113 151 187 214 253
#
# _framework density 23.28143
#
# number of rings (size 3 to 8) (size 9 to 14) (size 15 to 20)
#    0.000    2.714    1.429    3.000    0.000    4.000 
#    0.000    0.000    0.000    8.143    0.000    6.000 
#    0.000    0.000    0.000    6.429    0.000    7.143 
#
# Total GULP energy -156207.601198 kJ/mol
# GULP energy per Si atom -5578.842900 kJ/mol
# Density = 2.322844 g / cm^3
# Si number density = 23.281430 Si / 1000 Ang^3
#
#
#
# Elastic Constant Matrix: (Units=GPa)
#
#
# Indices 1 2 3 4 5 6 
#
# 1 226.4012 4.2637 28.1464 0.0000 -18.9644 0.0000
# 2 4.2637 93.1404 -4.9087 0.0000 -2.0126 0.0000
# 3 28.1464 -4.9087 31.9713 0.0000 -2.6647 0.0000
# 4 0.0000 0.0000 0.0000 200.0166 0.0000 40.3421
# 5 -18.9644 -2.0126 -2.6647 0.0000 13.7090 0.0000
# 6 0.0000 0.0000 0.0000 40.3421 0.0000 -23.3008
#
#
#
# Elastic Compliance Matrix: (Units=1/GPa)
#
#
# Indices 1 2 3 4 5 6 
#
# 1 0.005531 -0.000337 -0.004358 0.000000 0.006755 0.000000
# 2 -0.000337 0.010896 0.002098 0.000000 0.001541 0.000000
# 3 -0.004358 0.002098 0.035536 0.000000 0.001187 0.000000
# 4 0.000000 0.000000 0.000000 0.003706 0.000000 0.006416
# 5 0.006755 0.001541 0.001187 0.000000 0.082746 0.000000
# 6 0.000000 0.000000 0.000000 0.006416 0.000000 -0.031809
#
#
# Mechanical properties :
#
#
# Convention : Reuss Voigt Hill
#
# Bulk Modulus (GPa) = 21.38196 45.16843 33.27519
# Shear Modulus (GPa) = 39.25023 59.68571 49.46797
#
# Velocity S-wave (km/s) = 4.11043 5.06875 4.61454
# Velocity P-wave (km/s) = 5.63308 7.32800 6.53571
#
# Compressibility (1/GPa) = 0.04676841
#
# Stress axis : x y z
#
# Youngs Moduli (GPa) = 180.80366 91.77876 28.14082
#
# Poissons Ratio (x) = 0.03092 0.12264
# Poissons Ratio (y) = 0.06091 -0.05904
# Poissons Ratio (z) = 0.78793 -0.19255
#
# Static dielectric constant tensor:
#      x y z
#    x 1.976920 0.000000 0.004050 
#    y 0.000000 1.878240 0.000000 
#    z 0.004050 0.000000 1.809930 
# 
# From -- ./inp_files/66244.got.cif
#   From: 2010.05.17/outbox.cif.g08.bks.cpg/sg10_34_cif.got.tgz:66244.got - 2010.06.03 11:33:40.
