data_PCOD9143278
_publ_section_title
;
Structure prediction by ZEFSAII (Michael W. Deem and Ramdas Pophale) SiO2 
 PCOD9143278
Probable space group: P 2/M
;
_chemical_formula_sum "Si O2"
_cell_formula_units_Z 32
_cell_length_a 15.505095
_cell_length_b 8.451100
_cell_length_c 15.409819
_cell_angle_alpha 90.000000
_cell_angle_beta 100.427771
_cell_angle_gamma 90.000000
_cell_volume 1985.877459
_symmetry_space_group_name_H-M "P 2/M"
_symmetry_group_IT_number 10
_symmetry_cell_setting 'monoclinic'
loop_
_space_group_symop_operation_xyz
x,y,z
-x,y,-z
-x,-y,-z
x,-y,z
loop_
_atom_site_type_symbol
_atom_site_label
_atom_site_fract_x
_atom_site_fract_y
_atom_site_fract_z
Si Si1 0.581291 0.192256 0.627950
Si Si2 0.946878 0.684751 0.110350
Si Si3 0.613509 0.808523 0.433256
Si Si4 0.871886 0.187633 0.926092
Si Si5 0.879713 0.191316 0.612957
Si Si6 0.199637 0.686719 0.581638
Si Si7 0.924993 0.188020 0.293259
Si Si8 0.753621 0.193075 0.749717
O O1 0.480703 0.242163 0.622347
O O2 0.610125 0.234360 0.535058
O O3 0.655724 0.246667 0.707995
O O4 0.580368 0.000000 0.629675
O O5 0.968161 0.500000 0.109637
O O6 0.912221 0.729465 0.198431
O O7 0.036409 0.780615 0.107326
O O8 0.881488 0.728383 0.020245
O O9 0.698767 0.736020 0.405408
O O10 0.619514 0.000000 0.430079
O O11 0.794996 0.244613 0.848283
O O12 0.863347 0.000000 0.938503
O O13 0.844562 0.261799 0.517228
O O14 0.818015 0.238835 0.682376
O O15 0.979773 0.236515 0.651511
O O16 0.875477 0.000000 0.604973
O O17 0.191560 0.500000 0.590693
O O18 0.148754 0.770311 0.650612
O O19 0.928125 0.000000 0.279685
O O20 0.753816 0.000000 0.751144
#
# Coordination Sequence:
#
# PCOD9143278 Si02
#       8
#     4   4   4   4   4   4   4   4
#     4   8  14  26  50  76  95 120 163 209 245 279
#     4  11  21  33  48  71 101 130 161 206 252 291
#     4   9  16  30  51  71  93 128 167 204 241 286
#     4  10  18  31  51  73  98 132 169 202 240 292
#     4  10  19  34  52  70  95 131 172 206 236 279
#     4  12  24  34  46  70 102 135 166 204 246 289
#     4  11  22  37  54  70  91 130 175 210 241 288
#     4   9  15  27  50  77  99 124 164 208 241 279
#
# _framework density 16.113785
#
# number of rings (size 3 to 8) (size 9 to 14) (size 15 to 20)
#    0.000    2.000    2.500    4.875    0.000    2.500 
#    0.000    1.250    0.000    0.000    0.000    0.875 
#    0.000    7.000    0.000    0.000    0.000    0.000 
#
# Total GULP energy -178556.658449 kJ/mol
# GULP energy per Si atom -5579.895577 kJ/mol
# Density = 1.607711 g / cm^3
# Si number density = 16.113785 Si / 1000 Ang^3
#
#
#
# Elastic Constant Matrix: (Units=GPa)
#
#
# Indices 1 2 3 4 5 6 
#
# 1 97.0539 3.7934 52.6440 0.0000 15.5294 0.0000
# 2 3.7934 18.7580 1.3893 0.0000 0.6152 0.0000
# 3 52.6440 1.3893 88.1284 0.0000 15.9014 0.0000
# 4 0.0000 0.0000 0.0000 114.0269 0.0000 -23.7149
# 5 15.5294 0.6152 15.9014 0.0000 25.5297 0.0000
# 6 0.0000 0.0000 0.0000 -23.7149 0.0000 4.7344
#
#
#
# Elastic Compliance Matrix: (Units=1/GPa)
#
#
# Indices 1 2 3 4 5 6 
#
# 1 0.015732 -0.002408 -0.008611 0.000000 -0.004148 0.000000
# 2 -0.002408 0.053758 0.000631 0.000000 -0.000224 0.000000
# 3 -0.008611 0.000631 0.017506 0.000000 -0.005681 0.000000
# 4 0.000000 0.000000 0.000000 -0.209943 0.000000 -1.051626
# 5 -0.004148 -0.000224 -0.005681 0.000000 0.045237 0.000000
# 6 0.000000 0.000000 0.000000 -1.051626 0.000000 -5.056475
#
#
# Mechanical properties :
#
#
# Convention : Reuss Voigt Hill
#
# Bulk Modulus (GPa) = 15.10099 35.51041 25.30570
# Shear Modulus (GPa) = -0.98206 38.59909 18.80852
#
# Velocity S-wave (km/s) = -0.78152 4.89960 3.42018
# Velocity P-wave (km/s) = 2.92873 7.35481 5.59780
#
# Compressibility (1/GPa) = 0.06622083
#
# Stress axis : x y z
#
# Youngs Moduli (GPa) = 63.56306 18.60190 57.12244
#
# Poissons Ratio (x) = 0.04479 0.49191
# Poissons Ratio (y) = 0.15304 -0.03605
# Poissons Ratio (z) = 0.54737 -0.01174
#
# Static dielectric constant tensor:
#      x y z
#    x 1.534550 0.000000 0.025230 
#    y 0.000000 1.541400 0.000000 
#    z 0.025230 0.000000 1.531890 
# 
# From -- ./inp_files/66211.got.cif
#   From: 2010.05.17/outbox.cif.g08.bks.cpg/sg10_34_cif.got.tgz:66211.got - 2010.06.03 11:33:40.
