data_PCOD9143053
_publ_section_title
;
Structure prediction by ZEFSAII (Michael W. Deem and Ramdas Pophale) SiO2 
 PCOD9143053
Probable space group: P 2/M
;
_chemical_formula_sum "Si O2"
_cell_formula_units_Z 32
_cell_length_a 21.546253
_cell_length_b 10.612546
_cell_length_c 21.519128
_cell_angle_alpha 90.000000
_cell_angle_beta 159.668574
_cell_angle_gamma 90.000000
_cell_volume 1709.654485
_symmetry_space_group_name_H-M "P 2/M"
_symmetry_group_IT_number 10
_symmetry_cell_setting 'monoclinic'
loop_
_space_group_symop_operation_xyz
x,y,z
-x,y,-z
-x,-y,-z
x,-y,z
loop_
_atom_site_type_symbol
_atom_site_label
_atom_site_fract_x
_atom_site_fract_y
_atom_site_fract_z
Si Si1 0.288636 0.863920 0.292026
Si Si2 0.169039 0.348863 0.839021
Si Si3 0.600751 0.346690 0.399497
Si Si4 0.923415 0.345762 0.494472
Si Si5 0.099027 0.629716 0.158775
Si Si6 0.433601 0.349425 0.780303
Si Si7 0.297364 0.143935 0.153966
Si Si8 0.000993 0.720093 0.813196
O O1 0.500000 0.866577 0.500000
O O2 0.212592 0.754868 0.262726
O O3 0.252653 0.842794 0.185278
O O4 0.212532 0.000000 0.238170
O O5 0.177081 0.500000 0.841047
O O6 0.046854 0.304115 0.667764
O O7 0.087783 0.323320 0.830371
O O8 0.369518 0.297060 0.023127
O O9 0.581653 0.500000 0.394550
O O10 0.611195 0.334465 0.334487
O O11 0.438780 0.255141 0.269527
O O12 0.787982 0.292856 0.601996
O O13 0.922137 0.500000 0.493262
O O14 0.723699 0.301944 0.323225
O O15 0.000000 0.305944 0.500000
O O16 0.207752 0.500000 0.265147
O O17 0.972946 0.635857 0.100288
O O18 0.000000 0.627912 0.000000
O O19 0.442520 0.500000 0.798998
O O20 0.368529 0.000000 0.213023
O O21 0.117383 0.159778 0.944072
#
# Coordination Sequence:
#
# PCOD9143053 Si02
#       8
#     4   4   4   4   4   4   4   4
#     4  10  22  42  62  79 107 151 198 244 303 371
#     4  10  18  30  51  76 110 155 197 237 291 356
#     4  11  22  36  61  91 118 155 203 251 301 363
#     4   9  17  29  46  75 118 158 193 236 288 353
#     4  11  23  36  54  83 112 142 190 248 298 349
#     4   9  17  29  48  78 111 150 195 234 285 346
#     4  11  25  42  61  88 120 157 202 254 311 367
#     4  12  22  37  59  84 117 158 198 246 305 363
#
# _framework density 18.717233
#
# number of rings (size 3 to 8) (size 9 to 14) (size 15 to 20)
#    0.000    1.625    3.750    1.875    0.000    3.500 
#    0.000    2.500    0.000    0.000    0.000    0.000 
#    0.000    3.000    0.000    0.000    0.000    0.000 
#
# Total GULP energy -178230.616554 kJ/mol
# GULP energy per Si atom -5569.706767 kJ/mol
# Density = 1.867463 g / cm^3
# Si number density = 18.717233 Si / 1000 Ang^3
#
#
#
# Elastic Constant Matrix: (Units=GPa)
#
#
# Indices 1 2 3 4 5 6 
#
# 1 135.5958 41.1729 46.0576 0.0000 5.6204 0.0000
# 2 41.1729 90.1488 37.3936 0.0000 18.1753 0.0000
# 3 46.0576 37.3936 97.3721 0.0000 7.5993 0.0000
# 4 0.0000 0.0000 0.0000 22.2730 0.0000 -1.8118
# 5 5.6204 18.1753 7.5993 0.0000 23.1718 0.0000
# 6 0.0000 0.0000 0.0000 -1.8118 0.0000 17.1581
#
#
#
# Elastic Compliance Matrix: (Units=1/GPa)
#
#
# Indices 1 2 3 4 5 6 
#
# 1 0.009420 -0.003182 -0.003336 0.000000 0.001305 0.000000
# 2 -0.003182 0.016347 -0.003933 0.000000 -0.010760 0.000000
# 3 -0.003336 -0.003933 0.013397 0.000000 -0.000500 0.000000
# 4 0.000000 0.000000 0.000000 0.045286 0.000000 0.004782
# 5 0.001305 -0.010760 -0.000500 0.000000 0.051443 0.000000
# 6 0.000000 0.000000 0.000000 0.004782 0.000000 0.058786
#
#
# Mechanical properties :
#
#
# Convention : Reuss Voigt Hill
#
# Bulk Modulus (GPa) = 54.75486 63.59609 59.17548
# Shear Modulus (GPa) = 22.55625 25.75342 24.15483
#
# Velocity S-wave (km/s) = 3.47523 3.71336 3.59627
# Velocity P-wave (km/s) = 6.73945 7.24130 6.99488
#
# Compressibility (1/GPa) = 0.01826322
#
# Stress axis : x y z
#
# Youngs Moduli (GPa) = 106.15828 61.17428 74.64379
#
# Poissons Ratio (x) = 0.19464 0.24898
# Poissons Ratio (y) = 0.33777 0.29356
# Poissons Ratio (z) = 0.35410 0.24059
#
# Static dielectric constant tensor:
#      x y z
#    x 1.642440 0.000000 0.007470 
#    y 0.000000 1.676880 0.000000 
#    z 0.007470 0.000000 1.715090 
# 
# From -- ./inp_files/86302.got.cif
#   From: 2010.05.17/outbox.cif.g08.bks.cpg/sg10_44_cif.got.tgz:86302.got - 2010.06.03 11:33:40.
