data_PCOD9143342
_publ_section_title
;
Structure prediction by ZEFSAII (Michael W. Deem and Ramdas Pophale) SiO2 
 PCOD9143342
Probable space group: P 2/M
;
_chemical_formula_sum "Si O2"
_cell_formula_units_Z 24
_cell_length_a 22.468661
_cell_length_b 8.044306
_cell_length_c 9.613841
_cell_angle_alpha 90.000000
_cell_angle_beta 51.458999
_cell_angle_gamma 90.000000
_cell_volume 1359.125906
_symmetry_space_group_name_H-M "P 2/M"
_symmetry_group_IT_number 10
_symmetry_cell_setting 'monoclinic'
loop_
_space_group_symop_operation_xyz
x,y,z
-x,y,-z
-x,-y,-z
x,-y,z
loop_
_atom_site_type_symbol
_atom_site_label
_atom_site_fract_x
_atom_site_fract_y
_atom_site_fract_z
Si Si1 0.326379 0.696662 0.117934
Si Si2 0.488761 0.801993 0.856285
Si Si3 0.077634 0.500000 0.303045
Si Si4 0.217491 0.691689 0.805169
Si Si5 0.347654 0.299694 0.406424
Si Si6 0.815664 0.815791 0.846341
Si Si7 0.077861 0.500000 0.969751
O O1 0.310295 0.500000 0.142026
O O2 0.333281 0.756867 0.268326
O O3 0.259135 0.788382 0.137139
O O4 0.408708 0.725836 0.927257
O O5 0.568169 0.755107 0.669264
O O6 0.480701 0.000000 0.868003
O O7 0.500000 0.742770 0.000000
O O8 0.126322 0.664973 0.265683
O O9 0.064052 0.500000 0.155977
O O10 0.000000 0.500000 0.500000
O O11 0.239513 0.500000 0.815836
O O12 0.280327 0.754656 0.606747
O O13 0.208517 0.795725 0.957170
O O14 0.134218 0.656943 0.859021
O O15 0.346541 0.500000 0.404589
O O16 0.847448 0.000000 0.776294
O O17 0.000000 0.500000 0.000000
#
# Coordination Sequence:
#
# PCOD9143342 Si02
#       7
#     4   4   2   4   4   4   2
#     4  10  18  31  52  78 108 142 186 229 269 317
#     4   9  17  28  43  69 106 143 181 228 274 313
#     4  10  22  40  60  83 110 141 177 214 269 324
#     4   8  17  34  53  78 107 140 176 215 267 328
#     4   9  17  30  51  75 104 143 185 228 272 317
#     4  11  21  37  58  81 112 146 179 218 268 322
#     4   8  16  32  58  81 102 135 169 212 265 322
#
# _framework density 17.658407
#
# number of rings (size 3 to 8) (size 9 to 14) (size 15 to 20)
#    0.500    2.167    1.667    1.000    0.000    5.000 
#    0.000    0.833    0.000   13.000    0.000    0.000 
#    0.000    0.000    0.000    0.000    0.000    0.000 
#
# Total GULP energy -133626.053631 kJ/mol
# GULP energy per Si atom -5567.752235 kJ/mol
# Density = 1.761822 g / cm^3
# Si number density = 17.658407 Si / 1000 Ang^3
#
#
#
# Elastic Constant Matrix: (Units=GPa)
#
#
# Indices 1 2 3 4 5 6 
#
# 1 94.2817 37.7656 45.4153 0.0000 -20.0526 0.0000
# 2 37.7656 74.8625 23.2295 0.0000 -8.1602 0.0000
# 3 45.4153 23.2295 97.1178 0.0000 -35.7799 0.0000
# 4 0.0000 0.0000 0.0000 3.0777 0.0000 5.1429
# 5 -20.0526 -8.1602 -35.7799 0.0000 20.7020 0.0000
# 6 0.0000 0.0000 0.0000 5.1429 0.0000 7.0902
#
#
#
# Elastic Compliance Matrix: (Units=1/GPa)
#
#
# Indices 1 2 3 4 5 6 
#
# 1 0.016395 -0.006408 -0.003342 0.000000 0.007579 0.000000
# 2 -0.006408 0.016937 -0.002428 0.000000 -0.003726 0.000000
# 3 -0.003342 -0.002428 0.029993 0.000000 0.047644 0.000000
# 4 0.000000 0.000000 0.000000 -1.532065 0.000000 1.111287
# 5 0.007579 -0.003726 0.047644 0.000000 0.136521 0.000000
# 6 0.000000 0.000000 0.000000 1.111287 0.000000 -0.665035
#
#
# Mechanical properties :
#
#
# Convention : Reuss Voigt Hill
#
# Bulk Modulus (GPa) = 25.65992 53.23140 39.44566
# Shear Modulus (GPa) = -2.55114 16.83076 7.13981
#
# Velocity S-wave (km/s) = -1.20327 3.09063 2.01298
# Velocity P-wave (km/s) = 3.55420 6.55336 5.27157
#
# Compressibility (1/GPa) = 0.03897129
#
# Stress axis : x y z
#
# Youngs Moduli (GPa) = 60.99466 59.04113 33.34115
#
# Poissons Ratio (x) = 0.37831 0.11142
# Poissons Ratio (y) = 0.39083 0.08094
# Poissons Ratio (z) = 0.20384 0.14332
#
# Static dielectric constant tensor:
#      x y z
#    x 1.596720 0.000000 -0.008880 
#    y 0.000000 1.619480 0.000000 
#    z -0.008880 0.000000 1.613600 
# 
# From -- ./inp_files/33457.got.cif
#   From: 2010.05.17/outbox.cif.g08.bks.cpg/sg10_17_cif.got.tgz:33457.got - 2010.06.03 11:33:40.
