data_PCOD9143902
_publ_section_title
;
Structure prediction by ZEFSAII (Michael W. Deem and Ramdas Pophale) SiO2 
 PCOD9143902
Probable space group: P 2/M
;
_chemical_formula_sum "Si O2"
_cell_formula_units_Z 28
_cell_length_a 15.134614
_cell_length_b 8.454888
_cell_length_c 12.260568
_cell_angle_alpha 90.000000
_cell_angle_beta 68.855864
_cell_angle_gamma 90.000000
_cell_volume 1463.256879
_symmetry_space_group_name_H-M "P 2/M"
_symmetry_group_IT_number 10
_symmetry_cell_setting 'monoclinic'
loop_
_space_group_symop_operation_xyz
x,y,z
-x,y,-z
-x,-y,-z
x,-y,z
loop_
_atom_site_type_symbol
_atom_site_label
_atom_site_fract_x
_atom_site_fract_y
_atom_site_fract_z
Si Si1 0.178901 0.689156 0.113269
Si Si2 0.363718 0.191336 0.645196
Si Si3 0.188124 0.311237 0.862487
Si Si4 0.965875 0.810604 0.224098
Si Si5 0.902029 0.192462 0.486268
Si Si6 0.571278 0.807576 0.622361
Si Si7 0.727409 0.191367 0.714585
O O1 0.179975 0.500000 0.114743
O O2 0.248617 0.750974 0.175609
O O3 0.072143 0.746713 0.184639
O O4 0.203255 0.744165 0.979955
O O5 0.273360 0.257080 0.747126
O O6 0.374548 0.238471 0.513433
O O7 0.462159 0.241437 0.659205
O O8 0.358346 0.000000 0.649513
O O9 0.182967 0.500000 0.865424
O O10 0.090419 0.246534 0.856381
O O11 0.907687 0.758475 0.357876
O O12 0.970110 0.000000 0.222507
O O13 0.812393 0.245296 0.596276
O O14 0.000000 0.240807 0.500000
O O15 0.899543 0.000000 0.488151
O O16 0.629627 0.755669 0.701983
O O17 0.570465 0.000000 0.622654
O O18 0.728361 0.000000 0.715464
#
# Coordination Sequence:
#
# PCOD9143902 Si02
#       7
#     4   4   4   4   4   4   4
#     4  11  24  39  51  71 110 151 183 221 266 314
#     4   9  17  35  61  86 109 136 176 220 268 327
#     4  11  24  39  53  74 109 147 181 223 272 314
#     4  11  21  36  60  83 103 137 183 225 268 322
#     4   9  16  29  51  81 110 132 162 212 266 311
#     4   8  16  32  59  90 113 134 167 223 281 318
#     4  10  18  33  56  80 109 143 178 216 264 320
#
# _framework density 19.135396
#
# number of rings (size 3 to 8) (size 9 to 14) (size 15 to 20)
#    0.000    2.143    1.429    3.429    0.000    6.286 
#    0.000    7.143    0.000    4.286    0.000    0.000 
#    0.000    0.000    0.000    0.000    0.000    0.000 
#
# Total GULP energy -156316.695333 kJ/mol
# GULP energy per Si atom -5582.739119 kJ/mol
# Density = 1.909184 g / cm^3
# Si number density = 19.135396 Si / 1000 Ang^3
#
#
#
# Elastic Constant Matrix: (Units=GPa)
#
#
# Indices 1 2 3 4 5 6 
#
# 1 111.8718 14.9756 39.4671 0.0000 39.7785 0.0000
# 2 14.9756 14.1552 8.8379 0.0000 7.5434 0.0000
# 3 39.4671 8.8379 68.7279 0.0000 27.3718 0.0000
# 4 0.0000 0.0000 0.0000 32.2768 0.0000 21.2777
# 5 39.7785 7.5434 27.3718 0.0000 33.1330 0.0000
# 6 0.0000 0.0000 0.0000 21.2777 0.0000 14.7668
#
#
#
# Elastic Compliance Matrix: (Units=1/GPa)
#
#
# Indices 1 2 3 4 5 6 
#
# 1 0.016484 -0.007438 -0.001941 0.000000 -0.016493 0.000000
# 2 -0.007438 0.084720 -0.003722 0.000000 -0.007283 0.000000
# 3 -0.001941 -0.003722 0.022173 0.000000 -0.015140 0.000000
# 4 0.000000 0.000000 0.000000 0.618273 0.000000 -0.890879
# 5 -0.016493 -0.007283 -0.015140 0.000000 0.064148 0.000000
# 6 0.000000 0.000000 0.000000 -0.890879 0.000000 1.351398
#
#
# Mechanical properties :
#
#
# Convention : Reuss Voigt Hill
#
# Bulk Modulus (GPa) = 10.29077 35.70181 22.99629
# Shear Modulus (GPa) = 2.25653 24.80027 13.52840
#
# Velocity S-wave (km/s) = 1.08711 3.60396 2.66180
# Velocity P-wave (km/s) = 2.63918 6.00134 4.63580
#
# Compressibility (1/GPa) = 0.09717442
#
# Stress axis : x y z
#
# Youngs Moduli (GPa) = 60.66636 11.80356 45.09986
#
# Poissons Ratio (x) = 0.08780 0.08752
# Poissons Ratio (y) = 0.45124 0.16788
# Poissons Ratio (z) = 0.11773 0.04394
#
# Static dielectric constant tensor:
#      x y z
#    x 1.660540 0.000000 0.018850 
#    y 0.000000 1.659690 0.000000 
#    z 0.018850 0.000000 1.668080 
# 
# From -- ./inp_files/49192.got.cif
#   From: 2010.05.17/outbox.cif.g08.bks.cpg/sg10_25_cif.got.tgz:49192.got - 2010.06.03 11:33:40.
