data_PCOD9143198
_publ_section_title
;
Structure prediction by ZEFSAII (Michael W. Deem and Ramdas Pophale) SiO2 
 PCOD9143198
Probable space group: P 2/M
;
_chemical_formula_sum "Si O2"
_cell_formula_units_Z 28
_cell_length_a 9.929952
_cell_length_b 9.340901
_cell_length_c 29.501303
_cell_angle_alpha 90.000000
_cell_angle_beta 142.912285
_cell_angle_gamma 90.000000
_cell_volume 1650.140973
_symmetry_space_group_name_H-M "P 2/M"
_symmetry_group_IT_number 10
_symmetry_cell_setting 'monoclinic'
loop_
_space_group_symop_operation_xyz
x,y,z
-x,y,-z
-x,-y,-z
x,-y,z
loop_
_atom_site_type_symbol
_atom_site_label
_atom_site_fract_x
_atom_site_fract_y
_atom_site_fract_z
Si Si1 0.757876 0.834230 0.957598
Si Si2 0.653890 0.330947 0.193342
Si Si3 0.983225 0.668064 0.789686
Si Si4 0.351248 0.164539 0.359025
Si Si5 0.247829 0.332797 0.950954
Si Si6 0.989009 0.834586 0.344166
Si Si7 0.319104 0.665347 0.492802
O O1 0.578048 0.743151 0.881245
O O2 0.685334 0.000000 0.940134
O O3 0.774643 0.767251 0.011953
O O4 0.000000 0.827333 0.000000
O O5 0.629573 0.500000 0.195445
O O6 0.815311 0.315092 0.192597
O O7 0.779388 0.251645 0.268053
O O8 0.921658 0.500000 0.772236
O O9 0.778390 0.762771 0.717354
O O10 0.080149 0.703486 0.865007
O O11 0.171771 0.165182 0.352339
O O12 0.559076 0.256256 0.432946
O O13 0.411305 0.000000 0.366359
O O14 0.213024 0.500000 0.954243
O O15 0.500000 0.321857 0.000000
O O16 0.108333 0.753162 0.417478
O O17 0.937689 0.000000 0.340703
O O18 0.500000 0.665386 0.500000
O O19 0.266157 0.500000 0.488248
#
# Coordination Sequence:
#
# PCOD9143198 Si02
#       7
#     4   4   4   4   4   4   4
#     4  11  24  38  51  72 102 133 166 207 254 301
#     4  10  18  31  49  68  92 124 163 204 246 294
#     4   9  17  29  46  68  94 121 156 202 245 290
#     4   9  16  24  36  57  87 121 156 193 237 288
#     4  10  19  35  55  76  98 126 166 210 251 299
#     4   9  16  25  38  59  87 119 156 197 240 289
#     4   9  15  23  35  53  81 120 160 194 235 284
#
# _framework density 16.968247999999999
#
# number of rings (size 3 to 8) (size 9 to 14) (size 15 to 20)
#    0.000    2.429    1.429    2.143    0.000    7.714 
#    0.000    0.000    0.000    0.000    0.000    0.000 
#    0.000    1.143    0.000   12.000    0.000   10.143 
#
# Total GULP energy -156148.120276 kJ/mol
# GULP energy per Si atom -5576.718581 kJ/mol
# Density = 1.692963 g / cm^3
# Si number density = 16.968248 Si / 1000 Ang^3
#
#
#
# Elastic Constant Matrix: (Units=GPa)
#
#
# Indices 1 2 3 4 5 6 
#
# 1 13.4840 26.0201 17.6814 0.0000 0.1093 0.0000
# 2 26.0201 159.5928 111.9690 0.0000 -0.7543 0.0000
# 3 17.6814 111.9690 169.7944 0.0000 -7.1418 0.0000
# 4 0.0000 0.0000 0.0000 58.6077 0.0000 -6.8274
# 5 0.1093 -0.7543 -7.1418 0.0000 5.3048 0.0000
# 6 0.0000 0.0000 0.0000 -6.8274 0.0000 13.9584
#
#
#
# Elastic Compliance Matrix: (Units=1/GPa)
#
#
# Indices 1 2 3 4 5 6 
#
# 1 0.108336 -0.017944 0.000371 0.000000 -0.004285 0.000000
# 2 -0.017944 0.015074 -0.008444 0.000000 -0.008855 0.000000
# 3 0.000371 -0.008444 0.012051 0.000000 0.015015 0.000000
# 4 0.000000 0.000000 0.000000 0.018094 0.000000 0.008850
# 5 -0.004285 -0.008855 0.015015 0.000000 0.207551 0.000000
# 6 0.000000 0.000000 0.000000 0.008850 0.000000 0.075970
#
#
# Mechanical properties :
#
#
# Convention : Reuss Voigt Hill
#
# Bulk Modulus (GPa) = 11.98653 72.69026 42.33839
# Shear Modulus (GPa) = 9.67269 28.05425 18.86347
#
# Velocity S-wave (km/s) = 2.39015 4.07054 3.33782
# Velocity P-wave (km/s) = 3.83361 8.06377 6.31351
#
# Compressibility (1/GPa) = 0.08342701
#
# Stress axis : x y z
#
# Youngs Moduli (GPa) = 9.23054 66.33861 82.98098
#
# Poissons Ratio (x) = 1.19037 -0.03080
# Poissons Ratio (y) = 0.16563 0.70072
# Poissons Ratio (z) = -0.00343 0.56019
#
# Static dielectric constant tensor:
#      x y z
#    x 1.538770 0.000000 -0.001590 
#    y 0.000000 1.570430 0.000000 
#    z -0.001590 0.000000 1.564830 
# 
# From -- ./inp_files/77714.got.cif
#   From: 2010.05.17/outbox.cif.g08.bks.cpg/sg10_39_cif.got.tgz:77714.got - 2010.06.03 11:33:40.
