data_PCOD9143917
_publ_section_title
;
Structure prediction by ZEFSAII (Michael W. Deem and Ramdas Pophale) SiO2 
 PCOD9143917
Probable space group: P 2/M
;
_chemical_formula_sum "Si O2"
_cell_formula_units_Z 24
_cell_length_a 17.016916
_cell_length_b 8.642549
_cell_length_c 23.575131
_cell_angle_alpha 90.000000
_cell_angle_beta 157.099263
_cell_angle_gamma 90.000000
_cell_volume 1349.205201
_symmetry_space_group_name_H-M "P 2/M"
_symmetry_group_IT_number 10
_symmetry_cell_setting 'monoclinic'
loop_
_space_group_symop_operation_xyz
x,y,z
-x,y,-z
-x,-y,-z
x,-y,z
loop_
_atom_site_type_symbol
_atom_site_label
_atom_site_fract_x
_atom_site_fract_y
_atom_site_fract_z
Si Si1 0.277306 0.184069 0.833926
Si Si2 0.131579 0.314802 0.397622
Si Si3 0.423727 0.687733 0.694195
Si Si4 0.475704 0.814451 0.549175
Si Si5 0.224555 0.316040 0.674628
Si Si6 0.231357 0.312585 0.160413
O O1 0.245661 0.228968 0.747465
O O2 0.097196 0.259262 0.750301
O O3 0.266019 0.000000 0.833393
O O4 0.500000 0.237588 0.000000
O O5 0.139416 0.500000 0.399583
O O6 0.246237 0.267226 0.532307
O O7 0.266431 0.245609 0.436998
O O8 0.420608 0.500000 0.694262
O O9 0.375766 0.740199 0.725721
O O10 0.631996 0.734912 0.802825
O O11 0.500000 0.765659 0.500000
O O12 0.653983 0.750109 0.707932
O O13 0.478842 0.000000 0.553732
O O14 0.255354 0.500000 0.705358
O O15 0.000000 0.299228 0.500000
O O16 0.235788 0.500000 0.166216
O O17 0.000000 0.262842 0.000000
#
# Coordination Sequence:
#
# PCOD9143917 Si02
#       6
#     4   4   4   4   4   4
#     4  11  24  39  53  77 117 153 182 222 275 330
#     4  10  19  36  61  83 106 141 187 232 275 324
#     4   8  15  30  53  80 106 134 172 227 277 312
#     4  10  21  37  57  82 114 149 183 223 275 333
#     4  10  18  33  57  81 106 137 183 232 270 319
#     4   9  18  34  56  81 112 144 182 231 276 319
#
# _framework density 17.788250999999999
#
# number of rings (size 3 to 8) (size 9 to 14) (size 15 to 20)
#    0.000    2.333    1.667    2.500    0.000    3.333 
#    3.000    0.833    0.000    0.000    0.000    0.000 
#    0.000    0.000    0.000    0.000    0.000    0.000 
#
# Total GULP energy -133878.618154 kJ/mol
# GULP energy per Si atom -5578.275756 kJ/mol
# Density = 1.774776 g / cm^3
# Si number density = 17.788251 Si / 1000 Ang^3
#
#
#
# Elastic Constant Matrix: (Units=GPa)
#
#
# Indices 1 2 3 4 5 6 
#
# 1 144.3414 26.2717 63.8854 0.0000 15.2361 0.0000
# 2 26.2717 23.7948 25.6009 0.0000 6.1677 0.0000
# 3 63.8854 25.6009 106.9562 0.0000 29.6709 0.0000
# 4 0.0000 0.0000 0.0000 23.1512 0.0000 -0.6275
# 5 15.2361 6.1677 29.6709 0.0000 26.7956 0.0000
# 6 0.0000 0.0000 0.0000 -0.6275 0.0000 27.2743
#
#
#
# Elastic Compliance Matrix: (Units=1/GPa)
#
#
# Indices 1 2 3 4 5 6 
#
# 1 0.010085 -0.006213 -0.004824 0.000000 0.001038 0.000000
# 2 -0.006213 0.060581 -0.011405 0.000000 0.002217 0.000000
# 3 -0.004824 -0.011405 0.019445 0.000000 -0.016163 0.000000
# 4 0.000000 0.000000 0.000000 0.043221 0.000000 0.000994
# 5 0.001038 0.002217 -0.016163 0.000000 0.054117 0.000000
# 6 0.000000 0.000000 0.000000 0.000994 0.000000 0.036687
#
#
# Mechanical properties :
#
#
# Convention : Reuss Voigt Hill
#
# Bulk Modulus (GPa) = 22.11067 56.28981 39.20024
# Shear Modulus (GPa) = 17.59972 26.06652 21.83312
#
# Velocity S-wave (km/s) = 3.14889 3.83218 3.50721
# Velocity P-wave (km/s) = 5.06730 7.16197 6.20369
#
# Compressibility (1/GPa) = 0.04522704
#
# Stress axis : x y z
#
# Youngs Moduli (GPa) = 99.16202 16.50677 51.42727
#
# Poissons Ratio (x) = 0.10255 0.24811
# Poissons Ratio (y) = 0.61607 0.58651
# Poissons Ratio (z) = 0.47840 0.18825
#
# Static dielectric constant tensor:
#      x y z
#    x 1.611250 0.000000 0.017150 
#    y 0.000000 1.605700 0.000000 
#    z 0.017150 0.000000 1.592650 
# 
# From -- ./inp_files/80133.got.cif
#   From: 2010.05.17/outbox.cif.g08.bks.cpg/sg10_41_cif.got.tgz:80133.got - 2010.06.03 11:33:40.
