data_PCOD9143125
_publ_section_title
;
Structure prediction by ZEFSAII (Michael W. Deem and Ramdas Pophale) SiO2 
 PCOD9143125
Probable space group: P 2/M
;
_chemical_formula_sum "Si O2"
_cell_formula_units_Z 32
_cell_length_a 15.488793
_cell_length_b 7.482146
_cell_length_c 23.153321
_cell_angle_alpha 90.000000
_cell_angle_beta 32.046534
_cell_angle_gamma 90.000000
_cell_volume 1423.740102
_symmetry_space_group_name_H-M "P 2/M"
_symmetry_group_IT_number 10
_symmetry_cell_setting 'monoclinic'
loop_
_space_group_symop_operation_xyz
x,y,z
-x,y,-z
-x,-y,-z
x,-y,z
loop_
_atom_site_type_symbol
_atom_site_label
_atom_site_fract_x
_atom_site_fract_y
_atom_site_fract_z
Si Si1 0.087334 0.286059 0.794492
Si Si2 0.169574 0.718260 0.874576
Si Si3 0.221075 0.786701 0.096119
Si Si4 0.744751 0.289300 0.520961
Si Si5 0.551099 0.790415 0.858124
Si Si6 0.337846 0.718704 0.558354
Si Si7 0.888837 0.216044 0.716229
Si Si8 0.505469 0.716614 0.242945
O O1 0.104471 0.500000 0.785818
O O2 0.160304 0.220971 0.813406
O O3 0.187597 0.219339 0.682573
O O4 0.899066 0.247188 0.889362
O O5 0.173623 0.500000 0.871931
O O6 0.328334 0.775781 0.819767
O O7 0.000000 0.771385 0.000000
O O8 0.139654 0.719869 0.201614
O O9 0.234621 0.000000 0.094951
O O10 0.400509 0.714838 0.980490
O O11 0.708863 0.500000 0.540571
O O12 0.676393 0.216491 0.498988
O O13 0.647464 0.220453 0.631556
O O14 0.938926 0.270393 0.408207
O O15 0.730143 0.720035 0.771321
O O16 0.509847 0.775284 0.814237
O O17 0.558817 0.000000 0.868846
O O18 0.500000 0.770441 0.500000
O O19 0.335038 0.500000 0.558151
O O20 0.893178 0.000000 0.714219
O O21 0.507752 0.500000 0.240113
#
# Coordination Sequence:
#
# PCOD9143125 Si02
#       8
#     4   4   4   4   4   4   4   4
#     4  10  18  30  53  81 108 141 179 217 263 322
#     4   9  17  30  50  78 110 143 180 219 261 314
#     4  10  20  36  57  81 110 139 176 229 282 327
#     4  10  20  35  55  81 113 143 177 224 273 320
#     4  10  22  39  58  79 104 142 187 228 274 329
#     4   9  16  28  49  77 106 138 176 215 257 310
#     4  10  21  38  59  80 106 142 183 226 276 330
#     4  10  21  37  56  81 113 146 181 224 272 319
#
# _framework density 22.476012000000001
#
# number of rings (size 3 to 8) (size 9 to 14) (size 15 to 20)
#    0.000    2.250    1.250    1.875    0.000    7.500 
#    0.000    3.125    0.000    7.500    0.000    0.000 
#    0.000    0.000    0.000    0.000    0.000    0.000 
#
# Total GULP energy -178788.890653 kJ/mol
# GULP energy per Si atom -5587.152833 kJ/mol
# Density = 2.242486 g / cm^3
# Si number density = 22.476012 Si / 1000 Ang^3
#
#
#
# Elastic Constant Matrix: (Units=GPa)
#
#
# Indices 1 2 3 4 5 6 
#
# 1 90.5332 -16.1062 23.0575 0.0000 -17.8234 0.0000
# 2 -16.1062 57.8629 -17.9909 0.0000 3.1767 0.0000
# 3 23.0575 -17.9909 107.0380 0.0000 -12.3071 0.0000
# 4 0.0000 0.0000 0.0000 16.4829 0.0000 -5.8933
# 5 -17.8234 3.1767 -12.3071 0.0000 40.5009 0.0000
# 6 0.0000 0.0000 0.0000 -5.8933 0.0000 10.4838
#
#
#
# Elastic Compliance Matrix: (Units=1/GPa)
#
#
# Indices 1 2 3 4 5 6 
#
# 1 0.012964 0.002791 -0.001754 0.000000 0.004953 0.000000
# 2 0.002791 0.018847 0.002630 0.000000 0.000549 0.000000
# 3 -0.001754 0.002630 0.010414 0.000000 0.002186 0.000000
# 4 0.000000 0.000000 0.000000 0.075930 0.000000 0.042683
# 5 0.004953 0.000549 0.002186 0.000000 0.027492 0.000000
# 6 0.000000 0.000000 0.000000 0.042683 0.000000 0.119379
#
#
# Mechanical properties :
#
#
# Convention : Reuss Voigt Hill
#
# Bulk Modulus (GPa) = 20.17829 25.92833 23.05331
# Shear Modulus (GPa) = 18.23414 31.25843 24.74629
#
# Velocity S-wave (km/s) = 2.85137 3.73332 3.32174
# Velocity P-wave (km/s) = 4.45394 5.49041 4.99911
#
# Compressibility (1/GPa) = 0.04955823
#
# Stress axis : x y z
#
# Youngs Moduli (GPa) = 77.13598 53.05988 96.02770
#
# Poissons Ratio (x) = -0.14811 0.16843
# Poissons Ratio (y) = -0.21531 -0.25251
# Poissons Ratio (z) = 0.13529 -0.13953
#
# Static dielectric constant tensor:
#      x y z
#    x 1.798550 0.000000 -0.004340 
#    y 0.000000 1.884310 0.000000 
#    z -0.004340 0.000000 1.830640 
# 
# From -- ./inp_files/89549.got.cif
#   From: 2010.05.17/outbox.cif.g08.bks.cpg/sg10_45_cif.got.tgz:89549.got - 2010.06.03 11:33:40.
