data_PCOD9143624
_publ_section_title
;
Structure prediction by ZEFSAII (Michael W. Deem and Ramdas Pophale) SiO2 
 PCOD9143624
Probable space group: P 2/M
;
_chemical_formula_sum "Si O2"
_cell_formula_units_Z 26
_cell_length_a 13.715094
_cell_length_b 9.543978
_cell_length_c 20.399235
_cell_angle_alpha 90.000000
_cell_angle_beta 147.126486
_cell_angle_gamma 90.000000
_cell_volume 1449.342230
_symmetry_space_group_name_H-M "P 2/M"
_symmetry_group_IT_number 10
_symmetry_cell_setting 'monoclinic'
loop_
_space_group_symop_operation_xyz
x,y,z
-x,y,-z
-x,-y,-z
x,-y,z
loop_
_atom_site_type_symbol
_atom_site_label
_atom_site_fract_x
_atom_site_fract_y
_atom_site_fract_z
Si Si1 0.122567 0.158493 0.931622
Si Si2 0.564003 0.831174 0.462360
Si Si3 0.038279 0.168365 0.293529
Si Si4 0.000000 0.751350 0.000000
Si Si5 0.394427 0.341233 0.251866
Si Si6 0.477175 0.332554 0.151781
Si Si7 0.340300 0.168409 0.857111
O O1 0.982858 0.196417 0.795910
O O2 0.189724 0.000000 0.955271
O O3 0.285501 0.267075 0.022786
O O4 0.037619 0.162313 0.955420
O O5 0.500000 0.797706 0.500000
O O6 0.770988 0.781066 0.572484
O O7 0.446199 0.761085 0.339571
O O8 0.555497 0.000000 0.451029
O O9 0.852847 0.212763 0.222893
O O10 0.043833 0.000000 0.303324
O O11 0.818139 0.666420 0.883653
O O12 0.442201 0.500000 0.296392
O O13 0.491052 0.303851 0.237524
O O14 0.481100 0.500000 0.144689
O O15 0.617455 0.252493 0.185118
O O16 0.338945 0.000000 0.845361
O O17 0.500000 0.196088 0.000000
#
# Coordination Sequence:
#
# PCOD9143624 Si02
#       7
#     4   4   4   2   4   4   4
#     4  10  18  32  53  80 111 143 181 225 275 332
#     4  10  21  38  59  83 112 145 184 231 274 323
#     4   9  18  33  54  80 111 142 179 227 278 327
#     4  10  20  32  56  84 108 140 184 232 276 322
#     4  10  22  39  56  77 111 150 185 225 278 333
#     4  10  21  35  52  79 114 146 179 229 282 327
#     4  10  18  33  57  82 109 146 185 228 280 331
#
# _framework density 17.939171999999999
#
# number of rings (size 3 to 8) (size 9 to 14) (size 15 to 20)
#    0.000    2.154    1.538    1.846    0.000    6.154 
#    0.000    2.308    0.000    4.615    0.000    0.000 
#    0.000    0.000    0.000    0.000    0.000    0.000 
#
# Total GULP energy -144961.420296 kJ/mol
# GULP energy per Si atom -5575.439242 kJ/mol
# Density = 1.789834 g / cm^3
# Si number density = 17.939172 Si / 1000 Ang^3
#
#
#
# Elastic Constant Matrix: (Units=GPa)
#
#
# Indices 1 2 3 4 5 6 
#
# 1 122.9595 41.2259 55.2339 0.0000 -2.2114 0.0000
# 2 41.2259 52.9310 31.2514 0.0000 -11.7183 0.0000
# 3 55.2339 31.2514 96.8174 0.0000 -2.8093 0.0000
# 4 0.0000 0.0000 0.0000 7.4527 0.0000 1.5312
# 5 -2.2114 -11.7183 -2.8093 0.0000 27.0175 0.0000
# 6 0.0000 0.0000 0.0000 1.5312 0.0000 4.3580
#
#
#
# Elastic Compliance Matrix: (Units=1/GPa)
#
#
# Indices 1 2 3 4 5 6 
#
# 1 0.012901 -0.007758 -0.004938 0.000000 -0.002822 0.000000
# 2 -0.007758 0.030636 -0.005112 0.000000 0.012121 0.000000
# 3 -0.004938 -0.005112 0.014764 0.000000 -0.001086 0.000000
# 4 0.000000 0.000000 0.000000 0.144620 0.000000 -0.050814
# 5 -0.002822 0.012121 -0.001086 0.000000 0.041927 0.000000
# 6 0.000000 0.000000 0.000000 -0.050814 0.000000 0.247316
#
#
# Mechanical properties :
#
#
# Convention : Reuss Voigt Hill
#
# Bulk Modulus (GPa) = 44.07734 58.68114 51.37924
# Shear Modulus (GPa) = 9.33984 17.43207 13.38596
#
# Velocity S-wave (km/s) = 2.28423 3.12064 2.73460
# Velocity P-wave (km/s) = 5.61967 6.76511 6.21882
#
# Compressibility (1/GPa) = 0.02268740
#
# Stress axis : x y z
#
# Youngs Moduli (GPa) = 77.51298 32.64125 67.73151
#
# Poissons Ratio (x) = 0.25322 0.33445
# Poissons Ratio (y) = 0.60131 0.34621
# Poissons Ratio (z) = 0.38275 0.16685
#
# Static dielectric constant tensor:
#      x y z
#    x 1.643430 0.000000 0.017350 
#    y 0.000000 1.593520 0.000000 
#    z 0.017350 0.000000 1.604850 
# 
# From -- ./inp_files/84783.got.cif
#   From: 2010.05.17/outbox.cif.g08.bks.cpg/sg10_43_cif.got.tgz:84783.got - 2010.06.03 11:33:40.
