data_PCOD9143799
_publ_section_title
;
Structure prediction by ZEFSAII (Michael W. Deem and Ramdas Pophale) SiO2 
 PCOD9143799
Probable space group: P 2/M
;
_chemical_formula_sum "Si O2"
_cell_formula_units_Z 16
_cell_length_a 7.284243
_cell_length_b 11.772670
_cell_length_c 9.409185
_cell_angle_alpha 90.000000
_cell_angle_beta 92.608677
_cell_angle_gamma 90.000000
_cell_volume 806.048373
_symmetry_space_group_name_H-M "P 2/M"
_symmetry_group_IT_number 10
_symmetry_cell_setting 'monoclinic'
loop_
_space_group_symop_operation_xyz
x,y,z
-x,y,-z
-x,-y,-z
x,-y,z
loop_
_atom_site_type_symbol
_atom_site_label
_atom_site_fract_x
_atom_site_fract_y
_atom_site_fract_z
Si Si1 0.228372 0.751478 0.611862
Si Si2 0.691851 0.500000 0.419943
Si Si3 0.857132 0.132674 0.676507
Si Si4 0.560602 0.500000 0.841222
Si Si5 0.429825 0.251264 0.159720
O O1 0.213376 0.621098 0.556648
O O2 0.245918 0.828922 0.472179
O O3 0.399496 0.759962 0.725131
O O4 0.044122 0.794592 0.681845
O O5 0.500000 0.500000 0.500000
O O6 0.626433 0.500000 0.254901
O O7 0.725596 0.162829 0.802414
O O8 0.900520 0.000000 0.672396
O O9 0.652379 0.378719 0.816622
O O10 0.500000 0.500000 0.000000
O O11 0.500000 0.242291 0.000000
#
# Coordination Sequence:
#
# PCOD9143799 Si02
#       5
#     4   2   4   2   4
#     4  10  21  38  59  85 116 146 185 234 285 341
#     4  10  18  32  59  91 114 140 181 233 288 337
#     4  11  24  39  57  81 112 156 199 232 277 335
#     4   8  16  33  55  81 112 141 174 219 280 347
#     4  10  21  38  61  86 114 149 187 235 289 337
#
# _framework density 19.849924999999999
#
# number of rings (size 3 to 8) (size 9 to 14) (size 15 to 20)
#    0.000    2.000    0.000    5.250    0.000    7.500 
#    0.000    1.250    0.000    9.000    0.000    0.000 
#    0.000    0.000    0.000    0.000    0.000    0.000 
#
# Total GULP energy -89231.214541 kJ/mol
# GULP energy per Si atom -5576.950909 kJ/mol
# Density = 1.980475 g / cm^3
# Si number density = 19.849925 Si / 1000 Ang^3
#
#
#
# Elastic Constant Matrix: (Units=GPa)
#
#
# Indices 1 2 3 4 5 6 
#
# 1 91.9022 65.3169 40.9111 0.0000 -18.7236 0.0000
# 2 65.3169 153.2654 11.3769 0.0000 -19.3594 0.0000
# 3 40.9111 11.3769 63.0241 0.0000 -15.1823 0.0000
# 4 0.0000 0.0000 0.0000 279.9694 0.0000 166.4674
# 5 -18.7236 -19.3594 -15.1823 0.0000 23.7693 0.0000
# 6 0.0000 0.0000 0.0000 166.4674 0.0000 142.3401
#
#
#
# Elastic Compliance Matrix: (Units=1/GPa)
#
#
# Indices 1 2 3 4 5 6 
#
# 1 0.023360 -0.008598 -0.012842 0.000000 0.003195 0.000000
# 2 -0.008598 0.010439 0.004862 0.000000 0.004834 0.000000
# 3 -0.012842 0.004862 0.025814 0.000000 0.010333 0.000000
# 4 0.000000 0.000000 0.000000 0.011725 0.000000 -0.013713
# 5 0.003195 0.004834 0.010333 0.000000 0.055125 0.000000
# 6 0.000000 0.000000 0.000000 -0.013713 0.000000 0.023063
#
#
# Mechanical properties :
#
#
# Convention : Reuss Voigt Hill
#
# Bulk Modulus (GPa) = 37.79842 60.37797 49.08819
# Shear Modulus (GPa) = 26.10941 101.92157 64.01549
#
# Velocity S-wave (km/s) = 3.63070 7.17339 5.68505
# Velocity P-wave (km/s) = 6.05470 9.95456 8.23871
#
# Compressibility (1/GPa) = 0.02645613
#
# Stress axis : x y z
#
# Youngs Moduli (GPa) = 42.80861 95.79713 38.73803
#
# Poissons Ratio (x) = 0.82370 0.49746
# Poissons Ratio (y) = 0.36808 -0.18833
# Poissons Ratio (z) = 0.54974 -0.46574
#
# Static dielectric constant tensor:
#      x y z
#    x 1.685830 0.000000 0.004610 
#    y 0.000000 1.753190 0.000000 
#    z 0.004610 0.000000 1.680690 
# 
# From -- ./inp_files/16926.got.cif
#   From: 2010.05.17/outbox.cif.g08.bks.cpg/sg10_9_cif.got.tgz:16926.got - 2010.06.03 11:33:40.
