data_PCOD9143612
_publ_section_title
;
Structure prediction by ZEFSAII (Michael W. Deem and Ramdas Pophale) SiO2 
 PCOD9143612
Probable space group: P 2/M
;
_chemical_formula_sum "Si O2"
_cell_formula_units_Z 32
_cell_length_a 20.319469
_cell_length_b 8.443040
_cell_length_c 11.790001
_cell_angle_alpha 90.000000
_cell_angle_beta 58.772074
_cell_angle_gamma 90.000000
_cell_volume 1729.608766
_symmetry_space_group_name_H-M "P 2/M"
_symmetry_group_IT_number 10
_symmetry_cell_setting 'monoclinic'
loop_
_space_group_symop_operation_xyz
x,y,z
-x,y,-z
-x,-y,-z
x,-y,z
loop_
_atom_site_type_symbol
_atom_site_label
_atom_site_fract_x
_atom_site_fract_y
_atom_site_fract_z
Si Si1 0.129321 0.191783 0.196744
Si Si2 0.030486 0.808954 0.753654
Si Si3 0.162476 0.309651 0.780429
Si Si4 0.571317 0.311860 0.579189
Si Si5 0.407599 0.185864 0.690687
Si Si6 0.731378 0.691178 0.527579
Si Si7 0.135210 0.190288 0.448538
Si Si8 0.748200 0.689585 0.075511
O O1 0.116383 0.242987 0.338304
O O2 0.057143 0.244096 0.183968
O O3 0.131588 0.000000 0.193050
O O4 0.208073 0.257624 0.076138
O O5 0.078904 0.751129 0.817996
O O6 0.076955 0.754053 0.599117
O O7 0.031242 0.000000 0.754133
O O8 0.160273 0.500000 0.783530
O O9 0.221410 0.259678 0.627705
O O10 0.197778 0.255371 0.867587
O O11 0.560891 0.500000 0.601386
O O12 0.490176 0.227245 0.670898
O O13 0.594592 0.277774 0.427549
O O14 0.643098 0.258797 0.591716
O O15 0.335662 0.237913 0.830153
O O16 0.404077 0.000000 0.669384
O O17 0.732744 0.500000 0.530324
O O18 0.779894 0.757892 0.588503
O O19 0.130840 0.000000 0.452875
O O20 0.742027 0.500000 0.085937
#
# Coordination Sequence:
#
# PCOD9143612 Si02
#       8
#     4   4   4   4   4   4   4   4
#     4  10  21  36  52  74 103 136 176 218 260 308
#     4   9  18  33  54  77 101 132 170 216 265 310
#     4   9  18  33  50  72 102 135 171 211 256 306
#     4  10  18  32  53  78 110 142 170 205 255 306
#     4  11  21  32  50  79 109 137 172 213 253 302
#     4   9  17  31  52  77 105 135 169 211 254 301
#     4   9  18  33  54  77 102 134 172 217 264 306
#     4  11  22  37  53  71 103 144 178 209 257 315
#
# _framework density 18.501294999999999
#
# number of rings (size 3 to 8) (size 9 to 14) (size 15 to 20)
#    0.000    2.250    1.250    3.000    0.000    5.000 
#    0.000    2.500    0.000    4.500    0.000    5.250 
#    0.000    0.000    0.000    0.000    0.000    0.000 
#
# Total GULP energy -178568.069329 kJ/mol
# GULP energy per Si atom -5580.252167 kJ/mol
# Density = 1.845918 g / cm^3
# Si number density = 18.501295 Si / 1000 Ang^3
#
#
#
# Elastic Constant Matrix: (Units=GPa)
#
#
# Indices 1 2 3 4 5 6 
#
# 1 65.0558 1.3280 6.5208 0.0000 -26.0262 0.0000
# 2 1.3280 9.0952 2.5685 0.0000 -0.7428 0.0000
# 3 6.5208 2.5685 42.3400 0.0000 -21.4747 0.0000
# 4 0.0000 0.0000 0.0000 23.4447 0.0000 -3.6395
# 5 -26.0262 -0.7428 -21.4747 0.0000 25.7467 0.0000
# 6 0.0000 0.0000 0.0000 -3.6395 0.0000 27.0398
#
#
#
# Elastic Compliance Matrix: (Units=1/GPa)
#
#
# Indices 1 2 3 4 5 6 
#
# 1 0.034546 -0.006929 0.022030 0.000000 0.053096 0.000000
# 2 -0.006929 0.113519 -0.013364 0.000000 -0.014876 0.000000
# 3 0.022030 -0.013364 0.055698 0.000000 0.068339 0.000000
# 4 0.000000 0.000000 0.000000 0.043564 0.000000 0.005864
# 5 0.053096 -0.014876 0.068339 0.000000 0.149083 0.000000
# 6 0.000000 0.000000 0.000000 0.005864 0.000000 0.037772
#
#
# Mechanical properties :
#
#
# Convention : Reuss Voigt Hill
#
# Bulk Modulus (GPa) = 4.82542 15.25841 10.04191
# Shear Modulus (GPa) = 10.00425 22.31784 16.16105
#
# Velocity S-wave (km/s) = 2.32789 3.47693 2.95872
# Velocity P-wave (km/s) = 3.13676 4.93800 4.13661
#
# Compressibility (1/GPa) = 0.20723580
#
# Stress axis : x y z
#
# Youngs Moduli (GPa) = 28.94664 8.80910 17.95409
#
# Poissons Ratio (x) = 0.06104 -0.39553
# Poissons Ratio (y) = 0.20057 0.23995
# Poissons Ratio (z) = -0.63769 0.11773
#
# Static dielectric constant tensor:
#      x y z
#    x 1.651220 0.000000 -0.005670 
#    y 0.000000 1.630660 0.000000 
#    z -0.005670 0.000000 1.625950 
# 
# From -- ./inp_files/54849.got.cif
#   From: 2010.05.17/outbox.cif.g08.bks.cpg/sg10_28_cif.got.tgz:54849.got - 2010.06.03 11:33:40.
