data_PCOD9143789
_publ_section_title
;
Structure prediction by ZEFSAII (Michael W. Deem and Ramdas Pophale) SiO2 
 PCOD9143789
Probable space group: P 2/M
;
_chemical_formula_sum "Si O2"
_cell_formula_units_Z 30
_cell_length_a 13.546997
_cell_length_b 17.462433
_cell_length_c 18.415484
_cell_angle_alpha 90.000000
_cell_angle_beta 21.333121
_cell_angle_gamma 90.000000
_cell_volume 1584.825268
_symmetry_space_group_name_H-M "P 2/M"
_symmetry_group_IT_number 10
_symmetry_cell_setting 'monoclinic'
loop_
_space_group_symop_operation_xyz
x,y,z
-x,y,-z
-x,-y,-z
x,-y,z
loop_
_atom_site_type_symbol
_atom_site_label
_atom_site_fract_x
_atom_site_fract_y
_atom_site_fract_z
Si Si1 0.397369 0.201404 0.277532
Si Si2 0.929160 0.298489 0.285063
Si Si3 0.543900 0.174815 0.388827
Si Si4 0.689102 0.156403 0.940260
Si Si5 0.939757 0.272013 0.965151
Si Si6 0.185318 0.914127 0.530693
Si Si7 0.000000 0.668860 0.500000
Si Si8 0.178924 0.591395 0.228438
O O1 0.186740 0.150846 0.467777
O O2 0.248752 0.274172 0.345465
O O3 0.522622 0.148260 0.128549
O O4 0.640366 0.237079 0.159632
O O5 0.150318 0.235252 0.156945
O O6 0.981178 0.314666 0.164015
O O7 0.993060 0.368548 0.294181
O O8 0.646202 0.251871 0.487520
O O9 0.500000 0.145311 0.500000
O O10 0.441131 0.111778 0.403604
O O11 0.851251 0.201277 0.173358
O O12 0.920786 0.095414 0.762295
O O13 0.500000 0.161719 0.000000
O O14 0.000000 0.314519 0.000000
O O15 0.206266 0.000000 0.488626
O O16 0.072642 0.619968 0.379336
O O17 0.160348 0.500000 0.235807
O O18 0.500000 0.612300 0.000000
#
# Coordination Sequence:
#
# PCOD9143789 Si02
#       8
#     4   4   4   4   4   4   2   4
#     4  11  22  37  61  88 115 148 199 251 289 342
#     4   9  18  34  58  84 112 151 190 242 290 340
#     4   9  18  35  56  79 109 147 200 245 286 338
#     4  10  20  37  58  81 108 148 200 243 288 348
#     4  10  18  32  58  88 111 144 202 254 286 332
#     4  11  23  37  53  79 118 155 191 242 303 353
#     4  12  23  40  69  92 114 156 200 244 291 344
#     4  11  23  39  60  93 130 156 187 234 296 354
#
# _framework density 18.929531999999998
#
# number of rings (size 3 to 8) (size 9 to 14) (size 15 to 20)
#    0.000    1.733    1.333    6.200    0.000    1.067 
#    0.000    3.667    0.000    4.000    0.000    0.000 
#    0.000    0.000    0.000    0.000    0.000    0.000 
#
# Total GULP energy -167344.088312 kJ/mol
# GULP energy per Si atom -5578.136277 kJ/mol
# Density = 1.888645 g / cm^3
# Si number density = 18.929532 Si / 1000 Ang^3
#
#
#
# Elastic Constant Matrix: (Units=GPa)
#
#
# Indices 1 2 3 4 5 6 
#
# 1 111.0934 23.5877 14.6763 0.0000 7.9127 0.0000
# 2 23.5877 56.9991 4.5851 0.0000 7.2762 0.0000
# 3 14.6763 4.5851 66.1615 0.0000 4.1156 0.0000
# 4 0.0000 0.0000 0.0000 10.1128 0.0000 10.9689
# 5 7.9127 7.2762 4.1156 0.0000 44.1021 0.0000
# 6 0.0000 0.0000 0.0000 10.9689 0.0000 -6.0520
#
#
#
# Elastic Compliance Matrix: (Units=1/GPa)
#
#
# Indices 1 2 3 4 5 6 
#
# 1 0.010159 -0.003922 -0.001920 0.000000 -0.000996 0.000000
# 2 -0.003922 0.019511 -0.000327 0.000000 -0.002485 0.000000
# 3 -0.001920 -0.000327 0.015629 0.000000 -0.001060 0.000000
# 4 0.000000 0.000000 0.000000 0.033341 0.000000 0.060428
# 5 -0.000996 -0.002485 -0.001060 0.000000 0.023362 0.000000
# 6 0.000000 0.000000 0.000000 0.060428 0.000000 -0.055712
#
#
# Mechanical properties :
#
#
# Convention : Reuss Voigt Hill
#
# Bulk Modulus (GPa) = 30.34016 35.55023 32.94519
# Shear Modulus (GPa) = 71.82325 22.39291 47.10808
#
# Velocity S-wave (km/s) = 6.16643 3.44315 4.99400
# Velocity P-wave (km/s) = 8.17083 5.88457 7.12006
#
# Compressibility (1/GPa) = 0.03295962
#
# Stress axis : x y z
#
# Youngs Moduli (GPa) = 98.43662 51.25358 63.98358
#
# Poissons Ratio (x) = 0.20104 0.12283
# Poissons Ratio (y) = 0.38610 0.02095
# Poissons Ratio (z) = 0.18897 0.01678
#
# Static dielectric constant tensor:
#      x y z
#    x 1.721070 0.000000 0.040130 
#    y 0.000000 1.601200 0.000000 
#    z 0.040130 0.000000 1.714550 
# 
# From -- ./inp_files/85346.got.cif
#   From: 2010.05.17/outbox.cif.g08.bks.cpg/sg10_43_cif.got.tgz:85346.got - 2010.06.03 11:33:40.
