data_PCOD9143048
_publ_section_title
;
Structure prediction by ZEFSAII (Michael W. Deem and Ramdas Pophale) SiO2 
 PCOD9143048
Probable space group: P 2/M
;
_chemical_formula_sum "Si O2"
_cell_formula_units_Z 24
_cell_length_a 19.953984
_cell_length_b 12.346168
_cell_length_c 15.039386
_cell_angle_alpha 90.000000
_cell_angle_beta 19.138332
_cell_angle_gamma 90.000000
_cell_volume 1214.694642
_symmetry_space_group_name_H-M "P 2/M"
_symmetry_group_IT_number 10
_symmetry_cell_setting 'monoclinic'
loop_
_space_group_symop_operation_xyz
x,y,z
-x,y,-z
-x,-y,-z
x,-y,z
loop_
_atom_site_type_symbol
_atom_site_label
_atom_site_fract_x
_atom_site_fract_y
_atom_site_fract_z
Si Si1 0.336609 0.500000 0.542705
Si Si2 0.904748 0.500000 0.974557
Si Si3 0.904456 0.121610 0.478657
Si Si4 0.401284 0.267576 0.407511
Si Si5 0.018872 0.732420 0.172339
Si Si6 0.329332 0.878394 0.053769
Si Si7 0.783429 0.124082 0.216570
O O1 0.452327 0.389380 0.373173
O O2 0.123227 0.500000 0.753538
O O3 0.264990 0.500000 0.735010
O O4 0.896651 0.610625 0.928850
O O5 0.938451 0.211797 0.362220
O O6 0.726094 0.142858 0.773911
O O7 0.113993 0.117918 0.272013
O O8 0.873081 0.000000 0.479816
O O9 0.175905 0.274163 0.648186
O O10 0.377836 0.188534 0.521091
O O11 0.539798 0.211803 0.159536
O O12 0.175675 0.811479 0.925410
O O13 0.421141 0.000000 0.931746
O O14 0.725388 0.000000 0.274609
O O15 0.000000 0.122997 0.000000
#
# Coordination Sequence:
#
# PCOD9143048 Si02
#       7
#     2   2   4   4   4   4   4
#     4   9  16  30  50  73 102 138 169 196 241 296
#     4   9  16  30  50  73 102 138 169 196 241 296
#     4   9  19  36  54  71  97 133 167 203 253 305
#     4  10  18  30  51  76 101 130 167 206 243 290
#     4  10  18  30  51  76 101 130 167 206 243 290
#     4   9  19  36  54  71  97 133 167 203 253 305
#     4   9  16  25  42  72 103 125 152 197 248 292
#
# _framework density 19.758053
#
# number of rings (size 3 to 8) (size 9 to 14) (size 15 to 20)
#    0.000    2.667    1.667    2.000    0.000    2.667 
#    0.000    4.167    0.000    9.000    0.000    0.000 
#    0.000    0.000    0.000    0.000    0.000    0.000 
#
# Total GULP energy -133926.179410 kJ/mol
# GULP energy per Si atom -5580.257475 kJ/mol
# Density = 1.971308 g / cm^3
# Si number density = 19.758053 Si / 1000 Ang^3
#
#
#
# Elastic Constant Matrix: (Units=GPa)
#
#
# Indices 1 2 3 4 5 6 
#
# 1 60.5822 49.4382 8.8841 0.0000 18.5273 0.0000
# 2 49.4382 237.1553 86.0915 0.0000 55.6279 0.0000
# 3 8.8841 86.0915 90.3918 0.0000 26.7328 0.0000
# 4 0.0000 0.0000 0.0000 19.2819 0.0000 7.8636
# 5 18.5273 55.6279 26.7328 0.0000 44.4003 0.0000
# 6 0.0000 0.0000 0.0000 7.8636 0.0000 14.0876
#
#
#
# Elastic Compliance Matrix: (Units=1/GPa)
#
#
# Indices 1 2 3 4 5 6 
#
# 1 0.021353 -0.004564 0.003884 0.000000 -0.005530 0.000000
# 2 -0.004564 0.008655 -0.006267 0.000000 -0.005166 0.000000
# 3 0.003884 -0.006267 0.018015 0.000000 -0.004616 0.000000
# 4 0.000000 0.000000 0.000000 0.067148 0.000000 -0.037481
# 5 -0.005530 -0.005166 -0.004616 0.000000 0.034081 0.000000
# 6 0.000000 0.000000 0.000000 -0.037481 0.000000 0.091906
#
#
# Mechanical properties :
#
#
# Convention : Reuss Voigt Hill
#
# Bulk Modulus (GPa) = 29.30105 75.21744 52.25924
# Shear Modulus (GPa) = 18.76687 31.80167 25.28427
#
# Velocity S-wave (km/s) = 3.08528 4.01628 3.58116
# Velocity P-wave (km/s) = 5.24920 7.72394 6.60353
#
# Compressibility (1/GPa) = 0.03412847
#
# Stress axis : x y z
#
# Youngs Moduli (GPa) = 46.83265 115.54538 55.50992
#
# Poissons Ratio (x) = 0.52733 -0.21558
# Poissons Ratio (y) = 0.21374 0.34786
# Poissons Ratio (z) = -0.18188 0.72408
#
# Static dielectric constant tensor:
#      x y z
#    x 1.720360 0.000000 -0.038670 
#    y 0.000000 1.692480 0.000000 
#    z -0.038670 0.000000 1.694880 
# 
# From -- ./inp_files/24086.got.cif
#   From: 2010.05.17/outbox.cif.g08.bks.cpg/sg10_13_cif.got.tgz:24086.got - 2010.06.03 11:33:40.
