data_PCOD9143102
_publ_section_title
;
Structure prediction by ZEFSAII (Michael W. Deem and Ramdas Pophale) SiO2 
 PCOD9143102
Probable space group: P 2/M
;
_chemical_formula_sum "Si O2"
_cell_formula_units_Z 32
_cell_length_a 11.190422
_cell_length_b 9.257855
_cell_length_c 22.423366
_cell_angle_alpha 90.000000
_cell_angle_beta 131.192967
_cell_angle_gamma 90.000000
_cell_volume 1748.081593
_symmetry_space_group_name_H-M "P 2/M"
_symmetry_group_IT_number 10
_symmetry_cell_setting 'monoclinic'
loop_
_space_group_symop_operation_xyz
x,y,z
-x,y,-z
-x,-y,-z
x,-y,z
loop_
_atom_site_type_symbol
_atom_site_label
_atom_site_fract_x
_atom_site_fract_y
_atom_site_fract_z
Si Si1 0.906791 0.830999 0.163969
Si Si2 0.144632 0.172732 0.404445
Si Si3 0.824356 0.326426 0.464783
Si Si4 0.471390 0.331686 0.163063
Si Si5 0.842847 0.333178 0.262124
Si Si6 0.502965 0.673756 0.698510
Si Si7 0.734664 0.169882 0.687364
Si Si8 0.377852 0.171392 0.012520
O O1 0.846401 0.726640 0.196094
O O2 0.095685 0.810685 0.223466
O O3 0.881204 0.000000 0.173416
O O4 0.799763 0.805877 0.070959
O O5 0.212835 0.247949 0.485304
O O6 0.233718 0.208743 0.371539
O O7 0.966761 0.234652 0.338197
O O8 0.143116 0.000000 0.409572
O O9 0.826409 0.500000 0.474124
O O10 0.682854 0.291597 0.372548
O O11 0.000000 0.284059 0.500000
O O12 0.424711 0.500000 0.142981
O O13 0.662914 0.325885 0.224353
O O14 0.430516 0.275023 0.215640
O O15 0.407923 0.248375 0.084847
O O16 0.895570 0.500000 0.282726
O O17 0.514893 0.500000 0.702275
O O18 0.602839 0.738988 0.677385
O O19 0.694608 0.000000 0.676055
O O20 0.403840 0.000000 0.028761
O O21 0.500000 0.219043 0.000000
#
# Coordination Sequence:
#
# PCOD9143102 Si02
#       8
#     4   4   4   4   4   4   4   4
#     4   9  18  34  53  78 112 143 177 224 274 322
#     4  10  21  36  56  83 113 144 183 228 272 320
#     4  10  21  39  61  84 114 145 177 221 276 330
#     4  10  21  35  52  78 112 145 181 225 278 330
#     4  10  18  30  52  80 110 144 180 219 272 331
#     4  10  22  39  57  78 107 145 186 229 270 322
#     4   9  20  38  57  77 107 147 187 227 268 318
#     4  10  19  32  54  83 113 143 179 225 275 328
#
# _framework density 18.305783000000002
#
# number of rings (size 3 to 8) (size 9 to 14) (size 15 to 20)
#    0.000    2.250    1.250    2.250    0.000    7.500 
#    0.000    4.375    0.000    3.750    0.000    0.000 
#    0.000    0.000    0.000    0.000    0.000    0.000 
#
# Total GULP energy -178494.740622 kJ/mol
# GULP energy per Si atom -5577.960644 kJ/mol
# Density = 1.826412 g / cm^3
# Si number density = 18.305783 Si / 1000 Ang^3
#
#
#
# Elastic Constant Matrix: (Units=GPa)
#
#
# Indices 1 2 3 4 5 6 
#
# 1 64.1786 25.3124 34.1791 0.0000 -7.5615 0.0000
# 2 25.3124 28.3561 37.1718 0.0000 -7.8864 0.0000
# 3 34.1791 37.1718 119.2085 0.0000 -22.7613 0.0000
# 4 0.0000 0.0000 0.0000 22.1718 0.0000 -12.1032
# 5 -7.5615 -7.8864 -22.7613 0.0000 16.9785 0.0000
# 6 0.0000 0.0000 0.0000 -12.1032 0.0000 5.7387
#
#
#
# Elastic Compliance Matrix: (Units=1/GPa)
#
#
# Indices 1 2 3 4 5 6 
#
# 1 0.024062 -0.021001 -0.000224 0.000000 0.000661 0.000000
# 2 -0.021001 0.078154 -0.017745 0.000000 0.003159 0.000000
# 3 -0.000224 -0.017745 0.016657 0.000000 0.013988 0.000000
# 4 0.000000 0.000000 0.000000 -0.298086 0.000000 -0.628683
# 5 0.000661 0.003159 0.013988 0.000000 0.079412 0.000000
# 6 0.000000 0.000000 0.000000 -0.628683 0.000000 -1.151677
#
#
# Mechanical properties :
#
#
# Convention : Reuss Voigt Hill
#
# Bulk Modulus (GPa) = 24.43138 45.00777 34.71957
# Shear Modulus (GPa) = -4.31074 16.64979 6.16952
#
# Velocity S-wave (km/s) = -1.53622 3.01913 1.83782
# Velocity P-wave (km/s) = 3.19822 6.06576 4.84882
#
# Compressibility (1/GPa) = 0.04093096
#
# Stress axis : x y z
#
# Youngs Moduli (GPa) = 41.55973 12.79529 60.03438
#
# Poissons Ratio (x) = 0.26872 0.01345
# Poissons Ratio (y) = 0.87282 1.06533
# Poissons Ratio (z) = 0.00931 0.22706
#
# Static dielectric constant tensor:
#      x y z
#    x 1.623930 0.000000 0.004350 
#    y 0.000000 1.612160 0.000000 
#    z 0.004350 0.000000 1.649540 
# 
# From -- ./inp_files/83621.got.cif
#   From: 2010.05.17/outbox.cif.g08.bks.cpg/sg10_42_cif.got.tgz:83621.got - 2010.06.03 11:33:40.
