data_PCOD9143025
_publ_section_title
;
Structure prediction by ZEFSAII (Michael W. Deem and Ramdas Pophale) SiO2 
 PCOD9143025
Probable space group: P 2/M
;
_chemical_formula_sum "Si O2"
_cell_formula_units_Z 32
_cell_length_a 20.813129
_cell_length_b 7.387502
_cell_length_c 26.798082
_cell_angle_alpha 90.000000
_cell_angle_beta 21.658026
_cell_angle_gamma 90.000000
_cell_volume 1520.697126
_symmetry_space_group_name_H-M "P 2/M"
_symmetry_group_IT_number 10
_symmetry_cell_setting 'monoclinic'
loop_
_space_group_symop_operation_xyz
x,y,z
-x,y,-z
-x,-y,-z
x,-y,z
loop_
_atom_site_type_symbol
_atom_site_label
_atom_site_fract_x
_atom_site_fract_y
_atom_site_fract_z
Si Si1 0.305862 0.715155 0.150417
Si Si2 0.191275 0.784517 0.346450
Si Si3 0.632209 0.721536 0.592246
Si Si4 0.514414 0.710955 0.785501
Si Si5 0.986417 0.720118 0.090061
Si Si6 0.720044 0.720072 0.201603
Si Si7 0.130730 0.721445 0.089977
Si Si8 0.014382 0.278383 0.283383
O O1 0.315228 0.500000 0.134935
O O2 0.243813 0.740845 0.251918
O O3 0.161145 0.784049 0.216383
O O4 0.500000 0.787586 0.000000
O O5 0.339849 0.721987 0.277289
O O6 0.000000 0.714171 0.500000
O O7 0.185591 0.000000 0.354855
O O8 0.635430 0.500000 0.590033
O O9 0.584899 0.784377 0.682250
O O10 0.475205 0.778077 0.669256
O O11 0.822813 0.780476 0.438174
O O12 0.479717 0.500000 0.800266
O O13 0.328987 0.783825 0.937526
O O14 0.984503 0.500000 0.091710
O O15 0.814690 0.779341 0.184089
O O16 0.152206 0.772271 0.936251
O O17 0.016386 0.778527 0.124949
O O18 0.719316 0.500000 0.202709
O O19 0.130401 0.500000 0.091106
O O20 0.061172 0.779258 0.193743
O O21 0.014505 0.500000 0.284015
#
# Coordination Sequence:
#
# PCOD9143025 Si02
#       8
#     4   4   4   4   4   4   4   4
#     4  10  20  36  56  76  96 126 169 210 248 296
#     4  11  24  38  51  72 102 131 160 201 253 304
#     4   9  15  24  38  61  88 116 151 191 234 277
#     4  10  18  30  51  71  88 118 162 201 235 282
#     4   8  12  19  33  53  82 117 151 185 221 266
#     4   8  12  19  32  53  82 117 152 184 220 270
#     4   9  15  25  40  63  88 114 149 192 234 271
#     4   9  17  26  39  60  88 114 144 193 242 278
#
# _framework density 21.04298
#
# number of rings (size 3 to 8) (size 9 to 14) (size 15 to 20)
#    0.000    2.750    1.250    2.625    0.000    4.250 
#    0.000    0.625    0.000    3.750    0.000    0.000 
#    0.000    2.000    0.000    0.000    0.000   12.875 
#
# Total GULP energy -178685.145618 kJ/mol
# GULP energy per Si atom -5583.910801 kJ/mol
# Density = 2.099508 g / cm^3
# Si number density = 21.042980 Si / 1000 Ang^3
#
#
#
# Elastic Constant Matrix: (Units=GPa)
#
#
# Indices 1 2 3 4 5 6 
#
# 1 223.8594 -7.4501 140.6291 0.0000 -21.2171 0.0000
# 2 -7.4501 70.1876 5.4685 0.0000 -0.7189 0.0000
# 3 140.6291 5.4685 197.9241 0.0000 -2.8438 0.0000
# 4 0.0000 0.0000 0.0000 -8.8075 0.0000 8.6285
# 5 -21.2171 -0.7189 -2.8438 0.0000 38.9012 0.0000
# 6 0.0000 0.0000 0.0000 8.6285 0.0000 -45.1539
#
#
#
# Elastic Compliance Matrix: (Units=1/GPa)
#
#
# Indices 1 2 3 4 5 6 
#
# 1 0.008887 0.001479 -0.006292 0.000000 0.004415 0.000000
# 2 0.001479 0.014526 -0.001438 0.000000 0.000970 0.000000
# 3 -0.006292 -0.001438 0.009523 0.000000 -0.002762 0.000000
# 4 0.000000 0.000000 0.000000 -0.139691 0.000000 -0.026694
# 5 0.004415 0.000970 -0.002762 0.000000 0.027930 0.000000
# 6 0.000000 0.000000 0.000000 -0.026694 0.000000 -0.027247
#
#
# Mechanical properties :
#
#
# Convention : Reuss Voigt Hill
#
# Bulk Modulus (GPa) = 48.93765 85.47403 67.20584
# Shear Modulus (GPa) = -57.63216 20.54288 -18.54464
#
# Velocity S-wave (km/s) = -5.23902 3.12786 -2.97185
# Velocity P-wave (km/s) = 3.64553 7.33155 4.49788
#
# Compressibility (1/GPa) = 0.02043416
#
# Stress axis : x y z
#
# Youngs Moduli (GPa) = 112.51804 68.83980 105.00688
#
# Poissons Ratio (x) = -0.10180 0.66072
# Poissons Ratio (y) = -0.16639 0.15102
# Poissons Ratio (z) = 0.70798 0.09900
#
# Static dielectric constant tensor:
#      x y z
#    x 1.712370 0.000000 -0.007370 
#    y 0.000000 1.789760 0.000000 
#    z -0.007370 0.000000 1.713880 
# 
# From -- ./inp_files/87003.got.cif
#   From: 2010.05.17/outbox.cif.g08.bks.cpg/sg10_44_cif.got.tgz:87003.got - 2010.06.03 11:33:40.
