data_PCOD9143374
_publ_section_title
;
Structure prediction by ZEFSAII (Michael W. Deem and Ramdas Pophale) SiO2 
 PCOD9143374
Probable space group: P 2/M
;
_chemical_formula_sum "Si O2"
_cell_formula_units_Z 28
_cell_length_a 25.425763
_cell_length_b 7.823778
_cell_length_c 19.487994
_cell_angle_alpha 90.000000
_cell_angle_beta 19.720758
_cell_angle_gamma 90.000000
_cell_volume 1308.125722
_symmetry_space_group_name_H-M "P 2/M"
_symmetry_group_IT_number 10
_symmetry_cell_setting 'monoclinic'
loop_
_space_group_symop_operation_xyz
x,y,z
-x,y,-z
-x,-y,-z
x,-y,z
loop_
_atom_site_type_symbol
_atom_site_label
_atom_site_fract_x
_atom_site_fract_y
_atom_site_fract_z
Si Si1 0.847636 0.292320 0.727531
Si Si2 0.672033 0.799943 0.563447
Si Si3 0.338886 0.700135 0.917175
Si Si4 0.977244 0.209137 0.105650
Si Si5 0.157756 0.804225 0.012147
Si Si6 0.145558 0.697410 0.536792
Si Si7 0.665461 0.708227 0.822465
O O1 0.864966 0.500000 0.709708
O O2 0.706471 0.248355 0.849598
O O3 0.000000 0.229359 0.500000
O O4 0.798122 0.232965 0.863725
O O5 0.503643 0.777128 0.736905
O O6 0.707361 0.706058 0.591847
O O7 0.809012 0.742369 0.343167
O O8 0.695980 0.000000 0.548174
O O9 0.353911 0.500000 0.912587
O O10 0.286518 0.723602 0.903248
O O11 0.109169 0.269129 0.997640
O O12 0.982636 0.000000 0.099274
O O13 0.000000 0.266873 0.000000
O O14 0.995299 0.793783 0.253906
O O15 0.203416 0.000000 0.946300
O O16 0.094758 0.500000 0.591868
O O17 0.201212 0.762501 0.394833
O O18 0.664363 0.500000 0.819864
O O19 0.500000 0.772219 0.000000
#
# Coordination Sequence:
#
# PCOD9143374 Si02
#       7
#     4   4   4   4   4   4   4
#     4   9  17  29  46  69  95 128 175 223 256 287
#     4  10  20  34  54  79 108 138 168 212 263 307
#     4  11  21  34  54  77 104 139 178 217 256 307
#     4   8  16  34  59  82 101 129 172 210 243 299
#     4  10  20  34  54  78 105 134 165 209 259 305
#     4  10  18  31  53  76  99 132 175 217 256 307
#     4   9  16  26  43  68  94 123 168 220 256 287
#
# _framework density 21.404672000000001
#
# number of rings (size 3 to 8) (size 9 to 14) (size 15 to 20)
#    0.000    2.429    0.000    4.286    0.000    4.571 
#    0.000    0.714    0.000   36.857    0.000    0.000 
#    0.000    0.000    0.000    0.000    0.000    0.000 
#
# Total GULP energy -156287.073878 kJ/mol
# GULP energy per Si atom -5581.681210 kJ/mol
# Density = 2.135595 g / cm^3
# Si number density = 21.404672 Si / 1000 Ang^3
#
#
#
# Elastic Constant Matrix: (Units=GPa)
#
#
# Indices 1 2 3 4 5 6 
#
# 1 132.5233 -3.0866 23.1518 0.0000 6.2310 0.0000
# 2 -3.0866 31.8415 -0.2160 0.0000 3.3871 0.0000
# 3 23.1518 -0.2160 36.8287 0.0000 -6.4564 0.0000
# 4 0.0000 0.0000 0.0000 17.8970 0.0000 -7.5076
# 5 6.2310 3.3871 -6.4564 0.0000 36.9362 0.0000
# 6 0.0000 0.0000 0.0000 -7.5076 0.0000 17.1250
#
#
#
# Elastic Compliance Matrix: (Units=1/GPa)
#
#
# Indices 1 2 3 4 5 6 
#
# 1 0.008732 0.001084 -0.005940 0.000000 -0.002611 0.000000
# 2 0.001084 0.031853 -0.001071 0.000000 -0.003291 0.000000
# 3 -0.005940 -0.001071 0.032056 0.000000 0.006704 0.000000
# 4 0.000000 0.000000 0.000000 0.068467 0.000000 0.030016
# 5 -0.002611 -0.003291 0.006704 0.000000 0.028988 0.000000
# 6 0.000000 0.000000 0.000000 0.030016 0.000000 0.071553
#
#
# Mechanical properties :
#
#
# Convention : Reuss Voigt Hill
#
# Bulk Modulus (GPa) = 16.45141 26.76575 21.60858
# Shear Modulus (GPa) = 18.26375 26.48126 22.37250
#
# Velocity S-wave (km/s) = 2.92423 3.52116 3.23649
# Velocity P-wave (km/s) = 4.37082 5.39103 4.90751
#
# Compressibility (1/GPa) = 0.06078506
#
# Stress axis : x y z
#
# Youngs Moduli (GPa) = 114.52639 31.39379 31.19543
#
# Poissons Ratio (x) = -0.03403 0.18531
# Poissons Ratio (y) = -0.12413 0.03343
# Poissons Ratio (z) = 0.68032 0.03364
#
# Static dielectric constant tensor:
#      x y z
#    x 1.784150 0.000000 -0.015840 
#    y 0.000000 1.775660 0.000000 
#    z -0.015840 0.000000 1.770460 
# 
# From -- ./inp_files/86671.got.cif
#   From: 2010.05.17/outbox.cif.g08.bks.cpg/sg10_44_cif.got.tgz:86671.got - 2010.06.03 11:33:40.
