data_PCOD9143285
_publ_section_title
;
Structure prediction by ZEFSAII (Michael W. Deem and Ramdas Pophale) SiO2 
 PCOD9143285
Probable space group: P 2/M
;
_chemical_formula_sum "Si O2"
_cell_formula_units_Z 32
_cell_length_a 7.751169
_cell_length_b 13.668900
_cell_length_c 15.660824
_cell_angle_alpha 90.000000
_cell_angle_beta 59.800130
_cell_angle_gamma 90.000000
_cell_volume 1434.061597
_symmetry_space_group_name_H-M "P 2/M"
_symmetry_group_IT_number 10
_symmetry_cell_setting 'monoclinic'
loop_
_space_group_symop_operation_xyz
x,y,z
-x,y,-z
-x,-y,-z
x,-y,z
loop_
_atom_site_type_symbol
_atom_site_label
_atom_site_fract_x
_atom_site_fract_y
_atom_site_fract_z
Si Si1 0.226132 0.707737 0.122362
Si Si2 0.722154 0.610534 0.716004
Si Si3 0.754782 0.677125 0.237763
Si Si4 0.841752 0.111306 0.747074
Si Si5 0.207056 0.603728 0.591795
Si Si6 0.757897 0.610312 0.050997
Si Si7 0.835335 0.808806 0.465565
Si Si8 0.429040 0.187092 0.328904
O O1 0.315021 0.639769 0.175386
O O2 0.220154 0.817054 0.160841
O O3 0.992384 0.680805 0.176224
O O4 0.301630 0.685919 0.008419
O O5 0.656572 0.500000 0.711554
O O6 0.657825 0.702421 0.672822
O O7 0.965054 0.607180 0.650811
O O8 0.712152 0.613457 0.332059
O O9 0.685967 0.634120 0.164388
O O10 0.660493 0.785091 0.271667
O O11 0.660825 0.122382 0.724132
O O12 0.039447 0.148331 0.645163
O O13 0.870241 0.000000 0.765542
O O14 0.267966 0.500000 0.537961
O O15 0.257671 0.704507 0.534914
O O16 0.704937 0.500000 0.038206
O O17 0.000000 0.612852 0.000000
O O18 0.652808 0.857402 0.562399
O O19 0.000000 0.800545 0.500000
#
# Coordination Sequence:
#
# PCOD9143285 Si02
#       8
#     4   4   4   4   4   4   4   4
#     4   9  17  35  56  80 102 141 183 228 275 320
#     4   9  16  29  48  70 103 143 181 215 256 313
#     4  10  19  34  51  79 118 145 171 219 276 325
#     4  10  20  39  62  80 101 139 192 240 283 331
#     4  10  18  31  51  74 108 150 186 214 252 317
#     4   9  17  30  55  84 112 148 188 216 256 327
#     4  10  18  35  53  80 101 143 191 228 268 317
#     4  10  21  33  52  78 114 142 177 229 281 324
#
# _framework density 22.314242
#
# number of rings (size 3 to 8) (size 9 to 14) (size 15 to 20)
#    0.000    2.375    5.000    0.750    0.000    7.500 
#    0.000    3.750    0.000    9.375    0.000    0.000 
#    0.000    0.000    0.000    0.000    0.000    0.000 
#
# Total GULP energy -178483.251050 kJ/mol
# GULP energy per Si atom -5577.601595 kJ/mol
# Density = 2.226345 g / cm^3
# Si number density = 22.314242 Si / 1000 Ang^3
#
#
#
# Elastic Constant Matrix: (Units=GPa)
#
#
# Indices 1 2 3 4 5 6 
#
# 1 69.5181 -0.2871 9.2146 0.0000 8.6935 0.0000
# 2 -0.2871 105.3010 26.5418 0.0000 22.2792 0.0000
# 3 9.2146 26.5418 83.6688 0.0000 14.0788 0.0000
# 4 0.0000 0.0000 0.0000 0.7594 0.0000 1.2406
# 5 8.6935 22.2792 14.0788 0.0000 29.1727 0.0000
# 6 0.0000 0.0000 0.0000 1.2406 0.0000 13.0511
#
#
#
# Elastic Compliance Matrix: (Units=1/GPa)
#
#
# Indices 1 2 3 4 5 6 
#
# 1 0.015185 0.001421 -0.001283 0.000000 -0.004991 0.000000
# 2 0.001421 0.011892 -0.002535 0.000000 -0.008282 0.000000
# 3 -0.001283 -0.002535 0.013613 0.000000 -0.004251 0.000000
# 4 0.000000 0.000000 0.000000 1.559025 0.000000 -0.148197
# 5 -0.004991 -0.008282 -0.004251 0.000000 0.044142 0.000000
# 6 0.000000 0.000000 0.000000 -0.148197 0.000000 0.090709
#
#
# Mechanical properties :
#
#
# Convention : Reuss Voigt Hill
#
# Bulk Modulus (GPa) = 27.85994 36.60294 32.23144
# Shear Modulus (GPa) = 2.85498 23.46453 13.15976
#
# Velocity S-wave (km/s) = 1.13235 3.24628 2.43111
# Velocity P-wave (km/s) = 3.77121 5.52178 4.72822
#
# Compressibility (1/GPa) = 0.03589383
#
# Stress axis : x y z
#
# Youngs Moduli (GPa) = 65.85517 84.09242 73.46053
#
# Poissons Ratio (x) = -0.11948 0.09427
# Poissons Ratio (y) = -0.09357 0.18624
# Poissons Ratio (z) = 0.08451 0.21320
#
# Static dielectric constant tensor:
#      x y z
#    x 1.941280 0.000000 -0.062990 
#    y 0.000000 1.803410 0.000000 
#    z -0.062990 0.000000 1.878740 
# 
# From -- ./inp_files/61853.got.cif
#   From: 2010.05.17/outbox.cif.g08.bks.cpg/sg10_31_cif.got.tgz:61853.got - 2010.06.03 11:33:40.
