data_PCOD9143322
_publ_section_title
;
Structure prediction by ZEFSAII (Michael W. Deem and Ramdas Pophale) SiO2 
 PCOD9143322
Probable space group: P 2/M
;
_chemical_formula_sum "Si O2"
_cell_formula_units_Z 26
_cell_length_a 11.530225
_cell_length_b 8.710236
_cell_length_c 27.693700
_cell_angle_alpha 90.000000
_cell_angle_beta 155.002548
_cell_angle_gamma 90.000000
_cell_volume 1175.318377
_symmetry_space_group_name_H-M "P 2/M"
_symmetry_group_IT_number 10
_symmetry_cell_setting 'monoclinic'
loop_
_space_group_symop_operation_xyz
x,y,z
-x,y,-z
-x,-y,-z
x,-y,z
loop_
_atom_site_type_symbol
_atom_site_label
_atom_site_fract_x
_atom_site_fract_y
_atom_site_fract_z
Si Si1 0.550554 0.319086 0.901955
Si Si2 0.794462 0.830411 0.515222
Si Si3 0.331793 0.321335 0.623676
Si Si4 0.500000 0.238905 0.500000
Si Si5 0.428872 0.817849 0.758333
Si Si6 0.003726 0.813756 0.262368
Si Si7 0.789882 0.178448 0.080566
O O1 0.498227 0.500000 0.883300
O O2 0.594114 0.264908 0.863360
O O3 0.285327 0.225337 0.821525
O O4 0.781099 0.277509 0.028810
O O5 0.619399 0.729116 0.412538
O O6 0.641347 0.841502 0.507862
O O7 0.104498 0.773805 0.641995
O O8 0.821537 0.000000 0.503214
O O9 0.379806 0.500000 0.649690
O O10 0.480953 0.229644 0.722563
O O11 0.000000 0.293120 0.500000
O O12 0.772621 0.298255 0.628988
O O13 0.454501 0.000000 0.773985
O O14 0.994750 0.786962 0.201600
O O15 0.053239 0.000000 0.287966
O O16 0.817231 0.000000 0.077186
O O17 0.500000 0.195314 0.000000
#
# Coordination Sequence:
#
# PCOD9143322 Si02
#       7
#     4   4   4   2   4   4   4
#     4  11  20  30  48  73 102 132 167 212 263 308
#     4  10  19  31  49  71  99 136 175 208 245 296
#     4   9  18  32  48  68  99 132 166 210 259 303
#     4  12  21  34  55  78 105 142 181 210 241 296
#     4  10  18  31  52  75  99 128 170 215 257 302
#     4  10  19  33  50  70  99 137 176 212 249 296
#     4   8  16  30  48  68  94 129 170 213 256 298
#
# _framework density 22.121665
#
# number of rings (size 3 to 8) (size 9 to 14) (size 15 to 20)
#    0.000    2.154    1.538    4.615    0.000    5.231 
#    0.000    1.538    0.000    0.000    0.000    1.077 
#    0.000    7.385    0.000    0.000    0.000    0.000 
#
# Total GULP energy -144835.207706 kJ/mol
# GULP energy per Si atom -5570.584912 kJ/mol
# Density = 2.207132 g / cm^3
# Si number density = 22.121665 Si / 1000 Ang^3
#
#
#
# Elastic Constant Matrix: (Units=GPa)
#
#
# Indices 1 2 3 4 5 6 
#
# 1 61.8260 24.0720 40.4984 0.0000 -41.0800 0.0000
# 2 24.0720 60.3751 39.2662 0.0000 -30.9760 0.0000
# 3 40.4984 39.2662 74.2006 0.0000 -43.0667 0.0000
# 4 0.0000 0.0000 0.0000 2.9999 0.0000 -6.4437
# 5 -41.0800 -30.9760 -43.0667 0.0000 51.4517 0.0000
# 6 0.0000 0.0000 0.0000 -6.4437 0.0000 -11.4060
#
#
#
# Elastic Compliance Matrix: (Units=1/GPa)
#
#
# Indices 1 2 3 4 5 6 
#
# 1 0.035924 0.002711 -0.006704 0.000000 0.024703 0.000000
# 2 0.002711 0.027186 -0.009939 0.000000 0.010212 0.000000
# 3 -0.006704 -0.009939 0.030759 0.000000 0.014411 0.000000
# 4 0.000000 0.000000 0.000000 0.150598 0.000000 -0.085079
# 5 0.024703 0.010212 0.014411 0.000000 0.057370 0.000000
# 6 0.000000 0.000000 0.000000 -0.085079 0.000000 -0.039609
#
#
# Mechanical properties :
#
#
# Convention : Reuss Voigt Hill
#
# Bulk Modulus (GPa) = 15.15008 44.89720 30.02364
# Shear Modulus (GPa) = 16.02085 14.78013 15.40049
#
# Velocity S-wave (km/s) = 2.69404 2.58762 2.64137
# Velocity P-wave (km/s) = 4.06701 5.40993 4.78581
#
# Compressibility (1/GPa) = 0.06600625
#
# Stress axis : x y z
#
# Youngs Moduli (GPa) = 27.83639 36.78426 32.51038
#
# Poissons Ratio (x) = -0.09972 0.21794
# Poissons Ratio (y) = -0.07546 0.32311
# Poissons Ratio (z) = 0.18661 0.36558
#
# Static dielectric constant tensor:
#      x y z
#    x 1.836370 0.000000 0.003610 
#    y 0.000000 1.751880 0.000000 
#    z 0.003610 0.000000 1.911370 
# 
# From -- ./inp_files/92683.got.cif
#   From: 2010.05.17/outbox.cif.g08.bks.cpg/sg10_47_cif.got.tgz:92683.got - 2010.06.03 11:33:40.
