data_PCOD9143700
_publ_section_title
;
Structure prediction by ZEFSAII (Michael W. Deem and Ramdas Pophale) SiO2 
 PCOD9143700
Probable space group: P 2/M
;
_chemical_formula_sum "Si O2"
_cell_formula_units_Z 32
_cell_length_a 21.644827
_cell_length_b 8.628561
_cell_length_c 27.227071
_cell_angle_alpha 90.000000
_cell_angle_beta 158.964128
_cell_angle_gamma 90.000000
_cell_volume 1825.283186
_symmetry_space_group_name_H-M "P 2/M"
_symmetry_group_IT_number 10
_symmetry_cell_setting 'monoclinic'
loop_
_space_group_symop_operation_xyz
x,y,z
-x,y,-z
-x,-y,-z
x,-y,z
loop_
_atom_site_type_symbol
_atom_site_label
_atom_site_fract_x
_atom_site_fract_y
_atom_site_fract_z
Si Si1 0.013621 0.687364 0.590102
Si Si2 0.932781 0.187560 0.105873
Si Si3 0.277657 0.313375 0.700922
Si Si4 0.661620 0.186602 0.984483
Si Si5 0.456448 0.187092 0.411776
Si Si6 0.040632 0.185783 0.719464
Si Si7 0.210926 0.684309 0.387582
Si Si8 0.064582 0.188978 0.100493
O O1 0.013374 0.500000 0.593276
O O2 0.836987 0.734746 0.431320
O O3 0.036634 0.756541 0.660897
O O4 0.168390 0.732744 0.668091
O O5 0.950969 0.237484 0.063049
O O6 0.094389 0.250752 0.256470
O O7 0.942324 0.000000 0.114632
O O8 0.762836 0.234132 0.009874
O O9 0.282649 0.500000 0.704202
O O10 0.470264 0.251181 0.844667
O O11 0.652832 0.000000 0.978623
O O12 0.786902 0.234505 0.122528
O O13 0.500000 0.233075 0.500000
O O14 0.596880 0.257128 0.479478
O O15 0.262030 0.234012 0.255722
O O16 0.467696 0.000000 0.417576
O O17 0.879401 0.251227 0.630502
O O18 0.034063 0.000000 0.716102
O O19 0.204864 0.500000 0.383391
O O20 0.060396 0.000000 0.096786
O O21 0.000000 0.244659 0.000000
#
# Coordination Sequence:
#
# PCOD9143700 Si02
#       8
#     4   4   4   4   4   4   4   4
#     4   9  19  37  57  79 108 144 179 217 260 310
#     4   9  17  34  54  74 105 140 177 218 264 313
#     4   9  19  36  57  78 108 146 181 212 257 321
#     4   9  19  33  52  78 108 138 178 227 268 311
#     4  10  18  32  55  78 101 136 178 218 259 309
#     4  10  21  37  56  80 109 140 176 223 270 314
#     4  11  21  33  53  79 107 137 176 220 265 316
#     4   9  17  31  53  77 102 135 175 217 261 310
#
# _framework density 17.531524999999998
#
# number of rings (size 3 to 8) (size 9 to 14) (size 15 to 20)
#    0.000    2.500    1.250    3.000    0.000    4.250 
#    2.250    3.750    0.000    1.500    0.000    0.000 
#    0.000    0.000    0.000    0.000    0.000    0.000 
#
# Total GULP energy -178466.615130 kJ/mol
# GULP energy per Si atom -5577.081723 kJ/mol
# Density = 1.749162 g / cm^3
# Si number density = 17.531525 Si / 1000 Ang^3
#
#
#
# Elastic Constant Matrix: (Units=GPa)
#
#
# Indices 1 2 3 4 5 6 
#
# 1 172.8561 33.8935 106.0627 0.0000 -8.0675 0.0000
# 2 33.8935 20.5724 27.6717 0.0000 1.0906 0.0000
# 3 106.0627 27.6717 135.8645 0.0000 7.2358 0.0000
# 4 0.0000 0.0000 0.0000 31.1431 0.0000 12.6038
# 5 -8.0675 1.0906 7.2358 0.0000 25.7762 0.0000
# 6 0.0000 0.0000 0.0000 12.6038 0.0000 41.0611
#
#
#
# Elastic Compliance Matrix: (Units=1/GPa)
#
#
# Indices 1 2 3 4 5 6 
#
# 1 0.013724 -0.011108 -0.008837 0.000000 0.007246 0.000000
# 2 -0.011108 0.075966 -0.006543 0.000000 -0.004854 0.000000
# 3 -0.008837 -0.006543 0.015963 0.000000 -0.006970 0.000000
# 4 0.000000 0.000000 0.000000 0.036664 0.000000 -0.011254
# 5 0.007246 -0.004854 -0.006970 0.000000 0.043225 0.000000
# 6 0.000000 0.000000 0.000000 -0.011254 0.000000 0.027808
#
#
# Mechanical properties :
#
#
# Convention : Reuss Voigt Hill
#
# Bulk Modulus (GPa) = 18.98309 73.83876 46.41093
# Shear Modulus (GPa) = 17.61284 30.37378 23.99331
#
# Velocity S-wave (km/s) = 3.17304 4.16687 3.70345
# Velocity P-wave (km/s) = 4.92704 8.08453 6.69460
#
# Compressibility (1/GPa) = 0.05267845
#
# Stress axis : x y z
#
# Youngs Moduli (GPa) = 72.86764 13.16372 62.64682
#
# Poissons Ratio (x) = 0.14622 0.55360
# Poissons Ratio (y) = 0.80938 0.40987
# Poissons Ratio (z) = 0.64392 0.08612
#
# Static dielectric constant tensor:
#      x y z
#    x 1.594610 0.000000 0.001570 
#    y 0.000000 1.592880 0.000000 
#    z 0.001570 0.000000 1.579120 
# 
# From -- ./inp_files/93746.got.cif
#   From: 2010.05.17/outbox.cif.g08.bks.cpg/sg10_47_cif.got.tgz:93746.got - 2010.06.03 11:33:40.
