data_PCOD9143006
_publ_section_title
;
Structure prediction by ZEFSAII (Michael W. Deem and Ramdas Pophale) SiO2 
 PCOD9143006
Probable space group: P 2/M
;
_chemical_formula_sum "Si O2"
_cell_formula_units_Z 24
_cell_length_a 15.416131
_cell_length_b 7.431368
_cell_length_c 14.580727
_cell_angle_alpha 90.000000
_cell_angle_beta 40.880347
_cell_angle_gamma 90.000000
_cell_volume 1093.253108
_symmetry_space_group_name_H-M "P 2/M"
_symmetry_group_IT_number 10
_symmetry_cell_setting 'monoclinic'
loop_
_space_group_symop_operation_xyz
x,y,z
-x,y,-z
-x,-y,-z
x,-y,z
loop_
_atom_site_type_symbol
_atom_site_label
_atom_site_fract_x
_atom_site_fract_y
_atom_site_fract_z
Si Si1 0.955819 0.706851 0.885784
Si Si2 0.744378 0.719740 0.354339
Si Si3 0.421345 0.714703 0.338287
Si Si4 0.937440 0.218256 0.693279
Si Si5 0.799924 0.214202 0.621728
Si Si6 0.304152 0.719761 0.809651
O O1 0.971023 0.500000 0.904204
O O2 0.912438 0.711237 0.814382
O O3 0.103610 0.784690 0.770460
O O4 0.837669 0.785681 0.040644
O O5 0.747061 0.500000 0.357442
O O6 0.667256 0.783814 0.505807
O O7 0.676946 0.766876 0.311921
O O8 0.427888 0.500000 0.343455
O O9 0.341766 0.748201 0.308688
O O10 0.571088 0.781294 0.230001
O O11 0.834717 0.276915 0.696362
O O12 0.082556 0.277981 0.540350
O O13 0.936881 0.000000 0.699351
O O14 0.815616 0.000000 0.612432
O O15 0.299641 0.500000 0.817893
#
# Coordination Sequence:
#
# PCOD9143006 Si02
#       6
#     4   4   4   4   4   4
#     4  10  18  30  50  76  99 125 162 200 236 276
#     4   9  16  28  48  73  98 128 165 197 230 279
#     4  10  18  30  50  76  99 125 162 200 236 276
#     4   9  18  33  52  72  95 125 159 198 246 291
#     4   9  18  33  52  72  95 125 159 198 246 291
#     4   9  18  30  46  71 106 134 153 191 244 287
#
# _framework density 21.952831
#
# number of rings (size 3 to 8) (size 9 to 14) (size 15 to 20)
#    0.000    2.667    1.667    2.000    0.000    4.667 
#    0.000    3.333    0.000   11.000    0.000    0.000 
#    0.000    0.000    0.000    0.000    0.000    0.000 
#
# Total GULP energy -133989.726057 kJ/mol
# GULP energy per Si atom -5582.905252 kJ/mol
# Density = 2.190287 g / cm^3
# Si number density = 21.952831 Si / 1000 Ang^3
#
#
#
# Elastic Constant Matrix: (Units=GPa)
#
#
# Indices 1 2 3 4 5 6 
#
# 1 74.9469 -8.0836 -7.5783 0.0000 -5.3904 0.0000
# 2 -8.0836 69.1667 0.8082 0.0000 -4.0031 0.0000
# 3 -7.5783 0.8082 23.7142 0.0000 -7.0311 0.0000
# 4 0.0000 0.0000 0.0000 -1.3463 0.0000 2.4346
# 5 -5.3904 -4.0031 -7.0311 0.0000 33.2887 0.0000
# 6 0.0000 0.0000 0.0000 2.4346 0.0000 31.5366
#
#
#
# Elastic Compliance Matrix: (Units=1/GPa)
#
#
# Indices 1 2 3 4 5 6 
#
# 1 0.014380 0.001831 0.005642 0.000000 0.003740 0.000000
# 2 0.001831 0.014792 0.000743 0.000000 0.002232 0.000000
# 3 0.005642 0.000743 0.047200 0.000000 0.010972 0.000000
# 4 0.000000 0.000000 0.000000 -0.651782 0.000000 0.050318
# 5 0.003740 0.002232 0.010972 0.000000 0.033232 0.000000
# 6 0.000000 0.000000 0.000000 0.050318 0.000000 0.027825
#
#
# Mechanical properties :
#
#
# Convention : Reuss Voigt Hill
#
# Bulk Modulus (GPa) = 10.77540 15.34668 13.06104
# Shear Modulus (GPa) = -10.00297 24.87459 7.43581
#
# Velocity S-wave (km/s) = -2.13693 3.36980 1.84242
# Velocity P-wave (km/s) = 1.08145 4.70602 3.23860
#
# Compressibility (1/GPa) = 0.09280397
#
# Stress axis : x y z
#
# Youngs Moduli (GPa) = 69.54207 67.60248 21.18654
#
# Poissons Ratio (x) = -0.12379 -0.11953
# Poissons Ratio (y) = -0.12734 -0.01574
# Poissons Ratio (z) = -0.39235 -0.05022
#
# Static dielectric constant tensor:
#      x y z
#    x 1.813850 0.000000 -0.023730 
#    y 0.000000 1.859100 0.000000 
#    z -0.023730 0.000000 1.771870 
# 
# From -- ./inp_files/33788.got.cif
#   From: 2010.05.17/outbox.cif.g08.bks.cpg/sg10_17_cif.got.tgz:33788.got - 2010.06.03 11:33:40.
