data_PCOD9143054
_publ_section_title
;
Structure prediction by ZEFSAII (Michael W. Deem and Ramdas Pophale) SiO2 
 PCOD9143054
Probable space group: P 2/M
;
_chemical_formula_sum "Si O2"
_cell_formula_units_Z 20
_cell_length_a 18.683875
_cell_length_b 7.710233
_cell_length_c 7.958230
_cell_angle_alpha 90.000000
_cell_angle_beta 139.335514
_cell_angle_gamma 90.000000
_cell_volume 747.052148
_symmetry_space_group_name_H-M "P 2/M"
_symmetry_group_IT_number 10
_symmetry_cell_setting 'monoclinic'
loop_
_space_group_symop_operation_xyz
x,y,z
-x,y,-z
-x,-y,-z
x,-y,z
loop_
_atom_site_type_symbol
_atom_site_label
_atom_site_fract_x
_atom_site_fract_y
_atom_site_fract_z
Si Si1 0.427084 0.706278 0.533028
Si Si2 0.761755 0.293494 0.026132
Si Si3 0.169279 0.786965 0.363864
Si Si4 0.967180 0.208583 0.207370
Si Si5 0.375991 0.802578 0.893748
O O1 0.500000 0.758443 0.500000
O O2 0.420825 0.500000 0.524186
O O3 0.307506 0.772056 0.261875
O O4 0.503342 0.749513 0.828364
O O5 0.745699 0.500000 0.014869
O O6 0.890060 0.259413 0.225074
O O7 0.701507 0.209541 0.077623
O O8 0.106403 0.734318 0.084144
O O9 0.292595 0.717118 0.610507
O O10 0.171423 0.000000 0.366931
O O11 0.088649 0.730450 0.372594
O O12 0.972913 0.000000 0.221690
O O13 0.385316 0.000000 0.859277
#
# Coordination Sequence:
#
# PCOD9143054 Si02
#       5
#     4   4   4   4   4
#     4   8  16  31  47  65  96 131 157 190 237 281
#     4  10  20  33  48  71 101 128 158 196 236 280
#     4   8  17  33  52  73  96 123 157 200 243 280
#     4   9  17  34  55  70  92 128 163 194 236 285
#     4  10  18  30  51  76  97 121 159 200 237 281
#
# _framework density 26.771894
#
# number of rings (size 3 to 8) (size 9 to 14) (size 15 to 20)
#    0.000    3.000    0.000    3.600    0.000    5.200 
#    0.000   11.000    0.000    6.000    0.000    0.000 
#    0.000    0.000    0.000    0.000    0.000    0.000 
#
# Total GULP energy -111713.645700 kJ/mol
# GULP energy per Si atom -5585.682285 kJ/mol
# Density = 2.671096 g / cm^3
# Si number density = 26.771894 Si / 1000 Ang^3
#
#
#
# Elastic Constant Matrix: (Units=GPa)
#
#
# Indices 1 2 3 4 5 6 
#
# 1 113.2485 -2.3681 19.4158 0.0000 31.7579 0.0000
# 2 -2.3681 52.1958 -8.1534 0.0000 13.7089 0.0000
# 3 19.4158 -8.1534 141.8598 0.0000 35.2595 0.0000
# 4 0.0000 0.0000 0.0000 -14.1998 0.0000 -53.3593
# 5 31.7579 13.7089 35.2595 0.0000 69.8807 0.0000
# 6 0.0000 0.0000 0.0000 -53.3593 0.0000 -113.2082
#
#
#
# Elastic Compliance Matrix: (Units=1/GPa)
#
#
# Indices 1 2 3 4 5 6 
#
# 1 0.010276 0.001764 -0.000067 0.000000 -0.004982 0.000000
# 2 0.001764 0.021278 0.002536 0.000000 -0.006256 0.000000
# 3 -0.000067 0.002536 0.008370 0.000000 -0.004691 0.000000
# 4 0.000000 0.000000 0.000000 0.091320 0.000000 -0.043043
# 5 -0.004982 -0.006256 -0.004691 0.000000 0.020168 0.000000
# 6 0.000000 0.000000 0.000000 -0.043043 0.000000 0.011454
#
#
# Mechanical properties :
#
#
# Convention : Reuss Voigt Hill
#
# Bulk Modulus (GPa) = 20.66465 36.12141 28.39303
# Shear Modulus (GPa) = 29.32061 8.38856 18.85458
#
# Velocity S-wave (km/s) = 3.31297 1.77205 2.65668
# Velocity P-wave (km/s) = 4.72969 4.20814 4.47651
#
# Compressibility (1/GPa) = 0.04839183
#
# Stress axis : x y z
#
# Youngs Moduli (GPa) = 97.31757 46.99707 119.47512
#
# Poissons Ratio (x) = -0.08292 0.00796
# Poissons Ratio (y) = -0.17171 -0.30303
# Poissons Ratio (z) = 0.00648 -0.11920
#
# Static dielectric constant tensor:
#      x y z
#    x 2.180790 0.000000 -0.071410 
#    y 0.000000 1.955820 0.000000 
#    z -0.071410 0.000000 2.227560 
# 
# From -- ./inp_files/22290.got.cif
#   From: 2010.05.17/outbox.cif.g08.bks.cpg/sg10_12_cif.got.tgz:22290.got - 2010.06.03 11:33:40.
