data_PCOD9143081
_publ_section_title
;
Structure prediction by ZEFSAII (Michael W. Deem and Ramdas Pophale) SiO2 
 PCOD9143081
Probable space group: P 2/M
;
_chemical_formula_sum "Si O2"
_cell_formula_units_Z 26
_cell_length_a 16.313443
_cell_length_b 9.471575
_cell_length_c 7.459067
_cell_angle_alpha 90.000000
_cell_angle_beta 75.024914
_cell_angle_gamma 90.000000
_cell_volume 1113.388357
_symmetry_space_group_name_H-M "P 2/M"
_symmetry_group_IT_number 10
_symmetry_cell_setting 'monoclinic'
loop_
_space_group_symop_operation_xyz
x,y,z
-x,y,-z
-x,-y,-z
x,-y,z
loop_
_atom_site_type_symbol
_atom_site_label
_atom_site_fract_x
_atom_site_fract_y
_atom_site_fract_z
Si Si1 0.325201 0.155870 0.507049
Si Si2 0.046870 0.341575 0.278836
Si Si3 0.574725 0.338919 0.083423
Si Si4 0.901946 0.161501 0.200228
Si Si5 0.182189 0.154892 0.352169
Si Si6 0.500000 0.741100 0.500000
Si Si7 0.748760 0.331546 0.143435
O O1 0.281202 0.166005 0.339761
O O2 0.424977 0.166649 0.459279
O O3 0.291083 0.286095 0.642139
O O4 0.300229 0.000000 0.595977
O O5 0.048711 0.500000 0.205640
O O6 0.139318 0.280411 0.270191
O O7 0.000000 0.346125 0.500000
O O8 0.990810 0.237556 0.190896
O O9 0.586004 0.500000 0.012184
O O10 0.537382 0.340038 0.307281
O O11 0.671827 0.283256 0.054354
O O12 0.500000 0.274427 0.000000
O O13 0.859298 0.157183 0.424430
O O14 0.838398 0.250346 0.110352
O O15 0.910052 0.000000 0.136409
O O16 0.162715 0.000000 0.284678
O O17 0.759933 0.500000 0.122529
#
# Coordination Sequence:
#
# PCOD9143081 Si02
#       7
#     4   4   4   4   4   2   4
#     4   9  17  28  43  62  89 124 158 199 249 295
#     4   9  15  21  31  50  77 110 150 196 240 284
#     4   9  18  32  49  72 103 134 165 206 253 295
#     4   9  15  23  36  53  79 116 153 192 242 296
#     4   8  14  23  33  49  76 113 152 188 236 291
#     4  10  18  30  52  74  95 130 175 208 241 294
#     4   9  16  26  42  63  87 118 159 202 242 290
#
# _framework density 23.352139999999999
#
# number of rings (size 3 to 8) (size 9 to 14) (size 15 to 20)
#    0.000    3.077    0.000    2.769    0.000    6.154 
#    0.000    0.000    0.000   16.615    0.000    0.000 
#    0.000    1.231    0.000   12.154    0.000   22.769 
#
# Total GULP energy -144951.470323 kJ/mol
# GULP energy per Si atom -5575.056551 kJ/mol
# Density = 2.329899 g / cm^3
# Si number density = 23.352140 Si / 1000 Ang^3
#
#
#
# Elastic Constant Matrix: (Units=GPa)
#
#
# Indices 1 2 3 4 5 6 
#
# 1 210.1844 78.2952 10.5992 0.0000 48.6755 0.0000
# 2 78.2952 134.3776 24.1715 0.0000 34.1874 0.0000
# 3 10.5992 24.1715 79.7207 0.0000 11.3276 0.0000
# 4 0.0000 0.0000 0.0000 -0.4055 0.0000 8.3408
# 5 48.6755 34.1874 11.3276 0.0000 30.2924 0.0000
# 6 0.0000 0.0000 0.0000 8.3408 0.0000 23.0994
#
#
#
# Elastic Compliance Matrix: (Units=1/GPa)
#
#
# Indices 1 2 3 4 5 6 
#
# 1 0.008012 -0.002087 0.001122 0.000000 -0.010937 0.000000
# 2 -0.002087 0.011173 -0.001896 0.000000 -0.008548 0.000000
# 3 0.001122 -0.001896 0.013647 0.000000 -0.004766 0.000000
# 4 0.000000 0.000000 0.000000 -0.292635 0.000000 0.105665
# 5 -0.010937 -0.008548 -0.004766 0.000000 0.062015 0.000000
# 6 0.000000 0.000000 0.000000 0.105665 0.000000 0.005137
#
#
# Mechanical properties :
#
#
# Convention : Reuss Voigt Hill
#
# Bulk Modulus (GPa) = 36.88765 72.26826 54.57796
# Shear Modulus (GPa) = -28.10686 31.34503 1.61908
#
# Velocity S-wave (km/s) = -3.47307 3.66768 0.83357
# Velocity P-wave (km/s) = 0.50241 6.99644 4.93446
#
# Compressibility (1/GPa) = 0.02710934
#
# Stress axis : x y z
#
# Youngs Moduli (GPa) = 124.81958 89.49850 73.27798
#
# Poissons Ratio (x) = 0.18679 -0.08220
# Poissons Ratio (y) = 0.26051 0.13892
# Poissons Ratio (z) = -0.14002 0.16967
#
# Static dielectric constant tensor:
#      x y z
#    x 1.967120 0.000000 -0.071250 
#    y 0.000000 1.834860 0.000000 
#    z -0.071250 0.000000 1.934380 
# 
# From -- ./inp_files/31593.got.cif
#   From: 2010.05.17/outbox.cif.g08.bks.cpg/sg10_16_cif.got.tgz:31593.got - 2010.06.03 11:33:40.
