data_PCOD9143687
_publ_section_title
;
Structure prediction by ZEFSAII (Michael W. Deem and Ramdas Pophale) SiO2 
 PCOD9143687
Probable space group: P 2/M
;
_chemical_formula_sum "Si O2"
_cell_formula_units_Z 28
_cell_length_a 19.929096
_cell_length_b 12.280177
_cell_length_c 7.800048
_cell_angle_alpha 90.000000
_cell_angle_beta 47.360452
_cell_angle_gamma 90.000000
_cell_volume 1404.263985
_symmetry_space_group_name_H-M "P 2/M"
_symmetry_group_IT_number 10
_symmetry_cell_setting 'monoclinic'
loop_
_space_group_symop_operation_xyz
x,y,z
-x,y,-z
-x,-y,-z
x,-y,z
loop_
_atom_site_type_symbol
_atom_site_label
_atom_site_fract_x
_atom_site_fract_y
_atom_site_fract_z
Si Si1 0.569817 0.383578 0.221704
Si Si2 0.125051 0.299552 0.632087
Si Si3 0.415040 0.798632 0.061171
Si Si4 0.772295 0.875218 0.758813
Si Si5 0.754774 0.310534 0.057995
Si Si6 0.306491 0.625566 0.459438
Si Si7 0.933262 0.374636 0.904916
O O1 0.500000 0.387015 0.500000
O O2 0.558886 0.500000 0.146176
O O3 0.675932 0.374764 0.093537
O O4 0.551600 0.271042 0.158277
O O5 0.156520 0.188612 0.486931
O O6 0.218279 0.368658 0.486463
O O7 0.038511 0.350164 0.683936
O O8 0.093424 0.298354 0.886494
O O9 0.326442 0.866465 0.162850
O O10 0.381124 0.701349 0.244240
O O11 0.500000 0.858048 0.000000
O O12 0.796936 0.000000 0.744540
O O13 0.762946 0.805619 0.950119
O O14 0.720407 0.319383 0.313364
O O15 0.857302 0.357586 0.891376
O O16 0.331007 0.500000 0.446939
O O17 0.925018 0.500000 0.978429
#
# Coordination Sequence:
#
# PCOD9143687 Si02
#       7
#     4   4   4   4   4   4   4
#     4  10  19  31  50  79 117 152 176 207 263 332
#     4   9  18  34  56  82 108 142 183 219 262 316
#     4  10  21  35  56  82 106 136 181 227 271 327
#     4  10  23  42  57  72 104 142 184 237 277 306
#     4  10  20  34  52  77 108 146 186 220 261 317
#     4  10  18  32  54  82 117 146 172 213 267 329
#     4  10  18  34  58  86 119 144 169 211 264 325
#
# _framework density 19.93927
#
# number of rings (size 3 to 8) (size 9 to 14) (size 15 to 20)
#    0.000    2.143    0.000    5.143    0.000    3.143 
#    0.000   15.714    0.000   14.571    0.000    0.000 
#    0.000    0.000    0.000    0.000    0.000    0.000 
#
# Total GULP energy -156013.397735 kJ/mol
# GULP energy per Si atom -5571.907062 kJ/mol
# Density = 1.989389 g / cm^3
# Si number density = 19.939270 Si / 1000 Ang^3
#
#
#
# Elastic Constant Matrix: (Units=GPa)
#
#
# Indices 1 2 3 4 5 6 
#
# 1 108.9754 12.9940 13.8802 0.0000 -29.4663 0.0000
# 2 12.9940 124.2744 39.4891 0.0000 12.0814 0.0000
# 3 13.8802 39.4891 73.4731 0.0000 3.1497 0.0000
# 4 0.0000 0.0000 0.0000 18.7659 0.0000 8.8554
# 5 -29.4663 12.0814 3.1497 0.0000 29.7907 0.0000
# 6 0.0000 0.0000 0.0000 8.8554 0.0000 7.1467
#
#
#
# Elastic Compliance Matrix: (Units=1/GPa)
#
#
# Indices 1 2 3 4 5 6 
#
# 1 0.013645 -0.002205 -0.002019 0.000000 0.014604 0.000000
# 2 -0.002205 0.010416 -0.004929 0.000000 -0.005884 0.000000
# 3 -0.002019 -0.004929 0.016717 0.000000 -0.001765 0.000000
# 4 0.000000 0.000000 0.000000 0.128317 0.000000 -0.158996
# 5 0.014604 -0.005884 -0.001765 0.000000 0.050586 0.000000
# 6 0.000000 0.000000 0.000000 -0.158996 0.000000 0.336935
#
#
# Mechanical properties :
#
#
# Convention : Reuss Voigt Hill
#
# Bulk Modulus (GPa) = 44.50042 48.82771 46.66407
# Shear Modulus (GPa) = 8.58499 27.16463 17.87481
#
# Velocity S-wave (km/s) = 2.07724 3.69503 2.99735
# Velocity P-wave (km/s) = 5.30280 6.53802 5.95254
#
# Compressibility (1/GPa) = 0.02247170
#
# Stress axis : x y z
#
# Youngs Moduli (GPa) = 73.28478 96.01032 59.82042
#
# Poissons Ratio (x) = 0.21171 0.12076
# Poissons Ratio (y) = 0.16160 0.29487
# Poissons Ratio (z) = 0.14794 0.47325
#
# Static dielectric constant tensor:
#      x y z
#    x 1.800520 0.000000 0.008300 
#    y 0.000000 1.648950 0.000000 
#    z 0.008300 0.000000 1.740460 
# 
# From -- ./inp_files/34559.got.cif
#   From: 2010.05.17/outbox.cif.g08.bks.cpg/sg10_18_cif.got.tgz:34559.got - 2010.06.03 11:33:40.
