data_PCOD9143187
_publ_section_title
;
Structure prediction by ZEFSAII (Michael W. Deem and Ramdas Pophale) SiO2 
 PCOD9143187
Probable space group: P 2/M
;
_chemical_formula_sum "Si O2"
_cell_formula_units_Z 32
_cell_length_a 22.029488
_cell_length_b 8.884188
_cell_length_c 31.773555
_cell_angle_alpha 90.000000
_cell_angle_beta 19.147406
_cell_angle_gamma 90.000000
_cell_volume 2039.676560
_symmetry_space_group_name_H-M "P 2/M"
_symmetry_group_IT_number 10
_symmetry_cell_setting 'monoclinic'
loop_
_space_group_symop_operation_xyz
x,y,z
-x,y,-z
-x,-y,-z
x,-y,z
loop_
_atom_site_type_symbol
_atom_site_label
_atom_site_fract_x
_atom_site_fract_y
_atom_site_fract_z
Si Si1 0.699567 0.317911 0.708079
Si Si2 0.334817 0.820817 0.984279
Si Si3 0.948074 0.317160 0.467493
Si Si4 0.318084 0.680325 0.528336
Si Si5 0.365854 0.826475 0.628894
Si Si6 0.668861 0.681348 0.920744
Si Si7 0.939852 0.683459 0.377276
Si Si8 0.054813 0.321187 0.781093
O O1 0.681242 0.500000 0.720919
O O2 0.506260 0.243224 0.845492
O O3 0.788729 0.273373 0.604855
O O4 0.854210 0.275657 0.641741
O O5 0.336756 0.000000 0.983296
O O6 0.352539 0.758370 0.020219
O O7 0.140530 0.760898 0.093532
O O8 0.946846 0.500000 0.467497
O O9 0.924751 0.263398 0.435155
O O10 0.344412 0.500000 0.510293
O O11 0.509914 0.757184 0.415508
O O12 0.224916 0.730880 0.545845
O O13 0.168893 0.710955 0.663224
O O14 0.500000 0.820376 0.500000
O O15 0.184712 0.734975 0.733950
O O16 0.320310 0.000000 0.666756
O O17 0.671589 0.500000 0.925367
O O18 0.863127 0.725579 0.772086
O O19 0.500000 0.715829 0.000000
O O20 0.937429 0.500000 0.379417
O O21 0.027624 0.500000 0.801061
#
# Coordination Sequence:
#
# PCOD9143187 Si02
#       8
#     4   4   4   4   4   4   4   4
#     4   9  17  32  52  72  92 121 165 209 247 282
#     4  12  23  32  45  68 101 133 161 196 241 287
#     4   8  15  29  52  75  92 116 160 214 249 277
#     4   9  16  27  44  66  94 125 158 193 232 282
#     4   9  17  28  43  65  94 125 156 189 233 282
#     4  10  19  32  50  69  93 128 165 198 236 285
#     4   9  15  26  45  72  97 120 155 200 244 280
#     4  10  18  31  48  67  92 125 164 198 233 278
#
# _framework density 15.688762000000001
#
# number of rings (size 3 to 8) (size 9 to 14) (size 15 to 20)
#    0.000    2.500    1.250    3.375    0.000    4.250 
#    0.000    1.250    0.000    2.250    0.000    0.875 
#    0.000    7.000    0.000    0.000    0.000    0.000 
#
# Total GULP energy -178415.467362 kJ/mol
# GULP energy per Si atom -5575.483355 kJ/mol
# Density = 1.565305 g / cm^3
# Si number density = 15.688762 Si / 1000 Ang^3
#
#
#
# Elastic Constant Matrix: (Units=GPa)
#
#
# Indices 1 2 3 4 5 6 
#
# 1 90.5761 31.9710 52.9958 0.0000 -16.7687 0.0000
# 2 31.9710 39.4423 41.4104 0.0000 -9.1172 0.0000
# 3 52.9958 41.4104 91.0010 0.0000 -14.0421 0.0000
# 4 0.0000 0.0000 0.0000 7.4418 0.0000 -0.0536
# 5 -16.7687 -9.1172 -14.0421 0.0000 20.9432 0.0000
# 6 0.0000 0.0000 0.0000 -0.0536 0.0000 6.0764
#
#
#
# Elastic Compliance Matrix: (Units=1/GPa)
#
#
# Indices 1 2 3 4 5 6 
#
# 1 0.018649 -0.006099 -0.006905 0.000000 0.007647 0.000000
# 2 -0.006099 0.051494 -0.019157 0.000000 0.004689 0.000000
# 3 -0.006905 -0.019157 0.024079 0.000000 0.002276 0.000000
# 4 0.000000 0.000000 0.000000 0.134384 0.000000 0.001184
# 5 0.007647 0.004689 0.002276 0.000000 0.057438 0.000000
# 6 0.000000 0.000000 0.000000 0.001184 0.000000 0.164581
#
#
# Mechanical properties :
#
#
# Convention : Reuss Voigt Hill
#
# Bulk Modulus (GPa) = 33.44561 52.64155 43.04358
# Shear Modulus (GPa) = 9.52533 13.20177 11.36355
#
# Velocity S-wave (km/s) = 2.46670 2.90397 2.69422
# Velocity P-wave (km/s) = 5.42930 6.69855 6.09704
#
# Compressibility (1/GPa) = 0.02989929
#
# Stress axis : x y z
#
# Youngs Moduli (GPa) = 53.62150 19.41958 41.52988
#
# Poissons Ratio (x) = 0.11845 0.28677
# Poissons Ratio (y) = 0.32705 0.79560
# Poissons Ratio (z) = 0.37027 0.37203
#
# Static dielectric constant tensor:
#      x y z
#    x 1.525270 0.000000 -0.004370 
#    y 0.000000 1.519880 0.000000 
#    z -0.004370 0.000000 1.501560 
# 
# From -- ./inp_files/79978.got.cif
#   From: 2010.05.17/outbox.cif.g08.bks.cpg/sg10_40_cif.got.tgz:79978.got - 2010.06.03 11:33:40.
