data_PCOD9143704
_publ_section_title
;
Structure prediction by ZEFSAII (Michael W. Deem and Ramdas Pophale) SiO2 
 PCOD9143704
Probable space group: P 2/M
;
_chemical_formula_sum "Si O2"
_cell_formula_units_Z 28
_cell_length_a 17.986280
_cell_length_b 7.710731
_cell_length_c 14.322751
_cell_angle_alpha 90.000000
_cell_angle_beta 44.523693
_cell_angle_gamma 90.000000
_cell_volume 1392.861136
_symmetry_space_group_name_H-M "P 2/M"
_symmetry_group_IT_number 10
_symmetry_cell_setting 'monoclinic'
loop_
_space_group_symop_operation_xyz
x,y,z
-x,y,-z
-x,-y,-z
x,-y,z
loop_
_atom_site_type_symbol
_atom_site_label
_atom_site_fract_x
_atom_site_fract_y
_atom_site_fract_z
Si Si1 0.323906 0.203242 0.332700
Si Si2 0.897407 0.798582 0.784411
Si Si3 0.236577 0.706175 0.920706
Si Si4 0.309674 0.211485 0.134960
Si Si5 0.889254 0.208881 0.143439
Si Si6 0.555528 0.703398 0.164072
Si Si7 0.125842 0.213760 0.629289
O O1 0.327950 0.274123 0.223587
O O2 0.439263 0.218555 0.274926
O O3 0.228782 0.273900 0.480817
O O4 0.300069 0.000000 0.342749
O O5 0.804572 0.726320 0.801750
O O6 0.015781 0.726263 0.680720
O O7 0.907386 0.000000 0.749124
O O8 0.849952 0.787337 0.931670
O O9 0.233841 0.500000 0.939946
O O10 0.203631 0.742269 0.844784
O O11 0.352106 0.771167 0.849868
O O12 0.311429 0.000000 0.131034
O O13 0.397621 0.268765 0.981801
O O14 0.873575 0.269480 0.263213
O O15 0.895022 0.000000 0.140909
O O16 0.000000 0.273367 0.000000
O O17 0.543994 0.500000 0.191513
O O18 0.124252 0.000000 0.631563
#
# Coordination Sequence:
#
# PCOD9143704 Si02
#       7
#     4   4   4   4   4   4   4
#     4  10  20  34  51  75 105 135 170 211 250 295
#     4   9  16  31  52  75 104 135 165 202 252 304
#     4  10  20  33  51  77 103 128 167 216 256 291
#     4   9  18  31  53  80 102 130 170 212 252 294
#     4  10  18  32  55  79 102 132 167 202 249 308
#     4  10  21  36  53  73 100 136 175 211 251 298
#     4   9  18  32  51  76 106 135 165 203 250 306
#
# _framework density 20.102506999999999
#
# number of rings (size 3 to 8) (size 9 to 14) (size 15 to 20)
#    0.000    2.429    1.429    1.286    0.000    4.857 
#    0.000    5.000    0.000    4.286    0.000    5.000 
#    0.000    0.000    0.000    0.000    0.000    0.000 
#
# Total GULP energy -156242.212070 kJ/mol
# GULP energy per Si atom -5580.079002 kJ/mol
# Density = 2.005675 g / cm^3
# Si number density = 20.102507 Si / 1000 Ang^3
#
#
#
# Elastic Constant Matrix: (Units=GPa)
#
#
# Indices 1 2 3 4 5 6 
#
# 1 82.7598 -5.7656 43.2706 0.0000 -21.6695 0.0000
# 2 -5.7656 26.8970 -5.5960 0.0000 3.0807 0.0000
# 3 43.2706 -5.5960 81.8931 0.0000 -32.9811 0.0000
# 4 0.0000 0.0000 0.0000 -967.5941 0.0000 -59.6099
# 5 -21.6695 3.0807 -32.9811 0.0000 26.7114 0.0000
# 6 0.0000 0.0000 0.0000 -59.6099 0.0000 -0.1960
#
#
#
# Elastic Compliance Matrix: (Units=1/GPa)
#
#
# Indices 1 2 3 4 5 6 
#
# 1 0.017150 0.001651 -0.006807 0.000000 0.005317 0.000000
# 2 0.001651 0.037947 0.000990 0.000000 -0.001815 0.000000
# 3 -0.006807 0.000990 0.027063 0.000000 0.027778 0.000000
# 4 0.000000 0.000000 0.000000 0.000058 0.000000 -0.017721
# 5 0.005317 -0.001815 0.027778 0.000000 0.076259 0.000000
# 6 0.000000 0.000000 0.000000 -0.017721 0.000000 0.287656
#
#
# Mechanical properties :
#
#
# Convention : Reuss Voigt Hill
#
# Bulk Modulus (GPa) = 13.54551 28.37419 20.95985
# Shear Modulus (GPa) = 10.43681 -177.57301 -83.56810
#
# Velocity S-wave (km/s) = 2.28102 -9.40880 -6.45455
# Velocity P-wave (km/s) = 3.70004 10.19258 6.71559
#
# Compressibility (1/GPa) = 0.07382520
#
# Stress axis : x y z
#
# Youngs Moduli (GPa) = 58.31064 26.35287 36.95108
#
# Poissons Ratio (x) = -0.04350 0.25154
# Poissons Ratio (y) = -0.09626 -0.03657
# Poissons Ratio (z) = 0.39694 -0.02608
#
# Static dielectric constant tensor:
#      x y z
#    x 1.723310 0.000000 -0.011940 
#    y 0.000000 1.745680 0.000000 
#    z -0.011940 0.000000 1.678570 
# 
# From -- ./inp_files/49160.got.cif
#   From: 2010.05.17/outbox.cif.g08.bks.cpg/sg10_25_cif.got.tgz:49160.got - 2010.06.03 11:33:40.
