data_PCOD9143824
_publ_section_title
;
Structure prediction by ZEFSAII (Michael W. Deem and Ramdas Pophale) SiO2 
 PCOD9143824
Probable space group: P 2/M
;
_chemical_formula_sum "Si O2"
_cell_formula_units_Z 17
_cell_length_a 5.449195
_cell_length_b 16.104172
_cell_length_c 8.674769
_cell_angle_alpha 90.000000
_cell_angle_beta 106.362331
_cell_angle_gamma 90.000000
_cell_volume 730.421205
_symmetry_space_group_name_H-M "P 2/M"
_symmetry_group_IT_number 10
_symmetry_cell_setting 'monoclinic'
loop_
_space_group_symop_operation_xyz
x,y,z
-x,y,-z
-x,-y,-z
x,-y,z
loop_
_atom_site_type_symbol
_atom_site_label
_atom_site_fract_x
_atom_site_fract_y
_atom_site_fract_z
Si Si1 0.857204 0.594168 0.313525
Si Si2 0.500000 0.500000 0.000000
Si Si3 0.319451 0.162284 0.158921
Si Si4 0.693598 0.351225 0.831335
Si Si5 0.161818 0.096688 0.800378
O O1 0.771951 0.500000 0.242979
O O2 0.591752 0.641611 0.291899
O O3 0.000000 0.585273 0.500000
O O4 0.070355 0.632715 0.240545
O O5 0.321110 0.424419 0.048329
O O6 0.289107 0.257829 0.104771
O O7 0.610204 0.140784 0.251279
O O8 0.114036 0.139897 0.252942
O O9 0.247436 0.108292 0.995192
O O10 0.145378 0.000000 0.760212
#
# Coordination Sequence:
#
# PCOD9143824 Si02
#       5
#     4   1   4   4   4
#     4  11  23  44  63  79 105 155 219 260 280 323
#     4  12  24  38  54  86 126 162 180 220 296 386
#     4  10  19  31  49  79 113 147 183 239 266 336
#     4  12  24  38  58  89 120 156 195 234 307 345
#     4  10  18  33  52  77 116 163 190 214 275 356
#
# _framework density 23.274243999999999
#
# number of rings (size 3 to 8) (size 9 to 14) (size 15 to 20)
#    0.000    1.176    2.353    7.059    0.000    5.647 
#    0.000    0.000    0.000    0.000    0.000    0.000 
#    0.000  109.176    0.000    0.000    0.000    0.000 
#
# Total GULP energy -94850.852146 kJ/mol
# GULP energy per Si atom -5579.461891 kJ/mol
# Density = 2.322127 g / cm^3
# Si number density = 23.274244 Si / 1000 Ang^3
#
#
#
# Elastic Constant Matrix: (Units=GPa)
#
#
# Indices 1 2 3 4 5 6 
#
# 1 243.8323 50.4379 20.4353 0.0000 -13.9698 0.0000
# 2 50.4379 177.1002 10.6624 0.0000 -12.2525 0.0000
# 3 20.4353 10.6624 27.5050 0.0000 3.7320 0.0000
# 4 0.0000 0.0000 0.0000 -3.8438 0.0000 -5.6527
# 5 -13.9698 -12.2525 3.7320 0.0000 25.7831 0.0000
# 6 0.0000 0.0000 0.0000 -5.6527 0.0000 61.4638
#
#
#
# Elastic Compliance Matrix: (Units=1/GPa)
#
#
# Indices 1 2 3 4 5 6 
#
# 1 0.004744 -0.000958 -0.003509 0.000000 0.002623 0.000000
# 2 -0.000958 0.006234 -0.002077 0.000000 0.002744 0.000000
# 3 -0.003509 -0.002077 0.040966 0.000000 -0.008818 0.000000
# 4 0.000000 0.000000 0.000000 -0.229167 0.000000 -0.021076
# 5 0.002623 0.002744 -0.008818 0.000000 0.042786 0.000000
# 6 0.000000 0.000000 0.000000 -0.021076 0.000000 0.014331
#
#
# Mechanical properties :
#
#
# Convention : Reuss Voigt Hill
#
# Bulk Modulus (GPa) = 25.73655 67.94542 46.84099
# Shear Modulus (GPa) = -53.15439 41.14076 -6.00682
#
# Velocity S-wave (km/s) = -4.78413 4.20891 -1.60826
# Velocity P-wave (km/s) = 4.40854 7.27163 4.08910
#
# Compressibility (1/GPa) = 0.03885524
#
# Stress axis : x y z
#
# Youngs Moduli (GPa) = 210.80396 160.40177 24.41071
#
# Poissons Ratio (x) = 0.15371 0.08565
# Poissons Ratio (y) = 0.20202 0.05070
# Poissons Ratio (z) = 0.73967 0.33317
#
# Static dielectric constant tensor:
#      x y z
#    x 1.928890 0.000000 -0.133720 
#    y 0.000000 1.823040 0.000000 
#    z -0.133720 0.000000 1.695050 
# 
# From -- ./inp_files/38894.got.cif
#   From: 2010.05.17/outbox.cif.g08.bks.cpg/sg10_20_cif.got.tgz:38894.got - 2010.06.03 11:33:40.
