data_PCOD9143790
_publ_section_title
;
Structure prediction by ZEFSAII (Michael W. Deem and Ramdas Pophale) SiO2 
 PCOD9143790
Probable space group: P 2/M
;
_chemical_formula_sum "Si O2"
_cell_formula_units_Z 12
_cell_length_a 13.360071
_cell_length_b 7.805537
_cell_length_c 19.252787
_cell_angle_alpha 90.000000
_cell_angle_beta 160.893287
_cell_angle_gamma 90.000000
_cell_volume 657.187245
_symmetry_space_group_name_H-M "P 2/M"
_symmetry_group_IT_number 10
_symmetry_cell_setting 'monoclinic'
loop_
_space_group_symop_operation_xyz
x,y,z
-x,y,-z
-x,-y,-z
x,-y,z
loop_
_atom_site_type_symbol
_atom_site_label
_atom_site_fract_x
_atom_site_fract_y
_atom_site_fract_z
Si Si1 0.384981 0.305151 0.502071
Si Si2 0.366029 0.000000 0.240750
Si Si3 0.295232 0.803961 0.927766
Si Si4 0.634822 0.000000 0.262593
O O1 0.500000 0.262867 0.500000
O O2 0.478457 0.500000 0.579450
O O3 0.518850 0.167486 0.642831
O O4 0.017407 0.291577 0.262802
O O5 0.504431 0.000000 0.254287
O O6 0.000000 0.000000 0.000000
O O7 0.206746 0.000000 0.846948
O O8 0.500000 0.730622 0.000000
O O9 0.498273 0.839237 0.129269
O O10 0.000000 0.000000 0.500000
#
# Coordination Sequence:
#
# PCOD9143790 Si02
#       4
#     4   2   4   2
#     4  11  23  39  59  83 113 152 197 233 272 339
#     4  12  22  36  60  84 116 150 182 234 296 332
#     4   9  18  36  61  86 108 149 197 226 275 337
#     4  10  18  32  58  88 114 142 182 236 284 334
#
# _framework density 18.259636
#
# number of rings (size 3 to 8) (size 9 to 14) (size 15 to 20)
#    1.000    0.667    1.667    4.500    0.000    1.333 
#    0.000    1.667    0.000    4.000    0.000    0.000 
#    0.000    0.000    0.000    0.000    0.000    0.000 
#
# Total GULP energy -66923.981683 kJ/mol
# GULP energy per Si atom -5576.998474 kJ/mol
# Density = 1.821808 g / cm^3
# Si number density = 18.259636 Si / 1000 Ang^3
#
#
#
# Elastic Constant Matrix: (Units=GPa)
#
#
# Indices 1 2 3 4 5 6 
#
# 1 209.6899 62.5260 90.7274 0.0000 13.0929 0.0000
# 2 62.5260 62.9440 41.5635 0.0000 -14.0559 0.0000
# 3 90.7274 41.5635 153.0360 0.0000 8.5902 0.0000
# 4 0.0000 0.0000 0.0000 -3.9635 0.0000 -6.4800
# 5 13.0929 -14.0559 8.5902 0.0000 38.3089 0.0000
# 6 0.0000 0.0000 0.0000 -6.4800 0.0000 -12.0124
#
#
#
# Elastic Compliance Matrix: (Units=1/GPa)
#
#
# Indices 1 2 3 4 5 6 
#
# 1 0.008633 -0.008012 -0.002645 0.000000 -0.005297 0.000000
# 2 -0.008012 0.029881 -0.004187 0.000000 0.014641 0.000000
# 3 -0.002645 -0.004187 0.009393 0.000000 -0.002739 0.000000
# 4 0.000000 0.000000 0.000000 -2.137189 0.000000 1.152896
# 5 -0.005297 0.014641 -0.002739 0.000000 0.033900 0.000000
# 6 0.000000 0.000000 0.000000 1.152896 0.000000 -0.705171
#
#
# Mechanical properties :
#
#
# Convention : Reuss Voigt Hill
#
# Bulk Modulus (GPa) = 54.88878 90.58930 72.73904
# Shear Modulus (GPa) = -1.83500 19.85678 9.01089
#
# Velocity S-wave (km/s) = -1.00356 3.30126 2.22387
# Velocity P-wave (km/s) = 5.36494 8.01564 6.82031
#
# Compressibility (1/GPa) = 0.01821866
#
# Stress axis : x y z
#
# Youngs Moduli (GPa) = 115.83222 33.46662 106.45985
#
# Poissons Ratio (x) = 0.26815 0.28156
# Poissons Ratio (y) = 0.92810 0.44575
# Poissons Ratio (z) = 0.30634 0.14012
#
# Static dielectric constant tensor:
#      x y z
#    x 1.457520 0.000000 -0.237840 
#    y 0.000000 1.624240 0.000000 
#    z -0.237840 0.000000 1.234400 
# 
# From -- ./inp_files/75832.got.cif
#   From: 2010.05.17/outbox.cif.g08.bks.cpg/sg10_38_cif.got.tgz:75832.got - 2010.06.03 11:33:40.
