data_PCOD9143337
_publ_section_title
;
Structure prediction by ZEFSAII (Michael W. Deem and Ramdas Pophale) SiO2 
 PCOD9143337
Probable space group: P 2/M
;
_chemical_formula_sum "Si O2"
_cell_formula_units_Z 32
_cell_length_a 28.600234
_cell_length_b 7.619970
_cell_length_c 11.175099
_cell_angle_alpha 90.000000
_cell_angle_beta 148.205193
_cell_angle_gamma 90.000000
_cell_volume 1283.172138
_symmetry_space_group_name_H-M "P 2/M"
_symmetry_group_IT_number 10
_symmetry_cell_setting 'monoclinic'
loop_
_space_group_symop_operation_xyz
x,y,z
-x,y,-z
-x,-y,-z
x,-y,z
loop_
_atom_site_type_symbol
_atom_site_label
_atom_site_fract_x
_atom_site_fract_y
_atom_site_fract_z
Si Si1 0.628016 0.792644 0.043535
Si Si2 0.738831 0.697085 0.927521
Si Si3 0.073120 0.201113 0.563246
Si Si4 0.194188 0.201173 0.169884
Si Si5 0.093227 0.785562 0.155193
Si Si6 0.561869 0.295860 0.434919
Si Si7 0.374428 0.798598 0.692117
Si Si8 0.820744 0.214852 0.418492
O O1 0.538546 0.769283 0.773640
O O2 0.641691 0.000000 0.092252
O O3 0.613828 0.720642 0.149178
O O4 0.718137 0.730997 0.173927
O O5 0.733783 0.500000 0.967032
O O6 0.771492 0.684893 0.861840
O O7 0.640899 0.780103 0.691295
O O8 0.823919 0.796472 0.166298
O O9 0.098600 0.280880 0.489572
O O10 0.000000 0.274173 0.500000
O O11 0.043210 0.000000 0.479606
O O12 0.111085 0.272507 0.059730
O O13 0.270477 0.196862 0.436089
O O14 0.181347 0.000000 0.099823
O O15 0.161235 0.733625 0.406099
O O16 0.094850 0.000000 0.152122
O O17 0.000000 0.728410 0.000000
O O18 0.562465 0.500000 0.464669
O O19 0.584908 0.276332 0.342769
O O20 0.406072 0.000000 0.763101
O O21 0.825156 0.000000 0.420373
#
# Coordination Sequence:
#
# PCOD9143337 Si02
#       8
#     4   4   4   4   4   4   4   4
#     4  10  18  31  52  77 109 147 180 219 274 331
#     4  10  22  39  56  76 110 149 186 228 276 323
#     4  10  22  39  63  89 109 137 183 235 276 321
#     4   9  16  29  52  81 109 141 181 222 268 324
#     4   9  16  26  49  83 115 143 171 216 277 332
#     4  10  21  34  50  76 108 145 186 227 269 317
#     4   9  16  28  47  74 108 144 181 217 261 323
#     4   9  18  34  53  82 118 143 176 227 279 329
#
# _framework density 24.938196999999999
#
# number of rings (size 3 to 8) (size 9 to 14) (size 15 to 20)
#    0.000    2.500    1.250    1.125    1.750    3.750 
#    0.000    1.250    0.000    4.875    0.000    0.000 
#    0.000    0.000    0.000    0.000    0.000    0.000 
#
# Total GULP energy -178292.725766 kJ/mol
# GULP energy per Si atom -5571.647680 kJ/mol
# Density = 2.488144 g / cm^3
# Si number density = 24.938197 Si / 1000 Ang^3
#
#
#
# Elastic Constant Matrix: (Units=GPa)
#
#
# Indices 1 2 3 4 5 6 
#
# 1 66.0545 0.9597 12.1784 0.0000 18.3765 0.0000
# 2 0.9597 56.1268 -0.4063 0.0000 -3.3099 0.0000
# 3 12.1784 -0.4063 88.7853 0.0000 21.8765 0.0000
# 4 0.0000 0.0000 0.0000-3146.4285 0.0000 -947.8096
# 5 18.3765 -3.3099 21.8765 0.0000 33.5976 0.0000
# 6 0.0000 0.0000 0.0000 -947.8096 0.0000 -251.2885
#
#
#
# Elastic Compliance Matrix: (Units=1/GPa)
#
#
# Indices 1 2 3 4 5 6 
#
# 1 0.017900 -0.000888 -0.000030 0.000000 -0.009858 0.000000
# 2 -0.000888 0.017978 -0.000419 0.000000 0.002530 0.000000
# 3 -0.000030 -0.000419 0.013425 0.000000 -0.008766 0.000000
# 4 0.000000 0.000000 0.000000 0.002334 0.000000 -0.008802
# 5 -0.009858 0.002530 -0.008766 0.000000 0.041113 0.000000
# 6 0.000000 0.000000 0.000000 -0.008802 0.000000 0.029220
#
#
# Mechanical properties :
#
#
# Convention : Reuss Voigt Hill
#
# Bulk Modulus (GPa) = 21.44578 26.27002 23.85790
# Shear Modulus (GPa) = 35.66640 -659.60824 -311.97092
#
# Velocity S-wave (km/s) = 3.78589 -16.28101 -11.19684
# Velocity P-wave (km/s) = 5.26582 18.51679 12.55274
#
# Compressibility (1/GPa) = 0.04662921
#
# Stress axis : x y z
#
# Youngs Moduli (GPa) = 55.86557 55.62320 74.48569
#
# Poissons Ratio (x) = 0.04937 0.00226
# Poissons Ratio (y) = 0.04959 0.03123
# Poissons Ratio (z) = 0.00169 0.02332
#
# Static dielectric constant tensor:
#      x y z
#    x 2.052760 0.000000 -0.014120 
#    y 0.000000 1.996510 0.000000 
#    z -0.014120 0.000000 2.092600 
# 
# From -- ./inp_files/58329.got.cif
#   From: 2010.05.17/outbox.cif.g08.bks.cpg/sg10_30_cif.got.tgz:58329.got - 2010.06.03 11:33:40.
