data_PCOD9143478
_publ_section_title
;
Structure prediction by ZEFSAII (Michael W. Deem and Ramdas Pophale) SiO2 
 PCOD9143478
Probable space group: P 2/M
;
_chemical_formula_sum "Si O2"
_cell_formula_units_Z 28
_cell_length_a 17.275431
_cell_length_b 13.581378
_cell_length_c 8.243890
_cell_angle_alpha 90.000000
_cell_angle_beta 133.266083
_cell_angle_gamma 90.000000
_cell_volume 1408.454538
_symmetry_space_group_name_H-M "P 2/M"
_symmetry_group_IT_number 10
_symmetry_cell_setting 'monoclinic'
loop_
_space_group_symop_operation_xyz
x,y,z
-x,y,-z
-x,-y,-z
x,-y,z
loop_
_atom_site_type_symbol
_atom_site_label
_atom_site_fract_x
_atom_site_fract_y
_atom_site_fract_z
Si Si1 0.816461 0.614659 0.510543
Si Si2 0.383445 0.270505 0.750260
Si Si3 0.384103 0.394729 0.251173
Si Si4 0.530985 0.804077 0.719346
Si Si5 0.288636 0.888459 0.838153
Si Si6 0.117027 0.742886 0.707702
Si Si7 0.158307 0.386068 0.084871
O O1 0.839242 0.500000 0.526113
O O2 0.689788 0.634935 0.341307
O O3 0.855158 0.670153 0.404132
O O4 0.859741 0.645349 0.753065
O O5 0.420152 0.235501 0.628402
O O6 0.312335 0.182365 0.720278
O O7 0.500000 0.280468 0.000000
O O8 0.500000 0.397775 0.500000
O O9 0.371163 0.500000 0.142284
O O10 0.390983 0.292463 0.165517
O O11 0.285600 0.389834 0.232264
O O12 0.500000 0.839956 0.500000
O O13 0.596255 0.884336 0.909861
O O14 0.200605 0.832455 0.819268
O O15 0.259189 0.000000 0.757909
O O16 0.000000 0.780868 0.500000
O O17 0.881945 0.683194 0.119990
O O18 0.120038 0.500000 0.012183
#
# Coordination Sequence:
#
# PCOD9143478 Si02
#       7
#     4   4   4   4   4   4   4
#     4  10  21  37  58  88 123 160 196 227 277 345
#     4   9  20  34  52  84 120 159 187 230 276 335
#     4   9  16  27  49  81 118 157 188 219 265 329
#     4  10  18  31  56  86 118 150 189 224 275 344
#     4  10  22  41  59  79 108 147 194 244 301 352
#     4  11  24  42  62  84 111 148 197 254 303 344
#     4  10  20  36  59  86 121 158 192 232 279 340
#
# _framework density 19.879946
#
# number of rings (size 3 to 8) (size 9 to 14) (size 15 to 20)
#    0.000    2.143    1.429    2.143    0.000    6.857 
#    0.000    1.429    0.000    0.000    0.000    3.000 
#    0.000    0.000    0.000    0.000    0.000    0.000 
#
# Total GULP energy -155924.070888 kJ/mol
# GULP energy per Si atom -5568.716817 kJ/mol
# Density = 1.983470 g / cm^3
# Si number density = 19.879946 Si / 1000 Ang^3
#
#
#
# Elastic Constant Matrix: (Units=GPa)
#
#
# Indices 1 2 3 4 5 6 
#
# 1 32.6431 4.3338 3.1525 0.0000 -13.1724 0.0000
# 2 4.3338 70.4023 7.1974 0.0000 -3.2340 0.0000
# 3 3.1525 7.1974 47.2394 0.0000 0.8237 0.0000
# 4 0.0000 0.0000 0.0000 11.5750 0.0000 -1.1421
# 5 -13.1724 -3.2340 0.8237 0.0000 34.3622 0.0000
# 6 0.0000 0.0000 0.0000 -1.1421 0.0000 -1.0029
#
#
#
# Elastic Compliance Matrix: (Units=1/GPa)
#
#
# Indices 1 2 3 4 5 6 
#
# 1 0.036706 -0.001362 -0.002486 0.000000 0.014002 0.000000
# 2 -0.001362 0.014548 -0.002141 0.000000 0.000898 0.000000
# 3 -0.002486 -0.002141 0.021690 0.000000 -0.001675 0.000000
# 4 0.000000 0.000000 0.000000 0.077666 0.000000 -0.088449
# 5 0.014002 0.000898 -0.001675 0.000000 0.034594 0.000000
# 6 0.000000 0.000000 0.000000 -0.088449 0.000000 -0.896417
#
#
# Mechanical properties :
#
#
# Convention : Reuss Voigt Hill
#
# Bulk Modulus (GPa) = 16.40295 19.96134 18.18214
# Shear Modulus (GPa) = -7.36472 18.02694 5.33111
#
# Velocity S-wave (km/s) = -1.92682 3.01456 1.63935
# Velocity P-wave (km/s) = 1.82174 4.70951 3.57059
#
# Compressibility (1/GPa) = 0.06096466
#
# Stress axis : x y z
#
# Youngs Moduli (GPa) = 27.24381 68.73743 46.10388
#
# Poissons Ratio (x) = 0.09363 0.11462
# Poissons Ratio (y) = 0.03711 0.09872
# Poissons Ratio (z) = 0.06773 0.14719
#
# Static dielectric constant tensor:
#      x y z
#    x 1.758810 0.000000 -0.031440 
#    y 0.000000 1.728200 0.000000 
#    z -0.031440 0.000000 1.744260 
# 
# From -- ./inp_files/32846.got.cif
#   From: 2010.05.17/outbox.cif.g08.bks.cpg/sg10_17_cif.got.tgz:32846.got - 2010.06.03 11:33:40.
