data_PCOD9143230
_publ_section_title
;
Structure prediction by ZEFSAII (Michael W. Deem and Ramdas Pophale) SiO2 
 PCOD9143230
Probable space group: P 2/M
;
_chemical_formula_sum "Si O2"
_cell_formula_units_Z 32
_cell_length_a 8.905149
_cell_length_b 7.586242
_cell_length_c 22.902040
_cell_angle_alpha 90.000000
_cell_angle_beta 105.643411
_cell_angle_gamma 90.000000
_cell_volume 1489.874340
_symmetry_space_group_name_H-M "P 2/M"
_symmetry_group_IT_number 10
_symmetry_cell_setting 'monoclinic'
loop_
_space_group_symop_operation_xyz
x,y,z
-x,y,-z
-x,-y,-z
x,-y,z
loop_
_atom_site_type_symbol
_atom_site_label
_atom_site_fract_x
_atom_site_fract_y
_atom_site_fract_z
Si Si1 0.071837 0.798073 0.362747
Si Si2 0.825941 0.788645 0.255629
Si Si3 0.075524 0.215690 0.859339
Si Si4 0.321519 0.215514 0.981029
Si Si5 0.468339 0.303472 0.198914
Si Si6 0.613592 0.216683 0.562924
Si Si7 0.645546 0.202332 0.691089
Si Si8 0.203369 0.200538 0.090325
O O1 0.204285 0.723953 0.420462
O O2 0.177349 0.800560 0.314242
O O3 0.910717 0.718289 0.323125
O O4 0.043817 0.000000 0.379028
O O5 0.642778 0.757284 0.230494
O O6 0.903939 0.720150 0.204279
O O7 0.848462 0.000000 0.260214
O O8 0.924657 0.278965 0.879364
O O9 0.226794 0.262513 0.913341
O O10 0.067347 0.000000 0.854996
O O11 0.324098 0.000000 0.983972
O O12 0.500000 0.274838 0.000000
O O13 0.231844 0.279164 0.029625
O O14 0.474189 0.500000 0.175921
O O15 0.381076 0.299988 0.252053
O O16 0.367191 0.196910 0.141825
O O17 0.500000 0.275275 0.500000
O O18 0.559534 0.266662 0.622939
O O19 0.616976 0.000000 0.563048
O O20 0.599093 0.000000 0.697702
O O21 0.149529 0.000000 0.074201
#
# Coordination Sequence:
#
# PCOD9143230 Si02
#       8
#     4   4   4   4   4   4   4   4
#     4   7  13  25  47  76 100 122 155 195 237 285
#     4  10  18  31  50  70  95 128 164 202 246 293
#     4   9  17  29  51  79 100 120 158 207 248 288
#     4   9  16  27  47  78 106 126 153 194 243 294
#     4  12  24  34  45  67  99 131 167 207 247 289
#     4   7  11  22  47  82 109 123 147 195 245 285
#     4   8  15  30  52  75  98 125 159 194 239 289
#     4  10  19  33  54  74  97 127 162 202 247 295
#
# _framework density 21.478321000000001
#
# number of rings (size 3 to 8) (size 9 to 14) (size 15 to 20)
#    0.750    2.250    0.000    3.000    0.000    5.500 
#    0.000    2.500    0.000    6.000    0.000    5.250 
#    0.000    0.000    0.000    0.000    0.000    0.000 
#
# Total GULP energy -178137.598823 kJ/mol
# GULP energy per Si atom -5566.799963 kJ/mol
# Density = 2.142944 g / cm^3
# Si number density = 21.478321 Si / 1000 Ang^3
#
#
#
# Elastic Constant Matrix: (Units=GPa)
#
#
# Indices 1 2 3 4 5 6 
#
# 1 37.5648 -2.9352 -6.8767 0.0000 22.8929 0.0000
# 2 -2.9352 48.9436 0.8442 0.0000 0.6816 0.0000
# 3 -6.8767 0.8442 82.4950 0.0000 31.7722 0.0000
# 4 0.0000 0.0000 0.0000 6.3016 0.0000 -33.6573
# 5 22.8929 0.6816 31.7722 0.0000 34.4692 0.0000
# 6 0.0000 0.0000 0.0000 -33.6573 0.0000 12.2331
#
#
#
# Elastic Compliance Matrix: (Units=1/GPa)
#
#
# Indices 1 2 3 4 5 6 
#
# 1 0.134597 0.009007 0.070738 0.000000 -0.154774 0.000000
# 2 0.009007 0.021040 0.004651 0.000000 -0.010685 0.000000
# 3 0.070738 0.004651 0.055970 0.000000 -0.098664 0.000000
# 4 0.000000 0.000000 0.000000 -0.011587 0.000000 -0.031881
# 5 -0.154774 -0.010685 -0.098664 0.000000 0.222960 0.000000
# 6 0.000000 0.000000 0.000000 -0.031881 0.000000 -0.005969
#
#
# Mechanical properties :
#
#
# Convention : Reuss Voigt Hill
#
# Bulk Modulus (GPa) = 2.62882 16.78533 9.70708
# Shear Modulus (GPa) = 13.33261 22.46553 17.89907
#
# Velocity S-wave (km/s) = 2.49418 3.23764 2.88992
# Velocity P-wave (km/s) = 3.08564 4.66995 3.95788
#
# Compressibility (1/GPa) = 0.38039822
#
# Stress axis : x y z
#
# Youngs Moduli (GPa) = 7.42960 47.52757 17.86657
#
# Poissons Ratio (x) = -0.42808 -1.26384
# Poissons Ratio (y) = -0.06692 -0.08309
# Poissons Ratio (z) = -0.52555 -0.22104
#
# Static dielectric constant tensor:
#      x y z
#    x 1.790760 0.000000 0.034590 
#    y 0.000000 1.832640 0.000000 
#    z 0.034590 0.000000 1.800840 
# 
# From -- ./inp_files/91740.got.cif
#   From: 2010.05.17/outbox.cif.g08.bks.cpg/sg10_46_cif.got.tgz:91740.got - 2010.06.03 11:33:40.
