data_PCOD9143269
_publ_section_title
;
Structure prediction by ZEFSAII (Michael W. Deem and Ramdas Pophale) SiO2 
 PCOD9143269
Probable space group: P 2/M
;
_chemical_formula_sum "Si O2"
_cell_formula_units_Z 20
_cell_length_a 18.597887
_cell_length_b 8.745256
_cell_length_c 13.090823
_cell_angle_alpha 90.000000
_cell_angle_beta 146.215096
_cell_angle_gamma 90.000000
_cell_volume 1183.961946
_symmetry_space_group_name_H-M "P 2/M"
_symmetry_group_IT_number 10
_symmetry_cell_setting 'monoclinic'
loop_
_space_group_symop_operation_xyz
x,y,z
-x,y,-z
-x,-y,-z
x,-y,z
loop_
_atom_site_type_symbol
_atom_site_label
_atom_site_fract_x
_atom_site_fract_y
_atom_site_fract_z
Si Si1 0.194813 0.814460 0.421512
Si Si2 0.152681 0.823066 0.150449
Si Si3 0.911193 0.318958 0.131421
Si Si4 0.644319 0.813610 0.194798
Si Si5 0.861156 0.815375 0.287925
O O1 0.220476 0.767191 0.334544
O O2 0.300607 0.767614 0.629597
O O3 0.055242 0.752243 0.291248
O O4 0.185510 0.000000 0.409906
O O5 0.187153 0.000000 0.172086
O O6 0.164720 0.730104 0.060657
O O7 0.000000 0.819847 0.000000
O O8 0.921728 0.500000 0.148736
O O9 0.850035 0.253905 0.162491
O O10 0.747333 0.767429 0.230077
O O11 0.642614 0.000000 0.192668
O O12 0.500000 0.760261 0.000000
O O13 0.000000 0.771762 0.500000
O O14 0.859675 0.000000 0.278428
#
# Coordination Sequence:
#
# PCOD9143269 Si02
#       5
#     4   4   4   4   4
#     4   9  16  30  49  70  97 127 159 195 241 287
#     4   8  15  27  45  67  94 126 158 195 240 287
#     4  11  20  28  44  71 101 126 159 201 237 279
#     4   9  17  30  51  76  97 121 158 200 238 282
#     4  10  18  31  51  71  96 128 158 193 242 289
#
# _framework density 16.892436
#
# number of rings (size 3 to 8) (size 9 to 14) (size 15 to 20)
#    0.000    2.600    2.000    3.000    0.000    4.000 
#    0.000    0.000    0.000    3.600    0.000    8.400 
#    0.000    0.000    0.000    0.000    0.000    0.000 
#
# Total GULP energy -111447.258330 kJ/mol
# GULP energy per Si atom -5572.362916 kJ/mol
# Density = 1.685399 g / cm^3
# Si number density = 16.892436 Si / 1000 Ang^3
#
#
#
# Elastic Constant Matrix: (Units=GPa)
#
#
# Indices 1 2 3 4 5 6 
#
# 1 101.1246 24.1678 86.6235 0.0000 -23.7577 0.0000
# 2 24.1678 20.7751 25.4994 0.0000 -9.6659 0.0000
# 3 86.6235 25.4994 143.6297 0.0000 -28.0069 0.0000
# 4 0.0000 0.0000 0.0000 -1.9961 0.0000 5.5972
# 5 -23.7577 -9.6659 -28.0069 0.0000 34.6054 0.0000
# 6 0.0000 0.0000 0.0000 5.5972 0.0000 -4.4862
#
#
#
# Elastic Compliance Matrix: (Units=1/GPa)
#
#
# Indices 1 2 3 4 5 6 
#
# 1 0.023013 -0.011413 -0.011154 0.000000 0.003584 0.000000
# 2 -0.011413 0.070209 -0.003901 0.000000 0.008618 0.000000
# 3 -0.011154 -0.003901 0.015052 0.000000 0.003434 0.000000
# 4 0.000000 0.000000 0.000000 0.200511 0.000000 0.250167
# 5 0.003584 0.008618 0.003434 0.000000 0.036545 0.000000
# 6 0.000000 0.000000 0.000000 0.250167 0.000000 0.089215
#
#
# Mechanical properties :
#
#
# Convention : Reuss Voigt Hill
#
# Bulk Modulus (GPa) = 18.07089 59.79009 38.93049
# Shear Modulus (GPa) = 9.88286 14.24053 12.06169
#
# Velocity S-wave (km/s) = 2.42140 2.90662 2.67503
# Velocity P-wave (km/s) = 4.30562 6.83637 5.71290
#
# Compressibility (1/GPa) = 0.05533762
#
# Stress axis : x y z
#
# Youngs Moduli (GPa) = 43.45340 14.24317 66.43774
#
# Poissons Ratio (x) = 0.16256 0.74106
# Poissons Ratio (y) = 0.49594 0.25916
# Poissons Ratio (z) = 0.48469 0.05556
#
# Static dielectric constant tensor:
#      x y z
#    x 1.557030 0.000000 -0.029450 
#    y 0.000000 1.554540 0.000000 
#    z -0.029450 0.000000 1.593730 
# 
# From -- ./inp_files/22356.got.cif
#   From: 2010.05.17/outbox.cif.g08.bks.cpg/sg10_12_cif.got.tgz:22356.got - 2010.06.03 11:33:40.
