data_PCOD9143746
_publ_section_title
;
Structure prediction by ZEFSAII (Michael W. Deem and Ramdas Pophale) SiO2 
 PCOD9143746
Probable space group: P 2/M
;
_chemical_formula_sum "Si O2"
_cell_formula_units_Z 32
_cell_length_a 20.458057
_cell_length_b 8.494059
_cell_length_c 20.669331
_cell_angle_alpha 90.000000
_cell_angle_beta 150.326308
_cell_angle_gamma 90.000000
_cell_volume 1778.130851
_symmetry_space_group_name_H-M "P 2/M"
_symmetry_group_IT_number 10
_symmetry_cell_setting 'monoclinic'
loop_
_space_group_symop_operation_xyz
x,y,z
-x,y,-z
-x,-y,-z
x,-y,z
loop_
_atom_site_type_symbol
_atom_site_label
_atom_site_fract_x
_atom_site_fract_y
_atom_site_fract_z
Si Si1 0.851260 0.308128 0.634777
Si Si2 0.668116 0.815501 0.089935
Si Si3 0.620842 0.313629 0.184862
Si Si4 0.601217 0.812478 0.673088
Si Si5 0.650939 0.812173 0.860865
Si Si6 0.851926 0.687816 0.139084
Si Si7 0.635427 0.690662 0.343183
Si Si8 0.315690 0.312092 0.388019
O O1 0.851498 0.500000 0.635644
O O2 0.748264 0.260286 0.490493
O O3 0.793753 0.257809 0.654763
O O4 0.999520 0.256530 0.747428
O O5 0.686840 0.774216 0.181356
O O6 0.787488 0.764855 0.146986
O O7 0.641682 0.000000 0.059924
O O8 0.535713 0.723838 0.954119
O O9 0.639657 0.500000 0.192535
O O10 0.667194 0.267466 0.296277
O O11 0.661095 0.768852 0.793892
O O12 0.687678 0.765219 0.685472
O O13 0.459230 0.730158 0.541171
O O14 0.579162 0.000000 0.653460
O O15 0.504431 0.764084 0.757565
O O16 0.665921 0.000000 0.880257
O O17 0.757383 0.729452 0.997789
O O18 0.853609 0.500000 0.149648
O O19 0.622343 0.500000 0.334750
O O20 0.307958 0.500000 0.374121
#
# Coordination Sequence:
#
# PCOD9143746 Si02
#       8
#     4   4   4   4   4   4   4   4
#     4   9  20  37  57  83 111 142 184 230 278 326
#     4  11  21  34  53  79 114 147 180 226 275 326
#     4  10  19  32  56  85 109 141 183 225 276 328
#     4  10  20  33  51  80 114 144 177 223 274 328
#     4  11  22  35  54  82 113 144 184 227 273 328
#     4  11  22  38  58  79 110 148 185 229 275 329
#     4  10  19  35  59  84 110 139 181 232 276 321
#     4  10  18  32  56  82 108 141 182 228 273 323
#
# _framework density 17.996426
#
# number of rings (size 3 to 8) (size 9 to 14) (size 15 to 20)
#    0.000    1.750    2.500    4.500    0.000    2.000 
#    0.000    5.000    0.000    7.500    0.000    0.000 
#    0.000    0.000    0.000    0.000    0.000    0.000 
#
# Total GULP energy -178670.587539 kJ/mol
# GULP energy per Si atom -5583.455861 kJ/mol
# Density = 1.795547 g / cm^3
# Si number density = 17.996426 Si / 1000 Ang^3
#
#
#
# Elastic Constant Matrix: (Units=GPa)
#
#
# Indices 1 2 3 4 5 6 
#
# 1 137.8735 -1.9639 45.4690 0.0000 -4.0343 0.0000
# 2 -1.9639 12.8097 -6.2229 0.0000 -4.2789 0.0000
# 3 45.4690 -6.2229 70.7266 0.0000 3.1877 0.0000
# 4 0.0000 0.0000 0.0000 -10.1855 0.0000 -18.3811
# 5 -4.0343 -4.2789 3.1877 0.0000 26.9177 0.0000
# 6 0.0000 0.0000 0.0000 -18.3811 0.0000 14.4675
#
#
#
# Elastic Compliance Matrix: (Units=1/GPa)
#
#
# Indices 1 2 3 4 5 6 
#
# 1 0.009333 -0.000903 -0.006169 0.000000 0.001986 0.000000
# 2 -0.000903 0.085813 0.007562 0.000000 0.012610 0.000000
# 3 -0.006169 0.007562 0.018858 0.000000 -0.001956 0.000000
# 4 0.000000 0.000000 0.000000 -0.029816 0.000000 -0.037882
# 5 0.001986 0.012610 -0.001956 0.000000 0.039684 0.000000
# 6 0.000000 0.000000 0.000000 -0.037882 0.000000 0.020991
#
#
# Mechanical properties :
#
#
# Convention : Reuss Voigt Hill
#
# Bulk Modulus (GPa) = 8.69674 32.88602 20.79138
# Shear Modulus (GPa) = 27.44086 18.51512 22.97799
#
# Velocity S-wave (km/s) = 3.90910 3.21101 3.57712
# Velocity P-wave (km/s) = 5.02172 5.66222 5.35156
#
# Compressibility (1/GPa) = 0.11498567
#
# Stress axis : x y z
#
# Youngs Moduli (GPa) = 107.15078 11.65323 53.02725
#
# Poissons Ratio (x) = 0.01052 0.32711
# Poissons Ratio (y) = 0.09671 -0.40100
# Poissons Ratio (z) = 0.66098 -0.08812
#
# Static dielectric constant tensor:
#      x y z
#    x 1.629730 0.000000 -0.018810 
#    y 0.000000 1.608860 0.000000 
#    z -0.018810 0.000000 1.588740 
# 
# From -- ./inp_files/86137.got.cif
#   From: 2010.05.17/outbox.cif.g08.bks.cpg/sg10_44_cif.got.tgz:86137.got - 2010.06.03 11:33:40.
