data_PCOD9143750
_publ_section_title
;
Structure prediction by ZEFSAII (Michael W. Deem and Ramdas Pophale) SiO2 
 PCOD9143750
Probable space group: P 2/M
;
_chemical_formula_sum "Si O2"
_cell_formula_units_Z 30
_cell_length_a 5.688798
_cell_length_b 18.370025
_cell_length_c 14.192438
_cell_angle_alpha 90.000000
_cell_angle_beta 99.592858
_cell_angle_gamma 90.000000
_cell_volume 1462.418217
_symmetry_space_group_name_H-M "P 2/M"
_symmetry_group_IT_number 10
_symmetry_cell_setting 'monoclinic'
loop_
_space_group_symop_operation_xyz
x,y,z
-x,y,-z
-x,-y,-z
x,-y,z
loop_
_atom_site_type_symbol
_atom_site_label
_atom_site_fract_x
_atom_site_fract_y
_atom_site_fract_z
Si Si1 0.500000 0.156025 0.000000
Si Si2 0.603929 0.806723 0.289962
Si Si3 0.921619 0.197779 0.133460
Si Si4 0.774529 0.698819 0.556194
Si Si5 0.699155 0.915602 0.835440
Si Si6 0.727904 0.587608 0.949372
Si Si7 0.263980 0.678918 0.232588
Si Si8 0.750243 0.858085 0.498957
O O1 0.277290 0.207048 0.959648
O O2 0.535557 0.104164 0.913481
O O3 0.801298 0.817418 0.225095
O O4 0.406031 0.868684 0.257505
O O5 0.499136 0.727404 0.264356
O O6 0.709672 0.816928 0.398139
O O7 0.058294 0.123595 0.119762
O O8 0.089304 0.265849 0.164783
O O9 0.500000 0.681397 0.500000
O O10 0.815226 0.664986 0.663827
O O11 0.773924 0.787603 0.568989
O O12 0.000000 0.682295 0.500000
O O13 0.716084 0.000000 0.817306
O O14 0.723614 0.500000 0.950935
O O15 0.694744 0.615150 0.839436
O O16 0.500000 0.611780 0.000000
O O17 0.000000 0.608891 0.000000
O O18 0.500000 0.898178 0.500000
O O19 0.000000 0.898651 0.500000
#
# Coordination Sequence:
#
# PCOD9143750 Si02
#       8
#     2   4   4   4   4   4   4   4
#     4  10  21  38  54  78 113 154 202 258 317 390
#     4  10  21  36  56  90 116 153 202 258 314 376
#     4  10  22  35  54  85 119 146 203 255 321 375
#     4  10  19  32  57  93 128 160 201 249 316 392
#     4  10  22  38  56  76 112 160 206 254 315 387
#     4  10  25  47  67  92 128 180 228 259 306 377
#     4  11  22  38  64  92 126 165 206 268 323 368
#     4  10  18  32  56  82 120 155 187 243 304 377
#
# _framework density 20.513967000000001
#
# number of rings (size 3 to 8) (size 9 to 14) (size 15 to 20)
#    0.000    1.867    2.667    2.200    3.733    6.400 
#    4.800    0.000    0.000    1.600    0.000    0.000 
#    0.000    0.533    0.000    0.000    0.000    0.000 
#
# Total GULP energy -167087.898569 kJ/mol
# GULP energy per Si atom -5569.596619 kJ/mol
# Density = 2.046728 g / cm^3
# Si number density = 20.513967 Si / 1000 Ang^3
#
#
#
# Elastic Constant Matrix: (Units=GPa)
#
#
# Indices 1 2 3 4 5 6 
#
# 1 136.0267 21.4369 28.2791 0.0000 -2.4246 0.0000
# 2 21.4369 35.1693 25.5187 0.0000 -3.0912 0.0000
# 3 28.2791 25.5187 100.6124 0.0000 -6.9261 0.0000
# 4 0.0000 0.0000 0.0000 1.8500 0.0000 -3.8263
# 5 -2.4246 -3.0912 -6.9261 0.0000 38.7383 0.0000
# 6 0.0000 0.0000 0.0000 -3.8263 0.0000 1.9600
#
#
#
# Elastic Compliance Matrix: (Units=1/GPa)
#
#
# Indices 1 2 3 4 5 6 
#
# 1 0.008265 -0.004110 -0.001283 0.000000 -0.000040 0.000000
# 2 -0.004110 0.036948 -0.008131 0.000000 0.001237 0.000000
# 3 -0.001283 -0.008131 0.012465 0.000000 0.001500 0.000000
# 4 0.000000 0.000000 0.000000 -0.177948 0.000000 -0.347389
# 5 -0.000040 0.001237 0.001500 0.000000 0.026179 0.000000
# 6 0.000000 0.000000 0.000000 -0.347389 0.000000 -0.167964
#
#
# Mechanical properties :
#
#
# Convention : Reuss Voigt Hill
#
# Bulk Modulus (GPa) = 32.64830 46.91976 39.78403
# Shear Modulus (GPa) = -22.24234 21.61457 -0.31389
#
# Velocity S-wave (km/s) = -3.29637 3.24952 -0.39159
# Velocity P-wave (km/s) = 1.20897 6.08284 4.38535
#
# Compressibility (1/GPa) = 0.03062946
#
# Stress axis : x y z
#
# Youngs Moduli (GPa) = 120.98706 27.06532 80.22263
#
# Poissons Ratio (x) = 0.11125 0.10296
# Poissons Ratio (y) = 0.49730 0.65227
# Poissons Ratio (z) = 0.15527 0.22006
#
# Static dielectric constant tensor:
#      x y z
#    x 1.899080 0.000000 0.001210 
#    y 0.000000 1.673700 0.000000 
#    z 0.001210 0.000000 1.808690 
# 
# From -- ./inp_files/59445.got.cif
#   From: 2010.05.17/outbox.cif.g08.bks.cpg/sg10_30_cif.got.tgz:59445.got - 2010.06.03 11:33:40.
