data_PCOD9143905
_publ_section_title
;
Structure prediction by ZEFSAII (Michael W. Deem and Ramdas Pophale) SiO2 
 PCOD9143905
Probable space group: P 2/M
;
_chemical_formula_sum "Si O2"
_cell_formula_units_Z 24
_cell_length_a 16.369968
_cell_length_b 9.368542
_cell_length_c 7.126890
_cell_angle_alpha 90.000000
_cell_angle_beta 76.641451
_cell_angle_gamma 90.000000
_cell_volume 1063.426353
_symmetry_space_group_name_H-M "P 2/M"
_symmetry_group_IT_number 10
_symmetry_cell_setting 'monoclinic'
loop_
_space_group_symop_operation_xyz
x,y,z
-x,y,-z
-x,-y,-z
x,-y,z
loop_
_atom_site_type_symbol
_atom_site_label
_atom_site_fract_x
_atom_site_fract_y
_atom_site_fract_z
Si Si1 0.629806 0.333324 0.430180
Si Si2 0.695434 0.165716 0.061342
Si Si3 0.858234 0.334301 0.876146
Si Si4 0.823687 0.660456 0.448210
Si Si5 0.020173 0.836415 0.713750
Si Si6 0.432618 0.834326 0.193832
O O1 0.611331 0.500000 0.406800
O O2 0.632156 0.240034 0.240871
O O3 0.726347 0.321911 0.451785
O O4 0.573245 0.265842 0.623276
O O5 0.654649 0.170689 0.876119
O O6 0.707712 0.000000 0.104901
O O7 0.781706 0.252790 0.014395
O O8 0.862202 0.500000 0.928952
O O9 0.836327 0.329401 0.665346
O O10 0.946796 0.254984 0.848028
O O11 0.849380 0.500000 0.380273
O O12 0.887799 0.769251 0.318918
O O13 0.000000 0.833170 0.500000
O O14 0.018002 0.000000 0.774729
O O15 0.448489 0.000000 0.239113
O O16 0.500000 0.793435 0.000000
#
# Coordination Sequence:
#
# PCOD9143905 Si02
#       6
#     4   4   4   4   4   4
#     4  11  23  40  63  92 125 160 201 247 299 359
#     4  11  23  39  62  91 123 159 201 248 300 358
#     4  10  18  33  56  82 117 158 202 249 299 354
#     4   9  18  33  54  81 115 157 200 245 298 352
#     4   9  17  28  48  81 116 154 201 248 296 349
#     4  10  23  44  68  92 121 158 198 244 300 362
#
# _framework density 22.568557999999999
#
# number of rings (size 3 to 8) (size 9 to 14) (size 15 to 20)
#    0.000    2.000    1.667    2.000    0.000    5.667 
#    0.000    4.167    0.000    5.000    0.000    0.000 
#    0.000    0.000    0.000    0.000    0.000    0.000 
#
# Total GULP energy -134327.976145 kJ/mol
# GULP energy per Si atom -5596.999006 kJ/mol
# Density = 2.251719 g / cm^3
# Si number density = 22.568558 Si / 1000 Ang^3
#
#
#
# Elastic Constant Matrix: (Units=GPa)
#
#
# Indices 1 2 3 4 5 6 
#
# 1 59.7112 30.7484 13.4995 0.0000 -8.6181 0.0000
# 2 30.7484 180.5074 86.6760 0.0000 -24.5694 0.0000
# 3 13.4995 86.6760 138.6677 0.0000 -13.4427 0.0000
# 4 0.0000 0.0000 0.0000 55.0394 0.0000 -9.7101
# 5 -8.6181 -24.5694 -13.4427 0.0000 43.2989 0.0000
# 6 0.0000 0.0000 0.0000 -9.7101 0.0000 20.1457
#
#
#
# Elastic Compliance Matrix: (Units=1/GPa)
#
#
# Indices 1 2 3 4 5 6 
#
# 1 0.018532 -0.003008 0.000277 0.000000 0.002067 0.000000
# 2 -0.003008 0.008814 -0.004938 0.000000 0.002870 0.000000
# 3 0.000277 -0.004938 0.010316 0.000000 0.000455 0.000000
# 4 0.000000 0.000000 0.000000 0.019857 0.000000 0.009571
# 5 0.002067 0.002870 0.000455 0.000000 0.025276 0.000000
# 6 0.000000 0.000000 0.000000 0.009571 0.000000 0.054252
#
#
# Mechanical properties :
#
#
# Convention : Reuss Voigt Hill
#
# Bulk Modulus (GPa) = 44.79901 71.19269 57.99585
# Shear Modulus (GPa) = 31.28354 40.22762 35.75558
#
# Velocity S-wave (km/s) = 3.72715 4.22650 3.98466
# Velocity P-wave (km/s) = 6.19802 7.44522 6.85007
#
# Compressibility (1/GPa) = 0.02232192
#
# Stress axis : x y z
#
# Youngs Moduli (GPa) = 53.95998 113.45175 96.94105
#
# Poissons Ratio (x) = 0.34130 -0.02682
# Poissons Ratio (y) = 0.16233 0.47874
# Poissons Ratio (z) = -0.01493 0.56028
#
# Static dielectric constant tensor:
#      x y z
#    x 1.865780 0.000000 0.036420 
#    y 0.000000 1.767730 0.000000 
#    z 0.036420 0.000000 1.834130 
# 
# From -- ./inp_files/33781.got.cif
#   From: 2010.05.17/outbox.cif.g08.bks.cpg/sg10_17_cif.got.tgz:33781.got - 2010.06.03 11:33:40.
