data_PCOD9143133
_publ_section_title
;
Structure prediction by ZEFSAII (Michael W. Deem and Ramdas Pophale) SiO2 
 PCOD9143133
Probable space group: P 2/M
;
_chemical_formula_sum "Si O2"
_cell_formula_units_Z 28
_cell_length_a 11.416031
_cell_length_b 15.723998
_cell_length_c 8.286765
_cell_angle_alpha 90.000000
_cell_angle_beta 121.781225
_cell_angle_gamma 90.000000
_cell_volume 1264.490127
_symmetry_space_group_name_H-M "P 2/M"
_symmetry_group_IT_number 10
_symmetry_cell_setting 'monoclinic'
loop_
_space_group_symop_operation_xyz
x,y,z
-x,y,-z
-x,-y,-z
x,-y,z
loop_
_atom_site_type_symbol
_atom_site_label
_atom_site_fract_x
_atom_site_fract_y
_atom_site_fract_z
Si Si1 0.343278 0.908398 0.731169
Si Si2 0.068189 0.125131 0.383712
Si Si3 0.201863 0.905934 0.985085
Si Si4 0.558419 0.280952 0.215593
Si Si5 0.720258 0.277158 0.833255
Si Si6 0.161399 0.685380 0.432814
Si Si7 0.924346 0.406399 0.120536
O O1 0.223955 0.906871 0.508367
O O2 0.272344 0.901476 0.857215
O O3 0.425817 0.821920 0.769395
O O4 0.415803 0.000000 0.775203
O O5 0.082197 0.226445 0.403662
O O6 0.000000 0.094070 0.500000
O O7 0.962736 0.101478 0.167244
O O8 0.231668 0.000000 0.073809
O O9 0.251338 0.823005 0.116865
O O10 0.438599 0.300093 0.255460
O O11 0.708431 0.320392 0.355207
O O12 0.500000 0.305200 0.000000
O O13 0.769758 0.302968 0.692878
O O14 0.813538 0.331041 0.026632
O O15 0.045134 0.614191 0.335018
O O16 0.863988 0.500000 0.102613
O O17 0.000000 0.406763 0.000000
#
# Coordination Sequence:
#
# PCOD9143133 Si02
#       7
#     4   4   4   4   4   4   4
#     4   9  18  32  52  79 110 154 213 246 265 326
#     4   9  17  31  53  82 112 151 195 242 286 336
#     4  10  18  30  53  84 118 155 194 238 286 338
#     4  11  22  37  57  84 112 162 196 234 284 342
#     4  11  21  37  57  89 122 150 189 239 295 338
#     4  10  21  37  61  84 118 148 190 241 291 341
#     4   9  19  38  66  91 112 145 191 236 285 349
#
# _framework density 22.143312999999999
#
# number of rings (size 3 to 8) (size 9 to 14) (size 15 to 20)
#    0.000    2.143    2.857    0.857    0.000    2.571 
#    0.000    5.000    0.000   12.429    0.000    0.000 
#    0.000    0.000    0.000    0.000    0.000    0.000 
#
# Total GULP energy -156381.991669 kJ/mol
# GULP energy per Si atom -5585.071131 kJ/mol
# Density = 2.209291 g / cm^3
# Si number density = 22.143313 Si / 1000 Ang^3
#
#
#
# Elastic Constant Matrix: (Units=GPa)
#
#
# Indices 1 2 3 4 5 6 
#
# 1 52.6569 5.0881 16.0335 0.0000 4.8848 0.0000
# 2 5.0881 79.0886 17.4760 0.0000 12.6982 0.0000
# 3 16.0335 17.4760 83.7574 0.0000 19.9028 0.0000
# 4 0.0000 0.0000 0.0000 6.4857 0.0000 -10.4957
# 5 4.8848 12.6982 19.9028 0.0000 31.6553 0.0000
# 6 0.0000 0.0000 0.0000 -10.4957 0.0000 -1.8914
#
#
#
# Elastic Compliance Matrix: (Units=1/GPa)
#
#
# Indices 1 2 3 4 5 6 
#
# 1 0.020195 -0.000389 -0.003622 0.000000 -0.000683 0.000000
# 2 -0.000389 0.013757 -0.001762 0.000000 -0.004351 0.000000
# 3 -0.003622 -0.001762 0.014930 0.000000 -0.008121 0.000000
# 4 0.000000 0.000000 0.000000 0.015450 0.000000 -0.085730
# 5 -0.000683 -0.004351 -0.008121 0.000000 0.038547 0.000000
# 6 0.000000 0.000000 0.000000 -0.085730 0.000000 -0.052976
#
#
# Mechanical properties :
#
#
# Convention : Reuss Voigt Hill
#
# Bulk Modulus (GPa) = 26.78491 32.52202 29.65347
# Shear Modulus (GPa) = 67.66431 19.04360 43.35395
#
# Velocity S-wave (km/s) = 5.53388 2.93578 4.42959
# Velocity P-wave (km/s) = 7.27696 5.11964 6.29146
#
# Compressibility (1/GPa) = 0.03733445
#
# Stress axis : x y z
#
# Youngs Moduli (GPa) = 49.51778 72.69049 66.97852
#
# Poissons Ratio (x) = 0.02829 0.24262
# Poissons Ratio (y) = 0.01927 0.11802
# Poissons Ratio (z) = 0.17937 0.12809
#
# Static dielectric constant tensor:
#      x y z
#    x 1.841530 0.000000 -0.016070 
#    y 0.000000 1.802610 0.000000 
#    z -0.016070 0.000000 1.849680 
# 
# From -- ./inp_files/25391.got.cif
#   From: 2010.05.17/outbox.cif.g08.bks.cpg/sg10_13_cif.got.tgz:25391.got - 2010.06.03 11:33:40.
