data_PCOD9143247
_publ_section_title
;
Structure prediction by ZEFSAII (Michael W. Deem and Ramdas Pophale) SiO2 
 PCOD9143247
Probable space group: P 2/M
;
_chemical_formula_sum "Si O2"
_cell_formula_units_Z 30
_cell_length_a 15.955569
_cell_length_b 20.851361
_cell_length_c 16.626402
_cell_angle_alpha 90.000000
_cell_angle_beta 161.919851
_cell_angle_gamma 90.000000
_cell_volume 1716.693088
_symmetry_space_group_name_H-M "P 2/M"
_symmetry_group_IT_number 10
_symmetry_cell_setting 'monoclinic'
loop_
_space_group_symop_operation_xyz
x,y,z
-x,y,-z
-x,-y,-z
x,-y,z
loop_
_atom_site_type_symbol
_atom_site_label
_atom_site_fract_x
_atom_site_fract_y
_atom_site_fract_z
Si Si1 0.608644 0.648273 0.335617
Si Si2 0.263321 0.146064 0.610601
Si Si3 0.299761 0.720368 0.741740
Si Si4 0.305473 0.075262 0.899372
Si Si5 0.023511 0.247432 0.116825
Si Si6 0.805531 0.500000 0.746023
Si Si7 0.028427 0.614663 0.842645
Si Si8 0.447129 0.785491 0.625434
O O1 0.622094 0.668359 0.254886
O O2 0.578708 0.715751 0.355926
O O3 0.877780 0.619064 0.619560
O O4 0.347010 0.606127 0.118481
O O5 0.297798 0.210304 0.695820
O O6 0.507246 0.099282 0.857178
O O7 0.299010 0.166623 0.550785
O O8 0.971139 0.114982 0.359369
O O9 0.000000 0.707866 0.500000
O O10 0.500000 0.721357 0.000000
O O11 0.240864 0.000000 0.845697
O O12 0.500000 0.085126 0.000000
O O13 0.999283 0.317728 0.135366
O O14 0.296023 0.218394 0.402462
O O15 0.766423 0.205206 0.909284
O O16 0.000000 0.254223 0.000000
O O17 0.500000 0.500000 0.500000
O O18 0.880975 0.561531 0.761307
O O19 0.000000 0.500000 0.000000
#
# Coordination Sequence:
#
# PCOD9143247 Si02
#       8
#     4   4   4   4   4   2   4   4
#     4   9  19  34  50  71 102 134 166 202 253 306
#     4  11  20  34  50  70 105 136 165 208 251 292
#     4  11  20  31  52  80 102 129 170 213 256 297
#     4  11  22  34  49  71 101 139 176 204 237 287
#     4  10  18  31  50  73 103 132 159 196 250 304
#     4  12  24  36  54  82 106 132 178 214 236 288
#     4  10  20  35  51  72 103 139 166 199 246 296
#     4   9  19  31  48  72  98 131 165 200 246 304
#
# _framework density 17.475459000000001
#
# number of rings (size 3 to 8) (size 9 to 14) (size 15 to 20)
#    0.000    1.733    0.000    6.000    0.000    7.467 
#    0.000    0.000    0.000    0.000    0.000    9.333 
#    0.000   37.333    0.000    0.000    0.000    0.000 
#
# Total GULP energy -167402.393357 kJ/mol
# GULP energy per Si atom -5580.079779 kJ/mol
# Density = 1.743568 g / cm^3
# Si number density = 17.475459 Si / 1000 Ang^3
#
#
#
# Elastic Constant Matrix: (Units=GPa)
#
#
# Indices 1 2 3 4 5 6 
#
# 1 91.7853 33.6388 50.4655 0.0000 -9.1111 0.0000
# 2 33.6388 52.5986 32.4865 0.0000 1.4270 0.0000
# 3 50.4655 32.4865 136.6216 0.0000 -7.4653 0.0000
# 4 0.0000 0.0000 0.0000 9.6789 0.0000 0.9712
# 5 -9.1111 1.4270 -7.4653 0.0000 32.7186 0.0000
# 6 0.0000 0.0000 0.0000 0.9712 0.0000 21.3583
#
#
#
# Elastic Compliance Matrix: (Units=1/GPa)
#
#
# Indices 1 2 3 4 5 6 
#
# 1 0.016457 -0.008225 -0.003902 0.000000 0.004051 0.000000
# 2 -0.008225 0.026554 -0.003508 0.000000 -0.004249 0.000000
# 3 -0.003902 -0.003508 0.009664 0.000000 0.001272 0.000000
# 4 0.000000 0.000000 0.000000 0.103791 0.000000 -0.004719
# 5 0.004051 -0.004249 0.001272 0.000000 0.032167 0.000000
# 6 0.000000 0.000000 0.000000 -0.004719 0.000000 0.047035
#
#
# Mechanical properties :
#
#
# Convention : Reuss Voigt Hill
#
# Bulk Modulus (GPa) = 46.71653 57.13188 51.92421
# Shear Modulus (GPa) = 18.24333 23.71214 20.97773
#
# Velocity S-wave (km/s) = 3.23451 3.68758 3.46845
# Velocity P-wave (km/s) = 6.38280 7.13405 6.76885
#
# Compressibility (1/GPa) = 0.02140570
#
# Stress axis : x y z
#
# Youngs Moduli (GPa) = 60.76552 37.65912 103.47268
#
# Poissons Ratio (x) = 0.30974 0.40372
# Poissons Ratio (y) = 0.49978 0.36301
# Poissons Ratio (z) = 0.23709 0.13212
#
# Static dielectric constant tensor:
#      x y z
#    x 1.599210 0.000000 -0.018830 
#    y 0.000000 1.593150 0.000000 
#    z -0.018830 0.000000 1.613310 
# 
# From -- ./inp_files/67875.got.cif
#   From: 2010.05.17/outbox.cif.g08.bks.cpg/sg10_34_cif.got.tgz:67875.got - 2010.06.03 11:33:40.
