data_PCOD9143962
_publ_section_title
;
Structure prediction by ZEFSAII (Michael W. Deem and Ramdas Pophale) SiO2 
 PCOD9143962
Probable space group: P 2/M
;
_chemical_formula_sum "Si O2"
_cell_formula_units_Z 28
_cell_length_a 9.709664
_cell_length_b 13.802804
_cell_length_c 12.542253
_cell_angle_alpha 90.000000
_cell_angle_beta 66.709278
_cell_angle_gamma 90.000000
_cell_volume 1543.942661
_symmetry_space_group_name_H-M "P 2/M"
_symmetry_group_IT_number 10
_symmetry_cell_setting 'monoclinic'
loop_
_space_group_symop_operation_xyz
x,y,z
-x,y,-z
-x,-y,-z
x,-y,z
loop_
_atom_site_type_symbol
_atom_site_label
_atom_site_fract_x
_atom_site_fract_y
_atom_site_fract_z
Si Si1 0.425513 0.276477 0.273776
Si Si2 0.152387 0.892554 0.004352
Si Si3 0.278909 0.615706 0.900204
Si Si4 0.348192 0.111693 0.735728
Si Si5 0.140289 0.714576 0.742009
Si Si6 0.668424 0.389252 0.495509
Si Si7 0.209541 0.273223 0.138230
O O1 0.562233 0.345828 0.193904
O O2 0.503006 0.177147 0.293298
O O3 0.335929 0.324203 0.398249
O O4 0.319300 0.270698 0.204211
O O5 0.215214 0.830046 0.079188
O O6 0.111472 0.000000 0.053502
O O7 0.274727 0.896244 0.874940
O O8 0.000000 0.850039 0.000000
O O9 0.268418 0.500000 0.897622
O O10 0.166256 0.667092 0.851091
O O11 0.253052 0.652422 0.029202
O O12 0.226494 0.180997 0.713104
O O13 0.367498 0.000000 0.690501
O O14 0.222801 0.649698 0.629018
O O15 0.963726 0.715495 0.776025
O O16 0.500000 0.385745 0.500000
O O17 0.704034 0.500000 0.511488
#
# Coordination Sequence:
#
# PCOD9143962 Si02
#       7
#     4   4   4   4   4   4   4
#     4  11  24  39  59  86 122 156 199 241 300 349
#     4  10  18  33  59  89 121 160 196 234 288 359
#     4  11  22  38  59  84 116 156 196 241 302 361
#     4  10  20  36  60  89 118 151 198 239 287 354
#     4  11  22  39  63  87 117 152 204 246 292 341
#     4  11  22  42  67  85 108 157 212 249 284 346
#     4  12  23  37  56  91 129 154 181 250 305 360
#
# _framework density 18.135387999999999
#
# number of rings (size 3 to 8) (size 9 to 14) (size 15 to 20)
#    0.000    1.143    7.143    1.714    0.000    4.571 
#    0.000    3.571    0.000    0.000    0.000    3.000 
#    0.000    0.000    0.000    0.000    0.000    0.000 
#
# Total GULP energy -156203.623499 kJ/mol
# GULP energy per Si atom -5578.700839 kJ/mol
# Density = 1.809411 g / cm^3
# Si number density = 18.135388 Si / 1000 Ang^3
#
#
#
# Elastic Constant Matrix: (Units=GPa)
#
#
# Indices 1 2 3 4 5 6 
#
# 1 42.2222 14.9936 -4.8975 0.0000 0.7590 0.0000
# 2 14.9936 128.7571 19.9856 0.0000 3.3655 0.0000
# 3 -4.8975 19.9856 55.3919 0.0000 -1.2943 0.0000
# 4 0.0000 0.0000 0.0000 15.4866 0.0000 -5.2895
# 5 0.7590 3.3655 -1.2943 0.0000 24.2698 0.0000
# 6 0.0000 0.0000 0.0000 -5.2895 0.0000 7.5047
#
#
#
# Elastic Compliance Matrix: (Units=1/GPa)
#
#
# Indices 1 2 3 4 5 6 
#
# 1 0.025331 -0.003489 0.003496 0.000000 -0.000122 0.000000
# 2 -0.003489 0.008749 -0.003495 0.000000 -0.001291 0.000000
# 3 0.003496 -0.003495 0.019657 0.000000 0.001424 0.000000
# 4 0.000000 0.000000 0.000000 0.085045 0.000000 0.059942
# 5 -0.000122 -0.001291 0.001424 0.000000 0.041462 0.000000
# 6 0.000000 0.000000 0.000000 0.059942 0.000000 0.175499
#
#
# Mechanical properties :
#
#
# Convention : Reuss Voigt Hill
#
# Bulk Modulus (GPa) = 21.38623 31.83717 26.61170
# Shear Modulus (GPa) = 13.21678 22.53818 17.87748
#
# Velocity S-wave (km/s) = 2.70253 3.52912 3.14312
# Velocity P-wave (km/s) = 4.64288 5.84805 5.27996
#
# Compressibility (1/GPa) = 0.04675906
#
# Stress axis : x y z
#
# Youngs Moduli (GPa) = 39.47741 114.29676 50.87332
#
# Poissons Ratio (x) = 0.39880 -0.17784
# Poissons Ratio (y) = 0.13774 0.17782
# Poissons Ratio (z) = -0.13800 0.39951
#
# Static dielectric constant tensor:
#      x y z
#    x 1.367530 0.000000 -0.094610 
#    y 0.000000 1.667200 0.000000 
#    z -0.094610 0.000000 1.580260 
# 
# From -- ./inp_files/42652.got.cif
#   From: 2010.05.17/outbox.cif.g08.bks.cpg/sg10_22_cif.got.tgz:42652.got - 2010.06.03 11:33:40.
