data_PCOD9143491
_publ_section_title
;
Structure prediction by ZEFSAII (Michael W. Deem and Ramdas Pophale) SiO2 
 PCOD9143491
Probable space group: P 2/M
;
_chemical_formula_sum "Si O2"
_cell_formula_units_Z 20
_cell_length_a 6.945819
_cell_length_b 22.573711
_cell_length_c 5.473901
_cell_angle_alpha 90.000000
_cell_angle_beta 102.110736
_cell_angle_gamma 90.000000
_cell_volume 839.167189
_symmetry_space_group_name_H-M "P 2/M"
_symmetry_group_IT_number 10
_symmetry_cell_setting 'monoclinic'
loop_
_space_group_symop_operation_xyz
x,y,z
-x,y,-z
-x,-y,-z
x,-y,z
loop_
_atom_site_type_symbol
_atom_site_label
_atom_site_fract_x
_atom_site_fract_y
_atom_site_fract_z
Si Si1 0.288249 0.820273 0.694712
Si Si2 0.769559 0.628511 0.919738
Si Si3 0.624886 0.500000 0.783679
Si Si4 0.629535 0.000000 0.784808
Si Si5 0.759734 0.315280 0.416478
Si Si6 0.737104 0.131224 0.811930
O O1 0.305401 0.749885 0.681675
O O2 0.189750 0.841819 0.420142
O O3 0.503349 0.851273 0.751700
O O4 0.189532 0.840298 0.918987
O O5 0.746098 0.560707 0.831277
O O6 0.691218 0.667395 0.671444
O O7 0.697242 0.640956 0.177635
O O8 0.000000 0.642729 0.000000
O O9 0.500000 0.500000 0.500000
O O10 0.500000 0.500000 0.000000
O O11 0.500000 0.000000 0.500000
O O12 0.751477 0.939397 0.817802
O O13 0.500000 0.000000 0.000000
O O14 0.000000 0.315446 0.500000
#
# Coordination Sequence:
#
# PCOD9143491 Si02
#       6
#     4   4   2   2   4   4
#     4  10  18  32  46  76 109 133 175 218 273 329
#     4  10  22  43  65  84 111 159 201 228 273 347
#     4  12  25  44  61  94 126 144 188 242 301 330
#     4  12  16  30  48  70 106 138 182 228 260 338
#     4  10  21  38  60  83 108 147 196 229 266 327
#     4  10  19  30  48  77 105 140 178 217 285 337
#
# _framework density 23.833151000000001
#
# number of rings (size 3 to 8) (size 9 to 14) (size 15 to 20)
#    0.000    1.600    4.000    2.700    0.000    0.000 
#   21.600    4.000    0.000    0.000    0.000    7.700 
#    0.000    0.000    0.000    0.000    0.000    0.000 
#
# Total GULP energy -111884.164132 kJ/mol
# GULP energy per Si atom -5594.208207 kJ/mol
# Density = 2.377891 g / cm^3
# Si number density = 23.833151 Si / 1000 Ang^3
#
#
#
# Elastic Constant Matrix: (Units=GPa)
#
#
# Indices 1 2 3 4 5 6 
#
# 1 57.7604 -19.8902 44.6854 0.0000 -2.2444 0.0000
# 2 -19.8902 173.7694 76.6308 0.0000 0.3197 0.0000
# 3 44.6854 76.6308 255.7830 0.0000 -22.3091 0.0000
# 4 0.0000 0.0000 0.0000-1396.9253 0.0000-3956.3473
# 5 -2.2444 0.3197 -22.3091 0.0000 53.1275 0.0000
# 6 0.0000 0.0000 0.0000-3956.3473 0.0000**********
#
#
#
# Elastic Compliance Matrix: (Units=1/GPa)
#
#
# Indices 1 2 3 4 5 6 
#
# 1 0.023579 0.005272 -0.005828 0.000000 -0.001483 0.000000
# 2 0.005272 0.007852 -0.003382 0.000000 -0.001245 0.000000
# 3 -0.005828 -0.003382 0.006146 0.000000 0.002355 0.000000
# 4 0.000000 0.000000 0.000000 0.017287 0.000000 -0.006357
# 5 -0.001483 -0.001245 0.002355 0.000000 0.019756 0.000000
# 6 0.000000 0.000000 0.000000 -0.006357 0.000000 0.002244
#
#
# Mechanical properties :
#
#
# Convention : Reuss Voigt Hill
#
# Bulk Modulus (GPa) = 33.66846 76.68498 55.17672
# Shear Modulus (GPa) = 52.83047 -2394.94245 -1171.05599
#
# Velocity S-wave (km/s) = 4.71327 -31.73421 -22.19060
# Velocity P-wave (km/s) = 6.61644 36.20085 25.16668
#
# Compressibility (1/GPa) = 0.02970139
#
# Stress axis : x y z
#
# Youngs Moduli (GPa) = 42.40973 127.35809 162.69833
#
# Poissons Ratio (x) = -0.67141 0.94822
# Poissons Ratio (y) = -0.22358 0.55023
# Poissons Ratio (z) = 0.24717 0.43072
#
# Static dielectric constant tensor:
#      x y z
#    x 1.966780 0.000000 -0.001810 
#    y 0.000000 1.841360 0.000000 
#    z -0.001810 0.000000 1.923450 
# 
# From -- ./inp_files/4848.got.cif
#   From: 2010.05.17/outbox.cif.g08.bks.cpg/sg10_3_cif.got.tgz:4848.got - 2010.06.03 11:33:40.
