data_PCOD9143080
_publ_section_title
;
Structure prediction by ZEFSAII (Michael W. Deem and Ramdas Pophale) SiO2 
 PCOD9143080
Probable space group: P 2/M
;
_chemical_formula_sum "Si O2"
_cell_formula_units_Z 32
_cell_length_a 21.511410
_cell_length_b 15.051110
_cell_length_c 8.726050
_cell_angle_alpha 90.000000
_cell_angle_beta 147.021675
_cell_angle_gamma 90.000000
_cell_volume 1537.838660
_symmetry_space_group_name_H-M "P 2/M"
_symmetry_group_IT_number 10
_symmetry_cell_setting 'monoclinic'
loop_
_space_group_symop_operation_xyz
x,y,z
-x,y,-z
-x,-y,-z
x,-y,z
loop_
_atom_site_type_symbol
_atom_site_label
_atom_site_fract_x
_atom_site_fract_y
_atom_site_fract_z
Si Si1 0.917925 0.769569 0.184675
Si Si2 0.272403 0.598936 0.750383
Si Si3 0.525803 0.898055 0.869484
Si Si4 0.259886 0.211780 0.606100
Si Si5 0.971415 0.403866 0.620445
Si Si6 0.472246 0.399058 0.759471
Si Si7 0.050347 0.902497 0.272584
Si Si8 0.326267 0.223388 0.396747
O O1 0.000000 0.768644 0.500000
O O2 0.958051 0.681182 0.174114
O O3 0.952645 0.859198 0.171861
O O4 0.783494 0.767900 0.938428
O O5 0.264998 0.500000 0.664837
O O6 0.254183 0.682582 0.605108
O O7 0.165554 0.605877 0.644928
O O8 0.405094 0.607013 0.073963
O O9 0.420654 0.852356 0.563468
O O10 0.548434 0.000000 0.869796
O O11 0.500000 0.900503 0.000000
O O12 0.631490 0.830426 0.083118
O O13 0.153281 0.165950 0.466133
O O14 0.273608 0.195336 0.453646
O O15 0.002360 0.500000 0.754914
O O16 0.000000 0.409124 0.500000
O O17 0.427849 0.500000 0.644512
O O18 0.390733 0.317965 0.545614
O O19 0.500000 0.389650 0.000000
O O20 0.087304 0.000000 0.403353
O O21 0.000000 0.911047 0.000000
#
# Coordination Sequence:
#
# PCOD9143080 Si02
#       8
#     4   4   4   4   4   4   4   4
#     4  11  24  40  59  84 119 162 204 251 307 363
#     4  10  18  30  56  88 120 154 188 237 305 365
#     4   9  18  31  51  81 112 149 191 237 292 349
#     4  11  18  33  57  87 121 152 191 245 300 363
#     4   9  19  37  59  80 108 153 204 248 291 346
#     4  10  18  30  51  86 126 159 192 240 307 369
#     4  11  23  39  61  87 116 156 206 260 306 356
#     4  11  20  33  54  82 120 161 195 243 295 359
#
# _framework density 20.808426000000001
#
# number of rings (size 3 to 8) (size 9 to 14) (size 15 to 20)
#    0.000    1.750    5.000    0.750    0.000    1.750 
#    0.000    0.000    0.000    9.000    0.000   13.125 
#    0.000    0.000    0.000    0.000    0.000    0.000 
#
# Total GULP energy -178288.383664 kJ/mol
# GULP energy per Si atom -5571.511990 kJ/mol
# Density = 2.076106 g / cm^3
# Si number density = 20.808426 Si / 1000 Ang^3
#
#
#
# Elastic Constant Matrix: (Units=GPa)
#
#
# Indices 1 2 3 4 5 6 
#
# 1 35.9130 4.8949 9.9726 0.0000 23.4433 0.0000
# 2 4.8949 131.8405 34.3818 0.0000 8.1654 0.0000
# 3 9.9726 34.3818 94.5550 0.0000 24.3565 0.0000
# 4 0.0000 0.0000 0.0000 9.0403 0.0000 6.9359
# 5 23.4433 8.1654 24.3565 0.0000 24.1843 0.0000
# 6 0.0000 0.0000 0.0000 6.9359 0.0000 27.0429
#
#
#
# Elastic Compliance Matrix: (Units=1/GPa)
#
#
# Indices 1 2 3 4 5 6 
#
# 1 0.095275 -0.001656 0.019174 0.000000 -0.111106 0.000000
# 2 -0.001656 0.008410 -0.003464 0.000000 0.002255 0.000000
# 3 0.019174 -0.003464 0.019309 0.000000 -0.036863 0.000000
# 4 0.000000 0.000000 0.000000 0.137715 0.000000 -0.035321
# 5 -0.111106 0.002255 -0.036863 0.000000 0.185415 0.000000
# 6 0.000000 0.000000 0.000000 -0.035321 0.000000 0.046037
#
#
# Mechanical properties :
#
#
# Convention : Reuss Voigt Hill
#
# Bulk Modulus (GPa) = 6.61812 40.08969 23.35391
# Shear Modulus (GPa) = 9.71967 26.25745 17.98856
#
# Velocity S-wave (km/s) = 2.16360 3.55613 2.94340
# Velocity P-wave (km/s) = 3.07066 6.01409 4.77484
#
# Compressibility (1/GPa) = 0.15110022
#
# Stress axis : x y z
#
# Youngs Moduli (GPa) = 10.49597 118.90359 51.78980
#
# Poissons Ratio (x) = 0.19693 -0.99300
# Poissons Ratio (y) = 0.01738 0.17941
# Poissons Ratio (z) = -0.20125 0.41191
#
# Static dielectric constant tensor:
#      x y z
#    x 1.758790 0.000000 0.013130 
#    y 0.000000 1.816410 0.000000 
#    z 0.013130 0.000000 1.769160 
# 
# From -- ./inp_files/36396.got.cif
#   From: 2010.05.17/outbox.cif.g08.bks.cpg/sg10_19_cif.got.tgz:36396.got - 2010.06.03 11:33:40.
