data_PCOD9143553
_publ_section_title
;
Structure prediction by ZEFSAII (Michael W. Deem and Ramdas Pophale) SiO2 
 PCOD9143553
Probable space group: P 2/M
;
_chemical_formula_sum "Si O2"
_cell_formula_units_Z 32
_cell_length_a 20.707855
_cell_length_b 8.717064
_cell_length_c 25.263528
_cell_angle_alpha 90.000000
_cell_angle_beta 23.813771
_cell_angle_gamma 90.000000
_cell_volume 1841.315580
_symmetry_space_group_name_H-M "P 2/M"
_symmetry_group_IT_number 10
_symmetry_cell_setting 'monoclinic'
loop_
_space_group_symop_operation_xyz
x,y,z
-x,y,-z
-x,-y,-z
x,-y,z
loop_
_atom_site_type_symbol
_atom_site_label
_atom_site_fract_x
_atom_site_fract_y
_atom_site_fract_z
Si Si1 0.632444 0.314870 0.784997
Si Si2 0.736430 0.315037 0.924422
Si Si3 0.456470 0.318502 0.616372
Si Si4 0.237665 0.681664 0.691634
Si Si5 0.961576 0.181839 0.247893
Si Si6 0.313374 0.314835 0.469540
Si Si7 0.852173 0.315126 0.719777
Si Si8 0.794460 0.817602 0.559012
O O1 0.640101 0.500000 0.774190
O O2 0.727073 0.274091 0.767639
O O3 0.716910 0.240772 0.671332
O O4 0.446631 0.270962 0.928161
O O5 0.748602 0.500000 0.919730
O O6 0.786937 0.273495 0.826645
O O7 0.862433 0.239330 0.869520
O O8 0.425561 0.500000 0.646057
O O9 0.608894 0.305843 0.462668
O O10 0.303683 0.257427 0.698518
O O11 0.527020 0.260007 0.618863
O O12 0.200917 0.500000 0.723320
O O13 0.097124 0.766619 0.766237
O O14 0.839477 0.258519 0.381781
O O15 0.949528 0.000000 0.262126
O O16 0.311438 0.500000 0.471131
O O17 0.296431 0.253105 0.423361
O O18 0.872998 0.500000 0.703237
O O19 0.022664 0.238992 0.581572
O O20 0.789315 0.000000 0.559920
#
# Coordination Sequence:
#
# PCOD9143553 Si02
#       8
#     4   4   4   4   4   4   4   4
#     4  10  22  39  58  80 103 134 179 222 262 311
#     4  10  20  36  58  80 103 136 177 221 264 308
#     4   7  12  23  43  68  93 126 170 215 256 295
#     4   8  13  25  43  65  96 133 170 208 252 303
#     4  11  20  29  45  74 108 139 171 209 257 313
#     4  10  18  32  52  72  98 136 179 220 257 301
#     4  10  20  37  61  82 102 132 174 222 265 311
#     4  12  24  36  52  79 111 143 174 211 263 319
#
# _framework density 17.378878
#
# number of rings (size 3 to 8) (size 9 to 14) (size 15 to 20)
#    0.000    2.250    1.250    4.875    0.000    4.000 
#    0.000    5.625    0.000    2.250    0.000    0.875 
#    0.000    7.000    0.000    0.000    0.000    0.000 
#
# Total GULP energy -178432.018967 kJ/mol
# GULP energy per Si atom -5576.000593 kJ/mol
# Density = 1.733932 g / cm^3
# Si number density = 17.378878 Si / 1000 Ang^3
#
#
#
# Elastic Constant Matrix: (Units=GPa)
#
#
# Indices 1 2 3 4 5 6 
#
# 1 90.1387 29.3331 35.7368 0.0000 -43.1364 0.0000
# 2 29.3331 38.3889 27.8454 0.0000 -10.5997 0.0000
# 3 35.7368 27.8454 65.3590 0.0000 -6.7579 0.0000
# 4 0.0000 0.0000 0.0000 -23.7259 0.0000 11.2041
# 5 -43.1364 -10.5997 -6.7579 0.0000 19.6494 0.0000
# 6 0.0000 0.0000 0.0000 11.2041 0.0000 1.0654
#
#
#
# Elastic Compliance Matrix: (Units=1/GPa)
#
#
# Indices 1 2 3 4 5 6 
#
# 1 -0.085809 -0.007196 0.031216 0.000000 -0.181524 0.000000
# 2 -0.007196 0.042168 -0.013803 0.000000 0.002202 0.000000
# 3 0.031216 -0.013803 0.010813 0.000000 0.064801 0.000000
# 4 0.000000 0.000000 0.000000 -0.007064 0.000000 0.074293
# 5 -0.181524 0.002202 0.064801 0.000000 -0.324135 0.000000
# 6 0.000000 0.000000 0.000000 0.074293 0.000000 0.157323
#
#
# Mechanical properties :
#
#
# Convention : Reuss Voigt Hill
#
# Bulk Modulus (GPa) = -80.67288 42.19080 -19.24104
# Shear Modulus (GPa) = -21.61973 6.12919 -7.74527
#
# Velocity S-wave (km/s) = -3.53090 1.88002 -2.11338
# Velocity P-wave (km/s) = 7.94631 5.38910 4.12925
#
# Compressibility (1/GPa) = -0.01239574
#
# Stress axis : x y z
#
# Youngs Moduli (GPa) = -11.65372 23.71486 92.48402
#
# Poissons Ratio (x) = 0.17066 -2.88695
# Poissons Ratio (y) = -0.08386 1.27651
# Poissons Ratio (z) = 0.36378 0.32733
#
# Static dielectric constant tensor:
#      x y z
#    x 1.623560 0.000000 -0.026180 
#    y 0.000000 1.575020 0.000000 
#    z -0.026180 0.000000 1.559510 
# 
# From -- ./inp_files/93648.got.cif
#   From: 2010.05.17/outbox.cif.g08.bks.cpg/sg10_47_cif.got.tgz:93648.got - 2010.06.03 11:33:40.
