data_PCOD9143797
_publ_section_title
;
Structure prediction by ZEFSAII (Michael W. Deem and Ramdas Pophale) SiO2 
 PCOD9143797
Probable space group: P 2/M
;
_chemical_formula_sum "Si O2"
_cell_formula_units_Z 26
_cell_length_a 18.336880
_cell_length_b 7.628739
_cell_length_c 11.710032
_cell_angle_alpha 90.000000
_cell_angle_beta 37.992976
_cell_angle_gamma 90.000000
_cell_volume 1008.347222
_symmetry_space_group_name_H-M "P 2/M"
_symmetry_group_IT_number 10
_symmetry_cell_setting 'monoclinic'
loop_
_space_group_symop_operation_xyz
x,y,z
-x,y,-z
-x,-y,-z
x,-y,z
loop_
_atom_site_type_symbol
_atom_site_label
_atom_site_fract_x
_atom_site_fract_y
_atom_site_fract_z
Si Si1 0.438535 0.786271 0.313500
Si Si2 0.111617 0.195042 0.743218
Si Si3 0.132944 0.700559 0.031396
Si Si4 0.387227 0.206180 0.719633
Si Si5 0.723928 0.205935 0.679489
Si Si6 0.123541 0.293653 0.298747
Si Si7 0.258824 0.500000 0.644167
O O1 0.567983 0.755481 0.206993
O O2 0.398392 0.743721 0.233496
O O3 0.354597 0.656681 0.488754
O O4 0.419213 0.000000 0.353150
O O5 0.971751 0.193233 0.896929
O O6 0.174813 0.238155 0.542434
O O7 0.154019 0.347581 0.772357
O O8 0.152038 0.000000 0.726428
O O9 0.089933 0.500000 0.087519
O O10 0.146039 0.775857 0.144502
O O11 0.270979 0.692078 0.825017
O O12 0.500000 0.242965 0.500000
O O13 0.361084 0.000000 0.740670
O O14 0.771731 0.278629 0.738638
O O15 0.715934 0.000000 0.708097
O O16 0.104739 0.500000 0.306306
O O17 0.000000 0.218319 0.500000
#
# Coordination Sequence:
#
# PCOD9143797 Si02
#       7
#     4   4   4   4   4   4   2
#     4   9  20  37  60  91 120 158 211 254 306 375
#     4  10  19  32  55  90 125 162 204 249 301 367
#     4  11  22  37  58  92 129 163 208 262 311 362
#     4  10  23  45  69  89 116 160 211 267 322 368
#     4   9  18  31  52  83 120 159 200 243 296 362
#     4  10  20  31  52  85 126 166 204 245 298 367
#     4  10  18  32  59  88 122 164 194 249 309 373
#
# _framework density 25.784772
#
# number of rings (size 3 to 8) (size 9 to 14) (size 15 to 20)
#    0.000    2.154    2.308    1.846    5.385    1.846 
#    0.000    0.769    0.000    9.231    0.000   18.308 
#    0.000    0.000    0.000    0.000    0.000    0.000 
#
# Total GULP energy -144834.882834 kJ/mol
# GULP energy per Si atom -5570.572417 kJ/mol
# Density = 2.572608 g / cm^3
# Si number density = 25.784772 Si / 1000 Ang^3
#
#
#
# Elastic Constant Matrix: (Units=GPa)
#
#
# Indices 1 2 3 4 5 6 
#
# 1 142.3160 32.0543 24.3223 0.0000 -41.7630 0.0000
# 2 32.0543 89.9050 19.6572 0.0000 -15.7177 0.0000
# 3 24.3223 19.6572 48.3170 0.0000 -12.8175 0.0000
# 4 0.0000 0.0000 0.0000 53.5759 0.0000 -64.7950
# 5 -41.7630 -15.7177 -12.8175 0.0000 46.3872 0.0000
# 6 0.0000 0.0000 0.0000 -64.7950 0.0000 123.5155
#
#
#
# Elastic Compliance Matrix: (Units=1/GPa)
#
#
# Indices 1 2 3 4 5 6 
#
# 1 0.010126 -0.001727 -0.002300 0.000000 0.007896 0.000000
# 2 -0.001727 0.012898 -0.003918 0.000000 0.001733 0.000000
# 3 -0.002300 -0.003918 0.024331 0.000000 0.003324 0.000000
# 4 0.000000 0.000000 0.000000 0.051059 0.000000 0.026785
# 5 0.007896 0.001733 0.003324 0.000000 0.030172 0.000000
# 6 0.000000 0.000000 0.000000 0.026785 0.000000 0.022147
#
#
# Mechanical properties :
#
#
# Convention : Reuss Voigt Hill
#
# Bulk Modulus (GPa) = 31.78278 48.06728 39.92503
# Shear Modulus (GPa) = 28.23075 58.32933 43.28004
#
# Velocity S-wave (km/s) = 3.31246 4.76138 4.10141
# Velocity P-wave (km/s) = 5.19450 6.99356 6.16006
#
# Compressibility (1/GPa) = 0.03146358
#
# Stress axis : x y z
#
# Youngs Moduli (GPa) = 98.75914 77.52980 41.10055
#
# Poissons Ratio (x) = 0.13389 0.09453
# Poissons Ratio (y) = 0.17055 0.16105
# Poissons Ratio (z) = 0.22715 0.30380
#
# Static dielectric constant tensor:
#      x y z
#    x 2.135990 0.000000 0.118650 
#    y 0.000000 1.992740 0.000000 
#    z 0.118650 0.000000 2.118000 
# 
# From -- ./inp_files/69882.got.cif
#   From: 2010.05.17/outbox.cif.g08.bks.cpg/sg10_35_cif.got.tgz:69882.got - 2010.06.03 11:33:40.
