data_PCOD9143892
_publ_section_title
;
Structure prediction by ZEFSAII (Michael W. Deem and Ramdas Pophale) SiO2 
 PCOD9143892
Probable space group: P 2/M
;
_chemical_formula_sum "Si O2"
_cell_formula_units_Z 32
_cell_length_a 21.000587
_cell_length_b 7.875640
_cell_length_c 26.224591
_cell_angle_alpha 90.000000
_cell_angle_beta 22.826223
_cell_angle_gamma 90.000000
_cell_volume 1682.626537
_symmetry_space_group_name_H-M "P 2/M"
_symmetry_group_IT_number 10
_symmetry_cell_setting 'monoclinic'
loop_
_space_group_symop_operation_xyz
x,y,z
-x,y,-z
-x,-y,-z
x,-y,z
loop_
_atom_site_type_symbol
_atom_site_label
_atom_site_fract_x
_atom_site_fract_y
_atom_site_fract_z
Si Si1 0.846339 0.291851 0.380428
Si Si2 0.657100 0.798608 0.352210
Si Si3 0.642298 0.296916 0.707474
Si Si4 0.327873 0.291515 0.877899
Si Si5 0.978037 0.298436 0.175195
Si Si6 0.845800 0.201721 0.646922
Si Si7 0.047546 0.703800 0.588296
Si Si8 0.534265 0.705114 0.332893
O O1 0.846132 0.500000 0.379767
O O2 0.927006 0.230519 0.268473
O O3 0.938609 0.237086 0.363808
O O4 0.655752 0.238881 0.524193
O O5 0.500000 0.730732 0.500000
O O6 0.825442 0.726653 0.250079
O O7 0.627010 0.761300 0.315251
O O8 0.663193 0.000000 0.355492
O O9 0.642719 0.500000 0.701736
O O10 0.469647 0.236675 0.812691
O O11 0.686138 0.257698 0.733631
O O12 0.792983 0.230911 0.561004
O O13 0.326361 0.500000 0.878468
O O14 0.381381 0.237492 0.781746
O O15 0.148612 0.230931 0.026962
O O16 0.001489 0.500000 0.164341
O O17 0.000000 0.273504 0.500000
O O18 0.886459 0.252435 0.674561
O O19 0.851250 0.000000 0.640448
O O20 0.059550 0.500000 0.580405
O O21 0.532431 0.500000 0.333585
#
# Coordination Sequence:
#
# PCOD9143892 Si02
#       8
#     4   4   4   4   4   4   4   4
#     4   9  16  28  51  77  98 124 165 207 244 292
#     4  11  23  37  52  74 103 133 167 209 251 295
#     4   9  15  27  47  69  96 129 160 197 246 294
#     4   9  18  32  53  80 105 127 163 211 252 295
#     4  10  20  35  55  78 101 130 166 206 252 300
#     4   9  17  27  40  67 102 130 160 201 244 287
#     4   9  15  26  46  71  96 125 162 203 244 289
#     4  10  18  33  56  78  99 129 167 206 249 298
#
# _framework density 19.017887000000002
#
# number of rings (size 3 to 8) (size 9 to 14) (size 15 to 20)
#    0.000    2.500    2.500    0.750    0.000    2.500 
#    0.000    5.625    0.000    0.750    0.000    5.250 
#    0.000    0.000    0.000    0.000    0.000    0.000 
#
# Total GULP energy -178444.549952 kJ/mol
# GULP energy per Si atom -5576.392186 kJ/mol
# Density = 1.897460 g / cm^3
# Si number density = 19.017887 Si / 1000 Ang^3
#
#
#
# Elastic Constant Matrix: (Units=GPa)
#
#
# Indices 1 2 3 4 5 6 
#
# 1 184.6115 -6.2577 85.0656 0.0000 -8.3938 0.0000
# 2 -6.2577 14.5001 5.1181 0.0000 4.2698 0.0000
# 3 85.0656 5.1181 127.8861 0.0000 1.7420 0.0000
# 4 0.0000 0.0000 0.0000 -1.5757 0.0000 18.8668
# 5 -8.3938 4.2698 1.7420 0.0000 22.5604 0.0000
# 6 0.0000 0.0000 0.0000 18.8668 0.0000 -52.7305
#
#
#
# Elastic Compliance Matrix: (Units=1/GPa)
#
#
# Indices 1 2 3 4 5 6 
#
# 1 0.008376 0.004886 -0.005803 0.000000 0.002640 0.000000
# 2 0.004886 0.076855 -0.006159 0.000000 -0.012252 0.000000
# 3 -0.005803 -0.006159 0.011952 0.000000 -0.001916 0.000000
# 4 0.000000 0.000000 0.000000 0.193243 0.000000 0.069142
# 5 0.002640 -0.012252 -0.001916 0.000000 0.047775 0.000000
# 6 0.000000 0.000000 0.000000 0.069142 0.000000 0.005775
#
#
# Mechanical properties :
#
#
# Convention : Reuss Voigt Hill
#
# Bulk Modulus (GPa) = 12.04360 54.98329 33.51344
# Shear Modulus (GPa) = 12.95988 9.85562 11.40775
#
# Velocity S-wave (km/s) = 2.61331 2.27893 2.45183
# Velocity P-wave (km/s) = 3.93095 5.99156 5.06711
#
# Compressibility (1/GPa) = 0.08303168
#
# Stress axis : x y z
#
# Youngs Moduli (GPa) = 119.38224 13.01145 83.66685
#
# Poissons Ratio (x) = -0.06357 0.48554
# Poissons Ratio (y) = -0.58330 0.51529
# Poissons Ratio (z) = 0.69280 0.08014
#
# Static dielectric constant tensor:
#      x y z
#    x 1.667710 0.000000 0.001730 
#    y 0.000000 1.675410 0.000000 
#    z 0.001730 0.000000 1.649590 
# 
# From -- ./inp_files/56391.got.cif
#   From: 2010.05.17/outbox.cif.g08.bks.cpg/sg10_29_cif.got.tgz:56391.got - 2010.06.03 11:33:40.
