data_PCOD9143056
_publ_section_title
;
Structure prediction by ZEFSAII (Michael W. Deem and Ramdas Pophale) SiO2 
 PCOD9143056
Probable space group: P 2/M
;
_chemical_formula_sum "Si O2"
_cell_formula_units_Z 20
_cell_length_a 9.814477
_cell_length_b 7.623771
_cell_length_c 13.885740
_cell_angle_alpha 90.000000
_cell_angle_beta 133.265064
_cell_angle_gamma 90.000000
_cell_volume 756.573665
_symmetry_space_group_name_H-M "P 2/M"
_symmetry_group_IT_number 10
_symmetry_cell_setting 'monoclinic'
loop_
_space_group_symop_operation_xyz
x,y,z
-x,y,-z
-x,-y,-z
x,-y,z
loop_
_atom_site_type_symbol
_atom_site_label
_atom_site_fract_x
_atom_site_fract_y
_atom_site_fract_z
Si Si1 0.597858 0.201140 0.834722
Si Si2 0.942860 0.711261 0.115835
Si Si3 0.762089 0.299399 0.429888
Si Si4 0.710937 0.715462 0.611127
Si Si5 0.262006 0.712353 0.789110
O O1 0.467103 0.302651 0.695376
O O2 0.478775 0.239540 0.875533
O O3 0.576887 0.000000 0.799626
O O4 0.811462 0.240477 0.963022
O O5 0.946827 0.500000 0.117357
O O6 0.834846 0.772436 0.160727
O O7 0.155753 0.771859 0.236865
O O8 0.823702 0.500000 0.464245
O O9 0.800826 0.224974 0.553073
O O10 0.823246 0.225603 0.355722
O O11 0.500000 0.778016 0.500000
O O12 0.708207 0.500000 0.610018
O O13 0.251281 0.500000 0.784268
#
# Coordination Sequence:
#
# PCOD9143056 Si02
#       5
#     4   4   4   4   4
#     4  10  19  31  49  75 104 132 163 199 241 291
#     4  10  18  30  51  77 103 129 160 199 245 296
#     4   8  16  32  51  72 102 130 158 198 246 295
#     4   9  18  33  54  77  97 123 165 212 249 283
#     4   8  16  29  49  75 103 130 158 194 245 297
#
# _framework density 26.434968999999999
#
# number of rings (size 3 to 8) (size 9 to 14) (size 15 to 20)
#    1.200    1.800    0.000    1.800    0.000    4.000 
#    0.000    6.000    0.000    9.600    0.000    0.000 
#    0.000    0.000    0.000    0.000    0.000    0.000 
#
# Total GULP energy -111564.996642 kJ/mol
# GULP energy per Si atom -5578.249832 kJ/mol
# Density = 2.637480 g / cm^3
# Si number density = 26.434969 Si / 1000 Ang^3
#
#
#
# Elastic Constant Matrix: (Units=GPa)
#
#
# Indices 1 2 3 4 5 6 
#
# 1 87.3041 -2.1046 57.3153 0.0000 1.6854 0.0000
# 2 -2.1046 76.1475 10.0451 0.0000 5.0745 0.0000
# 3 57.3153 10.0451 198.6533 0.0000 6.6895 0.0000
# 4 0.0000 0.0000 0.0000 -202.2916 0.0000 -180.9151
# 5 1.6854 5.0745 6.6895 0.0000 52.2271 0.0000
# 6 0.0000 0.0000 0.0000 -180.9151 0.0000 -121.3199
#
#
#
# Elastic Compliance Matrix: (Units=1/GPa)
#
#
# Indices 1 2 3 4 5 6 
#
# 1 0.014197 0.000940 -0.004143 0.000000 -0.000019 0.000000
# 2 0.000940 0.013359 -0.000906 0.000000 -0.001212 0.000000
# 3 -0.004143 -0.000906 0.006295 0.000000 -0.000585 0.000000
# 4 0.000000 0.000000 0.000000 0.014816 0.000000 -0.022094
# 5 -0.000019 -0.001212 -0.000585 0.000000 0.019340 0.000000
# 6 0.000000 0.000000 0.000000 -0.022094 0.000000 0.024705
#
#
# Mechanical properties :
#
#
# Convention : Reuss Voigt Hill
#
# Bulk Modulus (GPa) = 39.01226 54.73517 46.87371
# Shear Modulus (GPa) = 45.67280 -34.48695 5.59293
#
# Velocity S-wave (km/s) = 4.16112 -3.61584 1.45613
# Velocity P-wave (km/s) = 6.15438 1.82158 4.53842
#
# Compressibility (1/GPa) = 0.02563297
#
# Stress axis : x y z
#
# Youngs Moduli (GPa) = 70.43662 74.85764 158.86282
#
# Poissons Ratio (x) = -0.07038 0.65818
# Poissons Ratio (y) = -0.06622 0.14392
# Poissons Ratio (z) = 0.29182 0.06782
#
# Static dielectric constant tensor:
#      x y z
#    x 2.212250 0.000000 0.079180 
#    y 0.000000 1.991480 0.000000 
#    z 0.079180 0.000000 2.155150 
# 
# From -- ./inp_files/76076.got.cif
#   From: 2010.05.17/outbox.cif.g08.bks.cpg/sg10_39_cif.got.tgz:76076.got - 2010.06.03 11:33:40.
