data_PCOD9143305
_publ_section_title
;
Structure prediction by ZEFSAII (Michael W. Deem and Ramdas Pophale) SiO2 
 PCOD9143305
Probable space group: P 2/M
;
_chemical_formula_sum "Si O2"
_cell_formula_units_Z 24
_cell_length_a 13.880419
_cell_length_b 11.498767
_cell_length_c 14.151922
_cell_angle_alpha 90.000000
_cell_angle_beta 147.413542
_cell_angle_gamma 90.000000
_cell_volume 1216.501835
_symmetry_space_group_name_H-M "P 2/M"
_symmetry_group_IT_number 10
_symmetry_cell_setting 'monoclinic'
loop_
_space_group_symop_operation_xyz
x,y,z
-x,y,-z
-x,-y,-z
x,-y,z
loop_
_atom_site_type_symbol
_atom_site_label
_atom_site_fract_x
_atom_site_fract_y
_atom_site_fract_z
Si Si1 0.316307 0.625324 0.410781
Si Si2 0.331487 0.254124 0.608340
Si Si3 0.705860 0.867322 0.894418
Si Si4 0.281223 0.872566 0.310572
Si Si5 0.318187 0.865298 0.789126
Si Si6 0.951906 0.138260 0.265322
O O1 0.500000 0.624899 0.500000
O O2 0.228251 0.500000 0.317835
O O3 0.341007 0.636213 0.545026
O O4 0.227469 0.748322 0.308801
O O5 0.512192 0.188706 0.729261
O O6 0.332333 0.235605 0.722372
O O7 0.146352 0.191654 0.430874
O O8 0.776305 0.867740 0.846231
O O9 0.675465 0.000000 0.899066
O O10 0.835245 0.815777 0.080564
O O11 0.500000 0.876452 0.500000
O O12 0.219926 0.000000 0.298072
O O13 0.156912 0.841699 0.727864
O O14 0.296488 0.000000 0.733010
O O15 0.500000 0.866788 0.000000
O O16 0.968300 0.000000 0.269390
#
# Coordination Sequence:
#
# PCOD9143305 Si02
#       6
#     4   4   4   4   4   4
#     4  10  21  38  60  86 114 154 200 238 290 354
#     4  12  20  33  58  79 109 157 198 236 284 339
#     4  10  18  31  51  81 119 153 186 235 285 337
#     4   9  16  29  54  83 110 148 191 233 287 340
#     4  10  19  32  53  84 122 158 188 232 290 344
#     4  10  21  33  51  86 123 155 194 234 286 350
#
# _framework density 19.7287
#
# number of rings (size 3 to 8) (size 9 to 14) (size 15 to 20)
#    0.000    1.833    5.000    2.000    0.000    2.667 
#    0.000    0.833    0.000    8.500    0.000    0.000 
#    0.000    0.000    0.000    0.000    0.000    0.000 
#
# Total GULP energy -133601.738038 kJ/mol
# GULP energy per Si atom -5566.739085 kJ/mol
# Density = 1.968380 g / cm^3
# Si number density = 19.728700 Si / 1000 Ang^3
#
#
#
# Elastic Constant Matrix: (Units=GPa)
#
#
# Indices 1 2 3 4 5 6 
#
# 1 102.7635 32.7150 28.0780 0.0000 -12.5996 0.0000
# 2 32.7150 113.3152 22.0328 0.0000 -4.8670 0.0000
# 3 28.0780 22.0328 69.6111 0.0000 1.0525 0.0000
# 4 0.0000 0.0000 0.0000 7.5107 0.0000 -7.5187
# 5 -12.5996 -4.8670 1.0525 0.0000 32.1277 0.0000
# 6 0.0000 0.0000 0.0000 -7.5187 0.0000 -3.4701
#
#
#
# Elastic Compliance Matrix: (Units=1/GPa)
#
#
# Indices 1 2 3 4 5 6 
#
# 1 0.012242 -0.002520 -0.004209 0.000000 0.004557 0.000000
# 2 -0.002520 0.009998 -0.002157 0.000000 0.000597 0.000000
# 3 -0.004209 -0.002157 0.016784 0.000000 -0.002527 0.000000
# 4 0.000000 0.000000 0.000000 0.042014 0.000000 -0.091033
# 5 0.004557 0.000597 -0.002527 0.000000 0.033086 0.000000
# 6 0.000000 0.000000 0.000000 -0.091033 0.000000 -0.090936
#
#
# Mechanical properties :
#
#
# Convention : Reuss Voigt Hill
#
# Bulk Modulus (GPa) = 47.05556 50.14903 48.60230
# Shear Modulus (GPa) = 104.06940 20.75793 62.41367
#
# Velocity S-wave (km/s) = 7.27082 3.24723 5.63069
# Velocity P-wave (km/s) = 9.71542 6.28760 8.18301
#
# Compressibility (1/GPa) = 0.02125147
#
# Stress axis : x y z
#
# Youngs Moduli (GPa) = 81.68451 100.02441 59.57988
#
# Poissons Ratio (x) = 0.25209 0.25078
# Poissons Ratio (y) = 0.20587 0.12850
# Poissons Ratio (z) = 0.34382 0.21573
#
# Static dielectric constant tensor:
#      x y z
#    x 1.768950 0.000000 -0.020770 
#    y 0.000000 1.667560 0.000000 
#    z -0.020770 0.000000 1.636070 
# 
# From -- ./inp_files/67410.got.cif
#   From: 2010.05.17/outbox.cif.g08.bks.cpg/sg10_34_cif.got.tgz:67410.got - 2010.06.03 11:33:40.
