data_PCOD9143274
_publ_section_title
;
Structure prediction by ZEFSAII (Michael W. Deem and Ramdas Pophale) SiO2 
 PCOD9143274
Probable space group: P 2/M
;
_chemical_formula_sum "Si O2"
_cell_formula_units_Z 32
_cell_length_a 22.552701
_cell_length_b 7.360148
_cell_length_c 29.344217
_cell_angle_alpha 90.000000
_cell_angle_beta 162.044621
_cell_angle_gamma 90.000000
_cell_volume 1501.577249
_symmetry_space_group_name_H-M "P 2/M"
_symmetry_group_IT_number 10
_symmetry_cell_setting 'monoclinic'
loop_
_space_group_symop_operation_xyz
x,y,z
-x,y,-z
-x,-y,-z
x,-y,z
loop_
_atom_site_type_symbol
_atom_site_label
_atom_site_fract_x
_atom_site_fract_y
_atom_site_fract_z
Si Si1 0.384466 0.778209 0.581699
Si Si2 0.576453 0.782865 0.286787
Si Si3 0.192125 0.220946 0.281496
Si Si4 0.200136 0.777924 0.959648
Si Si5 0.943941 0.780308 0.244098
Si Si6 0.291449 0.289211 0.837356
Si Si7 0.009118 0.717481 0.455114
Si Si8 0.542498 0.778940 0.603832
O O1 0.432092 0.715355 0.667412
O O2 0.521811 0.719662 0.640780
O O3 0.166402 0.724349 0.409826
O O4 0.387074 0.000000 0.584221
O O5 0.784779 0.749177 0.417433
O O6 0.554469 0.000000 0.273278
O O7 0.402113 0.715620 0.127941
O O8 0.277100 0.279866 0.294937
O O9 0.350122 0.272976 0.435109
O O10 0.980436 0.279150 0.141207
O O11 0.190183 0.000000 0.279932
O O12 0.155749 0.720207 0.875570
O O13 0.201235 0.000000 0.959915
O O14 0.832072 0.718257 0.206934
O O15 0.942755 0.000000 0.243457
O O16 0.325175 0.500000 0.849634
O O17 0.160985 0.210268 0.701570
O O18 0.500000 0.207087 0.000000
O O19 0.986043 0.500000 0.440363
O O20 0.000000 0.787425 0.500000
O O21 0.545171 0.000000 0.606001
#
# Coordination Sequence:
#
# PCOD9143274 Si02
#       8
#     4   4   4   4   4   4   4   4
#     4   9  15  26  43  65  93 126 160 194 234 277
#     4  10  20  33  49  71 100 129 158 197 240 280
#     4   8  12  20  35  59  92 127 161 194 231 278
#     4   9  17  28  43  68 100 130 160 198 239 277
#     4  10  18  31  51  72  97 127 160 196 236 282
#     4  10  22  38  54  74  98 121 152 198 242 280
#     4  10  22  39  55  71  95 127 158 190 235 290
#     4   8  12  19  36  60  89 128 164 191 229 282
#
# _framework density 21.310925000000001
#
# number of rings (size 3 to 8) (size 9 to 14) (size 15 to 20)
#    0.000    2.750    2.500    0.750    1.750    0.500 
#    0.000    0.625    0.000    3.750    0.000    0.000 
#    0.000    6.000    0.000    0.000    0.000    0.000 
#
# Total GULP energy -178655.600566 kJ/mol
# GULP energy per Si atom -5582.987518 kJ/mol
# Density = 2.126242 g / cm^3
# Si number density = 21.310925 Si / 1000 Ang^3
#
#
#
# Elastic Constant Matrix: (Units=GPa)
#
#
# Indices 1 2 3 4 5 6 
#
# 1 164.5659 -3.6504 72.2648 0.0000 -26.0772 0.0000
# 2 -3.6504 77.6904 6.5348 0.0000 -6.1992 0.0000
# 3 72.2648 6.5348 147.4485 0.0000 -26.9748 0.0000
# 4 0.0000 0.0000 0.0000 4.6016 0.0000 16.3301
# 5 -26.0772 -6.1992 -26.9748 0.0000 32.1228 0.0000
# 6 0.0000 0.0000 0.0000 16.3301 0.0000 14.6147
#
#
#
# Elastic Compliance Matrix: (Units=1/GPa)
#
#
# Indices 1 2 3 4 5 6 
#
# 1 0.008200 0.000988 -0.003320 0.000000 0.004059 0.000000
# 2 0.000988 0.013194 -0.000539 0.000000 0.002896 0.000000
# 3 -0.003320 -0.000539 0.009359 0.000000 0.005060 0.000000
# 4 0.000000 0.000000 0.000000 -0.073285 0.000000 0.081887
# 5 0.004059 0.002896 0.005060 0.000000 0.039234 0.000000
# 6 0.000000 0.000000 0.000000 0.081887 0.000000 -0.023075
#
#
# Mechanical properties :
#
#
# Convention : Reuss Voigt Hill
#
# Bulk Modulus (GPa) = 39.98233 60.00037 49.99135
# Shear Modulus (GPa) = -406.66114 31.23819 -187.71147
#
# Velocity S-wave (km/s) = -13.82885 3.83277 -9.39540
# Velocity P-wave (km/s) = 15.36817 6.91395 9.70510
#
# Compressibility (1/GPa) = 0.02501105
#
# Stress axis : x y z
#
# Youngs Moduli (GPa) = 121.95760 75.78927 106.85333
#
# Poissons Ratio (x) = -0.07491 0.35473
# Poissons Ratio (y) = -0.12055 0.05764
# Poissons Ratio (z) = 0.40487 0.04088
#
# Static dielectric constant tensor:
#      x y z
#    x 1.745290 0.000000 -0.011870 
#    y 0.000000 1.853760 0.000000 
#    z -0.011870 0.000000 1.737760 
# 
# From -- ./inp_files/87074.got.cif
#   From: 2010.05.17/outbox.cif.g08.bks.cpg/sg10_44_cif.got.tgz:87074.got - 2010.06.03 11:33:40.
