data_PCOD9143085
_publ_section_title
;
Structure prediction by ZEFSAII (Michael W. Deem and Ramdas Pophale) SiO2 
 PCOD9143085
Probable space group: P 2/M
;
_chemical_formula_sum "Si O2"
_cell_formula_units_Z 28
_cell_length_a 16.405063
_cell_length_b 7.343125
_cell_length_c 21.990861
_cell_angle_alpha 90.000000
_cell_angle_beta 27.767934
_cell_angle_gamma 90.000000
_cell_volume 1234.200872
_symmetry_space_group_name_H-M "P 2/M"
_symmetry_group_IT_number 10
_symmetry_cell_setting 'monoclinic'
loop_
_space_group_symop_operation_xyz
x,y,z
-x,y,-z
-x,-y,-z
x,-y,z
loop_
_atom_site_type_symbol
_atom_site_label
_atom_site_fract_x
_atom_site_fract_y
_atom_site_fract_z
Si Si1 0.935899 0.222716 0.344244
Si Si2 0.754468 0.780168 0.944334
Si Si3 0.401141 0.290707 0.124573
Si Si4 0.268530 0.221224 0.793640
Si Si5 0.918479 0.221913 0.961354
Si Si6 0.018567 0.792394 0.420111
Si Si7 0.589777 0.221895 0.504213
O O1 0.782024 0.279258 0.399554
O O2 0.123228 0.276465 0.192683
O O3 0.923282 0.284774 0.422686
O O4 0.933318 0.000000 0.347340
O O5 0.750746 0.000000 0.947003
O O6 0.556341 0.716038 0.071089
O O7 0.849691 0.717487 0.942341
O O8 0.358539 0.500000 0.138967
O O9 0.223059 0.204591 0.265936
O O10 0.500000 0.210168 0.000000
O O11 0.207673 0.279112 0.900382
O O12 0.455251 0.276951 0.645884
O O13 0.268667 0.000000 0.793993
O O14 0.114745 0.277506 0.848941
O O15 0.920019 0.000000 0.959746
O O16 0.000000 0.710007 0.500000
O O17 0.952867 0.000000 0.469231
O O18 0.500000 0.280899 0.500000
O O19 0.596980 0.000000 0.495772
#
# Coordination Sequence:
#
# PCOD9143085 Si02
#       7
#     4   4   4   4   4   4   4
#     4   9  17  28  44  69 100 132 167 208 253 306
#     4  10  18  30  52  76 100 131 172 217 263 309
#     4  11  23  38  56  77 103 137 178 221 267 319
#     4   8  13  22  35  57  97 133 161 198 245 305
#     4   8  14  23  38  64  94 129 164 202 253 305
#     4  10  21  37  57  81 109 140 173 215 268 320
#     4   9  15  22  35  57  91 132 163 193 243 305
#
# _framework density 22.686744000000001
#
# number of rings (size 3 to 8) (size 9 to 14) (size 15 to 20)
#    0.000    2.714    1.429    2.143    0.000    5.429 
#    0.000    4.286    0.000    0.000    0.000    2.000 
#    0.000   10.286    0.000    0.000    0.000    0.000 
#
# Total GULP energy -156291.289800 kJ/mol
# GULP energy per Si atom -5581.831779 kJ/mol
# Density = 2.263511 g / cm^3
# Si number density = 22.686744 Si / 1000 Ang^3
#
#
#
# Elastic Constant Matrix: (Units=GPa)
#
#
# Indices 1 2 3 4 5 6 
#
# 1 153.3812 4.2050 32.7583 0.0000 3.7883 0.0000
# 2 4.2050 88.4875 -3.8531 0.0000 0.8228 0.0000
# 3 32.7583 -3.8531 82.6834 0.0000 -11.2760 0.0000
# 4 0.0000 0.0000 0.0000 -65.4291 0.0000 51.2973
# 5 3.7883 0.8228 -11.2760 0.0000 26.4565 0.0000
# 6 0.0000 0.0000 0.0000 51.2973 0.0000 -55.3169
#
#
#
# Elastic Compliance Matrix: (Units=1/GPa)
#
#
# Indices 1 2 3 4 5 6 
#
# 1 0.007283 -0.000465 -0.003235 0.000000 -0.002407 0.000000
# 2 -0.000465 0.011354 0.000716 0.000000 0.000018 0.000000
# 3 -0.003235 0.000716 0.014301 0.000000 0.006536 0.000000
# 4 0.000000 0.000000 0.000000 -0.055993 0.000000 -0.051924
# 5 -0.002407 0.000018 0.006536 0.000000 0.040928 0.000000
# 6 0.000000 0.000000 0.000000 -0.051924 0.000000 -0.066229
#
#
# Mechanical properties :
#
#
# Convention : Reuss Voigt Hill
#
# Bulk Modulus (GPa) = 37.07913 43.41916 40.24914
# Shear Modulus (GPa) = -149.70855 0.57154 -74.56850
#
# Velocity S-wave (km/s) = -8.13220 0.50247 -5.73935
# Velocity P-wave (km/s) = 8.47334 4.41778 5.11277
#
# Compressibility (1/GPa) = 0.02696935
#
# Stress axis : x y z
#
# Youngs Moduli (GPa) = 137.30814 88.07386 69.92586
#
# Poissons Ratio (x) = 0.04092 0.22623
# Poissons Ratio (y) = 0.06379 -0.05004
# Poissons Ratio (z) = 0.44424 -0.06303
#
# Static dielectric constant tensor:
#      x y z
#    x 1.851780 0.000000 0.012930 
#    y 0.000000 1.908320 0.000000 
#    z 0.012930 0.000000 1.793730 
# 
# From -- ./inp_files/84916.got.cif
#   From: 2010.05.17/outbox.cif.g08.bks.cpg/sg10_43_cif.got.tgz:84916.got - 2010.06.03 11:33:40.
