data_PCOD9143008
_publ_section_title
;
Structure prediction by ZEFSAII (Michael W. Deem and Ramdas Pophale) SiO2 
 PCOD9143008
Probable space group: P 2/M
;
_chemical_formula_sum "Si O2"
_cell_formula_units_Z 32
_cell_length_a 21.077992
_cell_length_b 9.498450
_cell_length_c 11.275773
_cell_angle_alpha 90.000000
_cell_angle_beta 126.358588
_cell_angle_gamma 90.000000
_cell_volume 1818.017801
_symmetry_space_group_name_H-M "P 2/M"
_symmetry_group_IT_number 10
_symmetry_cell_setting 'monoclinic'
loop_
_space_group_symop_operation_xyz
x,y,z
-x,y,-z
-x,-y,-z
x,-y,z
loop_
_atom_site_type_symbol
_atom_site_label
_atom_site_fract_x
_atom_site_fract_y
_atom_site_fract_z
Si Si1 0.141394 0.835169 0.732059
Si Si2 0.412730 0.833861 0.256117
Si Si3 0.269794 0.665039 0.001191
Si Si4 0.132298 0.832542 0.450745
Si Si5 0.256707 0.331729 0.452865
Si Si6 0.842634 0.336018 0.893274
Si Si7 0.969245 0.167236 0.164679
Si Si8 0.404579 0.833479 0.529830
O O1 0.217033 0.740468 0.843712
O O2 0.111076 0.813510 0.565423
O O3 0.076743 0.806952 0.761844
O O4 0.163085 0.000000 0.767690
O O5 0.399184 0.808667 0.381851
O O6 0.504838 0.805120 0.334791
O O7 0.398587 0.000000 0.219789
O O8 0.352428 0.741113 0.115111
O O9 0.279448 0.500000 0.988880
O O10 0.218616 0.681370 0.065582
O O11 0.208914 0.743173 0.504425
O O12 0.058863 0.788229 0.287054
O O13 0.145818 0.000000 0.447121
O O14 0.261776 0.500000 0.471661
O O15 0.204484 0.299579 0.277515
O O16 0.341469 0.262121 0.525890
O O17 0.865088 0.500000 0.912663
O O18 0.919094 0.244705 0.008755
O O19 0.968350 0.000000 0.141781
O O20 0.388983 0.000000 0.531914
#
# Coordination Sequence:
#
# PCOD9143008 Si02
#       8
#     4   4   4   4   4   4   4   4
#     4   9  18  34  55  76  99 129 168 216 263 301
#     4   9  17  30  51  79 106 132 165 205 251 298
#     4  10  18  30  50  77 107 135 167 206 249 300
#     4  10  21  36  53  74  99 131 173 216 258 303
#     4  11  22  35  50  71 105 143 174 203 245 304
#     4   9  19  33  47  70 104 138 167 201 249 302
#     4   9  18  33  55  78  97 124 167 219 262 299
#     4   9  18  32  51  76 105 135 168 206 246 295
#
# _framework density 17.601588
#
# number of rings (size 3 to 8) (size 9 to 14) (size 15 to 20)
#    0.000    2.500    1.250    1.875    0.000    5.000 
#    0.000    3.750    0.000    4.500    0.000    5.250 
#    0.000    0.000    0.000    0.000    0.000    0.000 
#
# Total GULP energy -178518.947693 kJ/mol
# GULP energy per Si atom -5578.717115 kJ/mol
# Density = 1.756153 g / cm^3
# Si number density = 17.601588 Si / 1000 Ang^3
#
#
#
# Elastic Constant Matrix: (Units=GPa)
#
#
# Indices 1 2 3 4 5 6 
#
# 1 54.7159 34.4534 7.3942 0.0000 21.0055 0.0000
# 2 34.4534 44.0084 28.5438 0.0000 22.8031 0.0000
# 3 7.3942 28.5438 47.7856 0.0000 22.8985 0.0000
# 4 0.0000 0.0000 0.0000 18.3885 0.0000 -7.1020
# 5 21.0055 22.8031 22.8985 0.0000 28.5919 0.0000
# 6 0.0000 0.0000 0.0000 -7.1020 0.0000 2.9927
#
#
#
# Elastic Compliance Matrix: (Units=1/GPa)
#
#
# Indices 1 2 3 4 5 6 
#
# 1 0.060818 -0.057427 0.039524 0.000000 -0.030534 0.000000
# 2 -0.057427 0.099205 -0.053025 0.000000 0.005536 0.000000
# 3 0.039524 -0.053025 0.065129 0.000000 -0.038907 0.000000
# 4 0.000000 0.000000 0.000000 0.651695 0.000000 1.546562
# 5 -0.030534 0.005536 -0.038907 0.000000 0.084152 0.000000
# 6 0.000000 0.000000 0.000000 1.546562 0.000000 4.004353
#
#
# Mechanical properties :
#
#
# Convention : Reuss Voigt Hill
#
# Bulk Modulus (GPa) = 12.00553 31.92140 21.96347
# Shear Modulus (GPa) = 0.97371 15.06917 8.02144
#
# Velocity S-wave (km/s) = 0.74458 2.92914 2.13708
# Velocity P-wave (km/s) = 2.75222 5.44194 4.31216
#
# Compressibility (1/GPa) = 0.08329494
#
# Stress axis : x y z
#
# Youngs Moduli (GPa) = 16.44256 10.08011 15.35423
#
# Poissons Ratio (x) = 0.57887 -0.60686
# Poissons Ratio (y) = 0.94425 0.81416
# Poissons Ratio (z) = -0.64988 0.53450
#
# Static dielectric constant tensor:
#      x y z
#    x 1.595890 0.000000 -0.006040 
#    y 0.000000 1.579350 0.000000 
#    z -0.006040 0.000000 1.586940 
# 
# From -- ./inp_files/49767.got.cif
#   From: 2010.05.17/outbox.cif.g08.bks.cpg/sg10_25_cif.got.tgz:49767.got - 2010.06.03 11:33:40.
