data_PCOD9143961
_publ_section_title
;
Structure prediction by ZEFSAII (Michael W. Deem and Ramdas Pophale) SiO2 
 PCOD9143961
Probable space group: P 2/M
;
_chemical_formula_sum "Si O2"
_cell_formula_units_Z 32
_cell_length_a 15.285141
_cell_length_b 14.266508
_cell_length_c 21.421716
_cell_angle_alpha 90.000000
_cell_angle_beta 17.745559
_cell_angle_gamma 90.000000
_cell_volume 1423.779664
_symmetry_space_group_name_H-M "P 2/M"
_symmetry_group_IT_number 10
_symmetry_cell_setting 'monoclinic'
loop_
_space_group_symop_operation_xyz
x,y,z
-x,y,-z
-x,-y,-z
x,-y,z
loop_
_atom_site_type_symbol
_atom_site_label
_atom_site_fract_x
_atom_site_fract_y
_atom_site_fract_z
Si Si1 0.584054 0.704414 0.683701
Si Si2 0.276411 0.102530 0.094698
Si Si3 0.738880 0.688637 0.917943
Si Si4 0.315594 0.607205 0.752105
Si Si5 0.631132 0.106233 0.588168
Si Si6 0.256595 0.104147 0.718942
Si Si7 0.017613 0.701225 0.846191
Si Si8 0.849575 0.389199 0.704829
O O1 0.525894 0.663948 0.653731
O O2 0.608828 0.815379 0.656052
O O3 0.870308 0.657334 0.515050
O O4 0.301464 0.677310 0.913440
O O5 0.334171 0.201255 0.022426
O O6 0.950105 0.110369 0.341593
O O7 0.299144 0.000000 0.047098
O O8 0.500000 0.100766 0.000000
O O9 0.005376 0.672552 0.782633
O O10 0.816197 0.664180 0.794218
O O11 0.450325 0.629934 0.125790
O O12 0.406423 0.500000 0.686948
O O13 0.256588 0.650676 0.724831
O O14 0.000000 0.611108 0.000000
O O15 0.405050 0.122716 0.685205
O O16 0.587419 0.000000 0.640383
O O17 0.500000 0.101927 0.500000
O O18 0.057439 0.189013 0.833984
O O19 0.125494 0.000000 0.810615
O O20 0.887354 0.500000 0.688535
#
# Coordination Sequence:
#
# PCOD9143961 Si02
#       8
#     4   4   4   4   4   4   4   4
#     4  11  21  40  59  88 122 161 199 246 308 366
#     4  10  18  33  59  89 117 154 201 246 295 356
#     4  11  21  40  62  91 120 156 202 255 302 363
#     4   9  19  36  55  78 112 154 195 238 296 358
#     4  10  19  33  58  85 119 166 205 240 292 362
#     4  10  21  37  58  90 129 165 203 249 302 360
#     4  11  24  36  62  91 124 156 198 254 306 360
#     4  11  24  43  65  87 118 159 204 255 311 365
#
# _framework density 22.475387999999999
#
# number of rings (size 3 to 8) (size 9 to 14) (size 15 to 20)
#    0.000    1.625    3.750    1.875    0.000    4.000 
#    0.000    1.875    0.000    1.875    0.000    5.250 
#    0.000    0.000    0.000    0.000    0.000    0.000 
#
# Total GULP energy -178814.147849 kJ/mol
# GULP energy per Si atom -5587.942120 kJ/mol
# Density = 2.242423 g / cm^3
# Si number density = 22.475388 Si / 1000 Ang^3
#
#
#
# Elastic Constant Matrix: (Units=GPa)
#
#
# Indices 1 2 3 4 5 6 
#
# 1 85.9868 18.9550 0.8832 0.0000 -19.3716 0.0000
# 2 18.9550 114.1831 -1.3257 0.0000 -3.7551 0.0000
# 3 0.8832 -1.3257 65.6942 0.0000 -13.1682 0.0000
# 4 0.0000 0.0000 0.0000 24.3260 0.0000 -2.5702
# 5 -19.3716 -3.7551 -13.1682 0.0000 24.6291 0.0000
# 6 0.0000 0.0000 0.0000 -2.5702 0.0000 1.0717
#
#
#
# Elastic Compliance Matrix: (Units=1/GPa)
#
#
# Indices 1 2 3 4 5 6 
#
# 1 0.014900 -0.002031 0.002291 0.000000 0.012635 0.000000
# 2 -0.002031 0.009094 0.000189 0.000000 -0.000110 0.000000
# 3 0.002291 0.000189 0.017430 0.000000 0.011150 0.000000
# 4 0.000000 0.000000 0.000000 0.055060 0.000000 0.132047
# 5 0.012635 -0.000110 0.011150 0.000000 0.056485 0.000000
# 6 0.000000 0.000000 0.000000 0.132047 0.000000 1.249786
#
#
# Mechanical properties :
#
#
# Convention : Reuss Voigt Hill
#
# Bulk Modulus (GPa) = 23.62869 33.65432 28.64151
# Shear Modulus (GPa) = 3.53116 26.49547 15.01332
#
# Velocity S-wave (km/s) = 1.25480 3.43719 2.58735
# Velocity P-wave (km/s) = 3.55462 5.54605 4.65801
#
# Compressibility (1/GPa) = 0.04232143
#
# Stress axis : x y z
#
# Youngs Moduli (GPa) = 67.11197 109.96685 57.37212
#
# Poissons Ratio (x) = 0.22339 -0.13146
# Poissons Ratio (y) = 0.13633 -0.01083
# Poissons Ratio (z) = -0.15378 -0.02075
#
# Static dielectric constant tensor:
#      x y z
#    x 1.849640 0.000000 0.027890 
#    y 0.000000 1.830430 0.000000 
#    z 0.027890 0.000000 1.848700 
# 
# From -- ./inp_files/85394.got.cif
#   From: 2010.05.17/outbox.cif.g08.bks.cpg/sg10_43_cif.got.tgz:85394.got - 2010.06.03 11:33:40.
