data_PCOD9143858
_publ_section_title
;
Structure prediction by ZEFSAII (Michael W. Deem and Ramdas Pophale) SiO2 
 PCOD9143858
Probable space group: P 2/M
;
_chemical_formula_sum "Si O2"
_cell_formula_units_Z 24
_cell_length_a 20.847174
_cell_length_b 8.157724
_cell_length_c 9.831608
_cell_angle_alpha 90.000000
_cell_angle_beta 130.049562
_cell_angle_gamma 90.000000
_cell_volume 1279.909361
_symmetry_space_group_name_H-M "P 2/M"
_symmetry_group_IT_number 10
_symmetry_cell_setting 'monoclinic'
loop_
_space_group_symop_operation_xyz
x,y,z
-x,y,-z
-x,-y,-z
x,-y,z
loop_
_atom_site_type_symbol
_atom_site_label
_atom_site_fract_x
_atom_site_fract_y
_atom_site_fract_z
Si Si1 0.526424 0.299764 0.383865
Si Si2 0.765232 0.193135 0.382726
Si Si3 0.905054 0.199698 0.361535
Si Si4 0.769668 0.807070 0.963939
Si Si5 0.282945 0.306986 0.390619
Si Si6 0.634892 0.307952 0.987909
O O1 0.500000 0.248681 0.500000
O O2 0.524527 0.500000 0.379450
O O3 0.620606 0.246515 0.480426
O O4 0.456505 0.245220 0.180194
O O5 0.844558 0.253211 0.402249
O O6 0.754853 0.276982 0.513217
O O7 0.683735 0.222198 0.177114
O O8 0.775159 0.000000 0.418498
O O9 0.855353 0.243691 0.155961
O O10 0.000000 0.259831 0.500000
O O11 0.907686 0.000000 0.370039
O O12 0.693746 0.713841 0.935192
O O13 0.757199 0.000000 0.975290
O O14 0.766411 0.776500 0.799897
O O15 0.284612 0.500000 0.363735
O O16 0.628909 0.500000 0.013709
#
# Coordination Sequence:
#
# PCOD9143858 Si02
#       6
#     4   4   4   4   4   4
#     4   9  17  31  51  75 100 136 186 221 240 294
#     4  10  21  36  53  78 110 134 168 220 268 308
#     4   8  16  34  59  80  99 131 172 209 251 315
#     4  10  19  32  53  81 108 133 170 218 264 304
#     4  11  21  35  54  75 105 144 180 212 256 309
#     4  10  18  33  55  75 101 140 184 217 251 303
#
# _framework density 18.751327
#
# number of rings (size 3 to 8) (size 9 to 14) (size 15 to 20)
#    0.000    2.333    1.667    3.000    0.000    0.667 
#    0.000    8.333    0.000   23.000    0.000    0.000 
#    0.000    0.000    0.000    0.000    0.000    0.000 
#
# Total GULP energy -133917.507173 kJ/mol
# GULP energy per Si atom -5579.896132 kJ/mol
# Density = 1.870865 g / cm^3
# Si number density = 18.751327 Si / 1000 Ang^3
#
#
#
# Elastic Constant Matrix: (Units=GPa)
#
#
# Indices 1 2 3 4 5 6 
#
# 1 91.8081 1.0141 77.0318 0.0000 10.7771 0.0000
# 2 1.0141 17.8194 -1.9586 0.0000 6.9857 0.0000
# 3 77.0318 -1.9586 123.5933 0.0000 11.3199 0.0000
# 4 0.0000 0.0000 0.0000 29.1120 0.0000 -6.1368
# 5 10.7771 6.9857 11.3199 0.0000 34.2599 0.0000
# 6 0.0000 0.0000 0.0000 -6.1368 0.0000 21.8627
#
#
#
# Elastic Compliance Matrix: (Units=1/GPa)
#
#
# Indices 1 2 3 4 5 6 
#
# 1 0.023120 -0.002039 -0.014245 0.000000 -0.002150 0.000000
# 2 -0.002039 0.061745 0.003448 0.000000 -0.013088 0.000000
# 3 -0.014245 0.003448 0.017199 0.000000 -0.001905 0.000000
# 4 0.000000 0.000000 0.000000 0.036510 0.000000 0.010248
# 5 -0.002150 -0.013088 -0.001905 0.000000 0.033163 0.000000
# 6 0.000000 0.000000 0.000000 0.010248 0.000000 0.048617
#
#
# Mechanical properties :
#
#
# Convention : Reuss Voigt Hill
#
# Bulk Modulus (GPa) = 13.09054 42.82171 27.95613
# Shear Modulus (GPa) = 18.41701 27.52249 22.96975
#
# Velocity S-wave (km/s) = 3.13736 3.83529 3.50375
# Velocity P-wave (km/s) = 4.48557 6.51911 5.59550
#
# Compressibility (1/GPa) = 0.07639104
#
# Stress axis : x y z
#
# Youngs Moduli (GPa) = 43.25343 16.19577 58.14422
#
# Poissons Ratio (x) = 0.03302 0.82827
# Poissons Ratio (y) = 0.08817 -0.20047
# Poissons Ratio (z) = 0.61615 -0.05584
#
# Static dielectric constant tensor:
#      x y z
#    x 1.628710 0.000000 0.012290 
#    y 0.000000 1.661600 0.000000 
#    z 0.012290 0.000000 1.644540 
# 
# From -- ./inp_files/27347.got.cif
#   From: 2010.05.17/outbox.cif.g08.bks.cpg/sg10_14_cif.got.tgz:27347.got - 2010.06.03 11:33:40.
