data_PCOD9143410
_publ_section_title
;
Structure prediction by ZEFSAII (Michael W. Deem and Ramdas Pophale) SiO2 
 PCOD9143410
Probable space group: P 2/M
;
_chemical_formula_sum "Si O2"
_cell_formula_units_Z 32
_cell_length_a 24.545241
_cell_length_b 8.773327
_cell_length_c 12.846727
_cell_angle_alpha 90.000000
_cell_angle_beta 133.791729
_cell_angle_gamma 90.000000
_cell_volume 1996.995892
_symmetry_space_group_name_H-M "P 2/M"
_symmetry_group_IT_number 10
_symmetry_cell_setting 'monoclinic'
loop_
_space_group_symop_operation_xyz
x,y,z
-x,y,-z
-x,-y,-z
x,-y,z
loop_
_atom_site_type_symbol
_atom_site_label
_atom_site_fract_x
_atom_site_fract_y
_atom_site_fract_z
Si Si1 0.922636 0.815625 0.178448
Si Si2 0.813429 0.815541 0.219077
Si Si3 0.659377 0.815487 0.329498
Si Si4 0.908624 0.185059 0.546739
Si Si5 0.493947 0.175985 0.118237
Si Si6 0.817017 0.183935 0.632731
Si Si7 0.919744 0.317521 0.944545
Si Si8 0.337152 0.680537 0.898164
O O1 0.856985 0.771505 0.171749
O O2 0.004359 0.767154 0.331554
O O3 0.923448 0.000000 0.172991
O O4 0.913380 0.749140 0.051520
O O5 0.863911 0.765155 0.385045
O O6 0.730539 0.748062 0.123335
O O7 0.808686 0.000000 0.216122
O O8 0.576819 0.768958 0.262279
O O9 0.730233 0.775155 0.494822
O O10 0.670950 0.748505 0.229415
O O11 0.657809 0.000000 0.316285
O O12 0.865046 0.230858 0.594093
O O13 0.908123 0.000000 0.543663
O O14 0.483230 0.000000 0.135547
O O15 0.500000 0.178091 0.000000
O O16 0.419852 0.270101 0.047637
O O17 0.854113 0.257661 0.782468
O O18 0.821823 0.000000 0.647433
O O19 0.918590 0.500000 0.947152
O O20 0.000000 0.269075 0.000000
O O21 0.331984 0.500000 0.886045
#
# Coordination Sequence:
#
# PCOD9143410 Si02
#       8
#     4   4   4   4   4   4   4   4
#     4  10  20  34  54  74  92 125 171 213 246 285
#     4  10  19  33  51  72  99 129 166 205 246 291
#     4   9  17  31  49  71  97 127 162 203 246 288
#     4   9  16  29  51  75  97 122 159 208 248 283
#     4   8  15  28  46  66  94 129 162 195 238 288
#     4  10  18  31  54  75  95 126 166 207 245 287
#     4  11  23  36  49  68  99 133 165 204 249 293
#     4  11  20  28  43  69 102 135 164 193 235 292
#
# _framework density 16.024069000000001
#
# number of rings (size 3 to 8) (size 9 to 14) (size 15 to 20)
#    0.000    2.250    2.500    2.625    0.000    5.250 
#    0.000    0.625    0.000    1.500    0.000    0.875 
#    0.000    7.000    0.000    0.000    0.000    0.000 
#
# Total GULP energy -178453.098366 kJ/mol
# GULP energy per Si atom -5576.659324 kJ/mol
# Density = 1.598760 g / cm^3
# Si number density = 16.024069 Si / 1000 Ang^3
#
#
#
# Elastic Constant Matrix: (Units=GPa)
#
#
# Indices 1 2 3 4 5 6 
#
# 1 133.0584 37.3080 79.7960 0.0000 18.1658 0.0000
# 2 37.3080 24.3707 29.4488 0.0000 6.9456 0.0000
# 3 79.7960 29.4488 88.3164 0.0000 21.5119 0.0000
# 4 0.0000 0.0000 0.0000 3.2879 0.0000 0.6610
# 5 18.1658 6.9456 21.5119 0.0000 30.9468 0.0000
# 6 0.0000 0.0000 0.0000 0.6610 0.0000 7.7532
#
#
#
# Elastic Compliance Matrix: (Units=1/GPa)
#
#
# Indices 1 2 3 4 5 6 
#
# 1 0.018852 -0.013850 -0.012612 0.000000 0.000809 0.000000
# 2 -0.013850 0.078908 -0.013801 0.000000 0.000014 0.000000
# 3 -0.012612 -0.013801 0.029810 0.000000 -0.010221 0.000000
# 4 0.000000 0.000000 0.000000 0.309446 0.000000 -0.026380
# 5 0.000809 0.000014 -0.010221 0.000000 0.038940 0.000000
# 6 0.000000 0.000000 0.000000 -0.026380 0.000000 0.131228
#
#
# Mechanical properties :
#
#
# Convention : Reuss Voigt Hill
#
# Bulk Modulus (GPa) = 21.25694 59.87236 40.56465
# Shear Modulus (GPa) = 7.10842 15.01044 11.05943
#
# Velocity S-wave (km/s) = 2.10849 3.06395 2.62997
# Velocity P-wave (km/s) = 4.38430 7.06839 5.88151
#
# Compressibility (1/GPa) = 0.04704346
#
# Stress axis : x y z
#
# Youngs Moduli (GPa) = 53.04490 12.67291 33.54621
#
# Poissons Ratio (x) = 0.17552 0.42308
# Poissons Ratio (y) = 0.73469 0.46297
# Poissons Ratio (z) = 0.66900 0.17490
#
# Static dielectric constant tensor:
#      x y z
#    x 1.531710 0.000000 0.030420 
#    y 0.000000 1.534060 0.000000 
#    z 0.030420 0.000000 1.528620 
# 
# From -- ./inp_files/56475.got.cif
#   From: 2010.05.17/outbox.cif.g08.bks.cpg/sg10_29_cif.got.tgz:56475.got - 2010.06.03 11:33:40.
