data_PCOD9143191
_publ_section_title
;
Structure prediction by ZEFSAII (Michael W. Deem and Ramdas Pophale) SiO2 
 PCOD9143191
Probable space group: P 2/M
;
_chemical_formula_sum "Si O2"
_cell_formula_units_Z 32
_cell_length_a 21.832614
_cell_length_b 8.772873
_cell_length_c 12.881051
_cell_angle_alpha 90.000000
_cell_angle_beta 127.030122
_cell_angle_gamma 90.000000
_cell_volume 1969.587816
_symmetry_space_group_name_H-M "P 2/M"
_symmetry_group_IT_number 10
_symmetry_cell_setting 'monoclinic'
loop_
_space_group_symop_operation_xyz
x,y,z
-x,y,-z
-x,-y,-z
x,-y,z
loop_
_atom_site_type_symbol
_atom_site_label
_atom_site_fract_x
_atom_site_fract_y
_atom_site_fract_z
Si Si1 0.004321 0.676242 0.630283
Si Si2 0.589308 0.682787 0.105662
Si Si3 0.835516 0.181518 0.213764
Si Si4 0.844109 0.817231 0.466682
Si Si5 0.319036 0.817484 0.607785
Si Si6 0.411292 0.317870 0.515400
Si Si7 0.422060 0.181976 0.300748
Si Si8 0.679169 0.681535 0.983935
O O1 0.012849 0.500000 0.667607
O O2 0.080244 0.768633 0.738089
O O3 0.000000 0.685833 0.500000
O O4 0.923147 0.742159 0.584492
O O5 0.593668 0.500000 0.128288
O O6 0.627887 0.767156 0.241569
O O7 0.635523 0.717379 0.047459
O O8 0.500000 0.722893 0.000000
O O9 0.830893 0.223517 0.331802
O O10 0.766592 0.265202 0.085634
O O11 0.826454 0.000000 0.196312
O O12 0.768306 0.774574 0.452609
O O13 0.853053 0.000000 0.479177
O O14 0.349818 0.736531 0.536507
O O15 0.322936 0.000000 0.599848
O O16 0.413907 0.500000 0.510317
O O17 0.397552 0.245385 0.388287
O O18 0.494689 0.256033 0.635860
O O19 0.429520 0.000000 0.312388
O O20 0.363461 0.233533 0.152662
O O21 0.674652 0.500000 0.963327
#
# Coordination Sequence:
#
# PCOD9143191 Si02
#       8
#     4   4   4   4   4   4   4   4
#     4   9  17  28  45  69  97 132 172 211 253 302
#     4  10  21  34  48  69 101 139 173 207 253 308
#     4  10  18  31  48  70 102 139 174 210 254 304
#     4   9  18  31  47  70 102 137 171 209 253 303
#     4  11  21  34  52  76 104 136 174 213 255 305
#     4  11  22  38  57  77 102 133 172 218 266 307
#     4  11  22  38  58  78 100 131 174 220 264 307
#     4  11  21  33  51  76 107 138 172 213 258 308
#
# _framework density 16.247055
#
# number of rings (size 3 to 8) (size 9 to 14) (size 15 to 20)
#    0.000    1.750    1.250    5.250    0.000    4.750 
#    0.000    0.000    0.000    0.000    0.000    0.875 
#    0.000    7.000    0.000    0.000    0.000    0.000 
#
# Total GULP energy -178685.377717 kJ/mol
# GULP energy per Si atom -5583.918054 kJ/mol
# Density = 1.621008 g / cm^3
# Si number density = 16.247055 Si / 1000 Ang^3
#
#
#
# Elastic Constant Matrix: (Units=GPa)
#
#
# Indices 1 2 3 4 5 6 
#
# 1 104.8051 38.5391 34.1897 0.0000 12.4970 0.0000
# 2 38.5391 72.9443 23.0057 0.0000 1.4268 0.0000
# 3 34.1897 23.0057 38.5925 0.0000 6.6919 0.0000
# 4 0.0000 0.0000 0.0000 30.4308 0.0000 5.8021
# 5 12.4970 1.4268 6.6919 0.0000 16.2442 0.0000
# 6 0.0000 0.0000 0.0000 5.8021 0.0000 30.2073
#
#
#
# Elastic Compliance Matrix: (Units=1/GPa)
#
#
# Indices 1 2 3 4 5 6 
#
# 1 0.015305 -0.005017 -0.009265 0.000000 -0.007517 0.000000
# 2 -0.005017 0.018653 -0.007603 0.000000 0.005354 0.000000
# 3 -0.009265 -0.007603 0.040169 0.000000 -0.008753 0.000000
# 4 0.000000 0.000000 0.000000 0.034111 0.000000 -0.006552
# 5 -0.007517 0.005354 -0.008753 0.000000 0.070479 0.000000
# 6 0.000000 0.000000 0.000000 -0.006552 0.000000 0.034363
#
#
# Mechanical properties :
#
#
# Convention : Reuss Voigt Hill
#
# Bulk Modulus (GPa) = 32.94030 45.31231 39.12630
# Shear Modulus (GPa) = 18.72875 23.41696 21.07286
#
# Velocity S-wave (km/s) = 3.39890 3.80057 3.60533
# Velocity P-wave (km/s) = 5.97679 6.87090 6.43938
#
# Compressibility (1/GPa) = 0.03035795
#
# Stress axis : x y z
#
# Youngs Moduli (GPa) = 65.33736 53.61061 24.89458
#
# Poissons Ratio (x) = 0.26898 0.23064
# Poissons Ratio (y) = 0.32781 0.18927
# Poissons Ratio (z) = 0.60533 0.40759
#
# Static dielectric constant tensor:
#      x y z
#    x 1.541480 0.000000 0.006850 
#    y 0.000000 1.542670 0.000000 
#    z 0.006850 0.000000 1.517390 
# 
# From -- ./inp_files/55384.got.cif
#   From: 2010.05.17/outbox.cif.g08.bks.cpg/sg10_28_cif.got.tgz:55384.got - 2010.06.03 11:33:40.
