data_PCOD9143682
_publ_section_title
;
Structure prediction by ZEFSAII (Michael W. Deem and Ramdas Pophale) SiO2 
 PCOD9143682
Probable space group: P 2/M
;
_chemical_formula_sum "Si O2"
_cell_formula_units_Z 26
_cell_length_a 9.116171
_cell_length_b 15.427979
_cell_length_c 11.117196
_cell_angle_alpha 90.000000
_cell_angle_beta 60.700099
_cell_angle_gamma 90.000000
_cell_volume 1363.540902
_symmetry_space_group_name_H-M "P 2/M"
_symmetry_group_IT_number 10
_symmetry_cell_setting 'monoclinic'
loop_
_space_group_symop_operation_xyz
x,y,z
-x,y,-z
-x,-y,-z
x,-y,z
loop_
_atom_site_type_symbol
_atom_site_label
_atom_site_fract_x
_atom_site_fract_y
_atom_site_fract_z
Si Si1 0.173754 0.405050 0.258969
Si Si2 0.175595 0.397770 0.711212
Si Si3 0.636700 0.277395 0.187024
Si Si4 0.259432 0.286758 0.440649
Si Si5 0.735898 0.905607 0.515053
Si Si6 0.500000 0.652702 0.000000
Si Si7 0.340895 0.906533 0.735667
O O1 0.148863 0.500000 0.324396
O O2 0.172179 0.334662 0.364323
O O3 0.025969 0.392567 0.222111
O O4 0.354704 0.400414 0.124128
O O5 0.223118 0.500000 0.687191
O O6 0.246222 0.350682 0.800951
O O7 0.239462 0.342805 0.569924
O O8 0.458652 0.283223 0.329900
O O9 0.709054 0.181327 0.178372
O O10 0.592005 0.292532 0.066492
O O11 0.194776 0.188059 0.476407
O O12 0.544111 0.906745 0.641724
O O13 0.723757 0.902899 0.375278
O O14 0.810451 0.000000 0.518952
O O15 0.290208 0.000000 0.808805
#
# Coordination Sequence:
#
# PCOD9143682 Si02
#       7
#     4   4   4   4   4   2   4
#     4  10  22  38  55  74 102 142 178 216 262 309
#     4  11  22  34  52  79 106 136 174 216 266 316
#     4  10  20  34  53  80 107 139 176 215 256 305
#     4  10  18  32  54  81 113 138 168 210 261 314
#     4   8  13  23  46  78 109 138 167 203 251 308
#     4  10  23  40  57  72 100 136 181 224 261 304
#     4   8  13  25  47  76 107 136 169 208 252 304
#
# _framework density 19.068002
#
# number of rings (size 3 to 8) (size 9 to 14) (size 15 to 20)
#    0.000    2.462    1.538    2.538    0.000    6.154 
#    0.000    1.923    0.000    3.692    0.000    1.077 
#    0.000    0.000    0.000    0.000    0.000    0.000 
#
# Total GULP energy -144901.573289 kJ/mol
# GULP energy per Si atom -5573.137434 kJ/mol
# Density = 1.902460 g / cm^3
# Si number density = 19.068002 Si / 1000 Ang^3
#
#
#
# Elastic Constant Matrix: (Units=GPa)
#
#
# Indices 1 2 3 4 5 6 
#
# 1 77.0432 66.7806 16.6516 0.0000 16.1252 0.0000
# 2 66.7806 209.4596 34.4453 0.0000 24.5119 0.0000
# 3 16.6516 34.4453 39.0635 0.0000 12.8251 0.0000
# 4 0.0000 0.0000 0.0000 -2.3737 0.0000 11.1630
# 5 16.1252 24.5119 12.8251 0.0000 24.2192 0.0000
# 6 0.0000 0.0000 0.0000 11.1630 0.0000 10.2594
#
#
#
# Elastic Compliance Matrix: (Units=1/GPa)
#
#
# Indices 1 2 3 4 5 6 
#
# 1 0.019103 -0.005053 -0.001441 0.000000 -0.006842 0.000000
# 2 -0.005053 0.007206 -0.003523 0.000000 -0.002063 0.000000
# 3 -0.001441 -0.003523 0.033692 0.000000 -0.013316 0.000000
# 4 0.000000 0.000000 0.000000 -0.068871 0.000000 0.074937
# 5 -0.006842 -0.002063 -0.013316 0.000000 0.054985 0.000000
# 6 0.000000 0.000000 0.000000 0.074937 0.000000 0.015935
#
#
# Mechanical properties :
#
#
# Convention : Reuss Voigt Hill
#
# Bulk Modulus (GPa) = 25.02063 62.36903 43.69483
# Shear Modulus (GPa) = 52.40814 20.26691 36.33752
#
# Velocity S-wave (km/s) = 5.24829 3.26371 4.37015
# Velocity P-wave (km/s) = 7.06232 6.85435 6.95911
#
# Compressibility (1/GPa) = 0.03996702
#
# Stress axis : x y z
#
# Youngs Moduli (GPa) = 52.34795 138.77492 29.68072
#
# Poissons Ratio (x) = 0.70120 0.04278
# Poissons Ratio (y) = 0.26450 0.10456
# Poissons Ratio (z) = 0.07545 0.48886
#
# Static dielectric constant tensor:
#      x y z
#    x 1.665560 0.000000 -0.016610 
#    y 0.000000 1.699720 0.000000 
#    z -0.016610 0.000000 1.644490 
# 
# From -- ./inp_files/42611.got.cif
#   From: 2010.05.17/outbox.cif.g08.bks.cpg/sg10_22_cif.got.tgz:42611.got - 2010.06.03 11:33:40.
