data_PCOD9143233
_publ_section_title
;
Structure prediction by ZEFSAII (Michael W. Deem and Ramdas Pophale) SiO2 
 PCOD9143233
Probable space group: P 2/M
;
_chemical_formula_sum "Si O2"
_cell_formula_units_Z 28
_cell_length_a 11.928847
_cell_length_b 8.513988
_cell_length_c 19.252721
_cell_angle_alpha 90.000000
_cell_angle_beta 52.936077
_cell_angle_gamma 90.000000
_cell_volume 1560.294918
_symmetry_space_group_name_H-M "P 2/M"
_symmetry_group_IT_number 10
_symmetry_cell_setting 'monoclinic'
loop_
_space_group_symop_operation_xyz
x,y,z
-x,y,-z
-x,-y,-z
x,-y,z
loop_
_atom_site_type_symbol
_atom_site_label
_atom_site_fract_x
_atom_site_fract_y
_atom_site_fract_z
Si Si1 0.123983 0.690600 0.404592
Si Si2 0.871858 0.313013 0.757804
Si Si3 0.722843 0.188639 0.181902
Si Si4 0.570989 0.815672 0.873345
Si Si5 0.723822 0.686023 0.024020
Si Si6 0.433601 0.311796 0.281552
Si Si7 0.994434 0.813347 0.844371
O O1 0.115225 0.500000 0.407091
O O2 0.112184 0.739667 0.328289
O O3 0.282330 0.728046 0.370461
O O4 0.000000 0.750462 0.500000
O O5 0.888596 0.500000 0.754311
O O6 0.713432 0.271589 0.841747
O O7 0.979460 0.231571 0.769583
O O8 0.740173 0.250817 0.096727
O O9 0.576449 0.258972 0.264727
O O10 0.858160 0.233921 0.176403
O O11 0.713123 0.000000 0.183364
O O12 0.418162 0.759694 0.955742
O O13 0.563817 0.775968 0.793563
O O14 0.587017 0.000000 0.879523
O O15 0.704619 0.500000 0.033191
O O16 0.864419 0.731151 0.931307
O O17 0.437031 0.500000 0.267832
O O18 0.978788 0.000000 0.859096
#
# Coordination Sequence:
#
# PCOD9143233 Si02
#       7
#     4   4   4   4   4   4   4
#     4   8  15  30  54  82 106 125 150 194 249 299
#     4  10  20  34  52  75 101 129 164 204 248 297
#     4  10  20  34  51  70  98 135 172 208 246 290
#     4  10  18  31  50  70  99 134 165 201 248 298
#     4  11  21  33  51  74  98 127 171 218 251 283
#     4   9  16  28  50  77 101 127 163 204 243 286
#     4  11  23  36  49  68  98 136 172 206 249 296
#
# _framework density 17.945326999999999
#
# number of rings (size 3 to 8) (size 9 to 14) (size 15 to 20)
#    0.000    2.143    0.000    7.286    0.000    4.571 
#    0.000    2.857    0.000   16.286    0.000    6.000 
#    0.000    0.000    0.000    0.000    0.000    0.000 
#
# Total GULP energy -156229.199262 kJ/mol
# GULP energy per Si atom -5579.614259 kJ/mol
# Density = 1.790448 g / cm^3
# Si number density = 17.945327 Si / 1000 Ang^3
#
#
#
# Elastic Constant Matrix: (Units=GPa)
#
#
# Indices 1 2 3 4 5 6 
#
# 1 108.2924 2.1839 41.7966 0.0000 -11.6398 0.0000
# 2 2.1839 31.4572 5.9228 0.0000 -2.6604 0.0000
# 3 41.7966 5.9228 102.0590 0.0000 -21.8581 0.0000
# 4 0.0000 0.0000 0.0000 -368.9319 0.0000 -264.9523
# 5 -11.6398 -2.6604 -21.8581 0.0000 20.2634 0.0000
# 6 0.0000 0.0000 0.0000 -264.9523 0.0000 -117.7273
#
#
#
# Elastic Compliance Matrix: (Units=1/GPa)
#
#
# Indices 1 2 3 4 5 6 
#
# 1 0.011025 0.000171 -0.004114 0.000000 0.001917 0.000000
# 2 0.000171 0.032272 -0.001319 0.000000 0.002912 0.000000
# 3 -0.004114 -0.001319 0.014326 0.000000 0.012917 0.000000
# 4 0.000000 0.000000 0.000000 0.004398 0.000000 -0.009899
# 5 0.001917 0.002912 0.012917 0.000000 0.064767 0.000000
# 6 0.000000 0.000000 0.000000 -0.009899 0.000000 0.013783
#
#
# Mechanical properties :
#
#
# Convention : Reuss Voigt Hill
#
# Bulk Modulus (GPa) = 21.23205 37.95726 29.59465
# Shear Modulus (GPa) = 29.97666 -80.48548 -25.25441
#
# Velocity S-wave (km/s) = 4.09154 -6.70431 -3.75547
# Velocity P-wave (km/s) = 5.84621 6.22357 1.50908
#
# Compressibility (1/GPa) = 0.04709860
#
# Stress axis : x y z
#
# Youngs Moduli (GPa) = 90.70398 30.98657 69.80175
#
# Poissons Ratio (x) = -0.00531 0.28719
# Poissons Ratio (y) = -0.01555 0.09209
# Poissons Ratio (z) = 0.37319 0.04088
#
# Static dielectric constant tensor:
#      x y z
#    x 1.641630 0.000000 -0.010910 
#    y 0.000000 1.603420 0.000000 
#    z -0.010910 0.000000 1.626800 
# 
# From -- ./inp_files/83305.got.cif
#   From: 2010.05.17/outbox.cif.g08.bks.cpg/sg10_42_cif.got.tgz:83305.got - 2010.06.03 11:33:40.
