data_PCOD9143706
_publ_section_title
;
Structure prediction by ZEFSAII (Michael W. Deem and Ramdas Pophale) SiO2 
 PCOD9143706
Probable space group: P 2/M
;
_chemical_formula_sum "Si O2"
_cell_formula_units_Z 30
_cell_length_a 9.093629
_cell_length_b 12.956092
_cell_length_c 13.671538
_cell_angle_alpha 90.000000
_cell_angle_beta 122.276060
_cell_angle_gamma 90.000000
_cell_volume 1361.866544
_symmetry_space_group_name_H-M "P 2/M"
_symmetry_group_IT_number 10
_symmetry_cell_setting 'monoclinic'
loop_
_space_group_symop_operation_xyz
x,y,z
-x,y,-z
-x,-y,-z
x,-y,z
loop_
_atom_site_type_symbol
_atom_site_label
_atom_site_fract_x
_atom_site_fract_y
_atom_site_fract_z
Si Si1 0.000000 0.712487 0.000000
Si Si2 0.559670 0.765164 0.174190
Si Si3 0.883185 0.885400 0.283723
Si Si4 0.763983 0.884078 0.017681
Si Si5 0.314157 0.623964 0.224784
Si Si6 0.204309 0.388830 0.792939
Si Si7 0.832850 0.284097 0.637246
Si Si8 0.793215 0.612875 0.435275
O O1 0.871860 0.641066 0.892928
O O2 0.111352 0.792184 0.974583
O O3 0.730018 0.820973 0.283434
O O4 0.443667 0.692880 0.203986
O O5 0.655892 0.695102 0.125136
O O6 0.428130 0.849551 0.083853
O O7 0.802883 0.892501 0.146310
O O8 0.065510 0.824691 0.337556
O O9 0.906211 0.000000 0.331754
O O10 0.798748 0.000000 0.989239
O O11 0.353275 0.500000 0.245995
O O12 0.295294 0.684016 0.321265
O O13 0.226826 0.500000 0.847529
O O14 0.003526 0.356408 0.720906
O O15 0.252928 0.392851 0.694724
O O16 0.743004 0.308361 0.501609
O O17 0.754357 0.500000 0.464209
O O18 0.000000 0.626168 0.500000
#
# Coordination Sequence:
#
# PCOD9143706 Si02
#       8
#     2   4   4   4   4   4   4   4
#     4  10  20  34  50  76 108 138 174 214 260 314
#     4  10  21  32  50  72 105 140 174 210 260 307
#     4  10  20  36  56  77 102 134 180 231 269 305
#     4  10  19  34  55  76 100 133 180 228 267 306
#     4  11  21  34  50  74 111 147 173 210 258 316
#     4   9  17  32  53  76 104 138 177 219 263 313
#     4  10  18  32  55  79 104 134 178 217 265 316
#     4   8  14  27  51  79 103 132 171 218 265 310
#
# _framework density 22.028589
#
# number of rings (size 3 to 8) (size 9 to 14) (size 15 to 20)
#    0.000    2.267    1.333    3.600    0.000    1.067 
#    0.000    1.333    0.000   16.400    0.000    0.000 
#    0.000   30.133    0.000    0.000    0.000    0.000 
#
# Total GULP energy -167065.434280 kJ/mol
# GULP energy per Si atom -5568.847809 kJ/mol
# Density = 2.197845 g / cm^3
# Si number density = 22.028589 Si / 1000 Ang^3
#
#
#
# Elastic Constant Matrix: (Units=GPa)
#
#
# Indices 1 2 3 4 5 6 
#
# 1 76.8127 20.8330 14.2917 0.0000 -5.7875 0.0000
# 2 20.8330 91.6135 -24.9485 0.0000 -30.1795 0.0000
# 3 14.2917 -24.9485 27.0174 0.0000 -15.1645 0.0000
# 4 0.0000 0.0000 0.0000 6.4729 0.0000 -14.2545
# 5 -5.7875 -30.1795 -15.1645 0.0000 7.4910 0.0000
# 6 0.0000 0.0000 0.0000 -14.2545 0.0000 5.1691
#
#
#
# Elastic Compliance Matrix: (Units=1/GPa)
#
#
# Indices 1 2 3 4 5 6 
#
# 1 0.013858 0.000438 -0.000553 0.000000 0.011354 0.000000
# 2 0.000438 0.000519 -0.011815 0.000000 -0.021491 0.000000
# 3 -0.000553 -0.011815 0.004132 0.000000 -0.039664 0.000000
# 4 0.000000 0.000000 0.000000 -0.030455 0.000000 -0.083983
# 5 0.011354 -0.021491 -0.039664 0.000000 -0.024610 0.000000
# 6 0.000000 0.000000 0.000000 -0.083983 0.000000 -0.038136
#
#
# Mechanical properties :
#
#
# Convention : Reuss Voigt Hill
#
# Bulk Modulus (GPa) = -186.88872 23.97734 -81.45569
# Shear Modulus (GPa) = -95.02735 16.17776 -39.42479
#
# Velocity S-wave (km/s) = -6.57509 2.71292 -4.23509
# Velocity P-wave (km/s) = 11.94428 4.55209 7.80847
#
# Compressibility (1/GPa) = -0.00535078
#
# Stress axis : x y z
#
# Youngs Moduli (GPa) = 72.16003 1928.21038 242.02167
#
# Poissons Ratio (x) = -0.84551 0.13378
# Poissons Ratio (y) = -0.03164 2.85959
# Poissons Ratio (z) = 0.03989 22.78261
#
# Static dielectric constant tensor:
#      x y z
#    x 1.849900 0.000000 -0.008220 
#    y 0.000000 1.936570 0.000000 
#    z -0.008220 0.000000 1.877710 
# 
# From -- ./inp_files/61252.got.cif
#   From: 2010.05.17/outbox.cif.g08.bks.cpg/sg10_31_cif.got.tgz:61252.got - 2010.06.03 11:33:40.
