data_PCOD9143723
_publ_section_title
;
Structure prediction by ZEFSAII (Michael W. Deem and Ramdas Pophale) SiO2 
 PCOD9143723
Probable space group: P 2/M
;
_chemical_formula_sum "Si O2"
_cell_formula_units_Z 28
_cell_length_a 17.060567
_cell_length_b 12.882698
_cell_length_c 9.749323
_cell_angle_alpha 90.000000
_cell_angle_beta 141.803590
_cell_angle_gamma 90.000000
_cell_volume 1324.998969
_symmetry_space_group_name_H-M "P 2/M"
_symmetry_group_IT_number 10
_symmetry_cell_setting 'monoclinic'
loop_
_space_group_symop_operation_xyz
x,y,z
-x,y,-z
-x,-y,-z
x,-y,z
loop_
_atom_site_type_symbol
_atom_site_label
_atom_site_fract_x
_atom_site_fract_y
_atom_site_fract_z
Si Si1 0.019727 0.000000 0.258185
Si Si2 0.641343 0.113880 0.888651
Si Si3 0.192012 0.159445 0.629406
Si Si4 0.633992 0.838100 0.384754
Si Si5 0.147832 0.615033 0.667191
Si Si6 0.383791 0.612174 0.538457
Si Si7 0.666619 0.661824 0.829422
Si Si8 0.796286 0.000000 0.755075
O O1 0.065533 0.899854 0.407098
O O2 0.104421 0.000000 0.235925
O O3 0.877387 0.000000 0.005774
O O4 0.512365 0.132011 0.798572
O O5 0.652201 0.213364 0.806399
O O6 0.632285 0.000000 0.812424
O O7 0.757882 0.121157 0.154990
O O8 0.300578 0.132161 0.667940
O O9 0.176467 0.283485 0.616268
O O10 0.646136 0.714511 0.417753
O O11 0.710342 0.899605 0.607495
O O12 0.178068 0.500000 0.651877
O O13 0.000000 0.617672 0.500000
O O14 0.227529 0.630271 0.916538
O O15 0.359315 0.500000 0.568953
O O16 0.532472 0.620540 0.702526
O O17 0.313290 0.620826 0.295298
#
# Coordination Sequence:
#
# PCOD9143723 Si02
#       8
#     2   4   4   4   4   4   4   2
#     4   9  18  33  52  71  99 145 170 205 256 315
#     4  10  18  32  55  82 111 140 173 217 266 317
#     4  10  20  34  55  79 109 138 177 216 268 317
#     4  10  20  32  52  84 108 140 173 215 265 323
#     4  10  21  37  57  77 102 140 183 225 265 308
#     4  10  19  34  55  78 108 143 176 215 266 320
#     4   9  19  35  54  78 105 141 181 217 263 314
#     4   9  18  33  49  70 107 138 174 205 252 313
#
# _framework density 21.132092
#
# number of rings (size 3 to 8) (size 9 to 14) (size 15 to 20)
#    0.000    2.286    1.429    2.143    0.000    2.286 
#    1.286    1.786    0.000    5.143    0.000    7.000 
#    0.000    0.000    0.000    0.000    0.000    0.000 
#
# Total GULP energy -156400.176333 kJ/mol
# GULP energy per Si atom -5585.720583 kJ/mol
# Density = 2.108399 g / cm^3
# Si number density = 21.132092 Si / 1000 Ang^3
#
#
#
# Elastic Constant Matrix: (Units=GPa)
#
#
# Indices 1 2 3 4 5 6 
#
# 1 33.4600 2.3926 7.2366 0.0000 3.6118 0.0000
# 2 2.3926 188.3468 29.0440 0.0000 1.5928 0.0000
# 3 7.2366 29.0440 122.8665 0.0000 -1.6042 0.0000
# 4 0.0000 0.0000 0.0000 -33.3342 0.0000 -16.9908
# 5 3.6118 1.5928 -1.6042 0.0000 12.3060 0.0000
# 6 0.0000 0.0000 0.0000 -16.9908 0.0000 13.8042
#
#
#
# Elastic Compliance Matrix: (Units=1/GPa)
#
#
# Indices 1 2 3 4 5 6 
#
# 1 0.031333 -0.000015 -0.001965 0.000000 -0.009450 0.000000
# 2 -0.000015 0.005520 -0.001315 0.000000 -0.000882 0.000000
# 3 -0.001965 -0.001315 0.008590 0.000000 0.001867 0.000000
# 4 0.000000 0.000000 0.000000 -0.018434 0.000000 -0.022689
# 5 -0.009450 -0.000882 0.001867 0.000000 0.084392 0.000000
# 6 0.000000 0.000000 0.000000 -0.022689 0.000000 0.044514
#
#
# Mechanical properties :
#
#
# Convention : Reuss Voigt Hill
#
# Bulk Modulus (GPa) = 25.73938 46.89106 36.31522
# Shear Modulus (GPa) = 28.49710 18.95523 23.72616
#
# Velocity S-wave (km/s) = 3.67621 2.99822 3.35439
# Velocity P-wave (km/s) = 5.49782 5.85008 5.67668
#
# Compressibility (1/GPa) = 0.03885097
#
# Stress axis : x y z
#
# Youngs Moduli (GPa) = 31.91563 181.16444 116.41460
#
# Poissons Ratio (x) = 0.00273 0.22878
# Poissons Ratio (y) = 0.00048 0.15314
# Poissons Ratio (z) = 0.06272 0.23831
#
# Static dielectric constant tensor:
#      x y z
#    x 1.747400 0.000000 -0.007790 
#    y 0.000000 1.800180 0.000000 
#    z -0.007790 0.000000 1.738080 
# 
# From -- ./inp_files/55892.got.cif
#   From: 2010.05.17/outbox.cif.g08.bks.cpg/sg10_28_cif.got.tgz:55892.got - 2010.06.03 11:33:40.
