data_PCOD9143216
_publ_section_title
;
Structure prediction by ZEFSAII (Michael W. Deem and Ramdas Pophale) SiO2 
 PCOD9143216
Probable space group: P 2/M
;
_chemical_formula_sum "Si O2"
_cell_formula_units_Z 32
_cell_length_a 13.977941
_cell_length_b 18.354538
_cell_length_c 13.890375
_cell_angle_alpha 90.000000
_cell_angle_beta 149.433334
_cell_angle_gamma 90.000000
_cell_volume 1812.283883
_symmetry_space_group_name_H-M "P 2/M"
_symmetry_group_IT_number 10
_symmetry_cell_setting 'monoclinic'
loop_
_space_group_symop_operation_xyz
x,y,z
-x,y,-z
-x,-y,-z
x,-y,z
loop_
_atom_site_type_symbol
_atom_site_label
_atom_site_fract_x
_atom_site_fract_y
_atom_site_fract_z
Si Si1 0.790574 0.212510 0.283891
Si Si2 0.661994 0.296401 0.352602
Si Si3 0.740184 0.842358 0.518298
Si Si4 0.335243 0.913447 0.142924
Si Si5 0.104451 0.913470 0.747500
Si Si6 0.646058 0.343455 0.038886
Si Si7 0.270861 0.083228 0.294968
Si Si8 0.975783 0.418207 0.594380
O O1 0.669933 0.238586 0.269818
O O2 0.791119 0.129937 0.247582
O O3 0.734341 0.266083 0.148643
O O4 0.000000 0.230108 0.500000
O O5 0.705663 0.243756 0.478964
O O6 0.822131 0.357344 0.485590
O O7 0.465758 0.335247 0.157720
O O8 0.540234 0.877979 0.318236
O O9 0.791694 0.867851 0.670493
O O10 0.904219 0.873838 0.591695
O O11 0.230647 0.891139 0.151502
O O12 0.362909 0.000000 0.177910
O O13 0.220966 0.901620 0.946651
O O14 0.083997 0.000000 0.713084
O O15 0.820261 0.398034 0.186931
O O16 0.500000 0.363596 0.000000
O O17 0.500000 0.081350 0.500000
O O18 0.202253 0.000000 0.250108
O O19 0.918251 0.500000 0.571922
O O20 0.000000 0.415918 0.500000
#
# Coordination Sequence:
#
# PCOD9143216 Si02
#       8
#     4   4   4   4   4   4   4   4
#     4  11  18  35  46  61  96 132 169 206 243 273
#     4  11  21  34  50  70 100 132 164 194 237 290
#     4  11  19  31  52  70  92 129 165 198 245 299
#     4   9  19  35  49  69  98 125 163 216 261 294
#     4  11  22  32  46  67  92 129 176 211 245 287
#     4  10  18  31  50  66  88 126 164 192 236 285
#     4   8  15  30  50  70  96 125 159 207 259 296
#     4  11  20  33  51  73  99 126 161 200 235 281
#
# _framework density 17.657278000000002
#
# number of rings (size 3 to 8) (size 9 to 14) (size 15 to 20)
#    0.000    1.750    5.000    2.625    0.000    1.500 
#    0.000    1.875    0.000    4.875    0.000    0.000 
#    0.000    4.500    0.000   24.125    0.000    0.500 
#
# Total GULP energy -178466.104510 kJ/mol
# GULP energy per Si atom -5577.065766 kJ/mol
# Density = 1.761709 g / cm^3
# Si number density = 17.657278 Si / 1000 Ang^3
#
#
#
# Elastic Constant Matrix: (Units=GPa)
#
#
# Indices 1 2 3 4 5 6 
#
# 1 37.7348 32.7099 15.7199 0.0000 -3.3937 0.0000
# 2 32.7099 87.7018 43.9221 0.0000 -2.8529 0.0000
# 3 15.7199 43.9221 95.0233 0.0000 4.1884 0.0000
# 4 0.0000 0.0000 0.0000 0.6566 0.0000 1.8664
# 5 -3.3937 -2.8529 4.1884 0.0000 11.7010 0.0000
# 6 0.0000 0.0000 0.0000 1.8664 0.0000 15.2936
#
#
#
# Elastic Compliance Matrix: (Units=1/GPa)
#
#
# Indices 1 2 3 4 5 6 
#
# 1 0.039897 -0.014483 -0.000264 0.000000 0.008135 0.000000
# 2 -0.014483 0.020546 -0.007251 0.000000 0.003404 0.000000
# 3 -0.000264 -0.007251 0.014225 0.000000 -0.006936 0.000000
# 4 0.000000 0.000000 0.000000 2.331951 0.000000 -0.284586
# 5 0.008135 0.003404 -0.006936 0.000000 0.091135 0.000000
# 6 0.000000 0.000000 0.000000 -0.284586 0.000000 0.100117
#
#
# Mechanical properties :
#
#
# Convention : Reuss Voigt Hill
#
# Bulk Modulus (GPa) = 32.60421 45.01819 38.81120
# Shear Modulus (GPa) = 1.88530 14.07078 7.97804
#
# Velocity S-wave (km/s) = 1.03443 2.82597 2.12793
# Velocity P-wave (km/s) = 4.46451 6.01657 5.29768
#
# Compressibility (1/GPa) = 0.03067088
#
# Stress axis : x y z
#
# Youngs Moduli (GPa) = 25.06447 48.67082 70.29981
#
# Poissons Ratio (x) = 0.70491 0.01858
# Poissons Ratio (y) = 0.36302 0.50974
# Poissons Ratio (z) = 0.00662 0.35291
#
# Static dielectric constant tensor:
#      x y z
#    x 1.644310 0.000000 -0.003360 
#    y 0.000000 1.614450 0.000000 
#    z -0.003360 0.000000 1.667130 
# 
# From -- ./inp_files/67750.got.cif
#   From: 2010.05.17/outbox.cif.g08.bks.cpg/sg10_34_cif.got.tgz:67750.got - 2010.06.03 11:33:40.
