data_PCOD9143688
_publ_section_title
;
Structure prediction by ZEFSAII (Michael W. Deem and Ramdas Pophale) SiO2 
 PCOD9143688
Probable space group: P 2/M
;
_chemical_formula_sum "Si O2"
_cell_formula_units_Z 22
_cell_length_a 12.764281
_cell_length_b 10.062202
_cell_length_c 11.074977
_cell_angle_alpha 90.000000
_cell_angle_beta 116.474740
_cell_angle_gamma 90.000000
_cell_volume 1273.265037
_symmetry_space_group_name_H-M "P 2/M"
_symmetry_group_IT_number 10
_symmetry_cell_setting 'monoclinic'
loop_
_space_group_symop_operation_xyz
x,y,z
-x,y,-z
-x,-y,-z
x,-y,z
loop_
_atom_site_type_symbol
_atom_site_label
_atom_site_fract_x
_atom_site_fract_y
_atom_site_fract_z
Si Si1 0.426767 0.160355 0.078115
Si Si2 0.000000 0.245572 0.000000
Si Si3 0.009303 0.346688 0.647220
Si Si4 0.838376 0.848756 0.124635
Si Si5 0.411580 0.841004 0.342840
Si Si6 0.808221 0.347731 0.725216
O O1 0.458490 0.198501 0.232622
O O2 0.437776 0.000000 0.081651
O O3 0.500000 0.211459 0.000000
O O4 0.290379 0.191958 0.985743
O O5 0.072224 0.159880 0.941282
O O6 0.904468 0.332087 0.880221
O O7 0.036340 0.500000 0.693694
O O8 0.107581 0.250322 0.750223
O O9 0.000000 0.335269 0.500000
O O10 0.884406 0.316386 0.645046
O O11 0.831590 0.000000 0.166078
O O12 0.500000 0.819414 0.500000
O O13 0.295386 0.755751 0.307207
O O14 0.385620 0.000000 0.325095
O O15 0.766034 0.500000 0.698323
#
# Coordination Sequence:
#
# PCOD9143688 Si02
#       6
#     4   2   4   4   4   4
#     4   9  18  34  53  76 108 145 183 224 276 331
#     4  10  18  32  54  84 110 138 172 226 282 330
#     4   9  20  37  53  75 111 148 176 217 280 340
#     4  10  19  31  54  82 106 137 178 228 275 325
#     4  10  21  37  56  80 109 147 189 233 282 331
#     4  10  20  34  56  81 106 141 184 226 274 332
#
# _framework density 17.278413
#
# number of rings (size 3 to 8) (size 9 to 14) (size 15 to 20)
#    0.000    2.364    1.818    0.545    0.000    5.818 
#    0.000    1.818    0.000    2.182    0.000    0.000 
#    0.000    0.000    0.000    0.000    0.000    0.000 
#
# Total GULP energy -122567.484845 kJ/mol
# GULP energy per Si atom -5571.249311 kJ/mol
# Density = 1.723909 g / cm^3
# Si number density = 17.278413 Si / 1000 Ang^3
#
#
#
# Elastic Constant Matrix: (Units=GPa)
#
#
# Indices 1 2 3 4 5 6 
#
# 1 86.6923 38.8265 68.5011 0.0000 -0.5329 0.0000
# 2 38.8265 48.1914 45.8565 0.0000 -0.1408 0.0000
# 3 68.5011 45.8565 116.3593 0.0000 -9.6316 0.0000
# 4 0.0000 0.0000 0.0000 8.8212 0.0000 2.8815
# 5 -0.5329 -0.1408 -9.6316 0.0000 22.8045 0.0000
# 6 0.0000 0.0000 0.0000 2.8815 0.0000 17.8775
#
#
#
# Elastic Compliance Matrix: (Units=1/GPa)
#
#
# Indices 1 2 3 4 5 6 
#
# 1 0.024341 -0.009054 -0.011107 0.000000 -0.004178 0.000000
# 2 -0.009054 0.037251 -0.009688 0.000000 -0.004073 0.000000
# 3 -0.011107 -0.009688 0.019610 0.000000 0.007963 0.000000
# 4 0.000000 0.000000 0.000000 0.119664 0.000000 -0.019288
# 5 -0.004178 -0.004073 0.007963 0.000000 0.047092 0.000000
# 6 0.000000 0.000000 0.000000 -0.019288 0.000000 0.059045
#
#
# Mechanical properties :
#
#
# Convention : Reuss Voigt Hill
#
# Bulk Modulus (GPa) = 46.50179 61.95681 54.22930
# Shear Modulus (GPa) = 13.37367 16.43789 14.90578
#
# Velocity S-wave (km/s) = 2.78512 3.08775 2.94033
# Velocity P-wave (km/s) = 6.10853 6.97481 6.55600
#
# Compressibility (1/GPa) = 0.02150455
#
# Stress axis : x y z
#
# Youngs Moduli (GPa) = 41.08317 26.84464 50.99433
#
# Poissons Ratio (x) = 0.24304 0.56641
# Poissons Ratio (y) = 0.37196 0.49402
# Poissons Ratio (z) = 0.45633 0.26006
#
# Static dielectric constant tensor:
#      x y z
#    x 1.583380 0.000000 -0.026540 
#    y 0.000000 1.577480 0.000000 
#    z -0.026540 0.000000 1.593180 
# 
# From -- ./inp_files/45282.got.cif
#   From: 2010.05.17/outbox.cif.g08.bks.cpg/sg10_23_cif.got.tgz:45282.got - 2010.06.03 11:33:40.
