data_PCOD9143001
_publ_section_title
;
Structure prediction by ZEFSAII (Michael W. Deem and Ramdas Pophale) SiO2 
 PCOD9143001
Probable space group: P 2/M
;
_chemical_formula_sum "Si O2"
_cell_formula_units_Z 32
_cell_length_a 17.318255
_cell_length_b 7.548871
_cell_length_c 24.368807
_cell_angle_alpha 90.000000
_cell_angle_beta 151.140213
_cell_angle_gamma 90.000000
_cell_volume 1537.689849
_symmetry_space_group_name_H-M "P 2/M"
_symmetry_group_IT_number 10
_symmetry_cell_setting 'monoclinic'
loop_
_space_group_symop_operation_xyz
x,y,z
-x,y,-z
-x,-y,-z
x,-y,z
loop_
_atom_site_type_symbol
_atom_site_label
_atom_site_fract_x
_atom_site_fract_y
_atom_site_fract_z
Si Si1 0.982360 0.283313 0.400234
Si Si2 0.642380 0.212035 0.630646
Si Si3 0.403098 0.786202 0.570885
Si Si4 0.004081 0.701411 0.173156
Si Si5 0.908199 0.295349 0.996518
Si Si6 0.047555 0.707693 0.319248
Si Si7 0.543030 0.791890 0.768550
Si Si8 0.255050 0.712991 0.655626
O O1 0.988427 0.500000 0.402468
O O2 0.825795 0.231345 0.337460
O O3 0.990788 0.219136 0.342828
O O4 0.133617 0.225142 0.531678
O O5 0.500000 0.249077 0.500000
O O6 0.565289 0.263100 0.640418
O O7 0.805295 0.303683 0.716794
O O8 0.671720 0.000000 0.647968
O O9 0.240682 0.719973 0.442544
O O10 0.428392 0.724162 0.648423
O O11 0.390912 0.000000 0.560997
O O12 0.938933 0.500000 0.134591
O O13 0.984492 0.782615 0.221950
O O14 0.943354 0.786490 0.078537
O O15 0.964442 0.500000 0.035059
O O16 0.717015 0.291673 0.872446
O O17 0.000000 0.219618 0.000000
O O18 0.006161 0.500000 0.292669
O O19 0.436168 0.768132 0.756138
O O20 0.568719 0.000000 0.775494
O O21 0.250979 0.500000 0.652178
#
# Coordination Sequence:
#
# PCOD9143001 Si02
#       8
#     4   4   4   4   4   4   4   4
#     4   8  15  28  49  77 106 136 167 201 250 311
#     4  10  19  31  47  67  98 137 167 195 242 307
#     4  10  20  32  45  70 104 134 166 202 246 302
#     4  10  21  34  51  76  99 126 171 219 257 297
#     4  10  22  40  57  73  99 137 179 220 259 299
#     4  10  18  30  50  75 103 130 161 204 253 302
#     4  11  22  34  52  78 105 134 174 218 256 299
#     4   9  16  30  52  76 104 138 172 202 247 311
#
# _framework density 20.810438000000001
#
# number of rings (size 3 to 8) (size 9 to 14) (size 15 to 20)
#    0.000    2.250    2.500    1.875    0.000    2.000 
#    0.000    1.875    0.000    0.750    0.000    5.250 
#    0.000    0.000    0.000    0.000    0.000    0.000 
#
# Total GULP energy -178439.457238 kJ/mol
# GULP energy per Si atom -5576.233039 kJ/mol
# Density = 2.076307 g / cm^3
# Si number density = 20.810438 Si / 1000 Ang^3
#
#
#
# Elastic Constant Matrix: (Units=GPa)
#
#
# Indices 1 2 3 4 5 6 
#
# 1 162.8730 -0.2055 49.7379 0.0000 -17.5086 0.0000
# 2 -0.2055 48.6032 2.4377 0.0000 -6.0790 0.0000
# 3 49.7379 2.4377 68.3902 0.0000 -17.3744 0.0000
# 4 0.0000 0.0000 0.0000 2.2488 0.0000 17.6993
# 5 -17.5086 -6.0790 -17.3744 0.0000 39.2961 0.0000
# 6 0.0000 0.0000 0.0000 17.6993 0.0000 18.2048
#
#
#
# Elastic Compliance Matrix: (Units=1/GPa)
#
#
# Indices 1 2 3 4 5 6 
#
# 1 0.007945 0.000457 -0.005494 0.000000 0.001181 0.000000
# 2 0.000457 0.021007 -0.000230 0.000000 0.003352 0.000000
# 3 -0.005494 -0.000230 0.020272 0.000000 0.006480 0.000000
# 4 0.000000 0.000000 0.000000 -0.066849 0.000000 0.064993
# 5 0.001181 0.003352 0.006480 0.000000 0.029358 0.000000
# 6 0.000000 0.000000 0.000000 0.064993 0.000000 -0.008258
#
#
# Mechanical properties :
#
#
# Convention : Reuss Voigt Hill
#
# Bulk Modulus (GPa) = 25.84598 42.64518 34.24558
# Shear Modulus (GPa) = 185.82895 27.14302 106.48599
#
# Velocity S-wave (km/s) = 9.45991 3.61543 7.16105
# Velocity P-wave (km/s) = 11.47896 6.16158 9.21226
#
# Compressibility (1/GPa) = 0.03869073
#
# Stress axis : x y z
#
# Youngs Moduli (GPa) = 125.86197 47.60217 49.32864
#
# Poissons Ratio (x) = -0.02175 0.27103
# Poissons Ratio (y) = -0.05751 0.01132
# Poissons Ratio (z) = 0.69154 0.01093
#
# Static dielectric constant tensor:
#      x y z
#    x 1.817030 0.000000 -0.056000 
#    y 0.000000 1.783880 0.000000 
#    z -0.056000 0.000000 1.719830 
# 
# From -- ./inp_files/89952.got.cif
#   From: 2010.05.17/outbox.cif.g08.bks.cpg/sg10_45_cif.got.tgz:89952.got - 2010.06.03 11:33:40.
