data_PCOD9143507
_publ_section_title
;
Structure prediction by ZEFSAII (Michael W. Deem and Ramdas Pophale) SiO2 
 PCOD9143507
Probable space group: P 2/M
;
_chemical_formula_sum "Si O2"
_cell_formula_units_Z 30
_cell_length_a 5.285947
_cell_length_b 13.513298
_cell_length_c 25.263591
_cell_angle_alpha 90.000000
_cell_angle_beta 57.717120
_cell_angle_gamma 90.000000
_cell_volume 1525.641550
_symmetry_space_group_name_H-M "P 2/M"
_symmetry_group_IT_number 10
_symmetry_cell_setting 'monoclinic'
loop_
_space_group_symop_operation_xyz
x,y,z
-x,y,-z
-x,-y,-z
x,-y,z
loop_
_atom_site_type_symbol
_atom_site_label
_atom_site_fract_x
_atom_site_fract_y
_atom_site_fract_z
Si Si1 0.762641 0.205882 0.762072
Si Si2 0.571557 0.612988 0.726243
Si Si3 0.155540 0.120367 0.036546
Si Si4 0.364923 0.736444 0.659699
Si Si5 0.500000 0.232871 0.500000
Si Si6 0.700710 0.113778 0.569107
Si Si7 0.831158 0.612403 0.411321
Si Si8 0.117839 0.118123 0.820450
O O1 0.657785 0.320331 0.766801
O O2 0.469453 0.145447 0.776634
O O3 0.056437 0.201669 0.691673
O O4 0.893522 0.168036 0.803163
O O5 0.490393 0.500000 0.746570
O O6 0.341054 0.675310 0.716722
O O7 0.852496 0.612218 0.653919
O O8 0.982591 0.148510 0.109219
O O9 0.153682 0.000000 0.035649
O O10 0.500000 0.152041 0.000000
O O11 0.000000 0.154732 0.000000
O O12 0.639924 0.812705 0.624512
O O13 0.384470 0.655542 0.610789
O O14 0.468513 0.159307 0.552728
O O15 0.223882 0.310210 0.535271
O O16 0.000000 0.120904 0.500000
O O17 0.655929 0.000000 0.588016
O O18 0.766547 0.500000 0.433449
O O19 0.084681 0.000000 0.818413
#
# Coordination Sequence:
#
# PCOD9143507 Si02
#       8
#     4   4   4   4   2   4   4   4
#     4  11  22  39  56  86 119 155 203 242 289 355
#     4  10  20  37  58  79 110 146 187 243 309 356
#     4   9  17  31  53  83 118 161 204 235 275 328
#     4  10  20  36  55  77 110 145 188 247 293 362
#     4  10  18  32  50  68 102 128 172 228 286 354
#     4  10  21  35  51  72  99 140 189 236 288 345
#     4   9  18  30  51  77  99 132 172 228 302 366
#     4  11  22  37  58  86 128 168 197 239 282 331
#
# _framework density 19.663858999999999
#
# number of rings (size 3 to 8) (size 9 to 14) (size 15 to 20)
#    0.000    2.000    1.333    2.800    0.000    3.733 
#    0.000    0.000    0.000    6.400    0.000    0.000 
#    0.000   10.667    0.000    0.000    0.000    0.000 
#
# Total GULP energy -167071.566221 kJ/mol
# GULP energy per Si atom -5569.052207 kJ/mol
# Density = 1.961910 g / cm^3
# Si number density = 19.663859 Si / 1000 Ang^3
#
#
#
# Elastic Constant Matrix: (Units=GPa)
#
#
# Indices 1 2 3 4 5 6 
#
# 1 95.7926 33.9707 28.6174 0.0000 11.0406 0.0000
# 2 33.9707 108.7793 24.9807 0.0000 4.6784 0.0000
# 3 28.6174 24.9807 61.7139 0.0000 7.1073 0.0000
# 4 0.0000 0.0000 0.0000 5.2821 0.0000 5.2340
# 5 11.0406 4.6784 7.1073 0.0000 31.9930 0.0000
# 6 0.0000 0.0000 0.0000 5.2340 0.0000 20.4898
#
#
#
# Elastic Compliance Matrix: (Units=1/GPa)
#
#
# Indices 1 2 3 4 5 6 
#
# 1 0.013207 -0.002940 -0.004576 0.000000 -0.003111 0.000000
# 2 -0.002940 0.010800 -0.003021 0.000000 0.000106 0.000000
# 3 -0.004576 -0.003021 0.019823 0.000000 -0.002383 0.000000
# 4 0.000000 0.000000 0.000000 0.253479 0.000000 -0.064750
# 5 -0.003111 0.000106 -0.002383 0.000000 0.032844 0.000000
# 6 0.000000 0.000000 0.000000 -0.064750 0.000000 0.065345
#
#
# Mechanical properties :
#
#
# Convention : Reuss Voigt Hill
#
# Bulk Modulus (GPa) = 43.94219 49.04706 46.49462
# Shear Modulus (GPa) = 11.78806 23.46744 17.62775
#
# Velocity S-wave (km/s) = 2.45108 3.45835 2.99733
# Velocity P-wave (km/s) = 5.51413 6.39874 5.97283
#
# Compressibility (1/GPa) = 0.02275717
#
# Stress axis : x y z
#
# Youngs Moduli (GPa) = 75.71476 92.59139 50.44661
#
# Poissons Ratio (x) = 0.27221 0.23085
# Poissons Ratio (y) = 0.22259 0.15238
# Poissons Ratio (z) = 0.34648 0.27969
#
# Static dielectric constant tensor:
#      x y z
#    x 1.800540 0.000000 0.003460 
#    y 0.000000 1.692500 0.000000 
#    z 0.003460 0.000000 1.734810 
# 
# From -- ./inp_files/91602.got.cif
#   From: 2010.05.17/outbox.cif.g08.bks.cpg/sg10_46_cif.got.tgz:91602.got - 2010.06.03 11:33:40.
