data_PCOD9143315
_publ_section_title
;
Structure prediction by ZEFSAII (Michael W. Deem and Ramdas Pophale) SiO2 
 PCOD9143315
Probable space group: P 2/M
;
_chemical_formula_sum "Si O2"
_cell_formula_units_Z 20
_cell_length_a 13.957192
_cell_length_b 7.968949
_cell_length_c 23.217328
_cell_angle_alpha 90.000000
_cell_angle_beta 155.754628
_cell_angle_gamma 90.000000
_cell_volume 1060.420446
_symmetry_space_group_name_H-M "P 2/M"
_symmetry_group_IT_number 10
_symmetry_cell_setting 'monoclinic'
loop_
_space_group_symop_operation_xyz
x,y,z
-x,y,-z
-x,-y,-z
x,-y,z
loop_
_atom_site_type_symbol
_atom_site_label
_atom_site_fract_x
_atom_site_fract_y
_atom_site_fract_z
Si Si1 0.244301 0.803126 0.200421
Si Si2 0.129786 0.297891 0.785322
Si Si3 0.450864 0.294712 0.065469
Si Si4 0.405066 0.798317 0.509220
Si Si5 0.282089 0.304287 0.094707
O O1 0.431642 0.738526 0.349054
O O2 0.330058 0.783068 0.181783
O O3 0.199872 0.000000 0.186649
O O4 0.995558 0.712237 0.068564
O O5 0.135520 0.500000 0.788881
O O6 0.308309 0.242815 0.833007
O O7 0.865866 0.243444 0.632553
O O8 0.242985 0.241918 0.908195
O O9 0.447141 0.500000 0.064810
O O10 0.410200 0.236579 0.108155
O O11 0.500000 0.733890 0.500000
O O12 0.424347 0.000000 0.519205
O O13 0.339761 0.500000 0.133280
#
# Coordination Sequence:
#
# PCOD9143315 Si02
#       5
#     4   4   4   4   4
#     4  10  20  33  48  69  99 129 158 195 239 282
#     4   9  17  32  53  74  97 124 158 196 236 284
#     4   8  16  31  51  75  99 123 153 197 244 279
#     4  10  21  35  49  69  99 129 157 195 240 282
#     4  10  18  31  52  74  96 123 160 199 234 280
#
# _framework density 18.860443
#
# number of rings (size 3 to 8) (size 9 to 14) (size 15 to 20)
#    0.000    2.600    0.000    4.800    0.000    2.000 
#    0.000    6.000    0.000    6.000    0.000    0.000 
#    0.000    0.000    0.000    0.000    0.000    0.000 
#
# Total GULP energy -111571.534613 kJ/mol
# GULP energy per Si atom -5578.576731 kJ/mol
# Density = 1.881752 g / cm^3
# Si number density = 18.860443 Si / 1000 Ang^3
#
#
#
# Elastic Constant Matrix: (Units=GPa)
#
#
# Indices 1 2 3 4 5 6 
#
# 1 137.2375 -5.0885 65.1980 0.0000 -15.9027 0.0000
# 2 -5.0885 17.6405 -4.3452 0.0000 -3.3069 0.0000
# 3 65.1980 -4.3452 131.4443 0.0000 -14.4538 0.0000
# 4 0.0000 0.0000 0.0000 27.1896 0.0000 4.9536
# 5 -15.9027 -3.3069 -14.4538 0.0000 18.0123 0.0000
# 6 0.0000 0.0000 0.0000 4.9536 0.0000 25.3690
#
#
#
# Elastic Compliance Matrix: (Units=1/GPa)
#
#
# Indices 1 2 3 4 5 6 
#
# 1 0.010123 0.003012 -0.004253 0.000000 0.006077 0.000000
# 2 0.003012 0.061048 0.002247 0.000000 0.015670 0.000000
# 3 -0.004253 0.002247 0.010336 0.000000 0.004952 0.000000
# 4 0.000000 0.000000 0.000000 0.038135 0.000000 -0.007446
# 5 0.006077 0.015670 0.004952 0.000000 0.067733 0.000000
# 6 0.000000 0.000000 0.000000 -0.007446 0.000000 0.040872
#
#
# Mechanical properties :
#
#
# Convention : Reuss Voigt Hill
#
# Bulk Modulus (GPa) = 11.97339 44.20565 28.08952
# Shear Modulus (GPa) = 19.67911 29.48470 24.58190
#
# Velocity S-wave (km/s) = 3.23368 3.95816 3.61412
# Velocity P-wave (km/s) = 4.50605 6.66172 5.68696
#
# Compressibility (1/GPa) = 0.08351853
#
# Stress axis : x y z
#
# Youngs Moduli (GPa) = 98.78274 16.38063 96.74632
#
# Poissons Ratio (x) = -0.04933 0.41150
# Poissons Ratio (y) = -0.29750 -0.21742
# Poissons Ratio (z) = 0.42016 -0.03681
#
# Static dielectric constant tensor:
#      x y z
#    x 1.669110 0.000000 -0.014420 
#    y 0.000000 1.677400 0.000000 
#    z -0.014420 0.000000 1.621830 
# 
# From -- ./inp_files/44188.got.cif
#   From: 2010.05.17/outbox.cif.g08.bks.cpg/sg10_23_cif.got.tgz:44188.got - 2010.06.03 11:33:40.
