data_PCOD9143175
_publ_section_title
;
Structure prediction by ZEFSAII (Michael W. Deem and Ramdas Pophale) SiO2 
 PCOD9143175
Probable space group: P 2/M
;
_chemical_formula_sum "Si O2"
_cell_formula_units_Z 28
_cell_length_a 9.843565
_cell_length_b 7.459603
_cell_length_c 29.101057
_cell_angle_alpha 90.000000
_cell_angle_beta 39.942505
_cell_angle_gamma 90.000000
_cell_volume 1371.906417
_symmetry_space_group_name_H-M "P 2/M"
_symmetry_group_IT_number 10
_symmetry_cell_setting 'monoclinic'
loop_
_space_group_symop_operation_xyz
x,y,z
-x,y,-z
-x,-y,-z
x,-y,z
loop_
_atom_site_type_symbol
_atom_site_label
_atom_site_fract_x
_atom_site_fract_y
_atom_site_fract_z
Si Si1 0.184299 0.280854 0.551712
Si Si2 0.618641 0.718166 0.401102
Si Si3 0.329036 0.211056 0.202125
Si Si4 0.201959 0.208568 0.921708
Si Si5 0.061572 0.283972 0.759372
Si Si6 0.251743 0.281931 0.803871
Si Si7 0.272749 0.704287 0.319903
O O1 0.176414 0.500000 0.553542
O O2 0.262485 0.228996 0.582607
O O3 0.374037 0.225887 0.468768
O O4 0.946228 0.215687 0.604843
O O5 0.618335 0.500000 0.400699
O O6 0.751734 0.779764 0.322999
O O7 0.562904 0.283073 0.129812
O O8 0.250695 0.297606 0.270016
O O9 0.160214 0.233894 0.205844
O O10 0.348949 0.000000 0.207414
O O11 0.177877 0.220183 0.873001
O O12 0.212177 0.000000 0.933108
O O13 0.000000 0.288534 0.000000
O O14 0.070732 0.500000 0.757271
O O15 0.105882 0.224124 0.799584
O O16 0.257835 0.500000 0.804059
O O17 0.493823 0.218465 0.732499
O O18 0.282604 0.500000 0.334662
#
# Coordination Sequence:
#
# PCOD9143175 Si02
#       7
#     4   4   4   4   4   4   4
#     4   8  12  20  39  65  88 118 162 201 233 266
#     4   8  13  21  38  64  91 122 159 196 231 269
#     4  10  19  30  49  74  93 117 157 195 228 277
#     4   9  19  37  57  74  93 119 152 190 232 278
#     4  10  18  31  47  68 100 132 157 189 233 278
#     4   9  19  31  48  74 100 125 155 189 233 283
#     4   9  15  28  47  67  92 124 160 199 236 274
#
# _framework density 20.409557
#
# number of rings (size 3 to 8) (size 9 to 14) (size 15 to 20)
#    0.000    3.000    1.429    1.286    0.000    1.429 
#    0.000    1.429    0.000   10.286    0.000    0.000 
#    0.000    5.714    0.000    0.000    0.000    0.000 
#
# Total GULP energy -156112.739001 kJ/mol
# GULP energy per Si atom -5575.454964 kJ/mol
# Density = 2.036310 g / cm^3
# Si number density = 20.409557 Si / 1000 Ang^3
#
#
#
# Elastic Constant Matrix: (Units=GPa)
#
#
# Indices 1 2 3 4 5 6 
#
# 1 97.6191 -11.5147 44.0303 0.0000 -9.3751 0.0000
# 2 -11.5147 62.0797 -2.3516 0.0000 -2.5056 0.0000
# 3 44.0303 -2.3516 146.7061 0.0000 -17.7754 0.0000
# 4 0.0000 0.0000 0.0000 -182.3672 0.0000 -423.7623
# 5 -9.3751 -2.5056 -17.7754 0.0000 16.7655 0.0000
# 6 0.0000 0.0000 0.0000 -423.7623 0.0000 -935.1087
#
#
#
# Elastic Compliance Matrix: (Units=1/GPa)
#
#
# Indices 1 2 3 4 5 6 
#
# 1 0.012329 0.002321 -0.003196 0.000000 0.003852 0.000000
# 2 0.002321 0.016695 0.000035 0.000000 0.003830 0.000000
# 3 -0.003196 0.000035 0.008675 0.000000 0.007415 0.000000
# 4 0.000000 0.000000 0.000000 0.103426 0.000000 -0.046869
# 5 0.003852 0.003830 0.007415 0.000000 0.070235 0.000000
# 6 0.000000 0.000000 0.000000 -0.046869 0.000000 0.020170
#
#
# Mechanical properties :
#
#
# Convention : Reuss Voigt Hill
#
# Bulk Modulus (GPa) = 27.76336 40.74809 34.25573
# Shear Modulus (GPa) = 20.39016 -201.72603 -90.66793
#
# Velocity S-wave (km/s) = 3.16420 -9.95257 -6.67238
# Velocity P-wave (km/s) = 5.19444 10.58598 6.52229
#
# Compressibility (1/GPa) = 0.03601869
#
# Stress axis : x y z
#
# Youngs Moduli (GPa) = 81.10705 59.89887 115.27843
#
# Poissons Ratio (x) = -0.13904 0.36847
# Poissons Ratio (y) = -0.18827 -0.00403
# Poissons Ratio (z) = 0.25925 -0.00210
#
# Static dielectric constant tensor:
#      x y z
#    x 1.699420 0.000000 -0.033500 
#    y 0.000000 1.817240 0.000000 
#    z -0.033500 0.000000 1.740470 
# 
# From -- ./inp_files/37948.got.cif
#   From: 2010.05.17/outbox.cif.g08.bks.cpg/sg10_19_cif.got.tgz:37948.got - 2010.06.03 11:33:40.
