data_PCOD9143794
_publ_section_title
;
Structure prediction by ZEFSAII (Michael W. Deem and Ramdas Pophale) SiO2 
 PCOD9143794
Probable space group: P 2/M
;
_chemical_formula_sum "Si O2"
_cell_formula_units_Z 24
_cell_length_a 25.738673
_cell_length_b 10.071114
_cell_length_c 12.572468
_cell_angle_alpha 90.000000
_cell_angle_beta 158.992546
_cell_angle_gamma 90.000000
_cell_volume 1168.316539
_symmetry_space_group_name_H-M "P 2/M"
_symmetry_group_IT_number 10
_symmetry_cell_setting 'monoclinic'
loop_
_space_group_symop_operation_xyz
x,y,z
-x,y,-z
-x,-y,-z
x,-y,z
loop_
_atom_site_type_symbol
_atom_site_label
_atom_site_fract_x
_atom_site_fract_y
_atom_site_fract_z
Si Si1 0.828263 0.853587 0.589872
Si Si2 0.615897 0.769963 0.010827
Si Si3 0.895508 0.844465 0.155027
Si Si4 0.352730 0.846033 0.169414
Si Si5 0.097292 0.648764 0.427138
Si Si6 0.692493 0.151775 0.559350
O O1 0.919363 0.733250 0.713995
O O2 0.782310 0.833685 0.622861
O O3 0.896577 0.000000 0.706205
O O4 0.684474 0.850256 0.240778
O O5 0.636617 0.838432 0.936359
O O6 0.445901 0.752178 0.702611
O O7 0.728978 0.648500 0.223245
O O8 0.024433 0.744171 0.375024
O O9 0.942568 0.000000 0.257302
O O10 0.796638 0.797215 0.064436
O O11 0.790418 0.836908 0.850990
O O12 0.500000 0.784979 0.500000
O O13 0.351777 0.000000 0.202093
O O14 0.039703 0.500000 0.314416
O O15 0.633781 0.000000 0.447372
#
# Coordination Sequence:
#
# PCOD9143794 Si02
#       6
#     4   4   4   4   4   4
#     4   9  19  34  60  88 114 147 190 236 287 337
#     4  10  20  34  59  85 119 146 187 230 287 337
#     4  10  21  36  60  89 117 149 189 232 287 342
#     4  10  18  32  58  92 120 142 177 237 293 338
#     4  10  24  42  56  79 119 158 196 235 281 335
#     4  10  18  33  59  93 119 143 184 241 289 338
#
# _framework density 20.542379
#
# number of rings (size 3 to 8) (size 9 to 14) (size 15 to 20)
#    1.000    1.167    1.667    2.500    0.000    2.667 
#    0.000   10.000    0.000    1.000    0.000    0.000 
#    0.000    0.000    0.000    0.000    0.000    0.000 
#
# Total GULP energy -133698.838482 kJ/mol
# GULP energy per Si atom -5570.784937 kJ/mol
# Density = 2.049562 g / cm^3
# Si number density = 20.542379 Si / 1000 Ang^3
#
#
#
# Elastic Constant Matrix: (Units=GPa)
#
#
# Indices 1 2 3 4 5 6 
#
# 1 107.3189 29.5850 15.4693 0.0000 -3.6700 0.0000
# 2 29.5850 92.2263 25.2349 0.0000 19.9421 0.0000
# 3 15.4693 25.2349 71.7851 0.0000 -7.2945 0.0000
# 4 0.0000 0.0000 0.0000 -10.9380 0.0000 -3.9238
# 5 -3.6700 19.9421 -7.2945 0.0000 34.9874 0.0000
# 6 0.0000 0.0000 0.0000 -3.9238 0.0000 -7.5739
#
#
#
# Elastic Compliance Matrix: (Units=1/GPa)
#
#
# Indices 1 2 3 4 5 6 
#
# 1 0.010598 -0.003946 -0.000567 0.000000 0.003242 0.000000
# 2 -0.003946 0.016054 -0.005890 0.000000 -0.010792 0.000000
# 3 -0.000567 -0.005890 0.016815 0.000000 0.006803 0.000000
# 4 0.000000 0.000000 0.000000 -0.112293 0.000000 0.058175
# 5 0.003242 -0.010792 0.006803 0.000000 0.036492 0.000000
# 6 0.000000 0.000000 0.000000 0.058175 0.000000 -0.162170
#
#
# Mechanical properties :
#
#
# Convention : Reuss Voigt Hill
#
# Bulk Modulus (GPa) = 44.12880 45.76761 44.94821
# Shear Modulus (GPa) = -30.09415 16.69784 -6.69815
#
# Velocity S-wave (km/s) = -3.83166 2.85414 -1.80769
# Velocity P-wave (km/s) = 1.39750 5.76103 4.19181
#
# Compressibility (1/GPa) = 0.02266094
#
# Stress axis : x y z
#
# Youngs Moduli (GPa) = 94.35379 62.29050 59.47235
#
# Poissons Ratio (x) = 0.24578 0.03374
# Poissons Ratio (y) = 0.37229 0.35028
# Poissons Ratio (z) = 0.05353 0.36688
#
# Static dielectric constant tensor:
#      x y z
#    x 1.729410 0.000000 0.026420 
#    y 0.000000 1.691660 0.000000 
#    z 0.026420 0.000000 1.807510 
# 
# From -- ./inp_files/56685.got.cif
#   From: 2010.05.17/outbox.cif.g08.bks.cpg/sg10_29_cif.got.tgz:56685.got - 2010.06.03 11:33:40.
