data_PCOD9143069
_publ_section_title
;
Structure prediction by ZEFSAII (Michael W. Deem and Ramdas Pophale) SiO2 
 PCOD9143069
Probable space group: P 2/M
;
_chemical_formula_sum "Si O2"
_cell_formula_units_Z 32
_cell_length_a 14.542259
_cell_length_b 7.507632
_cell_length_c 14.615831
_cell_angle_alpha 90.000000
_cell_angle_beta 61.673802
_cell_angle_gamma 90.000000
_cell_volume 1404.654689
_symmetry_space_group_name_H-M "P 2/M"
_symmetry_group_IT_number 10
_symmetry_cell_setting 'monoclinic'
loop_
_space_group_symop_operation_xyz
x,y,z
-x,y,-z
-x,-y,-z
x,-y,z
loop_
_atom_site_type_symbol
_atom_site_label
_atom_site_fract_x
_atom_site_fract_y
_atom_site_fract_z
Si Si1 0.838300 0.712814 0.821188
Si Si2 0.699356 0.715445 0.551143
Si Si3 0.902589 0.214255 0.986271
Si Si4 0.609371 0.790097 0.408349
Si Si5 0.470554 0.709158 0.235181
Si Si6 0.888550 0.717878 0.592580
Si Si7 0.388097 0.289304 0.079407
Si Si8 0.309850 0.206481 0.823183
O O1 0.826741 0.500000 0.816745
O O2 0.873385 0.777824 0.704786
O O3 0.722319 0.785223 0.899603
O O4 0.909665 0.744259 0.875298
O O5 0.697637 0.500000 0.556019
O O6 0.694669 0.769048 0.448102
O O7 0.591831 0.782229 0.648737
O O8 0.796276 0.774831 0.567371
O O9 0.792424 0.283213 0.079814
O O10 0.901601 0.000000 0.992582
O O11 0.000000 0.279494 0.000000
O O12 0.500000 0.713725 0.500000
O O13 0.652387 0.715219 0.292227
O O14 0.590982 0.000000 0.401544
O O15 0.488983 0.500000 0.238949
O O16 0.392164 0.723946 0.187283
O O17 0.585026 0.786599 0.165754
O O18 0.886514 0.500000 0.594394
O O19 0.000000 0.772634 0.500000
O O20 0.391435 0.500000 0.050902
O O21 0.500000 0.211355 0.000000
O O22 0.284823 0.000000 0.817363
#
# Coordination Sequence:
#
# PCOD9143069 Si02
#       8
#     4   4   4   4   4   4   4   4
#     4  10  19  35  59  84 108 139 181 222 261 314
#     4  10  19  32  52  79 109 142 178 217 264 316
#     4  10  23  42  59  76 105 144 182 224 271 316
#     4  10  20  34  52  75 106 145 182 219 269 324
#     4  10  18  30  51  79 109 138 173 218 266 317
#     4   9  18  34  56  83 115 146 175 215 269 321
#     4   9  16  27  47  76 107 137 169 210 261 311
#     4  10  21  37  55  76 105 143 183 221 270 325
#
# _framework density 22.781399
#
# number of rings (size 3 to 8) (size 9 to 14) (size 15 to 20)
#    0.000    2.250    2.500    0.750    0.000    3.500 
#    0.000    1.250    0.000    3.000    0.000    0.000 
#    0.000    0.000    0.000    0.000    0.000    0.000 
#
# Total GULP energy -178648.863135 kJ/mol
# GULP energy per Si atom -5582.776973 kJ/mol
# Density = 2.272955 g / cm^3
# Si number density = 22.781399 Si / 1000 Ang^3
#
#
#
# Elastic Constant Matrix: (Units=GPa)
#
#
# Indices 1 2 3 4 5 6 
#
# 1 151.4296 -3.3557 62.4444 0.0000 6.1023 0.0000
# 2 -3.3557 58.8266 4.8090 0.0000 0.4328 0.0000
# 3 62.4444 4.8090 97.3115 0.0000 2.0382 0.0000
# 4 0.0000 0.0000 0.0000 8.8060 0.0000 9.5916
# 5 6.1023 0.4328 2.0382 0.0000 32.0549 0.0000
# 6 0.0000 0.0000 0.0000 9.5916 0.0000 20.8424
#
#
#
# Elastic Compliance Matrix: (Units=1/GPa)
#
#
# Indices 1 2 3 4 5 6 
#
# 1 0.009097 0.001008 -0.005859 0.000000 -0.001373 0.000000
# 2 0.001008 0.017181 -0.001489 0.000000 -0.000329 0.000000
# 3 -0.005859 -0.001489 0.014104 0.000000 0.000239 0.000000
# 4 0.000000 0.000000 0.000000 0.227690 0.000000 -0.104782
# 5 -0.001373 -0.000329 0.000239 0.000000 0.031447 0.000000
# 6 0.000000 0.000000 0.000000 -0.104782 0.000000 0.096199
#
#
# Mechanical properties :
#
#
# Convention : Reuss Voigt Hill
#
# Bulk Modulus (GPa) = 36.09718 48.37367 42.23542
# Shear Modulus (GPa) = 11.97224 28.58531 20.27878
#
# Velocity S-wave (km/s) = 2.29492 3.54611 2.98677
# Velocity P-wave (km/s) = 4.78557 6.16818 5.52033
#
# Compressibility (1/GPa) = 0.02770300
#
# Stress axis : x y z
#
# Youngs Moduli (GPa) = 109.92195 58.20465 70.89967
#
# Poissons Ratio (x) = -0.05867 0.41539
# Poissons Ratio (y) = -0.11080 0.10557
# Poissons Ratio (z) = 0.64401 0.08667
#
# Static dielectric constant tensor:
#      x y z
#    x 1.838910 0.000000 0.000440 
#    y 0.000000 1.867060 0.000000 
#    z 0.000440 0.000000 1.875390 
# 
# From -- ./inp_files/66518.got.cif
#   From: 2010.05.17/outbox.cif.g08.bks.cpg/sg10_34_cif.got.tgz:66518.got - 2010.06.03 11:33:40.
