data_PCOD9143218
_publ_section_title
;
Structure prediction by ZEFSAII (Michael W. Deem and Ramdas Pophale) SiO2 
 PCOD9143218
Probable space group: P 2/M
;
_chemical_formula_sum "Si O2"
_cell_formula_units_Z 28
_cell_length_a 19.347702
_cell_length_b 7.588371
_cell_length_c 17.474421
_cell_angle_alpha 90.000000
_cell_angle_beta 35.513323
_cell_angle_gamma 90.000000
_cell_volume 1490.308985
_symmetry_space_group_name_H-M "P 2/M"
_symmetry_group_IT_number 10
_symmetry_cell_setting 'monoclinic'
loop_
_space_group_symop_operation_xyz
x,y,z
-x,y,-z
-x,-y,-z
x,-y,z
loop_
_atom_site_type_symbol
_atom_site_label
_atom_site_fract_x
_atom_site_fract_y
_atom_site_fract_z
Si Si1 0.750309 0.784157 0.513939
Si Si2 0.322879 0.700906 0.703800
Si Si3 0.079583 0.794077 0.996632
Si Si4 0.984546 0.215928 0.778099
Si Si5 0.097727 0.211986 0.306071
Si Si6 0.825211 0.211991 0.606470
Si Si7 0.569696 0.796767 0.550724
O O1 0.878799 0.734292 0.363081
O O2 0.746603 0.724908 0.605883
O O3 0.644399 0.724167 0.554466
O O4 0.748368 0.000000 0.515223
O O5 0.291675 0.500000 0.715332
O O6 0.215740 0.781846 0.848034
O O7 0.446414 0.706916 0.639014
O O8 0.348521 0.790374 0.599111
O O9 0.045643 0.000000 0.033040
O O10 0.000000 0.716244 0.000000
O O11 0.055568 0.720569 0.102636
O O12 0.901775 0.276083 0.781683
O O13 0.981334 0.000000 0.779544
O O14 0.179558 0.280090 0.302004
O O15 0.961207 0.240634 0.456022
O O16 0.114741 0.000000 0.288493
O O17 0.809129 0.000000 0.624704
O O18 0.540227 0.000000 0.592947
#
# Coordination Sequence:
#
# PCOD9143218 Si02
#       7
#     4   4   4   4   4   4   4
#     4   8  13  21  37  62  87 110 137 170 206 248
#     4  11  22  34  46  62  86 113 142 177 217 257
#     4  10  19  31  47  65  86 114 147 180 211 248
#     4   8  13  21  35  58  86 114 143 170 202 247
#     4   7   9  14  26  47  80 116 138 157 194 248
#     4   7   9  14  26  49  82 113 135 157 197 249
#     4  10  18  31  50  67  84 109 143 179 214 253
#
# _framework density 18.788050999999999
#
# number of rings (size 3 to 8) (size 9 to 14) (size 15 to 20)
#    0.000    3.286    0.000    6.000    0.000    2.571 
#    0.000    0.000    0.000    0.000    0.000    1.000 
#    0.000   10.286    0.000   20.571    0.000   16.571 
#
# Total GULP energy -155876.725167 kJ/mol
# GULP energy per Si atom -5567.025899 kJ/mol
# Density = 1.874529 g / cm^3
# Si number density = 18.788051 Si / 1000 Ang^3
#
#
#
# Elastic Constant Matrix: (Units=GPa)
#
#
# Indices 1 2 3 4 5 6 
#
# 1 197.7852 3.1750 54.7155 0.0000 31.4188 0.0000
# 2 3.1750 38.7848 -4.9128 0.0000 4.2521 0.0000
# 3 54.7155 -4.9128 53.2233 0.0000 21.4648 0.0000
# 4 0.0000 0.0000 0.0000 46.1560 0.0000 -42.4674
# 5 31.4188 4.2521 21.4648 0.0000 22.6821 0.0000
# 6 0.0000 0.0000 0.0000 -42.4674 0.0000 0.4909
#
#
#
# Elastic Compliance Matrix: (Units=1/GPa)
#
#
# Indices 1 2 3 4 5 6 
#
# 1 0.007417 -0.000849 -0.005860 0.000000 -0.004568 0.000000
# 2 -0.000849 0.028218 0.008307 0.000000 -0.011975 0.000000
# 3 -0.005860 0.008307 0.037090 0.000000 -0.028539 0.000000
# 4 0.000000 0.000000 0.000000 -0.000276 0.000000 -0.023847
# 5 -0.004568 -0.011975 -0.028539 0.000000 0.079668 0.000000
# 6 0.000000 0.000000 0.000000 -0.023847 0.000000 -0.025918
#
#
# Mechanical properties :
#
#
# Convention : Reuss Voigt Hill
#
# Bulk Modulus (GPa) = 13.17189 43.97208 28.57199
# Shear Modulus (GPa) = 33.71336 29.65350 31.68343
#
# Velocity S-wave (km/s) = 4.24064 3.97711 4.11099
# Velocity P-wave (km/s) = 5.56806 6.67420 6.14607
#
# Compressibility (1/GPa) = 0.07591925
#
# Stress axis : x y z
#
# Youngs Moduli (GPa) = 134.83400 35.43866 26.96150
#
# Poissons Ratio (x) = 0.03007 0.15801
# Poissons Ratio (y) = 0.11443 -0.22396
# Poissons Ratio (z) = 0.79019 -0.29437
#
# Static dielectric constant tensor:
#      x y z
#    x 1.719040 0.000000 0.033530 
#    y 0.000000 1.680140 0.000000 
#    z 0.033530 0.000000 1.609260 
# 
# From -- ./inp_files/79242.got.cif
#   From: 2010.05.17/outbox.cif.g08.bks.cpg/sg10_40_cif.got.tgz:79242.got - 2010.06.03 11:33:40.
