data_PCOD9143414
_publ_section_title
;
Structure prediction by ZEFSAII (Michael W. Deem and Ramdas Pophale) SiO2 
 PCOD9143414
Probable space group: P 2/M
;
_chemical_formula_sum "Si O2"
_cell_formula_units_Z 17
_cell_length_a 7.483748
_cell_length_b 21.169203
_cell_length_c 5.399700
_cell_angle_alpha 90.000000
_cell_angle_beta 58.581566
_cell_angle_gamma 90.000000
_cell_volume 730.024349
_symmetry_space_group_name_H-M "P 2/M"
_symmetry_group_IT_number 10
_symmetry_cell_setting 'monoclinic'
loop_
_space_group_symop_operation_xyz
x,y,z
-x,y,-z
-x,-y,-z
x,-y,z
loop_
_atom_site_type_symbol
_atom_site_label
_atom_site_fract_x
_atom_site_fract_y
_atom_site_fract_z
Si Si1 0.359354 0.398321 0.850478
Si Si2 0.741432 0.072784 0.466094
Si Si3 0.635987 0.253791 0.152678
Si Si4 0.000000 0.500000 0.000000
Si Si5 0.785186 0.122518 0.935736
O O1 0.500000 0.409198 0.500000
O O2 0.282777 0.325496 0.894174
O O3 0.500000 0.406500 0.000000
O O4 0.165253 0.445320 0.980353
O O5 0.688158 0.117437 0.733975
O O6 0.989445 0.089785 0.253424
O O7 0.718299 0.000000 0.553199
O O8 0.667056 0.085156 0.239513
O O9 0.500000 0.243466 0.500000
O O10 0.500000 0.252350 0.000000
O O11 0.792566 0.195320 0.011067
#
# Coordination Sequence:
#
# PCOD9143414 Si02
#       5
#     4   4   4   1   4
#     4  10  24  44  66  98 140 175 215 273 324 378
#     4  10  19  32  53  78 109 142 181 256 323 361
#     4  10  21  39  58  80 117 161 199 251 315 367
#     4  12  24  42  76 104 132 182 226 254 320 400
#     4  10  18  31  54  77 101 143 194 233 293 376
#
# _framework density 23.286897
#
# number of rings (size 3 to 8) (size 9 to 14) (size 15 to 20)
#    0.000    1.882    0.000    5.647    0.000    3.765 
#    0.000    4.706    0.000   24.000    0.000    0.000 
#    0.000    0.000    0.000    0.000    0.000    0.000 
#
# Total GULP energy -94723.382348 kJ/mol
# GULP energy per Si atom -5571.963668 kJ/mol
# Density = 2.323390 g / cm^3
# Si number density = 23.286897 Si / 1000 Ang^3
#
#
#
# Elastic Constant Matrix: (Units=GPa)
#
#
# Indices 1 2 3 4 5 6 
#
# 1 111.9656 51.4683 35.0729 0.0000 27.7282 0.0000
# 2 51.4683 211.7589 36.1528 0.0000 4.1015 0.0000
# 3 35.0729 36.1528 144.8876 0.0000 45.2509 0.0000
# 4 0.0000 0.0000 0.0000 -150.1549 0.0000 -90.0900
# 5 27.7282 4.1015 45.2509 0.0000 35.6487 0.0000
# 6 0.0000 0.0000 0.0000 -90.0900 0.0000 -21.8831
#
#
#
# Elastic Compliance Matrix: (Units=1/GPa)
#
#
# Indices 1 2 3 4 5 6 
#
# 1 0.012700 -0.003063 0.001102 0.000000 -0.010924 0.000000
# 2 -0.003063 0.005730 -0.002032 0.000000 0.004303 0.000000
# 3 0.001102 -0.002032 0.012156 0.000000 -0.016054 0.000000
# 4 0.000000 0.000000 0.000000 0.004530 0.000000 -0.018651
# 5 -0.010924 0.004303 -0.016054 0.000000 0.056432 0.000000
# 6 0.000000 0.000000 0.000000 -0.018651 0.000000 0.031086
#
#
# Mechanical properties :
#
#
# Convention : Reuss Voigt Hill
#
# Bulk Modulus (GPa) = 44.24906 79.33334 61.79120
# Shear Modulus (GPa) = 36.19150 -4.21665 15.98743
#
# Velocity S-wave (km/s) = 3.94656 -1.34710 2.62304
# Velocity P-wave (km/s) = 6.30952 5.63225 5.98048
#
# Compressibility (1/GPa) = 0.02259935
#
# Stress axis : x y z
#
# Youngs Moduli (GPa) = 78.74244 174.50526 82.26302
#
# Poissons Ratio (x) = 0.53455 -0.09066
# Poissons Ratio (y) = 0.24120 0.16718
# Poissons Ratio (z) = -0.08678 0.35464
#
# Static dielectric constant tensor:
#      x y z
#    x 1.535370 0.000000 0.023560 
#    y 0.000000 1.708210 0.000000 
#    z 0.023560 0.000000 1.914220 
# 
# From -- ./inp_files/4580.got.cif
#   From: 2010.05.17/outbox.cif.g08.bks.cpg/sg10_3_cif.got.tgz:4580.got - 2010.06.03 11:33:40.
