data_PCOD9143872
_publ_section_title
;
Structure prediction by ZEFSAII (Michael W. Deem and Ramdas Pophale) SiO2 
 PCOD9143872
Probable space group: P 2/M
;
_chemical_formula_sum "Si O2"
_cell_formula_units_Z 20
_cell_length_a 14.005434
_cell_length_b 7.928178
_cell_length_c 7.596761
_cell_angle_alpha 90.000000
_cell_angle_beta 77.143928
_cell_angle_gamma 90.000000
_cell_volume 822.380462
_symmetry_space_group_name_H-M "P 2/M"
_symmetry_group_IT_number 10
_symmetry_cell_setting 'monoclinic'
loop_
_space_group_symop_operation_xyz
x,y,z
-x,y,-z
-x,-y,-z
x,-y,z
loop_
_atom_site_type_symbol
_atom_site_label
_atom_site_fract_x
_atom_site_fract_y
_atom_site_fract_z
Si Si1 0.732024 0.702925 0.256274
Si Si2 0.341601 0.703709 0.073449
Si Si3 0.062681 0.810970 0.725148
Si Si4 0.582310 0.293983 0.602278
Si Si5 0.130241 0.692357 0.325221
O O1 0.731433 0.500000 0.248442
O O2 0.843959 0.758823 0.198964
O O3 0.683297 0.749794 0.461659
O O4 0.663755 0.765706 0.124172
O O5 0.356401 0.500000 0.058083
O O6 0.413748 0.765679 0.197702
O O7 0.231609 0.734927 0.190798
O O8 0.103193 0.799269 0.507707
O O9 0.963570 0.703539 0.764470
O O10 0.033778 0.000000 0.778860
O O11 0.500000 0.235863 0.500000
O O12 0.575094 0.500000 0.612263
O O13 0.139559 0.500000 0.386529
#
# Coordination Sequence:
#
# PCOD9143872 Si02
#       5
#     4   4   4   4   4
#     4  10  19  34  55  78 109 143 177 217 262 316
#     4   9  18  31  52  82 108 138 178 215 263 320
#     4  11  21  33  51  79 110 142 183 220 261 312
#     4   9  17  31  53  82 111 135 169 222 274 314
#     4  10  18  33  55  78 108 144 181 217 261 315
#
# _framework density 24.319645000000001
#
# number of rings (size 3 to 8) (size 9 to 14) (size 15 to 20)
#    0.000    2.200    2.000    3.600    0.000    1.600 
#    0.000   10.000    0.000    0.600    0.000    1.400 
#    0.000    0.000    0.000    0.000    0.000    0.000 
#
# Total GULP energy -111720.752634 kJ/mol
# GULP energy per Si atom -5586.037632 kJ/mol
# Density = 2.426429 g / cm^3
# Si number density = 24.319645 Si / 1000 Ang^3
#
#
#
# Elastic Constant Matrix: (Units=GPa)
#
#
# Indices 1 2 3 4 5 6 
#
# 1 90.5512 -1.6555 15.8921 0.0000 42.2651 0.0000
# 2 -1.6555 25.5739 6.0287 0.0000 -7.4004 0.0000
# 3 15.8921 6.0287 120.5371 0.0000 37.0836 0.0000
# 4 0.0000 0.0000 0.0000 495.3690 0.0000 -432.8096
# 5 42.2651 -7.4004 37.0836 0.0000 44.8552 0.0000
# 6 0.0000 0.0000 0.0000 -432.8096 0.0000 354.8957
#
#
#
# Elastic Compliance Matrix: (Units=1/GPa)
#
#
# Indices 1 2 3 4 5 6 
#
# 1 0.022755 -0.007907 0.005892 0.000000 -0.027617 0.000000
# 2 -0.007907 0.046779 -0.007998 0.000000 0.021781 0.000000
# 3 0.005892 -0.007998 0.013456 0.000000 -0.017995 0.000000
# 4 0.000000 0.000000 0.000000 -0.030807 0.000000 -0.037571
# 5 -0.027617 0.021781 -0.017995 0.000000 0.066787 0.000000
# 6 0.000000 0.000000 0.000000 -0.037571 0.000000 -0.043001
#
#
# Mechanical properties :
#
#
# Convention : Reuss Voigt Hill
#
# Bulk Modulus (GPa) = 15.88255 30.79919 23.34087
# Shear Modulus (GPa) = 42.74142 193.45043 118.09593
#
# Velocity S-wave (km/s) = 4.19679 8.92847 6.97605
# Velocity P-wave (km/s) = 5.47987 10.90789 8.63165
#
# Compressibility (1/GPa) = 0.06296218
#
# Stress axis : x y z
#
# Youngs Moduli (GPa) = 43.94634 21.37722 74.31741
#
# Poissons Ratio (x) = 0.16904 -0.43786
# Poissons Ratio (y) = 0.34750 0.59439
# Poissons Ratio (z) = -0.25892 0.17098
#
# Static dielectric constant tensor:
#      x y z
#    x 1.982690 0.000000 0.022540 
#    y 0.000000 1.869610 0.000000 
#    z 0.022540 0.000000 1.978450 
# 
# From -- ./inp_files/26854.got.cif
#   From: 2010.05.17/outbox.cif.g08.bks.cpg/sg10_14_cif.got.tgz:26854.got - 2010.06.03 11:33:40.
