data_PCOD9143385
_publ_section_title
;
Structure prediction by ZEFSAII (Michael W. Deem and Ramdas Pophale) SiO2 
 PCOD9143385
Probable space group: P 2/M
;
_chemical_formula_sum "Si O2"
_cell_formula_units_Z 32
_cell_length_a 12.269173
_cell_length_b 15.203116
_cell_length_c 18.553978
_cell_angle_alpha 90.000000
_cell_angle_beta 21.684493
_cell_angle_gamma 90.000000
_cell_volume 1278.774085
_symmetry_space_group_name_H-M "P 2/M"
_symmetry_group_IT_number 10
_symmetry_cell_setting 'monoclinic'
loop_
_space_group_symop_operation_xyz
x,y,z
-x,y,-z
-x,-y,-z
x,-y,z
loop_
_atom_site_type_symbol
_atom_site_label
_atom_site_fract_x
_atom_site_fract_y
_atom_site_fract_z
Si Si1 0.887872 0.267992 0.819092
Si Si2 0.651008 0.600105 0.153989
Si Si3 0.372167 0.599543 0.176670
Si Si4 0.168082 0.788361 0.992713
Si Si5 0.385185 0.101726 0.650953
Si Si6 0.834705 0.099773 0.765838
Si Si7 0.769437 0.599269 0.457769
Si Si8 0.691159 0.098162 0.613884
O O1 0.858417 0.205683 0.905267
O O2 0.896897 0.201460 0.748454
O O3 0.177291 0.328698 0.635773
O O4 0.615899 0.334240 0.996977
O O5 0.774220 0.500000 0.071456
O O6 0.396831 0.606459 0.248187
O O7 0.509159 0.609412 0.319591
O O8 0.848111 0.685301 0.017385
O O9 0.468262 0.500000 0.100790
O O10 0.054282 0.610649 0.335938
O O11 0.878710 0.842925 0.150847
O O12 0.479248 0.829337 0.777780
O O13 0.500000 0.128957 0.500000
O O14 0.628352 0.105020 0.564945
O O15 0.290165 0.000000 0.701233
O O16 0.952225 0.101365 0.610015
O O17 0.926567 0.000000 0.735069
O O18 0.500000 0.097650 0.000000
O O19 0.775293 0.500000 0.425624
O O20 0.595318 0.000000 0.695207
#
# Coordination Sequence:
#
# PCOD9143385 Si02
#       8
#     4   4   4   4   4   4   4   4
#     4  11  21  31  48  77 114 153 191 233 281 337
#     4   9  19  33  50  77 113 152 192 237 289 346
#     4   9  17  30  49  75 107 146 195 248 295 335
#     4  11  22  35  56  85 118 153 190 238 292 344
#     4  10  21  39  65  93 115 139 183 247 307 347
#     4  10  21  37  56  80 115 157 193 226 272 337
#     4  10  18  31  53  78 108 150 200 249 294 338
#     4  10  21  39  63  88 114 146 188 239 291 343
#
# _framework density 25.023966999999999
#
# number of rings (size 3 to 8) (size 9 to 14) (size 15 to 20)
#    0.000    2.000    0.000    4.125    0.000    6.000 
#    0.000    1.875    0.000    4.125    0.000    0.000 
#    0.000    0.000    0.000    0.000    0.000    0.000 
#
# Total GULP energy -178448.881149 kJ/mol
# GULP energy per Si atom -5576.527536 kJ/mol
# Density = 2.496701 g / cm^3
# Si number density = 25.023967 Si / 1000 Ang^3
#
#
#
# Elastic Constant Matrix: (Units=GPa)
#
#
# Indices 1 2 3 4 5 6 
#
# 1 21.8597 -15.9169 -8.8532 0.0000 9.4946 0.0000
# 2 -15.9169 165.8941 65.8419 0.0000 0.3137 0.0000
# 3 -8.8532 65.8419 104.1266 0.0000 17.1328 0.0000
# 4 0.0000 0.0000 0.0000 68.4791 0.0000 22.8024
# 5 9.4946 0.3137 17.1328 0.0000 38.1309 0.0000
# 6 0.0000 0.0000 0.0000 22.8024 0.0000 7.9485
#
#
#
# Elastic Compliance Matrix: (Units=1/GPa)
#
#
# Indices 1 2 3 4 5 6 
#
# 1 0.057805 0.003367 0.005570 0.000000 -0.016924 0.000000
# 2 0.003367 0.008452 -0.005301 0.000000 0.001474 0.000000
# 3 0.005570 -0.005301 0.014740 0.000000 -0.007966 0.000000
# 4 0.000000 0.000000 0.000000 0.326346 0.000000 -0.936212
# 5 -0.016924 0.001474 -0.007966 0.000000 0.034007 0.000000
# 6 0.000000 0.000000 0.000000 -0.936212 0.000000 2.811586
#
#
# Mechanical properties :
#
#
# Convention : Reuss Voigt Hill
#
# Bulk Modulus (GPa) = 11.32880 41.55822 26.44351
# Shear Modulus (GPa) = 1.52668 39.63226 20.57947
#
# Velocity S-wave (km/s) = 0.78193 3.98398 2.87085
# Velocity P-wave (km/s) = 2.31349 6.14868 4.64534
#
# Compressibility (1/GPa) = 0.08827060
#
# Stress axis : x y z
#
# Youngs Moduli (GPa) = 17.29956 118.31528 67.84395
#
# Poissons Ratio (x) = -0.39842 -0.37790
# Poissons Ratio (y) = -0.05825 0.35961
# Poissons Ratio (z) = -0.09636 0.62714
#
# Static dielectric constant tensor:
#      x y z
#    x 2.238960 0.000000 -0.109160 
#    y 0.000000 1.959440 0.000000 
#    z -0.109160 0.000000 2.155660 
# 
# From -- ./inp_files/85398.got.cif
#   From: 2010.05.17/outbox.cif.g08.bks.cpg/sg10_43_cif.got.tgz:85398.got - 2010.06.03 11:33:40.
