data_PCOD9143922
_publ_section_title
;
Structure prediction by ZEFSAII (Michael W. Deem and Ramdas Pophale) SiO2 
 PCOD9143922
Probable space group: P 2/M
;
_chemical_formula_sum "Si O2"
_cell_formula_units_Z 28
_cell_length_a 15.487298
_cell_length_b 8.785992
_cell_length_c 17.261902
_cell_angle_alpha 90.000000
_cell_angle_beta 45.350850
_cell_angle_gamma 90.000000
_cell_volume 1671.026301
_symmetry_space_group_name_H-M "P 2/M"
_symmetry_group_IT_number 10
_symmetry_cell_setting 'monoclinic'
loop_
_space_group_symop_operation_xyz
x,y,z
-x,y,-z
-x,-y,-z
x,-y,z
loop_
_atom_site_type_symbol
_atom_site_label
_atom_site_fract_x
_atom_site_fract_y
_atom_site_fract_z
Si Si1 0.442569 0.184623 0.154569
Si Si2 0.152475 0.817629 0.757309
Si Si3 0.759920 0.182486 0.126401
Si Si4 0.890728 0.680834 0.894128
Si Si5 0.381716 0.682096 0.523950
Si Si6 0.307466 0.815911 0.088385
Si Si7 0.472492 0.183430 0.308693
O O1 0.344179 0.231124 0.152405
O O2 0.426854 0.234277 0.252700
O O3 0.441951 0.000000 0.155480
O O4 0.575863 0.226684 0.038211
O O5 0.178282 0.777147 0.830981
O O6 0.263409 0.755547 0.636633
O O7 0.025041 0.749771 0.811051
O O8 0.149215 0.000000 0.754703
O O9 0.616637 0.217176 0.221506
O O10 0.771445 0.000000 0.107287
O O11 0.822542 0.264372 0.015105
O O12 0.896372 0.500000 0.888590
O O13 0.811268 0.742729 0.872803
O O14 0.500000 0.726602 0.500000
O O15 0.371226 0.500000 0.532524
O O16 0.405151 0.739087 0.422337
O O17 0.297164 0.000000 0.092385
O O18 0.459789 0.000000 0.322812
#
# Coordination Sequence:
#
# PCOD9143922 Si02
#       7
#     4   4   4   4   4   4   4
#     4   8  15  29  55  83 106 136 178 226 267 307
#     4  11  23  39  58  77 102 144 192 229 261 310
#     4  10  20  35  56  80 107 142 184 223 261 313
#     4  12  24  35  51  79 115 149 177 217 274 328
#     4  11  23  37  54  79 112 145 177 220 272 320
#     4   9  16  32  55  79 107 141 180 220 264 316
#     4  10  18  33  57  83 109 140 182 225 263 311
#
# _framework density 16.756170999999998
#
# number of rings (size 3 to 8) (size 9 to 14) (size 15 to 20)
#    0.000    1.857    2.857    3.429    0.000    4.000 
#    0.000    2.143    0.000    0.857    0.000    6.000 
#    0.000    0.000    0.000    0.000    0.000    0.000 
#
# Total GULP energy -156331.090951 kJ/mol
# GULP energy per Si atom -5583.253248 kJ/mol
# Density = 1.671803 g / cm^3
# Si number density = 16.756171 Si / 1000 Ang^3
#
#
#
# Elastic Constant Matrix: (Units=GPa)
#
#
# Indices 1 2 3 4 5 6 
#
# 1 168.7048 49.4013 70.4078 0.0000 3.7047 0.0000
# 2 49.4013 41.8893 34.7267 0.0000 -4.3897 0.0000
# 3 70.4078 34.7267 75.7795 0.0000 -3.7118 0.0000
# 4 0.0000 0.0000 0.0000 -47.9464 0.0000 -39.4986
# 5 3.7047 -4.3897 -3.7118 0.0000 28.6504 0.0000
# 6 0.0000 0.0000 0.0000 -39.4986 0.0000 -10.1856
#
#
#
# Elastic Compliance Matrix: (Units=1/GPa)
#
#
# Indices 1 2 3 4 5 6 
#
# 1 0.011216 -0.007767 -0.007036 0.000000 -0.003552 0.000000
# 2 -0.007767 0.044257 -0.012764 0.000000 0.006132 0.000000
# 3 -0.007036 -0.012764 0.025694 0.000000 0.002283 0.000000
# 4 0.000000 0.000000 0.000000 0.009503 0.000000 -0.036853
# 5 -0.003552 0.006132 0.002283 0.000000 0.036598 0.000000
# 6 0.000000 0.000000 0.000000 -0.036853 0.000000 0.044735
#
#
# Mechanical properties :
#
#
# Convention : Reuss Voigt Hill
#
# Bulk Modulus (GPa) = 38.41265 66.16060 52.28663
# Shear Modulus (GPa) = 21.20294 2.89287 12.04791
#
# Velocity S-wave (km/s) = 3.56108 1.31537 2.68435
# Velocity P-wave (km/s) = 6.31527 6.47124 6.39373
#
# Compressibility (1/GPa) = 0.02603309
#
# Stress axis : x y z
#
# Youngs Moduli (GPa) = 89.15589 22.59545 38.91901
#
# Poissons Ratio (x) = 0.17550 0.27383
# Poissons Ratio (y) = 0.69249 0.49677
# Poissons Ratio (z) = 0.62729 0.28841
#
# Static dielectric constant tensor:
#      x y z
#    x 1.574170 0.000000 0.010940 
#    y 0.000000 1.558430 0.000000 
#    z 0.010940 0.000000 1.530070 
# 
# From -- ./inp_files/49149.got.cif
#   From: 2010.05.17/outbox.cif.g08.bks.cpg/sg10_25_cif.got.tgz:49149.got - 2010.06.03 11:33:40.
