data_PCOD9143010
_publ_section_title
;
Structure prediction by ZEFSAII (Michael W. Deem and Ramdas Pophale) SiO2 
 PCOD9143010
Probable space group: P 2/M
;
_chemical_formula_sum "Si O2"
_cell_formula_units_Z 28
_cell_length_a 15.013270
_cell_length_b 12.980352
_cell_length_c 9.984615
_cell_angle_alpha 90.000000
_cell_angle_beta 117.690021
_cell_angle_gamma 90.000000
_cell_volume 1722.936147
_symmetry_space_group_name_H-M "P 2/M"
_symmetry_group_IT_number 10
_symmetry_cell_setting 'monoclinic'
loop_
_space_group_symop_operation_xyz
x,y,z
-x,y,-z
-x,-y,-z
x,-y,z
loop_
_atom_site_type_symbol
_atom_site_label
_atom_site_fract_x
_atom_site_fract_y
_atom_site_fract_z
Si Si1 0.841290 0.621137 0.133319
Si Si2 0.545624 0.621249 0.181062
Si Si3 0.792004 0.380569 0.681564
Si Si4 0.766015 0.692541 0.364623
Si Si5 0.348967 0.376217 0.189345
Si Si6 0.976663 0.235288 0.839397
Si Si7 0.096253 0.119233 0.470546
O O1 0.865016 0.500000 0.126368
O O2 0.818005 0.638657 0.273691
O O3 0.930332 0.696755 0.150437
O O4 0.739917 0.647086 0.978844
O O5 0.570404 0.500000 0.227899
O O6 0.646894 0.686509 0.258454
O O7 0.457813 0.660903 0.218072
O O8 0.500000 0.622689 0.000000
O O9 0.808446 0.500000 0.724527
O O10 0.784774 0.365139 0.518093
O O11 0.692482 0.346807 0.693563
O O12 0.885204 0.314588 0.797409
O O13 0.815941 0.804478 0.418773
O O14 0.359276 0.500000 0.193927
O O15 0.940378 0.156253 0.701115
O O16 0.000000 0.187481 0.000000
O O17 0.000000 0.131694 0.500000
O O18 0.126415 0.000000 0.491576
#
# Coordination Sequence:
#
# PCOD9143010 Si02
#       7
#     4   4   4   4   4   4   4
#     4  11  19  30  49  78 115 147 173 201 245 309
#     4  10  18  30  50  77 108 142 179 211 243 298
#     4  10  20  31  45  74 113 145 175 209 246 301
#     4  11  21  34  53  77 100 140 179 215 260 310
#     4   9  18  30  46  71 107 149 178 204 242 286
#     4  11  21  33  53  80 106 139 177 209 259 320
#     4  10  22  41  58  75 100 129 171 229 280 314
#
# _framework density 16.251327
#
# number of rings (size 3 to 8) (size 9 to 14) (size 15 to 20)
#    0.000    1.714    4.286    1.714    0.000    1.429 
#    0.000    4.286    0.000    0.429    0.000    8.000 
#    0.000    0.000    0.000    0.000    0.000    0.000 
#
# Total GULP energy -156149.649052 kJ/mol
# GULP energy per Si atom -5576.773180 kJ/mol
# Density = 1.621434 g / cm^3
# Si number density = 16.251327 Si / 1000 Ang^3
#
#
#
# Elastic Constant Matrix: (Units=GPa)
#
#
# Indices 1 2 3 4 5 6 
#
# 1 105.7681 31.1553 15.7516 0.0000 -2.7139 0.0000
# 2 31.1553 68.9754 17.5189 0.0000 7.7911 0.0000
# 3 15.7516 17.5189 64.1082 0.0000 -9.4272 0.0000
# 4 0.0000 0.0000 0.0000 7.5874 0.0000 -0.2786
# 5 -2.7139 7.7911 -9.4272 0.0000 33.6433 0.0000
# 6 0.0000 0.0000 0.0000 -0.2786 0.0000 12.1098
#
#
#
# Elastic Compliance Matrix: (Units=1/GPa)
#
#
# Indices 1 2 3 4 5 6 
#
# 1 0.011119 -0.004929 -0.001132 0.000000 0.001721 0.000000
# 2 -0.004929 0.018618 -0.004765 0.000000 -0.006044 0.000000
# 3 -0.001132 -0.004765 0.018072 0.000000 0.006076 0.000000
# 4 0.000000 0.000000 0.000000 0.131909 0.000000 0.003035
# 5 0.001721 -0.006044 0.006076 0.000000 0.032965 0.000000
# 6 0.000000 0.000000 0.000000 0.003035 0.000000 0.082648
#
#
# Mechanical properties :
#
#
# Convention : Reuss Voigt Hill
#
# Bulk Modulus (GPa) = 38.23180 40.85591 39.54385
# Shear Modulus (GPa) = 15.35140 22.29650 18.82395
#
# Velocity S-wave (km/s) = 3.07681 3.70804 3.40708
# Velocity P-wave (km/s) = 6.01654 6.59753 6.31372
#
# Compressibility (1/GPa) = 0.02615624
#
# Stress axis : x y z
#
# Youngs Moduli (GPa) = 89.93291 53.71276 55.33277
#
# Poissons Ratio (x) = 0.26477 0.06263
# Poissons Ratio (y) = 0.44332 0.26368
# Poissons Ratio (z) = 0.10179 0.25596
#
# Static dielectric constant tensor:
#      x y z
#    x 1.563020 0.000000 -0.018420 
#    y 0.000000 1.504490 0.000000 
#    z -0.018420 0.000000 1.578510 
# 
# From -- ./inp_files/28350.got.cif
#   From: 2010.05.17/outbox.cif.g08.bks.cpg/sg10_15_cif.got.tgz:28350.got - 2010.06.03 11:33:40.
