data_PCOD9143353
_publ_section_title
;
Structure prediction by ZEFSAII (Michael W. Deem and Ramdas Pophale) SiO2 
 PCOD9143353
Probable space group: P 2/M
;
_chemical_formula_sum "Si O2"
_cell_formula_units_Z 24
_cell_length_a 21.361266
_cell_length_b 7.874987
_cell_length_c 29.163970
_cell_angle_alpha 90.000000
_cell_angle_beta 16.019044
_cell_angle_gamma 90.000000
_cell_volume 1353.831603
_symmetry_space_group_name_H-M "P 2/M"
_symmetry_group_IT_number 10
_symmetry_cell_setting 'monoclinic'
loop_
_space_group_symop_operation_xyz
x,y,z
-x,y,-z
-x,-y,-z
x,-y,z
loop_
_atom_site_type_symbol
_atom_site_label
_atom_site_fract_x
_atom_site_fract_y
_atom_site_fract_z
Si Si1 0.866132 0.000000 0.765447
Si Si2 0.214350 0.302854 0.527157
Si Si3 0.323377 0.303935 0.758232
Si Si4 0.493683 0.793451 0.239592
Si Si5 0.616818 0.000000 0.845455
Si Si6 0.268927 0.305942 0.302189
Si Si7 0.058390 0.192640 0.032338
O O1 0.792155 0.000000 0.764285
O O2 0.015252 0.166999 0.670210
O O3 0.635977 0.000000 0.956425
O O4 0.144000 0.500000 0.580199
O O5 0.410311 0.266872 0.427171
O O6 0.342049 0.275592 0.388399
O O7 0.298161 0.500000 0.790436
O O8 0.203159 0.196986 0.882905
O O9 0.177973 0.279917 0.814615
O O10 0.394684 0.730828 0.261518
O O11 0.755579 0.737764 0.063177
O O12 0.487590 0.000000 0.245828
O O13 0.656579 0.166453 0.786897
O O14 0.312258 0.500000 0.256940
O O15 0.000000 0.287313 0.500000
O O16 0.006278 0.000000 0.081645
#
# Coordination Sequence:
#
# PCOD9143353 Si02
#       7
#     2   4   4   4   2   4   4
#     4  11  24  40  60  76 103 145 175 224 268 301
#     4  10  20  33  53  82 111 143 183 218 260 316
#     4   9  16  25  40  66 105 143 172 210 254 307
#     4  10  18  31  52  80 113 145 177 216 267 323
#     4  11  25  42  58  81 106 137 181 217 265 321
#     4  11  23  38  60  85 110 139 171 217 269 320
#     4   9  16  23  40  69 104 142 173 206 254 315
#
# _framework density 17.727463
#
# number of rings (size 3 to 8) (size 9 to 14) (size 15 to 20)
#    0.000    2.000    1.667    3.750    2.333    4.667 
#    0.000    1.667    0.000    0.000    0.000    2.333 
#    0.000    4.000    0.000    0.000    0.000    0.000 
#
# Total GULP energy -133809.558897 kJ/mol
# GULP energy per Si atom -5575.398287 kJ/mol
# Density = 1.768711 g / cm^3
# Si number density = 17.727463 Si / 1000 Ang^3
#
#
#
# Elastic Constant Matrix: (Units=GPa)
#
#
# Indices 1 2 3 4 5 6 
#
# 1 110.2030 46.1431 50.7503 0.0000 -39.1299 0.0000
# 2 46.1431 111.1732 50.0071 0.0000 -18.9257 0.0000
# 3 50.7503 50.0071 63.4014 0.0000 -30.9380 0.0000
# 4 0.0000 0.0000 0.0000 31.5616 0.0000 -21.2635
# 5 -39.1299 -18.9257 -30.9380 0.0000 33.0574 0.0000
# 6 0.0000 0.0000 0.0000 -21.2635 0.0000 17.4649
#
#
#
# Elastic Compliance Matrix: (Units=1/GPa)
#
#
# Indices 1 2 3 4 5 6 
#
# 1 0.017694 -0.002650 -0.004773 0.000000 0.014960 0.000000
# 2 -0.002650 0.014670 -0.012667 0.000000 -0.006593 0.000000
# 3 -0.004773 -0.012667 0.042863 0.000000 0.027214 0.000000
# 4 0.000000 0.000000 0.000000 0.176260 0.000000 0.214596
# 5 0.014960 -0.006593 0.027214 0.000000 0.069653 0.000000
# 6 0.000000 0.000000 0.000000 0.214596 0.000000 0.318527
#
#
# Mechanical properties :
#
#
# Convention : Reuss Voigt Hill
#
# Bulk Modulus (GPa) = 28.53261 64.28653 46.40957
# Shear Modulus (GPa) = 7.23036 25.60861 16.41949
#
# Velocity S-wave (km/s) = 2.02175 3.80488 3.04668
# Velocity P-wave (km/s) = 4.64543 7.45958 6.21391
#
# Compressibility (1/GPa) = 0.03504762
#
# Stress axis : x y z
#
# Youngs Moduli (GPa) = 56.51788 68.16503 23.33012
#
# Poissons Ratio (x) = 0.18066 0.11135
# Poissons Ratio (y) = 0.14979 0.29551
# Poissons Ratio (z) = 0.26974 0.86342
#
# Static dielectric constant tensor:
#      x y z
#    x 1.625370 0.000000 -0.051700 
#    y 0.000000 1.615670 0.000000 
#    z -0.051700 0.000000 1.590890 
# 
# From -- ./inp_files/90022.got.cif
#   From: 2010.05.17/outbox.cif.g08.bks.cpg/sg10_46_cif.got.tgz:90022.got - 2010.06.03 11:33:40.
