data_PCOD9143261
_publ_section_title
;
Structure prediction by ZEFSAII (Michael W. Deem and Ramdas Pophale) SiO2 
 PCOD9143261
Probable space group: P 2/M
;
_chemical_formula_sum "Si O2"
_cell_formula_units_Z 24
_cell_length_a 13.293032
_cell_length_b 13.141604
_cell_length_c 17.585112
_cell_angle_alpha 90.000000
_cell_angle_beta 21.674737
_cell_angle_gamma 90.000000
_cell_volume 1134.593879
_symmetry_space_group_name_H-M "P 2/M"
_symmetry_group_IT_number 10
_symmetry_cell_setting 'monoclinic'
loop_
_space_group_symop_operation_xyz
x,y,z
-x,y,-z
-x,-y,-z
x,-y,z
loop_
_atom_site_type_symbol
_atom_site_label
_atom_site_fract_x
_atom_site_fract_y
_atom_site_fract_z
Si Si1 0.564195 0.384932 0.829376
Si Si2 0.019195 0.000000 0.326074
Si Si3 0.440690 0.000000 0.157299
Si Si4 0.059664 0.385006 0.587957
Si Si5 0.820496 0.881929 0.204871
Si Si6 0.338911 0.200062 0.457244
Si Si7 0.674448 0.804643 0.069618
O O1 0.454059 0.500000 0.912713
O O2 0.752273 0.382868 0.620749
O O3 0.359912 0.292574 0.959737
O O4 0.760646 0.366069 0.763161
O O5 0.841294 0.900060 0.433760
O O6 0.154640 0.000000 0.314494
O O7 0.292576 0.000000 0.084003
O O8 0.489637 0.102341 0.169925
O O9 0.075456 0.500000 0.606642
O O10 0.156031 0.300484 0.579402
O O11 0.541604 0.822939 0.384203
O O12 0.762249 0.000000 0.261236
O O13 0.000000 0.880845 0.000000
O O14 0.016995 0.839117 0.132343
O O15 0.547665 0.217787 0.240710
#
# Coordination Sequence:
#
# PCOD9143261 Si02
#       7
#     4   2   2   4   4   4   4
#     4   8  14  25  43  69  96 119 151 197 237 270
#     4  11  23  34  45  68 100 123 148 199 248 277
#     4  11  23  34  45  68 100 123 148 199 248 277
#     4   8  14  25  43  69  96 119 151 197 237 270
#     4   9  16  28  45  69  97 122 155 202 233 257
#     4  10  18  31  51  70  92 127 163 189 229 285
#     4  10  18  31  51  70  92 127 163 189 229 285
#
# _framework density 21.152944999999999
#
# number of rings (size 3 to 8) (size 9 to 14) (size 15 to 20)
#    0.000    2.667    1.667    2.500    0.000    2.667 
#    0.000    2.500    0.000    6.000    0.000    4.667 
#    0.000    2.667    0.000    0.000    0.000    0.000 
#
# Total GULP energy -134033.759691 kJ/mol
# GULP energy per Si atom -5584.739987 kJ/mol
# Density = 2.110480 g / cm^3
# Si number density = 21.152945 Si / 1000 Ang^3
#
#
#
# Elastic Constant Matrix: (Units=GPa)
#
#
# Indices 1 2 3 4 5 6 
#
# 1 96.1668 86.6728 36.4037 0.0000 -50.2107 0.0000
# 2 86.6728 186.3031 33.4148 0.0000 -52.8752 0.0000
# 3 36.4037 33.4148 77.4124 0.0000 -8.2639 0.0000
# 4 0.0000 0.0000 0.0000 -775.3900 0.0000 492.9203
# 5 -50.2107 -52.8752 -8.2639 0.0000 46.5781 0.0000
# 6 0.0000 0.0000 0.0000 492.9203 0.0000 -277.7200
#
#
#
# Elastic Compliance Matrix: (Units=1/GPa)
#
#
# Indices 1 2 3 4 5 6 
#
# 1 0.035237 -0.006227 -0.010786 0.000000 0.029002 0.000000
# 2 -0.006227 0.009527 -0.000760 0.000000 0.003967 0.000000
# 3 -0.010786 -0.000760 0.017313 0.000000 -0.009419 0.000000
# 4 0.000000 0.000000 0.000000 0.010052 0.000000 0.017841
# 5 0.029002 0.003967 -0.009419 0.000000 0.055566 0.000000
# 6 0.000000 0.000000 0.000000 0.017841 0.000000 0.028064
#
#
# Mechanical properties :
#
#
# Convention : Reuss Voigt Hill
#
# Bulk Modulus (GPa) = 37.69504 74.76278 56.22891
# Shear Modulus (GPa) = 24.98137 -187.74697 -81.38280
#
# Velocity S-wave (km/s) = 3.44028 -9.43131 -6.20943
# Velocity P-wave (km/s) = 5.79997 9.12024 4.97691
#
# Compressibility (1/GPa) = 0.02652869
#
# Stress axis : x y z
#
# Youngs Moduli (GPa) = 28.37939 104.96514 57.76042
#
# Poissons Ratio (x) = 0.65365 0.62303
# Poissons Ratio (y) = 0.17673 0.04392
# Poissons Ratio (z) = 0.30611 0.07981
#
# Static dielectric constant tensor:
#      x y z
#    x 1.807970 0.000000 0.059660 
#    y 0.000000 1.726130 0.000000 
#    z 0.059660 0.000000 1.804090 
# 
# From -- ./inp_files/45151.got.cif
#   From: 2010.05.17/outbox.cif.g08.bks.cpg/sg10_23_cif.got.tgz:45151.got - 2010.06.03 11:33:40.
