data_PCOD9143784
_publ_section_title
;
Structure prediction by ZEFSAII (Michael W. Deem and Ramdas Pophale) SiO2 
 PCOD9143784
Probable space group: P 2/M
;
_chemical_formula_sum "Si O2"
_cell_formula_units_Z 32
_cell_length_a 21.238563
_cell_length_b 7.607969
_cell_length_c 26.376599
_cell_angle_alpha 90.000000
_cell_angle_beta 21.936245
_cell_angle_gamma 90.000000
_cell_volume 1592.172289
_symmetry_space_group_name_H-M "P 2/M"
_symmetry_group_IT_number 10
_symmetry_cell_setting 'monoclinic'
loop_
_space_group_symop_operation_xyz
x,y,z
-x,y,-z
-x,-y,-z
x,-y,z
loop_
_atom_site_type_symbol
_atom_site_label
_atom_site_fract_x
_atom_site_fract_y
_atom_site_fract_z
Si Si1 0.998192 0.296493 0.874899
Si Si2 0.543800 0.712792 0.819836
Si Si3 0.831213 0.712544 0.156222
Si Si4 0.660092 0.793234 0.186444
Si Si5 0.051947 0.704819 0.300748
Si Si6 0.152925 0.715999 0.114537
Si Si7 0.319098 0.794854 0.391039
Si Si8 0.345489 0.285588 0.152226
O O1 0.044376 0.500000 0.832629
O O2 0.958970 0.219747 0.849116
O O3 0.137323 0.222268 0.810053
O O4 0.819665 0.291753 0.038598
O O5 0.545605 0.500000 0.818294
O O6 0.645359 0.773795 0.695040
O O7 0.619860 0.774550 0.816503
O O8 0.348109 0.767375 0.961828
O O9 0.829113 0.500000 0.159047
O O10 0.682428 0.770029 0.230168
O O11 0.000000 0.768467 0.000000
O O12 0.483855 0.722470 0.296931
O O13 0.669784 0.000000 0.167296
O O14 0.099888 0.500000 0.260945
O O15 0.857980 0.715496 0.460539
O O16 0.089225 0.777262 0.216936
O O17 0.174588 0.777050 0.252875
O O18 0.149303 0.500000 0.115761
O O19 0.307936 0.000000 0.412033
O O20 0.343487 0.500000 0.156556
O O21 0.500000 0.237846 0.000000
#
# Coordination Sequence:
#
# PCOD9143784 Si02
#       8
#     4   4   4   4   4   4   4   4
#     4   9  16  28  48  76 105 128 159 206 257 306
#     4  10  18  32  58  82 101 132 170 212 259 306
#     4   8  15  26  43  70 102 131 159 201 255 304
#     4  10  19  30  46  68  98 135 173 211 247 291
#     4  10  20  35  56  80 104 134 171 211 258 310
#     4   9  16  29  54  82 103 128 167 212 256 303
#     4  11  24  38  49  71 108 143 176 214 252 298
#     4   9  16  30  55  85 108 125 161 217 264 302
#
# _framework density 20.098327000000001
#
# number of rings (size 3 to 8) (size 9 to 14) (size 15 to 20)
#    0.000    2.500    2.500    1.500    0.000    4.250 
#    0.000    4.375    0.000    1.500    0.000    5.250 
#    0.000    0.000    0.000    0.000    0.000    0.000 
#
# Total GULP energy -178444.788624 kJ/mol
# GULP energy per Si atom -5576.399645 kJ/mol
# Density = 2.005258 g / cm^3
# Si number density = 20.098327 Si / 1000 Ang^3
#
#
#
# Elastic Constant Matrix: (Units=GPa)
#
#
# Indices 1 2 3 4 5 6 
#
# 1 173.3718 -3.8650 34.4150 0.0000 -11.6080 0.0000
# 2 -3.8650 38.7435 -14.2924 0.0000 -0.4066 0.0000
# 3 34.4150 -14.2924 55.9905 0.0000 2.8232 0.0000
# 4 0.0000 0.0000 0.0000 -140.2506 0.0000 -67.9024
# 5 -11.6080 -0.4066 2.8232 0.0000 24.1245 0.0000
# 6 0.0000 0.0000 0.0000 -67.9024 0.0000 -2.4896
#
#
#
# Elastic Compliance Matrix: (Units=1/GPa)
#
#
# Indices 1 2 3 4 5 6 
#
# 1 0.006942 -0.001008 -0.004720 0.000000 0.003876 0.000000
# 2 -0.001008 0.028644 0.007978 0.000000 -0.000936 0.000000
# 3 -0.004720 0.007978 0.023041 0.000000 -0.004833 0.000000
# 4 0.000000 0.000000 0.000000 0.000584 0.000000 -0.015934
# 5 0.003876 -0.000936 -0.004833 0.000000 0.043866 0.000000
# 6 0.000000 0.000000 0.000000 -0.015934 0.000000 0.032911
#
#
# Mechanical properties :
#
#
# Convention : Reuss Voigt Hill
#
# Bulk Modulus (GPa) = 15.84063 33.40234 24.62148
# Shear Modulus (GPa) = 32.78072 -6.93326 12.92373
#
# Velocity S-wave (km/s) = 4.04297 -1.85934 2.53855
# Velocity P-wave (km/s) = 5.44911 3.47073 4.56830
#
# Compressibility (1/GPa) = 0.06312880
#
# Stress axis : x y z
#
# Youngs Moduli (GPa) = 144.05475 34.91180 43.40026
#
# Poissons Ratio (x) = 0.03519 0.20483
# Poissons Ratio (y) = 0.14519 -0.34626
# Poissons Ratio (z) = 0.67987 -0.27854
#
# Static dielectric constant tensor:
#      x y z
#    x 1.764570 0.000000 -0.027230 
#    y 0.000000 1.755650 0.000000 
#    z -0.027230 0.000000 1.653980 
# 
# From -- ./inp_files/93671.got.cif
#   From: 2010.05.17/outbox.cif.g08.bks.cpg/sg10_47_cif.got.tgz:93671.got - 2010.06.03 11:33:40.
