data_PCOD9143776
_publ_section_title
;
Structure prediction by ZEFSAII (Michael W. Deem and Ramdas Pophale) SiO2 
 PCOD9143776
Probable space group: P 2/M
;
_chemical_formula_sum "Si O2"
_cell_formula_units_Z 24
_cell_length_a 13.900955
_cell_length_b 14.557399
_cell_length_c 10.609259
_cell_angle_alpha 90.000000
_cell_angle_beta 30.504210
_cell_angle_gamma 90.000000
_cell_volume 1089.774194
_symmetry_space_group_name_H-M "P 2/M"
_symmetry_group_IT_number 10
_symmetry_cell_setting 'monoclinic'
loop_
_space_group_symop_operation_xyz
x,y,z
-x,y,-z
-x,-y,-z
x,-y,z
loop_
_atom_site_type_symbol
_atom_site_label
_atom_site_fract_x
_atom_site_fract_y
_atom_site_fract_z
Si Si1 0.270067 0.302049 0.252792
Si Si2 0.285604 0.000000 0.085634
Si Si3 0.618120 0.700722 0.495913
Si Si4 0.320543 0.500000 0.107638
Si Si5 0.896854 0.197448 0.322403
Si Si6 0.291444 0.806754 0.992834
Si Si7 0.846613 0.000000 0.489497
Si Si8 0.442821 0.500000 0.415856
O O1 0.221752 0.404027 0.256364
O O2 0.179821 0.269347 0.485218
O O3 0.207789 0.228178 0.219048
O O4 0.500000 0.296976 0.000000
O O5 0.367515 0.091657 0.932495
O O6 0.283844 0.000000 0.238850
O O7 0.063913 0.000000 0.294548
O O8 0.500000 0.702827 0.500000
O O9 0.799783 0.765153 0.305615
O O10 0.665984 0.595704 0.476184
O O11 0.460029 0.739313 0.768911
O O12 0.500000 0.500000 0.000000
O O13 0.395007 0.500000 0.877610
O O14 0.827282 0.094822 0.435369
O O15 0.123356 0.195730 0.081111
O O16 0.500000 0.500000 0.500000
#
# Coordination Sequence:
#
# PCOD9143776 Si02
#       8
#     4   2   4   2   4   4   2   2
#     4  11  19  34  57  87 123 154 188 239 303 358
#     4   9  18  33  57  88 121 157 190 236 292 359
#     4  11  24  43  63  84 114 159 206 246 295 352
#     4  10  18  32  57  86 122 156 196 246 308 361
#     4  11  22  38  60  90 122 156 195 245 297 355
#     4  11  21  38  61  88 122 152 198 244 296 351
#     4   9  18  33  57  88 121 155 194 234 290 359
#     4  10  20  40  64  83 115 162 204 249 298 361
#
# _framework density 22.02291
#
# number of rings (size 3 to 8) (size 9 to 14) (size 15 to 20)
#    0.000    1.500    5.000    1.500    0.000    1.333 
#    0.000    7.500    0.000    6.000    0.000    0.000 
#    0.000    0.000    0.000    0.000    0.000    0.000 
#
# Total GULP energy -133988.245094 kJ/mol
# GULP energy per Si atom -5582.843546 kJ/mol
# Density = 2.197278 g / cm^3
# Si number density = 22.022910 Si / 1000 Ang^3
#
#
#
# Elastic Constant Matrix: (Units=GPa)
#
#
# Indices 1 2 3 4 5 6 
#
# 1 89.5131 58.0769 19.9358 0.0000 -4.2900 0.0000
# 2 58.0769 167.0343 5.9183 0.0000 -0.4330 0.0000
# 3 19.9358 5.9183 49.9381 0.0000 -8.3216 0.0000
# 4 0.0000 0.0000 0.0000 -3.4374 0.0000 8.9550
# 5 -4.2900 -0.4330 -8.3216 0.0000 40.5140 0.0000
# 6 0.0000 0.0000 0.0000 8.9550 0.0000 30.6721
#
#
#
# Elastic Compliance Matrix: (Units=1/GPa)
#
#
# Indices 1 2 3 4 5 6 
#
# 1 0.015909 -0.005330 -0.005641 0.000000 0.000469 0.000000
# 2 -0.005330 0.007798 0.001163 0.000000 -0.000242 0.000000
# 3 -0.005641 0.001163 0.022823 0.000000 0.004103 0.000000
# 4 0.000000 0.000000 0.000000 -0.165236 0.000000 0.048243
# 5 0.000469 -0.000242 0.004103 0.000000 0.025573 0.000000
# 6 0.000000 0.000000 0.000000 0.048243 0.000000 0.018518
#
#
# Mechanical properties :
#
#
# Convention : Reuss Voigt Hill
#
# Bulk Modulus (GPa) = 37.15600 52.70528 44.93064
# Shear Modulus (GPa) = -108.62731 28.38669 -40.12031
#
# Velocity S-wave (km/s) = -7.03077 3.59411 -4.27283
# Velocity P-wave (km/s) = 7.00006 6.41930 1.97401
#
# Compressibility (1/GPa) = 0.02691355
#
# Stress axis : x y z
#
# Youngs Moduli (GPa) = 62.85863 128.23381 43.81624
#
# Poissons Ratio (x) = 0.68352 0.24717
# Poissons Ratio (y) = 0.33505 -0.05097
# Poissons Ratio (z) = 0.35459 -0.14918
#
# Static dielectric constant tensor:
#      x y z
#    x 1.953380 0.000000 -0.013380 
#    y 0.000000 1.825680 0.000000 
#    z -0.013380 0.000000 1.819520 
# 
# From -- ./inp_files/51580.got.cif
#   From: 2010.05.17/outbox.cif.g08.bks.cpg/sg10_26_cif.got.tgz:51580.got - 2010.06.03 11:33:40.
