data_PCOD9143263
_publ_section_title
;
Structure prediction by ZEFSAII (Michael W. Deem and Ramdas Pophale) SiO2 
 PCOD9143263
Probable space group: P 2/M
;
_chemical_formula_sum "Si O2"
_cell_formula_units_Z 28
_cell_length_a 17.485670
_cell_length_b 13.841397
_cell_length_c 18.756589
_cell_angle_alpha 90.000000
_cell_angle_beta 22.687463
_cell_angle_gamma 90.000000
_cell_volume 1750.936517
_symmetry_space_group_name_H-M "P 2/M"
_symmetry_group_IT_number 10
_symmetry_cell_setting 'monoclinic'
loop_
_space_group_symop_operation_xyz
x,y,z
-x,y,-z
-x,-y,-z
x,-y,z
loop_
_atom_site_type_symbol
_atom_site_label
_atom_site_fract_x
_atom_site_fract_y
_atom_site_fract_z
Si Si1 0.691355 0.389040 0.976711
Si Si2 0.938328 0.890249 0.764835
Si Si3 0.916825 0.302073 0.294164
Si Si4 0.839559 0.888836 0.576705
Si Si5 0.074371 0.616074 0.015098
Si Si6 0.505938 0.386121 0.699038
Si Si7 0.455760 0.199455 0.956931
O O1 0.677247 0.500000 0.966081
O O2 0.560167 0.375775 0.161529
O O3 0.617883 0.309700 0.984074
O O4 0.916575 0.363273 0.805641
O O5 0.022926 0.808993 0.744479
O O6 0.061189 0.883182 0.585623
O O7 0.948833 0.000000 0.782345
O O8 0.715441 0.862904 0.933278
O O9 0.698890 0.326847 0.510391
O O10 0.947947 0.332689 0.185524
O O11 0.657396 0.817305 0.741010
O O12 0.000000 0.867664 0.500000
O O13 0.771958 0.000000 0.646525
O O14 0.057787 0.500000 0.040341
O O15 0.306375 0.640427 0.827222
O O16 0.000000 0.638699 0.000000
O O17 0.547182 0.500000 0.651120
O O18 0.500000 0.169671 0.000000
#
# Coordination Sequence:
#
# PCOD9143263 Si02
#       7
#     4   4   4   4   4   4   4
#     4   9  19  32  45  66  95 126 162 199 231 279
#     4  10  21  34  49  71  94 121 160 205 246 287
#     4  10  18  31  51  70  95 129 162 192 234 285
#     4  10  19  31  48  68  91 115 149 202 254 292
#     4   9  18  31  49  79 110 127 151 192 231 274
#     4   9  16  29  50  71  95 127 158 188 228 278
#     4  11  20  31  49  68  91 124 159 198 249 298
#
# _framework density 15.991441
#
# number of rings (size 3 to 8) (size 9 to 14) (size 15 to 20)
#    0.000    2.286    1.429    3.429    0.000    1.429 
#    0.000    2.143    0.000    0.857    0.000    1.000 
#    0.000    0.000    0.000    0.000    0.000    0.000 
#
# Total GULP energy -156136.219717 kJ/mol
# GULP energy per Si atom -5576.293561 kJ/mol
# Density = 1.595504 g / cm^3
# Si number density = 15.991441 Si / 1000 Ang^3
#
#
#
# Elastic Constant Matrix: (Units=GPa)
#
#
# Indices 1 2 3 4 5 6 
#
# 1 39.1864 5.8116 9.4385 0.0000 -1.4456 0.0000
# 2 5.8116 61.7737 21.8874 0.0000 -0.8438 0.0000
# 3 9.4385 21.8874 73.7841 0.0000 -3.3612 0.0000
# 4 0.0000 0.0000 0.0000 19.1502 0.0000 2.8804
# 5 -1.4456 -0.8438 -3.3612 0.0000 10.6381 0.0000
# 6 0.0000 0.0000 0.0000 2.8804 0.0000 18.6692
#
#
#
# Elastic Compliance Matrix: (Units=1/GPa)
#
#
# Indices 1 2 3 4 5 6 
#
# 1 0.026515 -0.001452 -0.002843 0.000000 0.002590 0.000000
# 2 -0.001452 0.018170 -0.005223 0.000000 -0.000406 0.000000
# 3 -0.002843 -0.005223 0.015655 0.000000 0.004146 0.000000
# 4 0.000000 0.000000 0.000000 0.053460 0.000000 -0.008248
# 5 0.002590 -0.000406 0.004146 0.000000 0.095631 0.000000
# 6 0.000000 0.000000 0.000000 -0.008248 0.000000 0.054837
#
#
# Mechanical properties :
#
#
# Convention : Reuss Voigt Hill
#
# Bulk Modulus (GPa) = 24.21067 27.66880 25.93974
# Shear Modulus (GPa) = 16.83105 18.86526 17.84816
#
# Velocity S-wave (km/s) = 3.24775 3.43842 3.34444
# Velocity P-wave (km/s) = 5.40708 5.75356 5.58301
#
# Compressibility (1/GPa) = 0.04130410
#
# Stress axis : x y z
#
# Youngs Moduli (GPa) = 37.71490 55.03688 63.87788
#
# Poissons Ratio (x) = 0.07990 0.18162
# Poissons Ratio (y) = 0.05475 0.33361
# Poissons Ratio (z) = 0.10723 0.28744
#
# Static dielectric constant tensor:
#      x y z
#    x 1.520620 0.000000 -0.005700 
#    y 0.000000 1.541620 0.000000 
#    z -0.005700 0.000000 1.540100 
# 
# From -- ./inp_files/11250.got.cif
#   From: 2010.05.17/outbox.cif.g08.bks.cpg/sg10_6_cif.got.tgz:11250.got - 2010.06.03 11:33:40.
