data_PCOD9144337
_publ_section_title
;
Structure prediction by ZEFSAII (Michael W. Deem and Ramdas Pophale) SiO2 
 PCOD9144337
Probable space group: P 2/M
;
_chemical_formula_sum "Si O2"
_cell_formula_units_Z 28
_cell_length_a 19.245274
_cell_length_b 7.298154
_cell_length_c 25.814692
_cell_angle_alpha 90.000000
_cell_angle_beta 19.368603
_cell_angle_gamma 90.000000
_cell_volume 1202.476214
_symmetry_space_group_name_H-M "P 2/M"
_symmetry_group_IT_number 10
_symmetry_cell_setting 'monoclinic'
loop_
_space_group_symop_operation_xyz
x,y,z
-x,y,-z
-x,-y,-z
x,-y,z
loop_
_atom_site_type_symbol
_atom_site_label
_atom_site_fract_x
_atom_site_fract_y
_atom_site_fract_z
Si Si1 0.487718 0.277086 0.171443
Si Si2 0.765479 0.279166 0.161839
Si Si3 0.742742 0.777719 0.838632
Si Si4 0.586447 0.280599 0.664771
Si Si5 0.914574 0.711143 0.832443
Si Si6 0.662860 0.723865 0.500992
Si Si7 0.110105 0.209009 0.371691
O O1 0.486456 0.500000 0.170630
O O2 0.383379 0.215249 0.298650
O O3 0.352354 0.208787 0.218913
O O4 0.725845 0.212047 0.999082
O O5 0.777194 0.500000 0.158381
O O6 0.651608 0.241318 0.187085
O O7 0.581732 0.221446 0.331572
O O8 0.000000 0.207740 0.000000
O O9 0.828815 0.715659 0.833589
O O10 0.883850 0.712294 0.690333
O O11 0.746916 0.000000 0.835064
O O12 0.500000 0.721796 0.000000
O O13 0.608887 0.500000 0.650976
O O14 0.713141 0.218050 0.525257
O O15 0.936089 0.500000 0.833528
O O16 0.148866 0.789954 0.666930
O O17 0.666145 0.500000 0.497299
O O18 0.000000 0.295390 0.500000
O O19 0.035887 0.000000 0.420369
#
# Coordination Sequence:
#
# PCOD9144337 Si02
#       7
#     4   4   4   4   4   4   4
#     4  10  19  30  44  64  88 114 142 176 219 259
#     4   7  10  19  38  61  84 114 148 173 202 252
#     4  10  20  35  49  61  82 114 147 181 223 262
#     4   7  13  24  38  58  84 111 140 172 208 248
#     4  10  19  29  45  66  89 115 145 182 218 257
#     4   7  13  24  38  60  85 112 142 175 210 247
#     4  10  22  36  47  61  83 110 142 183 225 261
#
# _framework density 23.285284000000001
#
# number of rings (size 3 to 8) (size 9 to 14) (size 15 to 20)
#    0.857    2.429    1.429    0.000    2.000    1.143 
#    0.000    0.000    0.000    0.857    0.000    6.000 
#    0.000    2.286    0.000    2.571    0.000    2.857 
#
# Total GULP energy -155897.387275 kJ/mol
# GULP energy per Si atom -5567.763831 kJ/mol
# Density = 2.323229 g / cm^3
# Si number density = 23.285284 Si / 1000 Ang^3
#
#
#
# Elastic Constant Matrix: (Units=GPa)
#
#
# Indices 1 2 3 4 5 6 
#
# 1 1.3603 1.9595 -6.3779 0.0000 -0.8135 0.0000
# 2 1.9595 105.7181 9.4845 0.0000 -0.1938 0.0000
# 3 -6.3779 9.4845 120.0120 0.0000 -12.3757 0.0000
# 4 0.0000 0.0000 0.0000 -10.4946 0.0000 -3.6902
# 5 -0.8135 -0.1938 -12.3757 0.0000 43.6504 0.0000
# 6 0.0000 0.0000 0.0000 -3.6902 0.0000 7.4560
#
#
#
# Elastic Compliance Matrix: (Units=1/GPa)
#
#
# Indices 1 2 3 4 5 6 
#
# 1 1.097525 -0.026046 0.064364 0.000000 0.038588 0.000000
# 2 -0.026046 0.010146 -0.002299 0.000000 -0.001092 0.000000
# 3 0.064364 -0.002299 0.012421 0.000000 0.004711 0.000000
# 4 0.000000 0.000000 0.000000 -0.081163 0.000000 -0.040170
# 5 0.038588 -0.001092 0.004711 0.000000 0.024959 0.000000
# 6 0.000000 0.000000 0.000000 -0.040170 0.000000 0.114240
#
#
# Mechanical properties :
#
#
# Convention : Reuss Voigt Hill
#
# Bulk Modulus (GPa) = 0.83883 26.35806 13.59845
# Shear Modulus (GPa) = 3.32565 22.92398 13.12481
#
# Velocity S-wave (km/s) = 1.19638 3.14105 2.37671
# Velocity P-wave (km/s) = 1.50647 4.94966 3.65846
#
# Compressibility (1/GPa) = 1.19213107
#
# Stress axis : x y z
#
# Youngs Moduli (GPa) = 0.91114 98.56003 80.51199
#
# Poissons Ratio (x) = 2.56711 -5.18210
# Poissons Ratio (y) = 0.02373 0.18507
# Poissons Ratio (z) = -0.05864 0.22656
#
# Static dielectric constant tensor:
#      x y z
#    x 1.844530 0.000000 -0.010940 
#    y 0.000000 1.877110 0.000000 
#    z -0.010940 0.000000 1.965840 
# 
# From -- ./inp_files/93524.got.cif
#   From: 2010.05.17/outbox.cif.g08.bks.cpg/sg10_47_cif.got.tgz:93524.got - 2010.06.03 11:33:40.
