data_PCOD9144835
_publ_section_title
;
Structure prediction by ZEFSAII (Michael W. Deem and Ramdas Pophale) SiO2 
 PCOD9144835
Probable space group: P 2/M
;
_chemical_formula_sum "Si O2"
_cell_formula_units_Z 32
_cell_length_a 15.238156
_cell_length_b 19.112209
_cell_length_c 20.416447
_cell_angle_alpha 90.000000
_cell_angle_beta 19.428042
_cell_angle_gamma 90.000000
_cell_volume 1977.768199
_symmetry_space_group_name_H-M "P 2/M"
_symmetry_group_IT_number 10
_symmetry_cell_setting 'monoclinic'
loop_
_space_group_symop_operation_xyz
x,y,z
-x,y,-z
-x,-y,-z
x,-y,z
loop_
_atom_site_type_symbol
_atom_site_label
_atom_site_fract_x
_atom_site_fract_y
_atom_site_fract_z
Si Si1 0.566026 0.821733 0.811073
Si Si2 0.063997 0.419934 0.822186
Si Si3 0.529985 0.579968 0.587653
Si Si4 0.950266 0.178400 0.428598
Si Si5 0.254089 0.080009 0.121910
Si Si6 0.309650 0.327638 0.992525
Si Si7 0.085883 0.671957 0.608031
Si Si8 0.792121 0.580883 0.705910
O O1 0.724708 0.848016 0.636270
O O2 0.787106 0.809783 0.711994
O O3 0.359301 0.876698 0.985783
O O4 0.435465 0.747108 0.888232
O O5 0.967117 0.500000 0.897047
O O6 0.263833 0.419782 0.618853
O O7 0.246084 0.402871 0.756432
O O8 0.834302 0.366413 0.966087
O O9 0.523393 0.500000 0.617183
O O10 0.648612 0.632917 0.556525
O O11 0.871857 0.253454 0.455155
O O12 0.028362 0.123822 0.317556
O O13 0.182091 0.000000 0.157930
O O14 0.500000 0.077948 0.000000
O O15 0.095139 0.316323 0.200731
O O16 0.532978 0.378614 0.864481
O O17 0.924181 0.621605 0.673165
O O18 0.735507 0.500000 0.762204
O O19 0.000000 0.582500 0.500000
#
# Coordination Sequence:
#
# PCOD9144835 Si02
#       8
#     4   4   4   4   4   4   4   4
#     4  10  19  31  47  69 100 133 162 196 242 288
#     4   8  15  28  45  66  92 123 163 212 259 296
#     4   8  15  28  45  66  92 123 163 212 259 296
#     4  10  19  31  47  69 100 133 162 196 242 288
#     4   9  18  32  50  72  97 128 165 197 230 284
#     4  11  19  29  48  69  93 126 167 205 244 296
#     4  11  19  29  48  69  93 126 167 205 244 296
#     4  11  23  33  41  61  93 128 167 209 249 291
#
# _framework density 16.179853999999999
#
# number of rings (size 3 to 8) (size 9 to 14) (size 15 to 20)
#    0.000    2.250    2.500    2.625    0.000    2.500 
#    0.000    2.500    0.000    3.000    0.000    8.750 
#    0.000    2.000    0.000    2.250    0.000    0.250 
#
# Total GULP energy -178532.617687 kJ/mol
# GULP energy per Si atom -5579.144303 kJ/mol
# Density = 1.614303 g / cm^3
# Si number density = 16.179854 Si / 1000 Ang^3
#
#
#
# Elastic Constant Matrix: (Units=GPa)
#
#
# Indices 1 2 3 4 5 6 
#
# 1 49.5365 50.2987 46.2276 0.0000 -8.5681 0.0000
# 2 50.2987 131.8235 51.5110 0.0000 -1.5990 0.0000
# 3 46.2276 51.5110 57.6842 0.0000 9.0185 0.0000
# 4 0.0000 0.0000 0.0000 8.6035 0.0000 -2.7962
# 5 -8.5681 -1.5990 9.0185 0.0000 21.2295 0.0000
# 6 0.0000 0.0000 0.0000 -2.7962 0.0000 11.5597
#
#
#
# Elastic Compliance Matrix: (Units=1/GPa)
#
#
# Indices 1 2 3 4 5 6 
#
# 1 -8.333767 0.136178 7.585017 0.000000 -6.575413 0.000000
# 2 0.136178 0.010102 -0.135889 0.000000 0.113449 0.000000
# 3 7.585017 -0.135889 -6.873392 0.000000 5.970937 0.000000
# 4 0.000000 0.000000 0.000000 0.126149 0.000000 0.030515
# 5 -6.575413 0.113449 5.970937 0.000000 -5.134678 0.000000
# 6 0.000000 0.000000 0.000000 0.030515 0.000000 0.093889
#
#
# Mechanical properties :
#
#
# Convention : Reuss Voigt Hill
#
# Bulk Modulus (GPa) = -37.81257 59.45763 10.82253
# Shear Modulus (GPa) = -0.14168 14.34566 7.10199
#
# Velocity S-wave (km/s) = -0.29623 2.98088 2.09736
# Velocity P-wave (km/s) = 4.85159 6.97676 3.54523
#
# Compressibility (1/GPa) = -0.02644623
#
# Stress axis : x y z
#
# Youngs Moduli (GPa) = -0.11999 98.99457 -0.14549
#
# Poissons Ratio (x) = -13.48087 1.10353
# Poissons Ratio (y) = 0.01634 -0.01977
# Poissons Ratio (z) = 0.91015 13.45228
#
# Static dielectric constant tensor:
#      x y z
#    x 1.541870 0.000000 0.027950 
#    y 0.000000 1.518250 0.000000 
#    z 0.027950 0.000000 1.564150 
# 
# From -- ./inp_files/70850.got.cif
#   From: 2010.05.17/outbox.cif.g08.bks.cpg/sg10_36_cif.got.tgz:70850.got - 2010.06.03 11:33:40.
