data_PCOD9144690
_publ_section_title
;
Structure prediction by ZEFSAII (Michael W. Deem and Ramdas Pophale) SiO2 
 PCOD9144690
Probable space group: P 2/M
;
_chemical_formula_sum "Si O2"
_cell_formula_units_Z 25
_cell_length_a 18.761123
_cell_length_b 7.229708
_cell_length_c 7.596112
_cell_angle_alpha 90.000000
_cell_angle_beta 62.492661
_cell_angle_gamma 90.000000
_cell_volume 913.841566
_symmetry_space_group_name_H-M "P 2/M"
_symmetry_group_IT_number 10
_symmetry_cell_setting 'monoclinic'
loop_
_space_group_symop_operation_xyz
x,y,z
-x,y,-z
-x,-y,-z
x,-y,z
loop_
_atom_site_type_symbol
_atom_site_label
_atom_site_fract_x
_atom_site_fract_y
_atom_site_fract_z
Si Si1 0.432106 0.278505 0.317522
Si Si2 0.144376 0.774759 0.028620
Si Si3 0.975746 0.775458 0.330468
Si Si4 0.605655 0.716241 0.271058
Si Si5 0.264069 0.220161 0.176698
Si Si6 0.500000 0.000000 0.000000
Si Si7 0.798628 0.224424 0.400449
O O1 0.430374 0.500000 0.288021
O O2 0.377971 0.218458 0.547482
O O3 0.520742 0.216238 0.291594
O O4 0.434169 0.160629 0.139019
O O5 0.198968 0.710981 0.803565
O O6 0.145502 0.000000 0.024499
O O7 0.051593 0.719844 0.124281
O O8 0.182953 0.717717 0.169169
O O9 0.000000 0.719712 0.500000
O O10 0.887501 0.721892 0.369438
O O11 0.973657 0.000000 0.331872
O O12 0.592648 0.500000 0.312542
O O13 0.669899 0.740745 0.046142
O O14 0.263698 0.290419 0.378189
O O15 0.259528 0.000000 0.195203
O O16 0.794259 0.000000 0.399735
#
# Coordination Sequence:
#
# PCOD9144690 Si02
#       7
#     4   4   4   4   4   1   4
#     4   9  21  41  62  90 124 157 201 245 288 350
#     4   9  16  26  39  65 100 138 177 229 287 347
#     4   9  13  21  39  58  93 140 180 216 286 353
#     4   9  20  41  62  77 109 159 198 238 289 349
#     4  10  19  30  49  75 108 138 181 238 287 345
#     4  12  22  34  68 102 128 154 190 246 304 348
#     4   9  16  26  39  65 100 138 177 229 287 347
#
# _framework density 27.357037999999999
#
# number of rings (size 3 to 8) (size 9 to 14) (size 15 to 20)
#    0.000    2.720    1.600    1.680    2.240    2.560 
#    2.880    0.000    0.000    0.000    0.000    2.240 
#    0.000    2.560    0.000    0.000    0.000    0.000 
#
# Total GULP energy -139567.008540 kJ/mol
# GULP energy per Si atom -5582.680342 kJ/mol
# Density = 2.729477 g / cm^3
# Si number density = 27.357038 Si / 1000 Ang^3
#
#
#
# Elastic Constant Matrix: (Units=GPa)
#
#
# Indices 1 2 3 4 5 6 
#
# 1 61.0598 -1.1794 30.6909 0.0000 13.4632 0.0000
# 2 -1.1794 151.7873 13.9625 0.0000 3.4134 0.0000
# 3 30.6909 13.9625 233.3328 0.0000 1.8158 0.0000
# 4 0.0000 0.0000 0.0000 -4.6410 0.0000 -22.5251
# 5 13.4632 3.4134 1.8158 0.0000 52.0003 0.0000
# 6 0.0000 0.0000 0.0000 -22.5251 0.0000 -16.0180
#
#
#
# Elastic Compliance Matrix: (Units=1/GPa)
#
#
# Indices 1 2 3 4 5 6 
#
# 1 0.018671 0.000478 -0.002447 0.000000 -0.004780 0.000000
# 2 0.000478 0.006646 -0.000456 0.000000 -0.000544 0.000000
# 3 -0.002447 -0.000456 0.004631 0.000000 0.000502 0.000000
# 4 0.000000 0.000000 0.000000 0.036990 0.000000 -0.052016
# 5 -0.004780 -0.000544 0.000502 0.000000 0.020486 0.000000
# 6 0.000000 0.000000 0.000000 -0.052016 0.000000 0.010717
#
#
# Mechanical properties :
#
#
# Convention : Reuss Voigt Hill
#
# Bulk Modulus (GPa) = 39.84691 59.23644 49.54168
# Shear Modulus (GPa) = 44.90019 33.11532 39.00775
#
# Velocity S-wave (km/s) = 4.05565 3.48298 3.78017
# Velocity P-wave (km/s) = 6.04386 6.15426 6.09931
#
# Compressibility (1/GPa) = 0.02509605
#
# Stress axis : x y z
#
# Youngs Moduli (GPa) = 53.56027 150.46450 215.93579
#
# Poissons Ratio (x) = -0.07187 0.52843
# Poissons Ratio (y) = -0.02558 0.09853
# Poissons Ratio (z) = 0.13107 0.06866
#
# Static dielectric constant tensor:
#      x y z
#    x 2.330110 0.000000 -0.030450 
#    y 0.000000 2.077650 0.000000 
#    z -0.030450 0.000000 2.322160 
# 
# From -- ./inp_files/35661.got.cif
#   From: 2010.05.17/outbox.cif.g08.bks.cpg/sg10_18_cif.got.tgz:35661.got - 2010.06.03 11:33:40.
