data_PCOD9144880
_publ_section_title
;
Structure prediction by ZEFSAII (Michael W. Deem and Ramdas Pophale) SiO2 
 PCOD9144880
Probable space group: P 2/M
;
_chemical_formula_sum "Si O2"
_cell_formula_units_Z 28
_cell_length_a 19.919159
_cell_length_b 7.733025
_cell_length_c 15.280978
_cell_angle_alpha 90.000000
_cell_angle_beta 37.009410
_cell_angle_gamma 90.000000
_cell_volume 1416.867456
_symmetry_space_group_name_H-M "P 2/M"
_symmetry_group_IT_number 10
_symmetry_cell_setting 'monoclinic'
loop_
_space_group_symop_operation_xyz
x,y,z
-x,y,-z
-x,-y,-z
x,-y,z
loop_
_atom_site_type_symbol
_atom_site_label
_atom_site_fract_x
_atom_site_fract_y
_atom_site_fract_z
Si Si1 0.891006 0.797878 0.360302
Si Si2 0.338541 0.299912 0.336761
Si Si3 0.045978 0.701375 0.041798
Si Si4 0.248180 0.204299 0.243703
Si Si5 0.782931 0.710306 0.001043
Si Si6 0.410429 0.709692 0.914336
Si Si7 0.055304 0.798437 0.327193
O O1 0.759025 0.781335 0.503778
O O2 0.950990 0.711612 0.215513
O O3 0.944265 0.727269 0.396253
O O4 0.920432 0.000000 0.324858
O O5 0.344127 0.500000 0.356009
O O6 0.298278 0.285831 0.278377
O O7 0.463004 0.226268 0.215377
O O8 0.070102 0.500000 0.998132
O O9 0.158400 0.771627 0.970901
O O10 0.000000 0.781107 0.000000
O O11 0.128349 0.272685 0.331995
O O12 0.234115 0.000000 0.275856
O O13 0.337966 0.226879 0.072312
O O14 0.791777 0.500000 0.989226
O O15 0.858853 0.782279 0.843436
O O16 0.657872 0.755724 0.102624
O O17 0.411891 0.500000 0.919711
O O18 0.035382 0.000000 0.367787
#
# Coordination Sequence:
#
# PCOD9144880 Si02
#       7
#     4   4   4   4   4   4   4
#     4  10  20  34  50  69  95 125 157 190 231 282
#     4  11  22  33  45  64  94 129 163 199 235 269
#     4   9  17  31  54  81 102 117 140 182 234 286
#     4  10  19  31  48  69  92 121 161 203 239 274
#     4   8  14  27  48  71  93 119 151 185 225 274
#     4   9  18  32  48  66  92 127 164 198 229 266
#     4   8  16  30  46  65  91 121 152 192 236 275
#
# _framework density 19.761903
#
# number of rings (size 3 to 8) (size 9 to 14) (size 15 to 20)
#    0.000    2.714    0.000    1.714    0.000    4.857 
#    0.000    2.857    0.000    0.857    0.000    6.000 
#    0.000    0.000    0.000    0.000    0.000    0.000 
#
# Total GULP energy -156052.184863 kJ/mol
# GULP energy per Si atom -5573.292317 kJ/mol
# Density = 1.971692 g / cm^3
# Si number density = 19.761903 Si / 1000 Ang^3
#
#
#
# Elastic Constant Matrix: (Units=GPa)
#
#
# Indices 1 2 3 4 5 6 
#
# 1 153.9681 -0.0655 52.5331 0.0000 -9.2566 0.0000
# 2 -0.0655 36.6554 -5.2419 0.0000 -2.3399 0.0000
# 3 52.5331 -5.2419 63.8635 0.0000 -25.0422 0.0000
# 4 0.0000 0.0000 0.0000 27.0293 0.0000 -1.7235
# 5 -9.2566 -2.3399 -25.0422 0.0000 34.1116 0.0000
# 6 0.0000 0.0000 0.0000 -1.7235 0.0000 9.5017
#
#
#
# Elastic Compliance Matrix: (Units=1/GPa)
#
#
# Indices 1 2 3 4 5 6 
#
# 1 0.009584 -0.001704 -0.009899 0.000000 -0.004783 0.000000
# 2 -0.001704 0.028528 0.006079 0.000000 0.005957 0.000000
# 3 -0.009899 0.006079 0.032874 0.000000 0.021864 0.000000
# 4 0.000000 0.000000 0.000000 0.037430 0.000000 0.006789
# 5 -0.004783 0.005957 0.021864 0.000000 0.044477 0.000000
# 6 0.000000 0.000000 0.000000 0.006789 0.000000 0.106476
#
#
# Mechanical properties :
#
#
# Convention : Reuss Voigt Hill
#
# Bulk Modulus (GPa) = 16.68402 38.77092 27.72747
# Shear Modulus (GPa) = 17.21788 27.94593 22.58190
#
# Velocity S-wave (km/s) = 2.95492 3.76457 3.38405
# Velocity P-wave (km/s) = 4.48363 6.20948 5.41574
#
# Compressibility (1/GPa) = 0.05993759
#
# Stress axis : x y z
#
# Youngs Moduli (GPa) = 104.33919 35.05367 30.41941
#
# Poissons Ratio (x) = 0.05973 0.30113
# Poissons Ratio (y) = 0.17778 -0.18492
# Poissons Ratio (z) = 1.03288 -0.21310
#
# Static dielectric constant tensor:
#      x y z
#    x 1.764630 0.000000 -0.034860 
#    y 0.000000 1.757940 0.000000 
#    z -0.034860 0.000000 1.682050 
# 
# From -- ./inp_files/48845.got.cif
#   From: 2010.05.17/outbox.cif.g08.bks.cpg/sg10_25_cif.got.tgz:48845.got - 2010.06.03 11:33:40.
