data_PCOD9144167
_publ_section_title
;
Structure prediction by ZEFSAII (Michael W. Deem and Ramdas Pophale) SiO2 
 PCOD9144167
Probable space group: P 2/M
;
_chemical_formula_sum "Si O2"
_cell_formula_units_Z 32
_cell_length_a 9.128628
_cell_length_b 23.043384
_cell_length_c 15.361451
_cell_angle_alpha 90.000000
_cell_angle_beta 28.065087
_cell_angle_gamma 90.000000
_cell_volume 1520.267061
_symmetry_space_group_name_H-M "P 2/M"
_symmetry_group_IT_number 10
_symmetry_cell_setting 'monoclinic'
loop_
_space_group_symop_operation_xyz
x,y,z
-x,y,-z
-x,-y,-z
x,-y,z
loop_
_atom_site_type_symbol
_atom_site_label
_atom_site_fract_x
_atom_site_fract_y
_atom_site_fract_z
Si Si1 0.124532 0.935660 0.708557
Si Si2 0.330681 0.359281 0.177889
Si Si3 0.734563 0.436260 0.458371
Si Si4 0.360480 0.612924 0.800885
Si Si5 0.899855 0.242717 0.649648
Si Si6 0.070556 0.117155 0.555189
Si Si7 0.205088 0.159822 0.805184
Si Si8 0.454630 0.720627 0.620729
O O1 0.500000 0.936642 0.500000
O O2 0.005461 0.919298 0.675284
O O3 0.062768 0.885566 0.810934
O O4 0.023376 0.000000 0.789034
O O5 0.479824 0.382735 0.188648
O O6 0.988768 0.386206 0.341890
O O7 0.335502 0.289585 0.189831
O O8 0.500000 0.374026 0.000000
O O9 0.500000 0.428818 0.500000
O O10 0.884896 0.500000 0.369535
O O11 0.528753 0.433736 0.652888
O O12 0.386437 0.672623 0.729875
O O13 0.000000 0.600084 0.000000
O O14 0.847649 0.174346 0.673895
O O15 0.210196 0.251033 0.541117
O O16 0.000000 0.261534 0.500000
O O17 0.435762 0.138223 0.365486
O O18 0.000000 0.087565 0.500000
O O19 0.224821 0.224557 0.753634
O O20 0.000000 0.161421 0.000000
O O21 0.500000 0.696412 0.500000
#
# Coordination Sequence:
#
# PCOD9144167 Si02
#       8
#     4   4   4   4   4   4   4   4
#     4   9  18  36  58  83 116 160 210 253 305 380
#     4  12  25  42  66  98 133 172 216 261 321 380
#     4  11  25  48  73  97 130 172 217 266 316 371
#     4  12  25  41  65  99 132 169 216 264 320 383
#     4  10  18  37  58  83 123 164 200 253 319 380
#     4   9  19  35  58  84 116 159 202 254 315 376
#     4  10  20  36  56  88 118 154 207 257 311 373
#     4  11  21  36  62  86 124 161 203 256 319 378
#
# _framework density 21.048933999999999
#
# number of rings (size 3 to 8) (size 9 to 14) (size 15 to 20)
#    0.000    1.500    2.500    3.750    1.750    2.000 
#    2.250    0.625    0.000    0.750    0.000    0.000 
#    0.000    0.000    0.000    0.000    0.000    0.000 
#
# Total GULP energy -178508.623981 kJ/mol
# GULP energy per Si atom -5578.394499 kJ/mol
# Density = 2.100103 g / cm^3
# Si number density = 21.048934 Si / 1000 Ang^3
#
#
#
# Elastic Constant Matrix: (Units=GPa)
#
#
# Indices 1 2 3 4 5 6 
#
# 1 150.8950 34.7943 32.4440 0.0000 26.9426 0.0000
# 2 34.7943 100.6727 14.3044 0.0000 16.5675 0.0000
# 3 32.4440 14.3044 73.7624 0.0000 19.5378 0.0000
# 4 0.0000 0.0000 0.0000 6.9290 0.0000 -1.1174
# 5 26.9426 16.5675 19.5378 0.0000 32.3520 0.0000
# 6 0.0000 0.0000 0.0000 -1.1174 0.0000 42.8892
#
#
#
# Elastic Compliance Matrix: (Units=1/GPa)
#
#
# Indices 1 2 3 4 5 6 
#
# 1 0.008338 -0.001803 -0.002051 0.000000 -0.004781 0.000000
# 2 -0.001803 0.011273 -0.000311 0.000000 -0.004083 0.000000
# 3 -0.002051 -0.000311 0.016696 0.000000 -0.008215 0.000000
# 4 0.000000 0.000000 0.000000 0.144930 0.000000 0.003776
# 5 -0.004781 -0.004083 -0.008215 0.000000 0.041944 0.000000
# 6 0.000000 0.000000 0.000000 0.003776 0.000000 0.023414
#
#
# Mechanical properties :
#
#
# Convention : Reuss Voigt Hill
#
# Bulk Modulus (GPa) = 35.74730 54.26838 45.00784
# Shear Modulus (GPa) = 18.92147 32.68655 25.80401
#
# Velocity S-wave (km/s) = 3.00147 3.94494 3.50509
# Velocity P-wave (km/s) = 5.38809 6.82554 6.14897
#
# Compressibility (1/GPa) = 0.02797414
#
# Stress axis : x y z
#
# Youngs Moduli (GPa) = 119.93728 88.71068 59.89615
#
# Poissons Ratio (x) = 0.15998 0.12285
# Poissons Ratio (y) = 0.21629 0.01865
# Poissons Ratio (z) = 0.24600 0.02763
#
# Static dielectric constant tensor:
#      x y z
#    x 1.816990 0.000000 -0.042960 
#    y 0.000000 1.800780 0.000000 
#    z -0.042960 0.000000 1.707590 
# 
# From -- ./inp_files/62698.got.cif
#   From: 2010.05.17/outbox.cif.g08.bks.cpg/sg10_32_cif.got.tgz:62698.got - 2010.06.03 11:33:40.
