data_PCOD9144283
_publ_section_title
;
Structure prediction by ZEFSAII (Michael W. Deem and Ramdas Pophale) SiO2 
 PCOD9144283
Probable space group: P 2/M
;
_chemical_formula_sum "Si O2"
_cell_formula_units_Z 32
_cell_length_a 16.246212
_cell_length_b 8.851445
_cell_length_c 31.062405
_cell_angle_alpha 90.000000
_cell_angle_beta 150.488704
_cell_angle_gamma 90.000000
_cell_volume 2200.348617
_symmetry_space_group_name_H-M "P 2/M"
_symmetry_group_IT_number 10
_symmetry_cell_setting 'monoclinic'
loop_
_space_group_symop_operation_xyz
x,y,z
-x,y,-z
-x,-y,-z
x,-y,z
loop_
_atom_site_type_symbol
_atom_site_label
_atom_site_fract_x
_atom_site_fract_y
_atom_site_fract_z
Si Si1 0.596739 0.320273 0.809671
Si Si2 0.660120 0.819992 0.667777
Si Si3 0.087089 0.319078 0.477507
Si Si4 0.241658 0.180922 0.632076
Si Si5 0.735534 0.179727 0.522602
Si Si6 0.298151 0.325868 0.402990
Si Si7 0.183091 0.319992 0.175434
Si Si8 0.112668 0.174132 0.007829
O O1 0.570527 0.500000 0.800633
O O2 0.422232 0.233354 0.730170
O O3 0.691103 0.288591 0.807244
O O4 0.720941 0.263877 0.903610
O O5 0.460476 0.788591 0.576616
O O6 0.734633 0.750203 0.657896
O O7 0.743198 0.750000 0.747733
O O8 0.680701 0.000000 0.676795
O O9 0.083509 0.500000 0.479632
O O10 0.207850 0.250000 0.569283
O O11 0.153954 0.266646 0.461892
O O12 0.905799 0.250000 0.405799
O O13 0.228123 0.000000 0.624246
O O14 0.768949 0.236123 0.586280
O O15 0.760846 0.000000 0.530740
O O16 0.500000 0.323906 0.500000
O O17 0.243788 0.500000 0.378960
O O18 0.168982 0.500000 0.172888
O O19 0.004422 0.250203 0.081159
O O20 0.149304 0.000000 0.014132
O O21 0.000000 0.176093 0.000000
#
# Coordination Sequence:
#
# PCOD9144283 Si02
#       8
#     4   4   4   4   4   4   4   4
#     4  10  19  31  46  64  87 116 149 182 219 261
#     4  10  19  29  43  63  88 117 148 182 218 259
#     4  11  21  33  47  64  87 115 148 185 223 259
#     4  11  21  33  47  64  87 115 148 185 223 259
#     4  10  19  31  46  64  87 116 149 182 219 261
#     4   9  17  29  44  62  85 113 145 180 217 258
#     4  10  19  29  43  63  88 117 148 182 218 259
#     4   9  17  29  44  62  85 113 145 180 217 258
#
# _framework density 14.543149
#
# number of rings (size 3 to 8) (size 9 to 14) (size 15 to 20)
#    0.000    2.000    0.000    6.000    0.000    8.000 
#    0.000    0.000    0.000    0.000    0.000    0.000 
#    0.000    1.000    0.000   10.000    0.000    6.000 
#
# Total GULP energy -178556.661575 kJ/mol
# GULP energy per Si atom -5579.895674 kJ/mol
# Density = 1.451005 g / cm^3
# Si number density = 14.543149 Si / 1000 Ang^3
#
#
#
# Elastic Constant Matrix: (Units=GPa)
#
#
# Indices 1 2 3 4 5 6 
#
# 1 69.0906 46.6563 29.9161 0.0000 -12.0697 0.0000
# 2 46.6563 107.9496 49.9703 0.0000 -5.9272 0.0000
# 3 29.9161 49.9703 82.1366 0.0000 -11.2631 0.0000
# 4 0.0000 0.0000 0.0000 26.4531 0.0000 -3.6160
# 5 -12.0697 -5.9272 -11.2631 0.0000 21.5190 0.0000
# 6 0.0000 0.0000 0.0000 -3.6160 0.0000 24.4313
#
#
#
# Elastic Compliance Matrix: (Units=1/GPa)
#
#
# Indices 1 2 3 4 5 6 
#
# 1 0.022575 -0.008396 -0.001826 0.000000 0.009394 0.000000
# 2 -0.008396 0.016025 -0.007252 0.000000 -0.004091 0.000000
# 3 -0.001826 -0.007252 0.018140 0.000000 0.006472 0.000000
# 4 0.000000 0.000000 0.000000 0.038583 0.000000 0.005711
# 5 0.009394 -0.004091 0.006472 0.000000 0.054000 0.000000
# 6 0.000000 0.000000 0.000000 0.005711 0.000000 0.041776
#
#
# Mechanical properties :
#
#
# Convention : Reuss Voigt Hill
#
# Bulk Modulus (GPa) = 45.89109 56.91803 51.40456
# Shear Modulus (GPa) = 21.43054 23.32295 22.37675
#
# Velocity S-wave (km/s) = 3.84289 4.00898 3.92681
# Velocity P-wave (km/s) = 7.16338 7.78791 7.48216
#
# Compressibility (1/GPa) = 0.02179072
#
# Stress axis : x y z
#
# Youngs Moduli (GPa) = 44.29624 62.40344 55.12777
#
# Poissons Ratio (x) = 0.52393 0.10069
# Poissons Ratio (y) = 0.37191 0.39980
# Poissons Ratio (z) = 0.08090 0.45256
#
# Static dielectric constant tensor:
#      x y z
#    x 1.462960 0.000000 -0.001610 
#    y 0.000000 1.484310 0.000000 
#    z -0.001610 0.000000 1.463860 
# 
# From -- ./inp_files/95271.got.cif
#   From: 2010.05.17/outbox.cif.g08.bks.cpg/sg10_48_cif.got.tgz:95271.got - 2010.06.03 11:33:40.
