data_PCOD9144443
_publ_section_title
;
Structure prediction by ZEFSAII (Michael W. Deem and Ramdas Pophale) SiO2 
 PCOD9144443
Probable space group: P 2/M
;
_chemical_formula_sum "Si O2"
_cell_formula_units_Z 32
_cell_length_a 12.560188
_cell_length_b 8.563207
_cell_length_c 22.185174
_cell_angle_alpha 90.000000
_cell_angle_beta 132.961427
_cell_angle_gamma 90.000000
_cell_volume 1746.205488
_symmetry_space_group_name_H-M "P 2/M"
_symmetry_group_IT_number 10
_symmetry_cell_setting 'monoclinic'
loop_
_space_group_symop_operation_xyz
x,y,z
-x,y,-z
-x,-y,-z
x,-y,z
loop_
_atom_site_type_symbol
_atom_site_label
_atom_site_fract_x
_atom_site_fract_y
_atom_site_fract_z
Si Si1 0.230060 0.180643 0.273628
Si Si2 0.507058 0.813274 0.306131
Si Si3 0.614549 0.810994 0.095054
Si Si4 0.935419 0.186764 0.355419
Si Si5 0.387163 0.314754 0.772412
Si Si6 0.210798 0.680191 0.517489
Si Si7 0.053579 0.810103 0.779716
Si Si8 0.327858 0.672256 0.427212
O O1 0.361625 0.247953 0.284135
O O2 0.284150 0.195974 0.363416
O O3 0.067053 0.248048 0.219243
O O4 0.215400 0.000000 0.249743
O O5 0.510849 0.762852 0.238280
O O6 0.657560 0.751707 0.393365
O O7 0.508814 0.000000 0.312513
O O8 0.580662 0.742843 0.147673
O O9 0.780434 0.764194 0.143269
O O10 0.612598 0.000000 0.098960
O O11 0.500000 0.763524 0.000000
O O12 0.778429 0.261884 0.305825
O O13 0.976654 0.234969 0.302055
O O14 0.055082 0.236667 0.450499
O O15 0.920611 0.000000 0.349936
O O16 0.397087 0.500000 0.772499
O O17 0.190818 0.500000 0.527568
O O18 0.266546 0.687904 0.470082
O O19 0.046866 0.000000 0.778289
O O20 0.500000 0.674078 0.500000
O O21 0.284075 0.500000 0.386161
#
# Coordination Sequence:
#
# PCOD9144443 Si02
#       8
#     4   4   4   4   4   4   4   4
#     4  10  19  31  50  74 102 139 183 226 265 311
#     4  11  23  36  51  72 102 145 192 228 264 314
#     4   9  18  36  64  92 114 136 165 206 260 322
#     4  10  19  34  55  76 104 139 181 230 274 316
#     4  11  23  39  57  78 108 140 175 218 268 325
#     4  11  21  32  48  73 105 142 186 230 275 318
#     4   8  15  29  51  81 110 133 165 215 267 309
#     4  10  19  30  44  67 102 141 181 228 271 311
#
# _framework density 18.325448999999999
#
# number of rings (size 3 to 8) (size 9 to 14) (size 15 to 20)
#    0.000    2.000    2.500    3.000    0.000    2.000 
#    0.000    2.500    0.000    0.750    0.000    5.250 
#    0.000    0.000    0.000    0.000    0.000    0.000 
#
# Total GULP energy -178414.106011 kJ/mol
# GULP energy per Si atom -5575.440813 kJ/mol
# Density = 1.828374 g / cm^3
# Si number density = 18.325449 Si / 1000 Ang^3
#
#
#
# Elastic Constant Matrix: (Units=GPa)
#
#
# Indices 1 2 3 4 5 6 
#
# 1 95.9337 8.9066 54.6111 0.0000 -4.6147 0.0000
# 2 8.9066 32.8614 16.7530 0.0000 1.0803 0.0000
# 3 54.6111 16.7530 93.0956 0.0000 12.6539 0.0000
# 4 0.0000 0.0000 0.0000 -2.6625 0.0000 -4.3348
# 5 -4.6147 1.0803 12.6539 0.0000 12.5437 0.0000
# 6 0.0000 0.0000 0.0000 -4.3348 0.0000 13.8456
#
#
#
# Elastic Compliance Matrix: (Units=1/GPa)
#
#
# Indices 1 2 3 4 5 6 
#
# 1 0.019865 0.001506 -0.014950 0.000000 0.022260 0.000000
# 2 0.001506 0.033768 -0.007695 0.000000 0.005408 0.000000
# 3 -0.014950 -0.007695 0.024979 0.000000 -0.030035 0.000000
# 4 0.000000 0.000000 0.000000 -0.248780 0.000000 -0.077889
# 5 0.022260 0.005408 -0.030035 0.000000 0.117744 0.000000
# 6 0.000000 0.000000 0.000000 -0.077889 0.000000 0.047839
#
#
# Mechanical properties :
#
#
# Convention : Reuss Voigt Hill
#
# Bulk Modulus (GPa) = 27.52289 42.49246 35.00767
# Shear Modulus (GPa) = 100.39358 14.18671 57.29015
#
# Velocity S-wave (km/s) = 7.40963 2.78538 5.59736
# Velocity P-wave (km/s) = 9.39442 5.79504 7.80505
#
# Compressibility (1/GPa) = 0.03633340
#
# Stress axis : x y z
#
# Youngs Moduli (GPa) = 50.33963 29.61388 40.03439
#
# Poissons Ratio (x) = -0.04458 0.59850
# Poissons Ratio (y) = -0.07579 0.30806
# Poissons Ratio (z) = 0.75256 0.22788
#
# Static dielectric constant tensor:
#      x y z
#    x 1.686120 0.000000 0.020570 
#    y 0.000000 1.649130 0.000000 
#    z 0.020570 0.000000 1.610220 
# 
# From -- ./inp_files/49854.got.cif
#   From: 2010.05.17/outbox.cif.g08.bks.cpg/sg10_25_cif.got.tgz:49854.got - 2010.06.03 11:33:40.
