data_PCOD9144123
_publ_section_title
;
Structure prediction by ZEFSAII (Michael W. Deem and Ramdas Pophale) SiO2 
 PCOD9144123
Probable space group: P 2/M
;
_chemical_formula_sum "Si O2"
_cell_formula_units_Z 28
_cell_length_a 7.080067
_cell_length_b 15.340355
_cell_length_c 18.519458
_cell_angle_alpha 90.000000
_cell_angle_beta 138.246526
_cell_angle_gamma 90.000000
_cell_volume 1339.453398
_symmetry_space_group_name_H-M "P 2/M"
_symmetry_group_IT_number 10
_symmetry_cell_setting 'monoclinic'
loop_
_space_group_symop_operation_xyz
x,y,z
-x,y,-z
-x,-y,-z
x,-y,z
loop_
_atom_site_type_symbol
_atom_site_label
_atom_site_fract_x
_atom_site_fract_y
_atom_site_fract_z
Si Si1 0.794231 0.637649 0.874319
Si Si2 0.850541 0.164317 0.852453
Si Si3 0.616746 0.903317 0.930261
Si Si4 0.168613 0.728100 0.389888
Si Si5 0.235859 0.597397 0.655311
Si Si6 0.776344 0.404480 0.716936
Si Si7 0.050176 0.898081 0.274548
O O1 0.749964 0.739040 0.842013
O O2 0.475759 0.600006 0.787433
O O3 0.921174 0.598141 0.836822
O O4 0.000000 0.626164 0.000000
O O5 0.707205 0.104347 0.872410
O O6 0.798970 0.133175 0.756568
O O7 0.185072 0.161161 0.968249
O O8 0.283848 0.890813 0.838230
O O9 0.686264 0.000000 0.977614
O O10 0.500000 0.718425 0.500000
O O11 0.117803 0.672389 0.302563
O O12 0.975748 0.677261 0.392922
O O13 0.108004 0.829022 0.354730
O O14 0.108231 0.500000 0.616615
O O15 0.555955 0.607122 0.354815
O O16 0.808815 0.500000 0.692619
O O17 0.112592 0.000000 0.307857
#
# Coordination Sequence:
#
# PCOD9144123 Si02
#       7
#     4   4   4   4   4   4   4
#     4  10  18  35  62  91 124 162 186 222 290 357
#     4  11  18  33  56  85 118 159 192 232 284 348
#     4  10  20  32  53  85 117 153 197 239 284 347
#     4  12  25  41  63  87 113 152 206 259 304 345
#     4   9  21  40  62  88 122 155 194 242 291 350
#     4   9  21  41  62  88 121 153 197 242 289 352
#     4  11  23  39  58  82 116 154 195 245 300 352
#
# _framework density 20.904050000000002
#
# number of rings (size 3 to 8) (size 9 to 14) (size 15 to 20)
#    0.857    0.857    2.857    3.429    0.000    4.286 
#    0.000    2.143    0.000    1.714    0.000    6.000 
#    0.000    0.000    0.000    0.000    0.000    0.000 
#
# Total GULP energy -156085.697554 kJ/mol
# GULP energy per Si atom -5574.489198 kJ/mol
# Density = 2.085647 g / cm^3
# Si number density = 20.904050 Si / 1000 Ang^3
#
#
#
# Elastic Constant Matrix: (Units=GPa)
#
#
# Indices 1 2 3 4 5 6 
#
# 1 39.0324 4.5053 -7.2902 0.0000 -0.8706 0.0000
# 2 4.5053 120.4943 11.8259 0.0000 2.1538 0.0000
# 3 -7.2902 11.8259 46.5700 0.0000 1.8084 0.0000
# 4 0.0000 0.0000 0.0000 4.3608 0.0000 15.0239
# 5 -0.8706 2.1538 1.8084 0.0000 17.9836 0.0000
# 6 0.0000 0.0000 0.0000 15.0239 0.0000 7.6083
#
#
#
# Elastic Compliance Matrix: (Units=1/GPa)
#
#
# Indices 1 2 3 4 5 6 
#
# 1 0.026651 -0.001456 0.004503 0.000000 0.001012 0.000000
# 2 -0.001456 0.008602 -0.002379 0.000000 -0.000862 0.000000
# 3 0.004503 -0.002379 0.022852 0.000000 -0.001795 0.000000
# 4 0.000000 0.000000 0.000000 -0.039515 0.000000 0.078030
# 5 0.001012 -0.000862 -0.001795 0.000000 0.055939 0.000000
# 6 0.000000 0.000000 0.000000 0.078030 0.000000 -0.022649
#
#
# Mechanical properties :
#
#
# Convention : Reuss Voigt Hill
#
# Bulk Modulus (GPa) = 16.82373 24.90873 20.86623
# Shear Modulus (GPa) = 71.06395 19.12759 45.09577
#
# Velocity S-wave (km/s) = 5.83687 3.02821 4.64969
# Velocity P-wave (km/s) = 7.31376 4.91613 6.23135
#
# Compressibility (1/GPa) = 0.05943984
#
# Stress axis : x y z
#
# Youngs Moduli (GPa) = 37.52146 116.24540 43.76037
#
# Poissons Ratio (x) = 0.16931 -0.19704
# Poissons Ratio (y) = 0.05465 0.10411
# Poissons Ratio (z) = -0.16894 0.27655
#
# Static dielectric constant tensor:
#      x y z
#    x 1.794800 0.000000 -0.017140 
#    y 0.000000 1.792360 0.000000 
#    z -0.017140 0.000000 1.755650 
# 
# From -- ./inp_files/35263.got.cif
#   From: 2010.05.17/outbox.cif.g08.bks.cpg/sg10_18_cif.got.tgz:35263.got - 2010.06.03 11:33:40.
