data_PCOD9144666
_publ_section_title
;
Structure prediction by ZEFSAII (Michael W. Deem and Ramdas Pophale) SiO2 
 PCOD9144666
Probable space group: P 2/M
;
_chemical_formula_sum "Si O2"
_cell_formula_units_Z 28
_cell_length_a 10.654837
_cell_length_b 7.349587
_cell_length_c 21.745434
_cell_angle_alpha 90.000000
_cell_angle_beta 46.943675
_cell_angle_gamma 90.000000
_cell_volume 1244.247486
_symmetry_space_group_name_H-M "P 2/M"
_symmetry_group_IT_number 10
_symmetry_cell_setting 'monoclinic'
loop_
_space_group_symop_operation_xyz
x,y,z
-x,y,-z
-x,-y,-z
x,-y,z
loop_
_atom_site_type_symbol
_atom_site_label
_atom_site_fract_x
_atom_site_fract_y
_atom_site_fract_z
Si Si1 0.900474 0.780347 0.440485
Si Si2 0.460828 0.277934 0.914996
Si Si3 0.338822 0.709394 0.589706
Si Si4 0.229220 0.721086 0.108079
Si Si5 0.383283 0.709803 0.805899
Si Si6 0.161498 0.723844 0.770066
Si Si7 0.258971 0.780263 0.377845
O O1 0.820931 0.713471 0.403768
O O2 0.782915 0.723909 0.538115
O O3 0.094651 0.723748 0.391734
O O4 0.899085 0.000000 0.439266
O O5 0.464094 0.500000 0.912427
O O6 0.647903 0.220525 0.877148
O O7 0.413500 0.210879 0.863266
O O8 0.324130 0.225988 0.013080
O O9 0.500000 0.793760 0.500000
O O10 0.386400 0.500000 0.586511
O O11 0.281418 0.787140 0.673945
O O12 0.227562 0.500000 0.109373
O O13 0.033655 0.781541 0.175516
O O14 0.334131 0.500000 0.832562
O O15 0.239504 0.786279 0.808594
O O16 0.562810 0.714367 0.709042
O O17 0.163246 0.500000 0.768991
O O18 0.263052 0.000000 0.376207
#
# Coordination Sequence:
#
# PCOD9144666 Si02
#       7
#     4   4   4   4   4   4   4
#     4   9  19  35  52  69  91 127 171 207 240 287
#     4   8  15  26  44  70  98 127 162 201 240 289
#     4  10  20  32  47  70 102 135 163 198 249 292
#     4   8  14  27  43  65 100 133 158 196 248 288
#     4  10  19  30  48  76 100 125 163 202 238 292
#     4   9  18  29  43  67 103 136 160 197 247 290
#     4   9  19  35  51  69  97 128 160 203 252 291
#
# _framework density 22.503561000000001
#
# number of rings (size 3 to 8) (size 9 to 14) (size 15 to 20)
#    0.000    3.000    0.000    2.571    2.000    3.143 
#    0.000    5.000    0.000    0.000    0.000    5.000 
#    0.000    0.000    0.000    0.000    0.000    0.000 
#
# Total GULP energy -156409.938898 kJ/mol
# GULP energy per Si atom -5586.069246 kJ/mol
# Density = 2.245234 g / cm^3
# Si number density = 22.503561 Si / 1000 Ang^3
#
#
#
# Elastic Constant Matrix: (Units=GPa)
#
#
# Indices 1 2 3 4 5 6 
#
# 1 162.1298 5.6412 83.5215 0.0000 20.2660 0.0000
# 2 5.6412 85.9156 4.6447 0.0000 0.8729 0.0000
# 3 83.5215 4.6447 93.6771 0.0000 -1.1319 0.0000
# 4 0.0000 0.0000 0.0000 73.5554 0.0000 1.1255
# 5 20.2660 0.8729 -1.1319 0.0000 34.1099 0.0000
# 6 0.0000 0.0000 0.0000 1.1255 0.0000 43.8480
#
#
#
# Elastic Compliance Matrix: (Units=1/GPa)
#
#
# Indices 1 2 3 4 5 6 
#
# 1 0.013445 -0.000144 -0.012081 0.000000 -0.008385 0.000000
# 2 -0.000144 0.011676 -0.000453 0.000000 -0.000228 0.000000
# 3 -0.012081 -0.000453 0.021565 0.000000 0.007905 0.000000
# 4 0.000000 0.000000 0.000000 0.013601 0.000000 -0.000349
# 5 -0.008385 -0.000228 0.007905 0.000000 0.034567 0.000000
# 6 0.000000 0.000000 0.000000 -0.000349 0.000000 0.022815
#
#
# Mechanical properties :
#
#
# Convention : Reuss Voigt Hill
#
# Bulk Modulus (GPa) = 46.88763 58.81523 52.85143
# Shear Modulus (GPa) = 33.30345 46.83035 40.06690
#
# Velocity S-wave (km/s) = 3.85114 4.56677 4.22414
# Velocity P-wave (km/s) = 6.37620 7.34846 6.87953
#
# Compressibility (1/GPa) = 0.02132759
#
# Stress axis : x y z
#
# Youngs Moduli (GPa) = 74.37780 85.64860 46.37217
#
# Poissons Ratio (x) = 0.01237 0.56024
# Poissons Ratio (y) = 0.01074 0.02100
# Poissons Ratio (z) = 0.89859 0.03879
#
# Static dielectric constant tensor:
#      x y z
#    x 1.808700 0.000000 0.005240 
#    y 0.000000 1.841140 0.000000 
#    z 0.005240 0.000000 1.785880 
# 
# From -- ./inp_files/34552.got.cif
#   From: 2010.05.17/outbox.cif.g08.bks.cpg/sg10_18_cif.got.tgz:34552.got - 2010.06.03 11:33:40.
