data_PCOD9144397
_publ_section_title
;
Structure prediction by ZEFSAII (Michael W. Deem and Ramdas Pophale) SiO2 
 PCOD9144397
Probable space group: P 2/M
;
_chemical_formula_sum "Si O2"
_cell_formula_units_Z 28
_cell_length_a 15.745149
_cell_length_b 7.333278
_cell_length_c 21.415767
_cell_angle_alpha 90.000000
_cell_angle_beta 28.588292
_cell_angle_gamma 90.000000
_cell_volume 1183.237127
_symmetry_space_group_name_H-M "P 2/M"
_symmetry_group_IT_number 10
_symmetry_cell_setting 'monoclinic'
loop_
_space_group_symop_operation_xyz
x,y,z
-x,y,-z
-x,-y,-z
x,-y,z
loop_
_atom_site_type_symbol
_atom_site_label
_atom_site_fract_x
_atom_site_fract_y
_atom_site_fract_z
Si Si1 0.971171 0.206791 0.357067
Si Si2 0.753450 0.719504 0.378299
Si Si3 0.416212 0.776688 0.877298
Si Si4 0.674016 0.777447 0.925061
Si Si5 0.815933 0.778643 0.583984
Si Si6 0.641229 0.719676 0.321561
Si Si7 0.173683 0.206209 0.921117
O O1 0.160027 0.293506 0.221551
O O2 0.882916 0.204652 0.346240
O O3 0.845710 0.280262 0.492601
O O4 0.006387 0.000000 0.355481
O O5 0.768326 0.500000 0.369856
O O6 0.769642 0.776767 0.295762
O O7 0.556102 0.766480 0.529056
O O8 0.621844 0.718213 0.733680
O O9 0.279214 0.714757 0.911840
O O10 0.418166 0.000000 0.873569
O O11 0.343872 0.720689 0.991641
O O12 0.686525 0.000000 0.918500
O O13 0.500000 0.728593 0.000000
O O14 0.000000 0.723834 0.500000
O O15 0.807914 0.000000 0.593997
O O16 0.650214 0.500000 0.311194
O O17 0.687558 0.798825 0.225280
O O18 0.120310 0.000000 0.973521
O O19 0.000000 0.292180 0.000000
#
# Coordination Sequence:
#
# PCOD9144397 Si02
#       7
#     4   4   4   4   4   4   4
#     4  10  19  29  50  79 100 125 171 214 250 307
#     4   9  19  35  53  73  99 132 166 211 265 304
#     4   9  17  29  44  65 101 138 161 196 256 307
#     4   9  17  29  46  71 103 135 167 206 251 301
#     4   9  16  27  45  71 101 129 162 208 256 299
#     4   9  19  36  54  71  97 134 175 211 249 304
#     4  10  21  33  49  74 107 140 167 205 260 307
#
# _framework density 23.663896999999999
#
# number of rings (size 3 to 8) (size 9 to 14) (size 15 to 20)
#    0.000    2.714    0.000    2.571    2.000    6.000 
#    0.000    1.429    0.000    0.857    0.000    2.000 
#    0.000    0.000    0.000    0.000    0.000    0.000 
#
# Total GULP energy -156308.639480 kJ/mol
# GULP energy per Si atom -5582.451410 kJ/mol
# Density = 2.361004 g / cm^3
# Si number density = 23.663897 Si / 1000 Ang^3
#
#
#
# Elastic Constant Matrix: (Units=GPa)
#
#
# Indices 1 2 3 4 5 6 
#
# 1 80.8253 -2.6832 -18.8153 0.0000 2.0735 0.0000
# 2 -2.6832 87.7515 4.4045 0.0000 -0.8800 0.0000
# 3 -18.8153 4.4045 44.9680 0.0000 1.4022 0.0000
# 4 0.0000 0.0000 0.0000 -5.9600 0.0000 16.2940
# 5 2.0735 -0.8800 1.4022 0.0000 43.2474 0.0000
# 6 0.0000 0.0000 0.0000 16.2940 0.0000 29.0899
#
#
#
# Elastic Compliance Matrix: (Units=1/GPa)
#
#
# Indices 1 2 3 4 5 6 
#
# 1 0.013740 0.000122 0.005763 0.000000 -0.000843 0.000000
# 2 0.000122 0.011456 -0.001079 0.000000 0.000262 0.000000
# 3 0.005763 -0.001079 0.024790 0.000000 -0.001102 0.000000
# 4 0.000000 0.000000 0.000000 -0.066284 0.000000 0.037127
# 5 -0.000843 0.000262 -0.001102 0.000000 0.023204 0.000000
# 6 0.000000 0.000000 0.000000 0.037127 0.000000 0.013580
#
#
# Mechanical properties :
#
#
# Convention : Reuss Voigt Hill
#
# Bulk Modulus (GPa) = 16.77893 19.92853 18.35373
# Shear Modulus (GPa) = 162.65717 28.65139 95.65428
#
# Velocity S-wave (km/s) = 8.29974 3.48338 6.36473
# Velocity P-wave (km/s) = 9.94753 4.96169 7.86040
#
# Compressibility (1/GPa) = 0.05959855
#
# Stress axis : x y z
#
# Youngs Moduli (GPa) = 72.78198 87.28783 40.33962
#
# Poissons Ratio (x) = -0.01068 -0.23249
# Poissons Ratio (y) = -0.00891 0.04353
# Poissons Ratio (z) = -0.41946 0.09419
#
# Static dielectric constant tensor:
#      x y z
#    x 1.968620 0.000000 -0.143390 
#    y 0.000000 1.927150 0.000000 
#    z -0.143390 0.000000 2.035880 
# 
# From -- ./inp_files/67143.got.cif
#   From: 2010.05.17/outbox.cif.g08.bks.cpg/sg10_34_cif.got.tgz:67143.got - 2010.06.03 11:33:40.
