data_PCOD9144984
_publ_section_title
;
Structure prediction by ZEFSAII (Michael W. Deem and Ramdas Pophale) SiO2 
 PCOD9144984
Probable space group: P 2/M
;
_chemical_formula_sum "Si O2"
_cell_formula_units_Z 32
_cell_length_a 14.644325
_cell_length_b 8.879802
_cell_length_c 14.685136
_cell_angle_alpha 90.000000
_cell_angle_beta 87.149596
_cell_angle_gamma 90.000000
_cell_volume 1907.273443
_symmetry_space_group_name_H-M "P 2/M"
_symmetry_group_IT_number 10
_symmetry_cell_setting 'monoclinic'
loop_
_space_group_symop_operation_xyz
x,y,z
-x,y,-z
-x,-y,-z
x,-y,z
loop_
_atom_site_type_symbol
_atom_site_label
_atom_site_fract_x
_atom_site_fract_y
_atom_site_fract_z
Si Si1 0.725801 0.182095 0.135289
Si Si2 0.188696 0.679869 0.047031
Si Si3 0.897616 0.318991 0.475325
Si Si4 0.342706 0.320434 0.191531
Si Si5 0.480281 0.818599 0.897156
Si Si6 0.860311 0.180875 0.281565
Si Si7 0.053827 0.819782 0.190058
Si Si8 0.811330 0.318402 0.667410
O O1 0.620746 0.230451 0.128066
O O2 0.771161 0.225851 0.228756
O O3 0.728876 0.000000 0.128261
O O4 0.785408 0.249241 0.050351
O O5 0.181598 0.500000 0.041662
O O6 0.272322 0.716348 0.112642
O O7 0.098223 0.746672 0.098385
O O8 0.899096 0.500000 0.466680
O O9 0.869762 0.250669 0.380572
O O10 0.830669 0.279060 0.562144
O O11 0.000000 0.271138 0.500000
O O12 0.356393 0.500000 0.189892
O O13 0.438245 0.240787 0.169564
O O14 0.287453 0.279816 0.285922
O O15 0.482016 0.000000 0.896573
O O16 0.500000 0.768061 0.000000
O O17 0.949594 0.221779 0.217263
O O18 0.860713 0.000000 0.290751
O O19 0.113974 0.760167 0.271942
O O20 0.060938 0.000000 0.183417
O O21 0.822845 0.500000 0.676914
#
# Coordination Sequence:
#
# PCOD9144984 Si02
#       8
#     4   4   4   4   4   4   4   4
#     4  10  21  37  52  71 104 139 171 213 260 305
#     4  10  20  33  50  74 103 137 173 210 250 301
#     4  10  19  33  56  79 103 135 170 213 257 299
#     4   9  18  31  50  75 104 130 161 208 256 303
#     4  10  19  32  53  77  99 130 172 214 254 301
#     4  10  22  36  51  74 105 139 173 211 256 304
#     4  10  19  31  49  73 102 138 173 206 247 300
#     4   9  18  33  51  77 106 133 165 207 259 301
#
# _framework density 16.777877
#
# number of rings (size 3 to 8) (size 9 to 14) (size 15 to 20)
#    0.000    2.250    2.500    1.500    0.000    5.000 
#    0.000    2.500    0.000    0.750    0.000    5.250 
#    0.000    0.000    0.000    0.000    0.000    0.000 
#
# Total GULP energy -178515.581590 kJ/mol
# GULP energy per Si atom -5578.611925 kJ/mol
# Density = 1.673969 g / cm^3
# Si number density = 16.777877 Si / 1000 Ang^3
#
#
#
# Elastic Constant Matrix: (Units=GPa)
#
#
# Indices 1 2 3 4 5 6 
#
# 1 115.5263 27.9910 77.1377 0.0000 -1.7898 0.0000
# 2 27.9910 12.5331 28.6828 0.0000 0.3983 0.0000
# 3 77.1377 28.6828 126.9646 0.0000 -2.9950 0.0000
# 4 0.0000 0.0000 0.0000 27.1029 0.0000 -7.6309
# 5 -1.7898 0.3983 -2.9950 0.0000 23.7763 0.0000
# 6 0.0000 0.0000 0.0000 -7.6309 0.0000 19.1740
#
#
#
# Elastic Compliance Matrix: (Units=1/GPa)
#
#
# Indices 1 2 3 4 5 6 
#
# 1 0.019969 -0.035129 -0.004159 0.000000 0.001568 0.000000
# 2 -0.035129 0.228339 -0.030485 0.000000 -0.010309 0.000000
# 3 -0.004159 -0.030485 0.017346 0.000000 0.002383 0.000000
# 4 0.000000 0.000000 0.000000 0.041552 0.000000 0.016537
# 5 0.001568 -0.010309 0.002383 0.000000 0.042650 0.000000
# 6 0.000000 0.000000 0.000000 0.016537 0.000000 0.058735
#
#
# Mechanical properties :
#
#
# Convention : Reuss Voigt Hill
#
# Bulk Modulus (GPa) = 7.92974 58.07188 33.00081
# Shear Modulus (GPa) = 8.47210 22.09148 15.28179
#
# Velocity S-wave (km/s) = 2.24956 3.63258 3.02127
# Velocity P-wave (km/s) = 3.38880 7.23059 5.64648
#
# Compressibility (1/GPa) = 0.12610756
#
# Stress axis : x y z
#
# Youngs Moduli (GPa) = 50.07791 4.37946 57.64994
#
# Poissons Ratio (x) = 0.15385 0.23977
# Poissons Ratio (y) = 1.75920 1.75743
# Poissons Ratio (z) = 0.20828 0.13351
#
# Static dielectric constant tensor:
#      x y z
#    x 1.566900 0.000000 -0.005430 
#    y 0.000000 1.563580 0.000000 
#    z -0.005430 0.000000 1.555280 
# 
# From -- ./inp_files/49977.got.cif
#   From: 2010.05.17/outbox.cif.g08.bks.cpg/sg10_25_cif.got.tgz:49977.got - 2010.06.03 11:33:40.
