data_PCOD9144539
_publ_section_title
;
Structure prediction by ZEFSAII (Michael W. Deem and Ramdas Pophale) SiO2 
 PCOD9144539
Probable space group: P 2/M
;
_chemical_formula_sum "Si O2"
_cell_formula_units_Z 24
_cell_length_a 16.384003
_cell_length_b 13.061021
_cell_length_c 10.614790
_cell_angle_alpha 90.000000
_cell_angle_beta 145.366115
_cell_angle_gamma 90.000000
_cell_volume 1290.950174
_symmetry_space_group_name_H-M "P 2/M"
_symmetry_group_IT_number 10
_symmetry_cell_setting 'monoclinic'
loop_
_space_group_symop_operation_xyz
x,y,z
-x,y,-z
-x,-y,-z
x,-y,z
loop_
_atom_site_type_symbol
_atom_site_label
_atom_site_fract_x
_atom_site_fract_y
_atom_site_fract_z
Si Si1 0.189230 0.180038 0.507002
Si Si2 0.832848 0.804094 0.800179
Si Si3 0.437958 0.683526 0.794766
Si Si4 0.618497 0.614568 0.543432
Si Si5 0.875795 0.882714 0.124331
Si Si6 0.637828 0.883785 0.032916
O O1 0.202614 0.141926 0.378743
O O2 0.271077 0.288714 0.605441
O O3 0.272923 0.120879 0.723099
O O4 0.020704 0.182765 0.324054
O O5 0.734909 0.704577 0.693819
O O6 0.820872 0.869855 0.911686
O O7 0.000000 0.774613 0.000000
O O8 0.453268 0.623307 0.685512
O O9 0.500000 0.635059 0.000000
O O10 0.520305 0.793573 0.884414
O O11 0.500000 0.631784 0.500000
O O12 0.678219 0.500000 0.635702
O O13 0.750455 0.860960 0.064143
O O14 0.921615 0.000000 0.202769
O O15 0.581373 0.000000 0.945531
#
# Coordination Sequence:
#
# PCOD9144539 Si02
#       6
#     4   4   4   4   4   4
#     4   9  18  30  46  67  94 125 161 193 225 267
#     4   9  19  34  50  71  97 125 157 194 236 279
#     4   9  19  34  50  71  97 125 157 194 236 279
#     4  10  20  35  55  74  92 119 155 197 244 289
#     4  10  19  30  46  69  98 131 162 192 227 269
#     4  10  19  30  46  69  98 131 162 192 227 269
#
# _framework density 18.590955999999998
#
# number of rings (size 3 to 8) (size 9 to 14) (size 15 to 20)
#    0.000    2.500    0.000    2.000    0.000    9.333 
#    0.000    2.500    0.000    9.000    0.000    0.000 
#    0.000   32.000    0.000    0.000    0.000    0.000 
#
# Total GULP energy -133714.454289 kJ/mol
# GULP energy per Si atom -5571.435595 kJ/mol
# Density = 1.854864 g / cm^3
# Si number density = 18.590956 Si / 1000 Ang^3
#
#
#
# Elastic Constant Matrix: (Units=GPa)
#
#
# Indices 1 2 3 4 5 6 
#
# 1 122.9546 30.3487 32.0374 0.0000 -12.3959 0.0000
# 2 30.3487 48.3996 4.0673 0.0000 7.4373 0.0000
# 3 32.0374 4.0673 64.5752 0.0000 -7.9826 0.0000
# 4 0.0000 0.0000 0.0000 9.6454 0.0000 43.2146
# 5 -12.3959 7.4373 -7.9826 0.0000 20.9954 0.0000
# 6 0.0000 0.0000 0.0000 43.2146 0.0000 120.6046
#
#
#
# Elastic Compliance Matrix: (Units=1/GPa)
#
#
# Indices 1 2 3 4 5 6 
#
# 1 0.012315 -0.008671 -0.004497 0.000000 0.008633 0.000000
# 2 -0.008671 0.028331 0.000676 0.000000 -0.014898 0.000000
# 3 -0.004497 0.000676 0.018170 0.000000 0.004014 0.000000
# 4 0.000000 0.000000 0.000000 -0.171260 0.000000 0.061365
# 5 0.008633 -0.014898 0.004014 0.000000 0.059530 0.000000
# 6 0.000000 0.000000 0.000000 0.061365 0.000000 -0.013697
#
#
# Mechanical properties :
#
#
# Convention : Reuss Voigt Hill
#
# Bulk Modulus (GPa) = 29.55694 40.98182 35.26938
# Shear Modulus (GPa) = -164.75384 41.54747 -61.60319
#
# Velocity S-wave (km/s) = -9.42405 4.73252 -5.76264
# Velocity P-wave (km/s) = 10.12344 7.20792 5.02642
#
# Compressibility (1/GPa) = 0.03383300
#
# Stress axis : x y z
#
# Youngs Moduli (GPa) = 81.19946 35.29706 55.03463
#
# Poissons Ratio (x) = 0.30606 0.24747
# Poissons Ratio (y) = 0.70408 -0.03719
# Poissons Ratio (z) = 0.36512 -0.02385
#
# Static dielectric constant tensor:
#      x y z
#    x 1.652680 0.000000 -0.020650 
#    y 0.000000 1.611280 0.000000 
#    z -0.020650 0.000000 1.677620 
# 
# From -- ./inp_files/29244.got.cif
#   From: 2010.05.17/outbox.cif.g08.bks.cpg/sg10_15_cif.got.tgz:29244.got - 2010.06.03 11:33:40.
