data_PCOD9144817
_publ_section_title
;
Structure prediction by ZEFSAII (Michael W. Deem and Ramdas Pophale) SiO2 
 PCOD9144817
Probable space group: P 2/M
;
_chemical_formula_sum "Si O2"
_cell_formula_units_Z 28
_cell_length_a 18.002266
_cell_length_b 9.748079
_cell_length_c 19.071502
_cell_angle_alpha 90.000000
_cell_angle_beta 32.435736
_cell_angle_gamma 90.000000
_cell_volume 1795.072837
_symmetry_space_group_name_H-M "P 2/M"
_symmetry_group_IT_number 10
_symmetry_cell_setting 'monoclinic'
loop_
_space_group_symop_operation_xyz
x,y,z
-x,y,-z
-x,-y,-z
x,-y,z
loop_
_atom_site_type_symbol
_atom_site_label
_atom_site_fract_x
_atom_site_fract_y
_atom_site_fract_z
Si Si1 0.044933 0.842673 0.310415
Si Si2 0.846427 0.342157 0.658248
Si Si3 0.420551 0.337352 0.636150
Si Si4 0.090299 0.163621 0.725707
Si Si5 0.389839 0.163562 0.417091
Si Si6 0.738960 0.842637 0.625660
Si Si7 0.102391 0.337249 0.854189
O O1 0.136662 0.739863 0.282686
O O2 0.015688 0.804317 0.253171
O O3 0.892174 0.843360 0.468099
O O4 0.095739 0.000000 0.273714
O O5 0.806202 0.500000 0.699724
O O6 0.748051 0.260202 0.683160
O O7 0.000000 0.341393 0.500000
O O8 0.500000 0.307898 0.500000
O O9 0.435651 0.500000 0.638427
O O10 0.490713 0.249365 0.641189
O O11 0.259424 0.306564 0.752662
O O12 0.245186 0.192698 0.572949
O O13 0.066853 0.249599 0.814083
O O14 0.082732 0.000000 0.744392
O O15 0.363278 0.195719 0.356392
O O16 0.413921 0.000000 0.403230
O O17 0.711662 0.000000 0.669388
O O18 0.095663 0.500000 0.843139
O O19 0.000000 0.309150 0.000000
#
# Coordination Sequence:
#
# PCOD9144817 Si02
#       7
#     4   4   4   4   4   4   4
#     4   8  14  24  37  53  77 111 145 177 215 260
#     4   9  15  21  31  52  80 111 146 179 213 254
#     4  10  19  31  47  67  88 115 152 188 224 269
#     4   9  17  29  45  65  87 113 150 190 226 266
#     4   9  17  28  44  66  88 114 149 188 227 265
#     4   8  14  24  36  52  79 113 144 174 215 263
#     4  10  21  35  48  64  90 121 150 185 231 275
#
# _framework density 15.598253
#
# number of rings (size 3 to 8) (size 9 to 14) (size 15 to 20)
#    0.000    3.000    1.429    2.143    0.000    4.000 
#    0.000    2.857    0.000    0.000    0.000    0.000 
#    0.000    1.143    0.000   12.857    0.000    9.714 
#
# Total GULP energy -155932.733776 kJ/mol
# GULP energy per Si atom -5569.026206 kJ/mol
# Density = 1.556275 g / cm^3
# Si number density = 15.598253 Si / 1000 Ang^3
#
#
#
# Elastic Constant Matrix: (Units=GPa)
#
#
# Indices 1 2 3 4 5 6 
#
# 1 170.1245 105.4470 39.0695 0.0000 7.7644 0.0000
# 2 105.4470 87.9598 28.2803 0.0000 6.7002 0.0000
# 3 39.0695 28.2803 46.4915 0.0000 2.1025 0.0000
# 4 0.0000 0.0000 0.0000 9.1255 0.0000 -4.5283
# 5 7.7644 6.7002 2.1025 0.0000 8.8541 0.0000
# 6 0.0000 0.0000 0.0000 -4.5283 0.0000 -7.5031
#
#
#
# Elastic Compliance Matrix: (Units=1/GPa)
#
#
# Indices 1 2 3 4 5 6 
#
# 1 0.023260 -0.026907 -0.003213 0.000000 0.000727 0.000000
# 2 -0.026907 0.045962 -0.004893 0.000000 -0.010023 0.000000
# 3 -0.003213 -0.004893 0.027183 0.000000 0.000065 0.000000
# 4 0.000000 0.000000 0.000000 0.084328 0.000000 -0.050894
# 5 0.000727 -0.010023 0.000065 0.000000 0.119874 0.000000
# 6 0.000000 0.000000 0.000000 -0.050894 0.000000 -0.102562
#
#
# Mechanical properties :
#
#
# Convention : Reuss Voigt Hill
#
# Bulk Modulus (GPa) = 37.90894 72.24103 55.07499
# Shear Modulus (GPa) = 18.05942 10.88057 14.46999
#
# Velocity S-wave (km/s) = 3.40631 2.64398 3.04907
# Velocity P-wave (km/s) = 6.31084 7.46558 6.91237
#
# Compressibility (1/GPa) = 0.02637900
#
# Stress axis : x y z
#
# Youngs Moduli (GPa) = 42.99169 21.75702 36.78827
#
# Poissons Ratio (x) = 0.58542 0.11818
# Poissons Ratio (y) = 1.15678 0.18002
# Poissons Ratio (z) = 0.13811 0.10646
#
# Static dielectric constant tensor:
#      x y z
#    x 1.519520 0.000000 -0.000030 
#    y 0.000000 1.516670 0.000000 
#    z -0.000030 0.000000 1.492260 
# 
# From -- ./inp_files/38003.got.cif
#   From: 2010.05.17/outbox.cif.g08.bks.cpg/sg10_20_cif.got.tgz:38003.got - 2010.06.03 11:33:40.
