data_PCOD9144063
_publ_section_title
;
Structure prediction by ZEFSAII (Michael W. Deem and Ramdas Pophale) SiO2 
 PCOD9144063
Probable space group: P 2/M
;
_chemical_formula_sum "Si O2"
_cell_formula_units_Z 32
_cell_length_a 9.684875
_cell_length_b 13.450570
_cell_length_c 21.498697
_cell_angle_alpha 90.000000
_cell_angle_beta 33.362101
_cell_angle_gamma 90.000000
_cell_volume 1540.114450
_symmetry_space_group_name_H-M "P 2/M"
_symmetry_group_IT_number 10
_symmetry_cell_setting 'monoclinic'
loop_
_space_group_symop_operation_xyz
x,y,z
-x,y,-z
-x,-y,-z
x,-y,z
loop_
_atom_site_type_symbol
_atom_site_label
_atom_site_fract_x
_atom_site_fract_y
_atom_site_fract_z
Si Si1 0.617104 0.793121 0.818064
Si Si2 0.210746 0.111966 0.473907
Si Si3 0.316685 0.612569 0.124496
Si Si4 0.499363 0.263569 0.432881
Si Si5 0.935515 0.195999 0.919603
Si Si6 0.034957 0.115805 0.745537
Si Si7 0.561799 0.888893 0.229653
Si Si8 0.165515 0.386351 0.778825
O O1 0.674276 0.682201 0.819576
O O2 0.822386 0.860990 0.774670
O O3 0.596522 0.814337 0.753106
O O4 0.336841 0.813556 0.948868
O O5 0.251470 0.201582 0.506499
O O6 0.464432 0.113569 0.336913
O O7 0.000000 0.124124 0.500000
O O8 0.179941 0.000000 0.512446
O O9 0.397830 0.500000 0.107405
O O10 0.040556 0.611851 0.199077
O O11 0.500000 0.650791 0.000000
O O12 0.500000 0.315377 0.500000
O O13 0.588709 0.336557 0.344164
O O14 0.717242 0.180599 0.359176
O O15 0.147147 0.137142 0.877594
O O16 0.042221 0.309196 0.874023
O O17 0.931124 0.152989 0.851291
O O18 0.093741 0.000000 0.725463
O O19 0.518474 0.000000 0.221609
O O20 0.199429 0.500000 0.787505
#
# Coordination Sequence:
#
# PCOD9144063 Si02
#       8
#     4   4   4   4   4   4   4   4
#     4  12  22  35  56  90 122 154 204 242 288 348
#     4  10  22  40  61  84 114 159 202 238 293 358
#     4  10  18  34  60  88 117 151 195 246 300 346
#     4  11  23  39  62  89 114 146 192 256 305 352
#     4  11  21  38  58  84 117 165 202 237 287 353
#     4  11  22  36  56  85 121 154 198 252 294 341
#     4  11  24  40  56  81 125 169 199 235 291 357
#     4  10  20  37  63  89 116 151 191 243 304 358
#
# _framework density 20.777676
#
# number of rings (size 3 to 8) (size 9 to 14) (size 15 to 20)
#    0.000    1.250    6.250    1.875    1.750    4.250 
#    0.000    0.625    0.000    1.875    0.000    0.000 
#    0.000    0.000    0.000    0.000    0.000    0.000 
#
# Total GULP energy -178775.738387 kJ/mol
# GULP energy per Si atom -5586.741825 kJ/mol
# Density = 2.073038 g / cm^3
# Si number density = 20.777676 Si / 1000 Ang^3
#
#
#
# Elastic Constant Matrix: (Units=GPa)
#
#
# Indices 1 2 3 4 5 6 
#
# 1 64.5511 1.7020 -4.2529 0.0000 -2.4147 0.0000
# 2 1.7020 83.6215 2.6578 0.0000 3.7988 0.0000
# 3 -4.2529 2.6578 38.5096 0.0000 -5.8872 0.0000
# 4 0.0000 0.0000 0.0000 11.3798 0.0000 -2.0594
# 5 -2.4147 3.7988 -5.8872 0.0000 27.4799 0.0000
# 6 0.0000 0.0000 0.0000 -2.0594 0.0000 26.9471
#
#
#
# Elastic Compliance Matrix: (Units=1/GPa)
#
#
# Indices 1 2 3 4 5 6 
#
# 1 0.015710 -0.000471 0.002056 0.000000 0.001886 0.000000
# 2 -0.000471 0.012095 -0.001188 0.000000 -0.001968 0.000000
# 3 0.002056 -0.001188 0.027221 0.000000 0.006177 0.000000
# 4 0.000000 0.000000 0.000000 0.089108 0.000000 0.006810
# 5 0.001886 -0.001968 0.006177 0.000000 0.038151 0.000000
# 6 0.000000 0.000000 0.000000 0.006810 0.000000 0.037630
#
#
# Mechanical properties :
#
#
# Convention : Reuss Voigt Hill
#
# Bulk Modulus (GPa) = 17.91437 20.76619 19.34028
# Shear Modulus (GPa) = 21.03249 25.59972 23.31611
#
# Velocity S-wave (km/s) = 3.18506 3.51390 3.35352
# Velocity P-wave (km/s) = 4.70816 5.14583 4.93185
#
# Compressibility (1/GPa) = 0.05582111
#
# Stress axis : x y z
#
# Youngs Moduli (GPa) = 63.65365 82.67622 36.73655
#
# Poissons Ratio (x) = 0.03892 -0.07552
# Poissons Ratio (y) = 0.02997 0.04363
# Poissons Ratio (z) = -0.13086 0.09819
#
# Static dielectric constant tensor:
#      x y z
#    x 1.752930 0.000000 -0.004530 
#    y 0.000000 1.760190 0.000000 
#    z -0.004530 0.000000 1.792310 
# 
# From -- ./inp_files/82809.got.cif
#   From: 2010.05.17/outbox.cif.g08.bks.cpg/sg10_42_cif.got.tgz:82809.got - 2010.06.03 11:33:40.
