data_PCOD9144294
_publ_section_title
;
Structure prediction by ZEFSAII (Michael W. Deem and Ramdas Pophale) SiO2 
 PCOD9144294
Probable space group: P 2/M
;
_chemical_formula_sum "Si O2"
_cell_formula_units_Z 32
_cell_length_a 23.080629
_cell_length_b 13.902247
_cell_length_c 16.999329
_cell_angle_alpha 90.000000
_cell_angle_beta 23.133741
_cell_angle_gamma 90.000000
_cell_volume 2143.003744
_symmetry_space_group_name_H-M "P 2/M"
_symmetry_group_IT_number 10
_symmetry_cell_setting 'monoclinic'
loop_
_space_group_symop_operation_xyz
x,y,z
-x,y,-z
-x,-y,-z
x,-y,z
loop_
_atom_site_type_symbol
_atom_site_label
_atom_site_fract_x
_atom_site_fract_y
_atom_site_fract_z
Si Si1 0.457565 0.202423 0.320441
Si Si2 0.159283 0.116191 0.619683
Si Si3 0.728144 0.887580 0.680912
Si Si4 0.256689 0.388895 0.813517
Si Si5 0.601415 0.886029 0.445024
Si Si6 0.913742 0.214151 0.027060
Si Si7 0.512368 0.388718 0.618656
Si Si8 0.591656 0.113680 0.005876
O O1 0.297320 0.170142 0.487864
O O2 0.476096 0.141530 0.376905
O O3 0.465356 0.312151 0.340048
O O4 0.573258 0.173155 0.108591
O O5 0.160460 0.146148 0.525934
O O6 0.182460 0.000000 0.595158
O O7 0.013801 0.146575 0.847505
O O8 0.568667 0.882427 0.836763
O O9 0.760069 0.000000 0.653477
O O10 0.705375 0.848376 0.797454
O O11 0.208282 0.500000 0.877580
O O12 0.127884 0.312131 0.965584
O O13 0.362550 0.370491 0.756127
O O14 0.358611 0.378735 0.607953
O O15 0.500000 0.851758 0.500000
O O16 0.760500 0.837288 0.240265
O O17 0.619689 0.000000 0.417070
O O18 0.000000 0.234278 0.000000
O O19 0.511686 0.500000 0.645518
O O20 0.618049 0.000000 0.989773
#
# Coordination Sequence:
#
# PCOD9144294 Si02
#       8
#     4   4   4   4   4   4   4   4
#     4  11  17  27  45  67  91 119 154 189 232 274
#     4  10  19  29  43  65  97 131 156 182 223 275
#     4   7  12  24  39  59  87 119 154 187 221 265
#     4   9  18  33  49  63  84 117 156 197 235 269
#     4  11  22  32  42  61  94 130 161 188 215 265
#     4  12  21  30  45  68  95 127 154 189 229 278
#     4   9  17  31  49  65  84 114 154 199 238 269
#     4   8  13  22  40  64  89 116 149 190 228 266
#
# _framework density 14.932313000000001
#
# number of rings (size 3 to 8) (size 9 to 14) (size 15 to 20)
#    0.000    2.375    2.500    4.500    0.000    0.750 
#    0.000    0.625    0.000    0.000    0.000   11.375 
#    0.000   16.000    0.000    0.000    0.000    0.000 
#
# Total GULP energy -178148.559307 kJ/mol
# GULP energy per Si atom -5567.142478 kJ/mol
# Density = 1.489833 g / cm^3
# Si number density = 14.932313 Si / 1000 Ang^3
#
#
#
# Elastic Constant Matrix: (Units=GPa)
#
#
# Indices 1 2 3 4 5 6 
#
# 1 83.9263 44.1995 40.1156 0.0000 19.3952 0.0000
# 2 44.1995 91.2212 28.8820 0.0000 2.8572 0.0000
# 3 40.1156 28.8820 42.1007 0.0000 12.4686 0.0000
# 4 0.0000 0.0000 0.0000 -11.4701 0.0000 -22.8301
# 5 19.3952 2.8572 12.4686 0.0000 27.4435 0.0000
# 6 0.0000 0.0000 0.0000 -22.8301 0.0000 6.9886
#
#
#
# Elastic Compliance Matrix: (Units=1/GPa)
#
#
# Indices 1 2 3 4 5 6 
#
# 1 0.026009 -0.006863 -0.017150 0.000000 -0.009875 0.000000
# 2 -0.006863 0.016088 -0.006283 0.000000 0.006030 0.000000
# 3 -0.017150 -0.006283 0.046937 0.000000 -0.008550 0.000000
# 4 0.000000 0.000000 0.000000 -0.011621 0.000000 -0.037963
# 5 -0.009875 0.006030 -0.008550 0.000000 0.046674 0.000000
# 6 0.000000 0.000000 0.000000 -0.037963 0.000000 0.019073
#
#
# Mechanical properties :
#
#
# Convention : Reuss Voigt Hill
#
# Bulk Modulus (GPa) = 35.16000 49.29360 42.22680
# Shear Modulus (GPa) = 23.44845 11.52914 17.48880
#
# Velocity S-wave (km/s) = 3.96702 2.78167 3.42600
# Velocity P-wave (km/s) = 6.67685 6.58786 6.63251
#
# Compressibility (1/GPa) = 0.02844141
#
# Stress axis : x y z
#
# Youngs Moduli (GPa) = 38.44805 62.15726 21.30532
#
# Poissons Ratio (x) = 0.42658 0.36539
# Poissons Ratio (y) = 0.26387 0.13387
# Poissons Ratio (z) = 0.65938 0.39056
#
# Static dielectric constant tensor:
#      x y z
#    x 1.510620 0.000000 0.016700 
#    y 0.000000 1.499730 0.000000 
#    z 0.016700 0.000000 1.509630 
# 
# From -- ./inp_files/80336.got.cif
#   From: 2010.05.17/outbox.cif.g08.bks.cpg/sg10_41_cif.got.tgz:80336.got - 2010.06.03 11:33:40.
