data_PCOD9144630
_publ_section_title
;
Structure prediction by ZEFSAII (Michael W. Deem and Ramdas Pophale) SiO2 
 PCOD9144630
Probable space group: P 2/M
;
_chemical_formula_sum "Si O2"
_cell_formula_units_Z 24
_cell_length_a 15.309458
_cell_length_b 10.670899
_cell_length_c 15.650958
_cell_angle_alpha 90.000000
_cell_angle_beta 152.173380
_cell_angle_gamma 90.000000
_cell_volume 1193.521755
_symmetry_space_group_name_H-M "P 2/M"
_symmetry_group_IT_number 10
_symmetry_cell_setting 'monoclinic'
loop_
_space_group_symop_operation_xyz
x,y,z
-x,y,-z
-x,-y,-z
x,-y,z
loop_
_atom_site_type_symbol
_atom_site_label
_atom_site_fract_x
_atom_site_fract_y
_atom_site_fract_z
Si Si1 0.963717 0.287057 0.657892
Si Si2 0.680102 0.359088 0.943092
Si Si3 0.677802 0.353233 0.262557
Si Si4 0.290100 0.354106 0.216026
Si Si5 0.259860 0.647501 0.375617
Si Si6 0.169787 0.135033 0.714148
O O1 0.848072 0.343268 0.478289
O O2 0.829259 0.279261 0.622913
O O3 0.065219 0.162208 0.712428
O O4 0.140176 0.365961 0.842141
O O5 0.614266 0.500000 0.863790
O O6 0.504893 0.306352 0.843539
O O7 0.741673 0.299365 0.905891
O O8 0.657463 0.500000 0.219448
O O9 0.716837 0.257165 0.219275
O O10 0.229338 0.500000 0.161984
O O11 0.515676 0.350733 0.421114
O O12 0.210853 0.305233 0.237744
O O13 0.203857 0.500000 0.334635
O O14 0.000000 0.127977 0.500000
O O15 0.267408 0.000000 0.798530
#
# Coordination Sequence:
#
# PCOD9144630 Si02
#       6
#     4   4   4   4   4   4
#     4  11  20  31  52  76 101 139 180 215 256 312
#     4  10  19  30  47  77 111 139 172 214 260 309
#     4  10  20  35  54  77 107 138 172 220 264 303
#     4   8  15  27  43  68 109 145 169 203 256 310
#     4   9  15  26  46  72 104 143 173 205 255 308
#     4   9  21  40  58  77 104 140 177 215 265 318
#
# _framework density 20.108556
#
# number of rings (size 3 to 8) (size 9 to 14) (size 15 to 20)
#    0.000    2.500    1.667    2.500    0.000    5.667 
#    0.000    5.833    0.000    0.000    0.000    5.833 
#    0.000    0.000    0.000    0.000    0.000    0.000 
#
# Total GULP energy -133660.570012 kJ/mol
# GULP energy per Si atom -5569.190417 kJ/mol
# Density = 2.006279 g / cm^3
# Si number density = 20.108556 Si / 1000 Ang^3
#
#
#
# Elastic Constant Matrix: (Units=GPa)
#
#
# Indices 1 2 3 4 5 6 
#
# 1 159.9637 53.6891 18.6756 0.0000 -11.3236 0.0000
# 2 53.6891 67.7464 5.3340 0.0000 -3.3265 0.0000
# 3 18.6756 5.3340 71.1771 0.0000 -4.9005 0.0000
# 4 0.0000 0.0000 0.0000 4.2797 0.0000 18.2556
# 5 -11.3236 -3.3265 -4.9005 0.0000 23.2640 0.0000
# 6 0.0000 0.0000 0.0000 18.2556 0.0000 29.6990
#
#
#
# Elastic Compliance Matrix: (Units=1/GPa)
#
#
# Indices 1 2 3 4 5 6 
#
# 1 0.008942 -0.006809 -0.001627 0.000000 0.003036 0.000000
# 2 -0.006809 0.020118 0.000252 0.000000 -0.000384 0.000000
# 3 -0.001627 0.000252 0.014617 0.000000 0.002323 0.000000
# 4 0.000000 0.000000 0.000000 -0.144054 0.000000 0.088548
# 5 0.003036 -0.000384 0.002323 0.000000 0.044897 0.000000
# 6 0.000000 0.000000 0.000000 0.088548 0.000000 -0.020759
#
#
# Mechanical properties :
#
#
# Convention : Reuss Voigt Hill
#
# Bulk Modulus (GPa) = 36.61606 50.47609 43.54607
# Shear Modulus (GPa) = -98.48718 26.19444 -36.14637
#
# Velocity S-wave (km/s) = -7.00600 3.61314 -4.24437
# Velocity P-wave (km/s) = 6.86999 6.52401 1.52217
#
# Compressibility (1/GPa) = 0.02731042
#
# Stress axis : x y z
#
# Youngs Moduli (GPa) = 111.83652 49.70572 68.41183
#
# Poissons Ratio (x) = 0.33845 0.11129
# Poissons Ratio (y) = 0.76151 -0.01727
# Poissons Ratio (z) = 0.18194 -0.01255
#
# Static dielectric constant tensor:
#      x y z
#    x 1.804680 0.000000 -0.014250 
#    y 0.000000 1.695990 0.000000 
#    z -0.014250 0.000000 1.754350 
# 
# From -- ./inp_files/67404.got.cif
#   From: 2010.05.17/outbox.cif.g08.bks.cpg/sg10_34_cif.got.tgz:67404.got - 2010.06.03 11:33:40.
