data_PCOD9144102
_publ_section_title
;
Structure prediction by ZEFSAII (Michael W. Deem and Ramdas Pophale) SiO2 
 PCOD9144102
Probable space group: P 2/M
;
_chemical_formula_sum "Si O2"
_cell_formula_units_Z 29
_cell_length_a 8.491824
_cell_length_b 17.654234
_cell_length_c 20.075338
_cell_angle_alpha 90.000000
_cell_angle_beta 28.843671
_cell_angle_gamma 90.000000
_cell_volume 1451.908827
_symmetry_space_group_name_H-M "P 2/M"
_symmetry_group_IT_number 10
_symmetry_cell_setting 'monoclinic'
loop_
_space_group_symop_operation_xyz
x,y,z
-x,y,-z
-x,-y,-z
x,-y,z
loop_
_atom_site_type_symbol
_atom_site_label
_atom_site_fract_x
_atom_site_fract_y
_atom_site_fract_z
Si Si1 0.883754 0.802574 0.971250
Si Si2 0.147729 0.416145 0.595995
Si Si3 0.213703 0.356756 0.831255
Si Si4 0.088539 0.718969 0.395635
Si Si5 0.858877 0.645046 0.832533
Si Si6 0.888159 0.801422 0.747801
Si Si7 0.099033 0.913472 0.151048
Si Si8 0.000000 0.500000 0.000000
O O1 0.017630 0.856396 0.863582
O O2 0.963015 0.713610 0.934456
O O3 0.498886 0.809466 0.111687
O O4 0.000000 0.828542 0.000000
O O5 0.500000 0.410693 0.500000
O O6 0.096432 0.500000 0.588455
O O7 0.117069 0.354135 0.550433
O O8 0.888523 0.400740 0.752121
O O9 0.548875 0.315998 0.729475
O O10 0.133172 0.378209 0.784395
O O11 0.154258 0.431928 0.895377
O O12 0.023293 0.776974 0.359543
O O13 0.000000 0.751070 0.500000
O O14 0.939294 0.730290 0.778524
O O15 0.500000 0.638979 0.000000
O O16 0.014059 0.876301 0.737363
O O17 0.995857 0.000000 0.180513
O O18 0.500000 0.913151 0.000000
#
# Coordination Sequence:
#
# PCOD9144102 Si02
#       8
#     4   4   4   4   4   4   4   1
#     4  11  18  34  58  85 123 157 186 235 300 356
#     4  10  24  43  58  78 111 152 197 252 311 358
#     4  12  23  38  56  83 121 154 200 247 299 353
#     4  11  24  40  61  82 111 156 207 249 299 356
#     4  11  21  35  60  84 111 152 200 246 292 355
#     4  10  18  35  59  83 116 156 191 242 289 350
#     4   9  18  32  56  91 124 155 190 231 293 364
#     4  12  28  36  56  88 122 160 192 240 312 356
#
# _framework density 19.973707000000001
#
# number of rings (size 3 to 8) (size 9 to 14) (size 15 to 20)
#    0.000    1.379    4.828    1.241    3.862    0.828 
#    0.000    0.000    0.000    0.414    0.000    0.966 
#    0.000    0.000    0.000    0.000    0.000    0.000 
#
# Total GULP energy -161475.104179 kJ/mol
# GULP energy per Si atom -5568.107041 kJ/mol
# Density = 1.992825 g / cm^3
# Si number density = 19.973707 Si / 1000 Ang^3
#
#
#
# Elastic Constant Matrix: (Units=GPa)
#
#
# Indices 1 2 3 4 5 6 
#
# 1 75.0899 34.1776 14.2297 0.0000 20.4470 0.0000
# 2 34.1776 109.6423 16.5664 0.0000 23.3694 0.0000
# 3 14.2297 16.5664 44.7962 0.0000 23.2412 0.0000
# 4 0.0000 0.0000 0.0000 -0.3194 0.0000 -2.9506
# 5 20.4470 23.3694 23.2412 0.0000 28.2136 0.0000
# 6 0.0000 0.0000 0.0000 -2.9506 0.0000 9.9062
#
#
#
# Elastic Compliance Matrix: (Units=1/GPa)
#
#
# Indices 1 2 3 4 5 6 
#
# 1 0.017604 -0.003319 0.001446 0.000000 -0.011200 0.000000
# 2 -0.003319 0.011736 0.000890 0.000000 -0.008049 0.000000
# 3 0.001446 0.000890 0.039225 0.000000 -0.034098 0.000000
# 4 0.000000 0.000000 0.000000 -0.834585 0.000000 -0.248581
# 5 -0.011200 -0.008049 -0.034098 0.000000 0.078316 0.000000
# 6 0.000000 0.000000 0.000000 -0.248581 0.000000 0.026906
#
#
# Mechanical properties :
#
#
# Convention : Reuss Voigt Hill
#
# Bulk Modulus (GPa) = 15.01489 39.94176 27.47832
# Shear Modulus (GPa) = -7.85383 18.53040 5.33828
#
# Velocity S-wave (km/s) = -1.98510 3.04919 1.63660
# Velocity P-wave (km/s) = 1.50980 5.69537 4.16634
#
# Compressibility (1/GPa) = 0.06660057
#
# Stress axis : x y z
#
# Youngs Moduli (GPa) = 56.80646 85.20635 25.49382
#
# Poissons Ratio (x) = 0.28277 -0.03687
# Poissons Ratio (y) = 0.18852 -0.02269
# Poissons Ratio (z) = -0.08216 -0.07584
#
# Static dielectric constant tensor:
#      x y z
#    x 1.748930 0.000000 0.011160 
#    y 0.000000 1.695910 0.000000 
#    z 0.011160 0.000000 1.783850 
# 
# From -- ./inp_files/83006.got.cif
#   From: 2010.05.17/outbox.cif.g08.bks.cpg/sg10_42_cif.got.tgz:83006.got - 2010.06.03 11:33:40.
