data_PCOD9144183
_publ_section_title
;
Structure prediction by ZEFSAII (Michael W. Deem and Ramdas Pophale) SiO2 
 PCOD9144183
Probable space group: P 2/M
;
_chemical_formula_sum "Si O2"
_cell_formula_units_Z 24
_cell_length_a 8.261235
_cell_length_b 13.658914
_cell_length_c 15.701721
_cell_angle_alpha 90.000000
_cell_angle_beta 141.088925
_cell_angle_gamma 90.000000
_cell_volume 1112.875329
_symmetry_space_group_name_H-M "P 2/M"
_symmetry_group_IT_number 10
_symmetry_cell_setting 'monoclinic'
loop_
_space_group_symop_operation_xyz
x,y,z
-x,y,-z
-x,-y,-z
x,-y,z
loop_
_atom_site_type_symbol
_atom_site_label
_atom_site_fract_x
_atom_site_fract_y
_atom_site_fract_z
Si Si1 0.224984 0.707412 0.437481
Si Si2 0.184669 0.500000 0.158291
Si Si3 0.905427 0.890283 0.238748
Si Si4 0.523971 0.259749 0.917497
Si Si5 0.816323 0.500000 0.647592
Si Si6 0.048104 0.163584 0.110642
Si Si7 0.480348 0.304877 0.716253
O O1 0.500000 0.712807 0.500000
O O2 0.102545 0.604450 0.357513
O O3 0.272104 0.700681 0.557247
O O4 0.077921 0.806261 0.352419
O O5 0.085389 0.500000 0.214789
O O6 0.359665 0.403778 0.227914
O O7 0.000000 0.500000 0.000000
O O8 0.618350 0.845501 0.129959
O O9 0.994042 0.891401 0.176169
O O10 0.924310 0.000000 0.281205
O O11 0.400099 0.302427 0.781752
O O12 0.500000 0.309288 0.000000
O O13 0.826617 0.247712 0.022684
O O14 0.500000 0.500000 0.500000
O O15 0.326191 0.213812 0.222020
O O16 0.000000 0.112741 0.000000
#
# Coordination Sequence:
#
# PCOD9144183 Si02
#       7
#     4   2   4   4   2   4   4
#     4  11  20  38  65  92 122 161 203 254 308 374
#     4  12  20  30  62 101 126 155 205 265 315 368
#     4  11  23  39  60  86 122 165 207 257 311 363
#     4   9  21  39  58  80 122 167 200 246 312 373
#     4  10  18  38  63  95 129 161 200 250 323 380
#     4   9  18  36  61  87 117 156 203 255 311 374
#     4  11  20  38  62  92 122 159 208 257 308 369
#
# _framework density 21.565757999999999
#
# number of rings (size 3 to 8) (size 9 to 14) (size 15 to 20)
#    0.000    1.667    5.000    1.500    0.000    5.667 
#    0.000    5.417    0.000    4.000    0.000    0.000 
#    0.000    0.000    0.000    0.000    0.000    0.000 
#
# Total GULP energy -133853.902144 kJ/mol
# GULP energy per Si atom -5577.245923 kJ/mol
# Density = 2.151667 g / cm^3
# Si number density = 21.565758 Si / 1000 Ang^3
#
#
#
# Elastic Constant Matrix: (Units=GPa)
#
#
# Indices 1 2 3 4 5 6 
#
# 1 85.2398 10.7514 46.1113 0.0000 -24.3338 0.0000
# 2 10.7514 125.6324 60.7127 0.0000 -9.2885 0.0000
# 3 46.1113 60.7127 152.8214 0.0000 -51.6571 0.0000
# 4 0.0000 0.0000 0.0000 11.0623 0.0000 -11.2485
# 5 -24.3338 -9.2885 -51.6571 0.0000 50.4499 0.0000
# 6 0.0000 0.0000 0.0000 -11.2485 0.0000 17.4680
#
#
#
# Elastic Compliance Matrix: (Units=1/GPa)
#
#
# Indices 1 2 3 4 5 6 
#
# 1 0.014537 0.000683 -0.003433 0.000000 0.003622 0.000000
# 2 0.000683 0.010269 -0.005406 0.000000 -0.003316 0.000000
# 3 -0.003433 -0.005406 0.013506 0.000000 0.011177 0.000000
# 4 0.000000 0.000000 0.000000 0.261862 0.000000 0.168627
# 5 0.003622 -0.003316 0.011177 0.000000 0.032403 0.000000
# 6 0.000000 0.000000 0.000000 0.168627 0.000000 0.165835
#
#
# Mechanical properties :
#
#
# Convention : Reuss Voigt Hill
#
# Bulk Modulus (GPa) = 45.45965 66.53826 55.99896
# Shear Modulus (GPa) = 9.57749 32.20392 20.89071
#
# Velocity S-wave (km/s) = 2.10967 3.86850 3.11577
# Velocity P-wave (km/s) = 5.20188 7.13263 6.24235
#
# Compressibility (1/GPa) = 0.02199753
#
# Stress axis : x y z
#
# Youngs Moduli (GPa) = 68.79156 97.38187 74.04337
#
# Poissons Ratio (x) = -0.06650 0.25421
# Poissons Ratio (y) = -0.04698 0.40031
# Poissons Ratio (z) = 0.23617 0.52649
#
# Static dielectric constant tensor:
#      x y z
#    x 1.862720 0.000000 -0.017950 
#    y 0.000000 1.759430 0.000000 
#    z -0.017950 0.000000 1.844580 
# 
# From -- ./inp_files/61999.got.cif
#   From: 2010.05.17/outbox.cif.g08.bks.cpg/sg10_31_cif.got.tgz:61999.got - 2010.06.03 11:33:40.
