data_PCOD9144146
_publ_section_title
;
Structure prediction by ZEFSAII (Michael W. Deem and Ramdas Pophale) SiO2 
 PCOD9144146
Probable space group: P 2/M
;
_chemical_formula_sum "Si O2"
_cell_formula_units_Z 20
_cell_length_a 14.334108
_cell_length_b 11.386492
_cell_length_c 11.770912
_cell_angle_alpha 90.000000
_cell_angle_beta 149.890535
_cell_angle_gamma 90.000000
_cell_volume 963.772891
_symmetry_space_group_name_H-M "P 2/M"
_symmetry_group_IT_number 10
_symmetry_cell_setting 'monoclinic'
loop_
_space_group_symop_operation_xyz
x,y,z
-x,y,-z
-x,-y,-z
x,-y,z
loop_
_atom_site_type_symbol
_atom_site_label
_atom_site_fract_x
_atom_site_fract_y
_atom_site_fract_z
Si Si1 0.600558 0.500000 0.927357
Si Si2 0.018524 0.500000 0.381797
Si Si3 0.500000 0.298455 0.000000
Si Si4 0.999752 0.865805 0.837729
Si Si5 0.720055 0.247831 0.705863
Si Si6 0.653282 0.500000 0.562484
Si Si7 0.123115 0.755720 0.516502
O O1 0.575322 0.386231 0.981292
O O2 0.457057 0.500000 0.672737
O O3 0.814313 0.500000 0.112947
O O4 0.000000 0.500000 0.500000
O O5 0.119152 0.621942 0.462811
O O6 0.333913 0.222976 0.774385
O O7 0.811056 0.839270 0.709410
O O8 0.958582 0.839413 0.664160
O O9 0.056785 0.000000 0.915809
O O10 0.159222 0.780272 0.055084
O O11 0.500000 0.234500 0.500000
O O12 0.756795 0.377785 0.693854
O O13 0.500000 0.500000 0.500000
O O14 0.000000 0.757887 0.500000
#
# Coordination Sequence:
#
# PCOD9144146 Si02
#       7
#     2   2   2   4   4   2   4
#     4  11  19  33  58  88 133 160 200 238 306 395
#     4  10  18  36  58  92 123 169 201 242 322 389
#     4  11  20  36  61  88 124 168 203 245 306 386
#     4  11  26  44  65  91 122 171 230 263 301 368
#     4  10  23  44  68  95 126 163 205 266 325 377
#     4  10  23  35  61 103 129 154 195 251 323 399
#     4  11  23  38  61  94 128 164 206 257 319 374
#
# _framework density 20.751777000000001
#
# number of rings (size 3 to 8) (size 9 to 14) (size 15 to 20)
#    0.000    1.400    4.000    3.000    5.600    6.000 
#    0.000    0.500    0.000    0.000    0.000    0.000 
#    0.000    0.000    0.000    0.000    0.000    0.000 
#
# Total GULP energy -111745.538543 kJ/mol
# GULP energy per Si atom -5587.276927 kJ/mol
# Density = 2.070454 g / cm^3
# Si number density = 20.751777 Si / 1000 Ang^3
#
#
#
# Elastic Constant Matrix: (Units=GPa)
#
#
# Indices 1 2 3 4 5 6 
#
# 1 64.1198 -0.0734 46.1175 0.0000 -7.2588 0.0000
# 2 -0.0734 70.5983 54.3052 0.0000 -14.3086 0.0000
# 3 46.1175 54.3052 168.5678 0.0000 -4.4423 0.0000
# 4 0.0000 0.0000 0.0000 27.0920 0.0000 33.0876
# 5 -7.2588 -14.3086 -4.4423 0.0000 41.3512 0.0000
# 6 0.0000 0.0000 0.0000 33.0876 0.0000 169.7037
#
#
#
# Elastic Compliance Matrix: (Units=1/GPa)
#
#
# Indices 1 2 3 4 5 6 
#
# 1 0.022294 0.007639 -0.008411 0.000000 0.005653 0.000000
# 2 0.007639 0.022992 -0.009278 0.000000 0.008300 0.000000
# 3 -0.008411 -0.009278 0.011131 0.000000 -0.003491 0.000000
# 4 0.000000 0.000000 0.000000 0.048448 0.000000 -0.009446
# 5 0.005653 0.008300 -0.003491 0.000000 0.027672 0.000000
# 6 0.000000 0.000000 0.000000 -0.009446 0.000000 0.007734
#
#
# Mechanical properties :
#
#
# Convention : Reuss Voigt Hill
#
# Bulk Modulus (GPa) = 27.53619 55.99826 41.76723
# Shear Modulus (GPa) = 28.98934 61.15848 45.07391
#
# Velocity S-wave (km/s) = 3.74164 5.43465 4.66558
# Velocity P-wave (km/s) = 5.65373 8.15009 7.01386
#
# Compressibility (1/GPa) = 0.03631584
#
# Stress axis : x y z
#
# Youngs Moduli (GPa) = 44.85434 43.49400 89.84266
#
# Poissons Ratio (x) = -0.33226 0.75570
# Poissons Ratio (y) = -0.34265 0.83357
# Poissons Ratio (z) = 0.37729 0.40354
#
# Static dielectric constant tensor:
#      x y z
#    x 1.765920 0.000000 0.005260 
#    y 0.000000 1.766030 0.000000 
#    z 0.005260 0.000000 1.743200 
# 
# From -- ./inp_files/51159.got.cif
#   From: 2010.05.17/outbox.cif.g08.bks.cpg/sg10_26_cif.got.tgz:51159.got - 2010.06.03 11:33:40.
