data_PCOD9144001
_publ_section_title
;
Structure prediction by ZEFSAII (Michael W. Deem and Ramdas Pophale) SiO2 
 PCOD9144001
Probable space group: P 2/M
;
_chemical_formula_sum "Si O2"
_cell_formula_units_Z 32
_cell_length_a 27.825675
_cell_length_b 8.428108
_cell_length_c 21.663403
_cell_angle_alpha 90.000000
_cell_angle_beta 160.377084
_cell_angle_gamma 90.000000
_cell_volume 1706.160198
_symmetry_space_group_name_H-M "P 2/M"
_symmetry_group_IT_number 10
_symmetry_cell_setting 'monoclinic'
loop_
_space_group_symop_operation_xyz
x,y,z
-x,y,-z
-x,-y,-z
x,-y,z
loop_
_atom_site_type_symbol
_atom_site_label
_atom_site_fract_x
_atom_site_fract_y
_atom_site_fract_z
Si Si1 0.166979 0.691785 0.869423
Si Si2 0.506632 0.693591 0.742079
Si Si3 0.056019 0.191395 0.501681
Si Si4 0.457367 0.309998 0.543549
Si Si5 0.962094 0.308672 0.155093
Si Si6 0.283804 0.307778 0.576065
Si Si7 0.278373 0.812136 0.218584
Si Si8 0.654470 0.808114 0.211099
O O1 0.162539 0.500000 0.861932
O O2 0.054376 0.757576 0.684552
O O3 0.120377 0.739293 0.881968
O O4 0.328720 0.743716 0.051172
O O5 0.505488 0.500000 0.740942
O O6 0.454307 0.743767 0.610771
O O7 0.404127 0.746240 0.673190
O O8 0.000000 0.250287 0.500000
O O9 0.214613 0.246290 0.674095
O O10 0.059796 0.000000 0.508594
O O11 0.463346 0.500000 0.550107
O O12 0.601211 0.249864 0.683831
O O13 0.325739 0.254959 0.342139
O O14 0.958179 0.500000 0.146626
O O15 0.126536 0.258910 0.362143
O O16 0.874960 0.241504 0.992074
O O17 0.284639 0.500000 0.579280
O O18 0.314129 0.246571 0.681359
O O19 0.287295 0.000000 0.231392
O O20 0.653450 0.000000 0.209290
O O21 0.500000 0.752591 0.000000
#
# Coordination Sequence:
#
# PCOD9144001 Si02
#       8
#     4   4   4   4   4   4   4   4
#     4  10  19  35  57  82 108 137 181 230 273 316
#     4   9  19  35  56  82 110 139 176 226 273 319
#     4  10  22  38  55  79 111 144 181 222 267 321
#     4  10  18  34  56  79 112 148 181 222 276 324
#     4  10  19  35  57  80 106 143 183 222 272 325
#     4  10  21  38  59  82 108 139 182 228 268 320
#     4  11  21  32  52  83 114 143 183 228 270 318
#     4  10  22  39  56  77 110 148 181 217 268 329
#
# _framework density 18.755564
#
# number of rings (size 3 to 8) (size 9 to 14) (size 15 to 20)
#    0.000    2.000    2.500    2.250    1.750    1.500 
#    0.000    1.875    0.000    3.750    0.000    0.000 
#    0.000    0.000    0.000    0.000    0.000    0.000 
#
# Total GULP energy -178657.752711 kJ/mol
# GULP energy per Si atom -5583.054772 kJ/mol
# Density = 1.871288 g / cm^3
# Si number density = 18.755564 Si / 1000 Ang^3
#
#
#
# Elastic Constant Matrix: (Units=GPa)
#
#
# Indices 1 2 3 4 5 6 
#
# 1 112.8983 15.8186 79.2166 0.0000 13.0701 0.0000
# 2 15.8186 22.8688 23.9039 0.0000 1.7864 0.0000
# 3 79.2166 23.9039 184.5841 0.0000 3.0948 0.0000
# 4 0.0000 0.0000 0.0000 35.3455 0.0000 -18.7960
# 5 13.0701 1.7864 3.0948 0.0000 33.5161 0.0000
# 6 0.0000 0.0000 0.0000 -18.7960 0.0000 24.9671
#
#
#
# Elastic Compliance Matrix: (Units=1/GPa)
#
#
# Indices 1 2 3 4 5 6 
#
# 1 0.013610 -0.003502 -0.005310 0.000000 -0.004630 0.000000
# 2 -0.003502 0.051622 -0.005167 0.000000 -0.000909 0.000000
# 3 -0.005310 -0.005167 0.008339 0.000000 0.001576 0.000000
# 4 0.000000 0.000000 0.000000 0.047180 0.000000 0.035519
# 5 -0.004630 -0.000909 0.001576 0.000000 0.031545 0.000000
# 6 0.000000 0.000000 0.000000 0.035519 0.000000 0.066792
#
#
# Mechanical properties :
#
#
# Convention : Reuss Voigt Hill
#
# Bulk Modulus (GPa) = 21.92351 62.02547 41.97449
# Shear Modulus (GPa) = 19.06574 32.19322 25.62948
#
# Velocity S-wave (km/s) = 3.19178 4.14752 3.70063
# Velocity P-wave (km/s) = 5.02968 7.48853 6.37871
#
# Compressibility (1/GPa) = 0.04561314
#
# Stress axis : x y z
#
# Youngs Moduli (GPa) = 73.47583 19.37162 119.91878
#
# Poissons Ratio (x) = 0.06785 0.63673
# Poissons Ratio (y) = 0.25734 0.61959
# Poissons Ratio (z) = 0.39013 0.10009
#
# Static dielectric constant tensor:
#      x y z
#    x 1.635790 0.000000 0.010490 
#    y 0.000000 1.649100 0.000000 
#    z 0.010490 0.000000 1.640750 
# 
# From -- ./inp_files/86967.got.cif
#   From: 2010.05.17/outbox.cif.g08.bks.cpg/sg10_44_cif.got.tgz:86967.got - 2010.06.03 11:33:40.
