data_PCOD9144979
_publ_section_title
;
Structure prediction by ZEFSAII (Michael W. Deem and Ramdas Pophale) SiO2 
 PCOD9144979
Probable space group: P 2/M
;
_chemical_formula_sum "Si O2"
_cell_formula_units_Z 32
_cell_length_a 30.407097
_cell_length_b 7.296098
_cell_length_c 12.198740
_cell_angle_alpha 90.000000
_cell_angle_beta 27.705270
_cell_angle_gamma 90.000000
_cell_volume 1258.235906
_symmetry_space_group_name_H-M "P 2/M"
_symmetry_group_IT_number 10
_symmetry_cell_setting 'monoclinic'
loop_
_space_group_symop_operation_xyz
x,y,z
-x,y,-z
-x,-y,-z
x,-y,z
loop_
_atom_site_type_symbol
_atom_site_label
_atom_site_fract_x
_atom_site_fract_y
_atom_site_fract_z
Si Si1 0.913378 0.222459 0.112309
Si Si2 0.671105 0.722820 0.141090
Si Si3 0.129089 0.721578 0.400216
Si Si4 0.925533 0.292891 0.831412
Si Si5 0.283242 0.276601 0.724379
Si Si6 0.576493 0.294347 0.138178
Si Si7 0.449208 0.275763 0.222489
Si Si8 0.228938 0.211111 0.399591
O O1 0.817814 0.281007 0.385951
O O2 0.912670 0.000000 0.106877
O O3 0.923868 0.297700 0.967765
O O4 0.000000 0.274827 0.000000
O O5 0.668584 0.500000 0.140738
O O6 0.659641 0.774822 0.291985
O O7 0.777329 0.777748 0.871415
O O8 0.599038 0.789118 0.206972
O O9 0.125460 0.500000 0.407772
O O10 0.148894 0.780225 0.481502
O O11 0.028337 0.787924 0.577779
O O12 0.924616 0.500000 0.787582
O O13 0.824029 0.209189 0.027858
O O14 0.277944 0.500000 0.733827
O O15 0.341809 0.221177 0.487706
O O16 0.539280 0.500000 0.241107
O O17 0.679441 0.305938 0.852593
O O18 0.510228 0.212867 0.192051
O O19 0.451478 0.500000 0.215109
O O20 0.500000 0.213857 0.000000
O O21 0.255558 0.000000 0.356556
#
# Coordination Sequence:
#
# PCOD9144979 Si02
#       8
#     4   4   4   4   4   4   4   4
#     4  10  20  33  47  67  99 138 173 206 248 297
#     4   8  15  29  48  71 101 130 165 210 248 294
#     4   9  17  30  47  73 103 129 163 207 250 289
#     4  10  20  30  47  74 100 133 171 207 249 295
#     4   9  18  31  47  73 103 134 171 207 251 299
#     4   9  18  32  53  77  99 129 164 209 259 294
#     4   9  18  31  47  72 106 135 162 205 257 303
#     4  10  19  31  49  72  99 132 168 205 247 300
#
# _framework density 25.432431999999999
#
# number of rings (size 3 to 8) (size 9 to 14) (size 15 to 20)
#    0.000    2.750    1.250    1.125    1.750    2.250 
#    0.000    5.000    0.000    4.125    0.000    7.875 
#    0.000    0.000    0.000    0.000    0.000    0.000 
#
# Total GULP energy -178845.063422 kJ/mol
# GULP energy per Si atom -5588.908232 kJ/mol
# Density = 2.537455 g / cm^3
# Si number density = 25.432432 Si / 1000 Ang^3
#
#
#
# Elastic Constant Matrix: (Units=GPa)
#
#
# Indices 1 2 3 4 5 6 
#
# 1 111.4318 -4.9371 40.5971 0.0000 -5.8020 0.0000
# 2 -4.9371 110.9449 -0.7805 0.0000 -0.4752 0.0000
# 3 40.5971 -0.7805 121.4102 0.0000 3.0460 0.0000
# 4 0.0000 0.0000 0.0000 -19.8433 0.0000 16.1730
# 5 -5.8020 -0.4752 3.0460 0.0000 36.8459 0.0000
# 6 0.0000 0.0000 0.0000 16.1730 0.0000 0.4165
#
#
#
# Elastic Compliance Matrix: (Units=1/GPa)
#
#
# Indices 1 2 3 4 5 6 
#
# 1 0.010375 0.000445 -0.003515 0.000000 0.001930 0.000000
# 2 0.000445 0.009033 -0.000096 0.000000 0.000195 0.000000
# 3 -0.003515 -0.000096 0.009445 0.000000 -0.001335 0.000000
# 4 0.000000 0.000000 0.000000 -0.001544 0.000000 0.059938
# 5 0.001930 0.000195 -0.001335 0.000000 0.027557 0.000000
# 6 0.000000 0.000000 0.000000 0.059938 0.000000 0.073540
#
#
# Mechanical properties :
#
#
# Convention : Reuss Voigt Hill
#
# Bulk Modulus (GPa) = 44.39975 45.94953 45.17464
# Shear Modulus (GPa) = 35.15082 24.07764 29.61423
#
# Velocity S-wave (km/s) = 3.72173 3.08024 3.41607
# Velocity P-wave (km/s) = 5.99701 5.54590 5.77586
#
# Compressibility (1/GPa) = 0.02252265
#
# Stress axis : x y z
#
# Youngs Moduli (GPa) = 96.38744 110.69961 105.87982
#
# Poissons Ratio (x) = -0.04929 0.37213
# Poissons Ratio (y) = -0.04291 0.01013
# Poissons Ratio (z) = 0.33877 0.01059
#
# Static dielectric constant tensor:
#      x y z
#    x 1.967320 0.000000 -0.026700 
#    y 0.000000 1.954450 0.000000 
#    z -0.026700 0.000000 2.009170 
# 
# From -- ./inp_files/58110.got.cif
#   From: 2010.05.17/outbox.cif.g08.bks.cpg/sg10_30_cif.got.tgz:58110.got - 2010.06.03 11:33:40.
