data_PCOD9144563
_publ_section_title
;
Structure prediction by ZEFSAII (Michael W. Deem and Ramdas Pophale) SiO2 
 PCOD9144563
Probable space group: P 2/M
;
_chemical_formula_sum "Si O2"
_cell_formula_units_Z 32
_cell_length_a 11.616351
_cell_length_b 9.633229
_cell_length_c 19.181151
_cell_angle_alpha 90.000000
_cell_angle_beta 51.889514
_cell_angle_gamma 90.000000
_cell_volume 1688.856752
_symmetry_space_group_name_H-M "P 2/M"
_symmetry_group_IT_number 10
_symmetry_cell_setting 'monoclinic'
loop_
_space_group_symop_operation_xyz
x,y,z
-x,y,-z
-x,-y,-z
x,-y,z
loop_
_atom_site_type_symbol
_atom_site_label
_atom_site_fract_x
_atom_site_fract_y
_atom_site_fract_z
Si Si1 0.723700 0.167872 0.467242
Si Si2 0.417011 0.166712 0.631534
Si Si3 0.188098 0.167001 0.835440
Si Si4 0.660115 0.742530 0.946880
Si Si5 0.993355 0.334607 0.662105
Si Si6 0.618512 0.161415 0.115566
Si Si7 0.296154 0.838020 0.224514
Si Si8 0.977536 0.651221 0.832750
O O1 0.586135 0.211596 0.566726
O O2 0.662986 0.198021 0.411710
O O3 0.871090 0.254054 0.423309
O O4 0.747827 0.000000 0.463176
O O5 0.316086 0.208810 0.733173
O O6 0.424682 0.000000 0.630967
O O7 0.248815 0.216045 0.887294
O O8 0.042959 0.236679 0.860390
O O9 0.168835 0.000000 0.841760
O O10 0.687790 0.829428 0.865993
O O11 0.802419 0.649503 0.900753
O O12 0.500000 0.673886 0.000000
O O13 0.650022 0.827104 0.022164
O O14 0.989200 0.500000 0.649301
O O15 0.840070 0.257635 0.703371
O O16 0.014510 0.317954 0.738150
O O17 0.454497 0.216326 0.191534
O O18 0.607075 0.000000 0.138703
O O19 0.273941 0.000000 0.251944
O O20 0.037859 0.500000 0.827924
#
# Coordination Sequence:
#
# PCOD9144563 Si02
#       8
#     4   4   4   4   4   4   4   4
#     4   9  15  27  48  72  97 125 161 196 236 287
#     4   8  15  27  46  72  98 126 159 195 234 285
#     4  10  19  33  52  72  99 131 160 194 240 288
#     4   9  18  33  51  72  98 125 159 204 247 280
#     4  10  19  30  46  73 103 126 158 203 244 283
#     4   9  18  32  51  75  96 121 164 207 239 283
#     4   9  17  31  52  73  95 125 160 202 247 285
#     4  10  21  34  48  71 101 130 162 198 238 286
#
# _framework density 18.947728000000001
#
# number of rings (size 3 to 8) (size 9 to 14) (size 15 to 20)
#    0.000    2.750    1.250    1.500    0.000    4.750 
#    0.000    6.875    0.000    0.750    0.000    5.250 
#    0.000    0.000    0.000    0.000    0.000    0.000 
#
# Total GULP energy -178137.819009 kJ/mol
# GULP energy per Si atom -5566.806844 kJ/mol
# Density = 1.890460 g / cm^3
# Si number density = 18.947728 Si / 1000 Ang^3
#
#
#
# Elastic Constant Matrix: (Units=GPa)
#
#
# Indices 1 2 3 4 5 6 
#
# 1 64.4509 30.9678 14.6858 0.0000 -15.9400 0.0000
# 2 30.9678 55.6644 7.6259 0.0000 -16.2346 0.0000
# 3 14.6858 7.6259 44.0118 0.0000 -28.5023 0.0000
# 4 0.0000 0.0000 0.0000 2.9728 0.0000 0.2036
# 5 -15.9400 -16.2346 -28.5023 0.0000 30.1025 0.0000
# 6 0.0000 0.0000 0.0000 0.2036 0.0000 -7.1853
#
#
#
# Elastic Compliance Matrix: (Units=1/GPa)
#
#
# Indices 1 2 3 4 5 6 
#
# 1 0.022394 -0.011452 -0.004675 0.000000 0.001256 0.000000
# 2 -0.011452 0.028906 0.012878 0.000000 0.021718 0.000000
# 3 -0.004675 0.012878 0.064486 0.000000 0.065527 0.000000
# 4 0.000000 0.000000 0.000000 0.335726 0.000000 0.009515
# 5 0.001256 0.021718 0.065527 0.000000 0.107641 0.000000
# 6 0.000000 0.000000 0.000000 0.009515 0.000000 -0.138904
#
#
# Mechanical properties :
#
#
# Convention : Reuss Voigt Hill
#
# Bulk Modulus (GPa) = 9.15025 30.07622 19.61324
# Shear Modulus (GPa) = 10.79504 12.56786 11.68145
#
# Velocity S-wave (km/s) = 2.38949 2.57824 2.48565
# Velocity P-wave (km/s) = 3.52882 4.97703 4.31413
#
# Compressibility (1/GPa) = 0.10928664
#
# Stress axis : x y z
#
# Youngs Moduli (GPa) = 44.65501 34.59527 15.50736
#
# Poissons Ratio (x) = 0.39618 0.07250
# Poissons Ratio (y) = 0.51138 -0.19970
# Poissons Ratio (z) = 0.20876 -0.44550
#
# Static dielectric constant tensor:
#      x y z
#    x 1.690150 0.000000 -0.010600 
#    y 0.000000 1.636770 0.000000 
#    z -0.010600 0.000000 1.689640 
# 
# From -- ./inp_files/83520.got.cif
#   From: 2010.05.17/outbox.cif.g08.bks.cpg/sg10_42_cif.got.tgz:83520.got - 2010.06.03 11:33:40.
