data_PCOD9144818
_publ_section_title
;
Structure prediction by ZEFSAII (Michael W. Deem and Ramdas Pophale) SiO2 
 PCOD9144818
Probable space group: P 2/M
;
_chemical_formula_sum "Si O2"
_cell_formula_units_Z 28
_cell_length_a 9.643375
_cell_length_b 7.408853
_cell_length_c 33.258500
_cell_angle_alpha 90.000000
_cell_angle_beta 31.120117
_cell_angle_gamma 90.000000
_cell_volume 1228.099958
_symmetry_space_group_name_H-M "P 2/M"
_symmetry_group_IT_number 10
_symmetry_cell_setting 'monoclinic'
loop_
_space_group_symop_operation_xyz
x,y,z
-x,y,-z
-x,-y,-z
x,-y,z
loop_
_atom_site_type_symbol
_atom_site_label
_atom_site_fract_x
_atom_site_fract_y
_atom_site_fract_z
Si Si1 0.224789 0.291607 0.819244
Si Si2 0.703956 0.208859 0.075423
Si Si3 0.160499 0.795819 0.335612
Si Si4 0.813874 0.220831 0.582801
Si Si5 0.314012 0.281373 0.009330
Si Si6 0.826429 0.777741 0.754341
Si Si7 0.194706 0.782123 0.736816
O O1 0.275474 0.500000 0.816269
O O2 0.513052 0.197844 0.747344
O O3 0.111971 0.282293 0.801636
O O4 0.991869 0.221054 0.906015
O O5 0.476617 0.284055 0.160936
O O6 0.737509 0.000000 0.078675
O O7 0.594981 0.217221 0.056860
O O8 0.000000 0.293102 0.000000
O O9 0.097506 0.714911 0.394808
O O10 0.079390 0.715504 0.312919
O O11 0.054845 0.000000 0.362532
O O12 0.504154 0.273189 0.653834
O O13 0.000000 0.278752 0.500000
O O14 0.818306 0.000000 0.582820
O O15 0.313809 0.500000 0.009167
O O16 0.500000 0.222028 0.000000
O O17 0.012291 0.722038 0.745191
O O18 0.823866 0.000000 0.754314
O O19 0.186205 0.000000 0.740059
#
# Coordination Sequence:
#
# PCOD9144818 Si02
#       7
#     4   4   4   4   4   4   4
#     4  10  19  31  47  67  91 119 156 196 229 272
#     4  10  20  32  47  67  91 120 157 199 234 270
#     4   9  17  31  51  69  91 123 152 184 226 271
#     4   8  14  26  46  72  97 120 149 183 221 269
#     4  10  21  34  46  64  91 121 154 194 238 278
#     4   9  17  30  47  69  93 119 157 195 228 270
#     4   9  17  30  49  69  92 123 154 188 229 273
#
# _framework density 22.799447000000001
#
# number of rings (size 3 to 8) (size 9 to 14) (size 15 to 20)
#    0.000    2.714    0.000    3.000    0.000    2.857 
#    0.000    2.143    0.000   11.143    0.000    0.000 
#    0.000    9.143    0.000    0.000    0.000    0.000 
#
# Total GULP energy -156418.266703 kJ/mol
# GULP energy per Si atom -5586.366668 kJ/mol
# Density = 2.274755 g / cm^3
# Si number density = 22.799447 Si / 1000 Ang^3
#
#
#
# Elastic Constant Matrix: (Units=GPa)
#
#
# Indices 1 2 3 4 5 6 
#
# 1 108.8494 -1.5781 19.1956 0.0000 31.4059 0.0000
# 2 -1.5781 83.6167 0.7699 0.0000 -1.2976 0.0000
# 3 19.1956 0.7699 107.7286 -0.0001 36.2443 -0.0002
# 4 0.0000 0.0000 -0.0001 31.7194 0.0000 25.7082
# 5 31.4059 -1.2976 36.2443 0.0000 35.7453 0.0000
# 6 0.0000 0.0000 -0.0002 25.7082 0.0000 17.0353
#
#
#
# Elastic Compliance Matrix: (Units=1/GPa)
#
#
# Indices 1 2 3 4 5 6 
#
# 1 0.012658 0.000010 0.002255 0.000000 -0.013408 0.000000
# 2 0.000010 0.011975 -0.000350 0.000000 0.000781 0.000000
# 3 0.002255 -0.000350 0.014501 0.000000 -0.016698 0.000000
# 4 0.000000 0.000000 0.000000 -0.141297 0.000000 0.213234
# 5 -0.013408 0.000781 -0.016698 0.000000 0.056715 0.000000
# 6 0.000000 0.000000 0.000000 0.213234 0.000000 -0.263093
#
#
# Mechanical properties :
#
#
# Convention : Reuss Voigt Hill
#
# Bulk Modulus (GPa) = 23.27499 37.44106 30.35802
# Shear Modulus (GPa) = -16.77566 35.68717 9.45575
#
# Velocity S-wave (km/s) = -2.71549 3.96063 2.03872
# Velocity P-wave (km/s) = 0.63156 6.11335 4.34580
#
# Compressibility (1/GPa) = 0.04296458
#
# Stress axis : x y z
#
# Youngs Moduli (GPa) = 79.00196 83.50827 68.96080
#
# Poissons Ratio (x) = -0.00084 -0.15553
# Poissons Ratio (y) = -0.00080 0.02414
# Poissons Ratio (z) = -0.17818 0.02923
#
# Static dielectric constant tensor:
#      x y z
#    x 1.870180 0.000000 0.012360 
#    y 0.000000 1.845170 0.000000 
#    z 0.012360 0.000000 1.806920 
# 
# From -- ./inp_files/37940.got.cif
#   From: 2010.05.17/outbox.cif.g08.bks.cpg/sg10_19_cif.got.tgz:37940.got - 2010.06.03 11:33:40.
