data_PCOD9144724
_publ_section_title
;
Structure prediction by ZEFSAII (Michael W. Deem and Ramdas Pophale) SiO2 
 PCOD9144724
Probable space group: P 2/M
;
_chemical_formula_sum "Si O2"
_cell_formula_units_Z 32
_cell_length_a 24.195598
_cell_length_b 7.424723
_cell_length_c 24.195603
_cell_angle_alpha 90.000000
_cell_angle_beta 19.557438
_cell_angle_gamma 90.000000
_cell_volume 1455.042979
_symmetry_space_group_name_H-M "P 2/M"
_symmetry_group_IT_number 10
_symmetry_cell_setting 'monoclinic'
loop_
_space_group_symop_operation_xyz
x,y,z
-x,y,-z
-x,-y,-z
x,-y,z
loop_
_atom_site_type_symbol
_atom_site_label
_atom_site_fract_x
_atom_site_fract_y
_atom_site_fract_z
Si Si1 0.663410 0.210764 0.516066
Si Si2 0.094075 0.282191 0.966455
Si Si3 0.368134 0.212462 0.868133
Si Si4 0.850694 0.719316 0.714528
Si Si5 0.016067 0.789235 0.163409
Si Si6 0.466455 0.282191 0.594075
Si Si7 0.433815 0.282359 0.933816
Si Si8 0.785470 0.280685 0.649308
O O1 0.519994 0.289812 0.689696
O O2 0.599623 0.222870 0.513332
O O3 0.846773 0.289762 0.346773
O O4 0.677266 0.000000 0.517521
O O5 0.091837 0.500000 0.968346
O O6 0.284584 0.223454 0.784584
O O7 0.013333 0.222869 0.099623
O O8 0.000000 0.221741 0.000000
O O9 0.401372 0.231912 0.901370
O O10 0.360869 0.000000 0.860868
O O11 0.189697 0.289811 0.019993
O O12 0.850957 0.500000 0.715601
O O13 0.797188 0.770828 0.702812
O O14 0.041771 0.776344 0.541769
O O15 0.715950 0.780795 0.885813
O O16 0.017522 0.000000 0.177265
O O17 0.500000 0.221739 0.500000
O O18 0.468346 0.500000 0.591837
O O19 0.435615 0.500000 0.935616
O O20 0.614185 0.219205 0.784052
O O21 0.784397 0.500000 0.649045
#
# Coordination Sequence:
#
# PCOD9144724 Si02
#       8
#     4   4   4   4   4   4   4   4
#     4  10  21  38  58  76  97 133 178 218 258 306
#     4  10  20  34  54  81 111 137 163 202 258 318
#     4  10  22  39  53  71 104 140 174 218 264 310
#     4   8  14  26  46  74 107 137 166 209 261 305
#     4  10  21  38  58  76  97 133 178 218 258 306
#     4  10  20  34  54  81 111 137 163 202 258 318
#     4  10  19  30  50  78 102 130 176 218 252 304
#     4   8  14  26  46  74 107 137 166 209 261 305
#
# _framework density 21.992477000000001
#
# number of rings (size 3 to 8) (size 9 to 14) (size 15 to 20)
#    0.000    2.500    1.250    1.875    0.000    5.500 
#    0.000    0.000    0.000    1.500    0.000    1.750 
#    0.000    0.000    0.000    0.000    0.000    0.000 
#
# Total GULP energy -178750.609335 kJ/mol
# GULP energy per Si atom -5585.956542 kJ/mol
# Density = 2.194242 g / cm^3
# Si number density = 21.992477 Si / 1000 Ang^3
#
#
#
# Elastic Constant Matrix: (Units=GPa)
#
#
# Indices 1 2 3 4 5 6 
#
# 1 113.2956 -11.1637 102.5247 0.0000 -4.4462 0.0000
# 2 -11.1637 71.4989 10.0091 0.0000 -3.8532 0.0000
# 3 102.5247 10.0091 241.9094 0.0000 -18.9553 0.0000
# 4 0.0000 0.0000 0.0000 -17.0972 0.0000 7.2509
# 5 -4.4462 -3.8532 -18.9553 0.0000 20.2478 0.0000
# 6 0.0000 0.0000 0.0000 7.2509 0.0000 22.7470
#
#
#
# Elastic Compliance Matrix: (Units=1/GPa)
#
#
# Indices 1 2 3 4 5 6 
#
# 1 0.015141 0.003179 -0.006734 0.000000 -0.002375 0.000000
# 2 0.003179 0.014835 -0.001819 0.000000 0.001819 0.000000
# 3 -0.006734 -0.001819 0.007468 0.000000 0.005166 0.000000
# 4 0.000000 0.000000 0.000000 -0.051524 0.000000 0.016424
# 5 -0.002375 0.001819 0.005166 0.000000 0.054049 0.000000
# 6 0.000000 0.000000 0.000000 0.016424 0.000000 0.038727
#
#
# Mechanical properties :
#
#
# Convention : Reuss Voigt Hill
#
# Bulk Modulus (GPa) = 37.45945 69.93822 53.69883
# Shear Modulus (GPa) = 50.84247 26.86843 38.85545
#
# Velocity S-wave (km/s) = 4.81335 3.49909 4.20785
# Velocity P-wave (km/s) = 6.92538 6.94225 6.93382
#
# Compressibility (1/GPa) = 0.02669553
#
# Stress axis : x y z
#
# Youngs Moduli (GPa) = 66.04705 67.40742 133.90445
#
# Poissons Ratio (x) = -0.21428 0.90178
# Poissons Ratio (y) = -0.20995 0.24351
# Poissons Ratio (z) = 0.44479 0.12258
#
# Static dielectric constant tensor:
#      x y z
#    x 1.733010 0.000000 -0.016120 
#    y 0.000000 1.834990 0.000000 
#    z -0.016120 0.000000 1.821570 
# 
# From -- ./inp_files/90580.got.cif
#   From: 2010.05.17/outbox.cif.g08.bks.cpg/sg10_46_cif.got.tgz:90580.got - 2010.06.03 11:33:40.
