data_PCOD9144823
_publ_section_title
;
Structure prediction by ZEFSAII (Michael W. Deem and Ramdas Pophale) SiO2 
 PCOD9144823
Probable space group: P 2/M
;
_chemical_formula_sum "Si O2"
_cell_formula_units_Z 30
_cell_length_a 31.740849
_cell_length_b 9.275294
_cell_length_c 12.232189
_cell_angle_alpha 90.000000
_cell_angle_beta 28.959113
_cell_angle_gamma 90.000000
_cell_volume 1743.661014
_symmetry_space_group_name_H-M "P 2/M"
_symmetry_group_IT_number 10
_symmetry_cell_setting 'monoclinic'
loop_
_space_group_symop_operation_xyz
x,y,z
-x,y,-z
-x,-y,-z
x,-y,z
loop_
_atom_site_type_symbol
_atom_site_label
_atom_site_fract_x
_atom_site_fract_y
_atom_site_fract_z
Si Si1 0.284497 0.164665 0.250282
Si Si2 0.632727 0.671571 0.341168
Si Si3 0.249441 0.173207 0.087596
Si Si4 0.508958 0.842451 0.227467
Si Si5 0.500000 0.747565 0.000000
Si Si6 0.300647 0.336118 0.429501
Si Si7 0.097535 0.174002 0.266375
Si Si8 0.760200 0.172417 0.223145
O O1 0.238765 0.200624 0.240124
O O2 0.273437 0.275566 0.373493
O O3 0.261449 0.000000 0.335651
O O4 0.387909 0.163253 0.991863
O O5 0.641001 0.500000 0.320624
O O6 0.537706 0.720935 0.595733
O O7 0.693187 0.744692 0.296601
O O8 0.668317 0.742603 0.149285
O O9 0.165073 0.217626 0.208305
O O10 0.262348 0.000000 0.044240
O O11 0.492043 0.828198 0.135007
O O12 0.476160 0.000000 0.337399
O O13 0.406536 0.669478 0.199965
O O14 0.273215 0.500000 0.509157
O O15 0.258770 0.232088 0.614495
O O16 0.000000 0.231511 0.500000
O O17 0.092826 0.000000 0.284598
O O18 0.145264 0.205373 0.043211
O O19 0.746624 0.000000 0.248198
#
# Coordination Sequence:
#
# PCOD9144823 Si02
#       8
#     4   4   4   4   2   4   4   4
#     4   9  20  35  50  70  96 134 178 210 245 296
#     4  11  21  31  47  71 100 132 169 213 257 298
#     4   9  18  35  55  73  99 132 165 205 251 304
#     4  10  19  31  47  67  94 131 176 216 251 292
#     4  10  20  30  48  68  98 134 174 220 254 290
#     4  11  21  32  49  73 104 136 172 215 257 295
#     4   8  15  30  56  86 105 121 154 206 262 307
#     4  10  19  32  52  76 104 134 167 208 256 305
#
# _framework density 17.205179000000001
#
# number of rings (size 3 to 8) (size 9 to 14) (size 15 to 20)
#    0.000    2.267    1.333    3.200    0.000    4.267 
#    0.000    2.667    0.000   10.800    0.000    5.600 
#    0.000    0.000    0.000    0.000    0.000    0.000 
#
# Total GULP energy -167169.105163 kJ/mol
# GULP energy per Si atom -5572.303505 kJ/mol
# Density = 1.716602 g / cm^3
# Si number density = 17.205179 Si / 1000 Ang^3
#
#
#
# Elastic Constant Matrix: (Units=GPa)
#
#
# Indices 1 2 3 4 5 6 
#
# 1 72.5611 24.6184 24.2239 0.0000 13.1919 0.0000
# 2 24.6184 82.1790 21.9043 0.0000 11.6162 0.0000
# 3 24.2239 21.9043 60.7449 0.0000 5.2968 0.0000
# 4 0.0000 0.0000 0.0000 2.1858 0.0000 2.5899
# 5 13.1919 11.6162 5.2968 0.0000 14.8051 0.0000
# 6 0.0000 0.0000 0.0000 2.5899 0.0000 6.7672
#
#
#
# Elastic Compliance Matrix: (Units=1/GPa)
#
#
# Indices 1 2 3 4 5 6 
#
# 1 0.018760 -0.002323 -0.005517 0.000000 -0.012920 0.000000
# 2 -0.002323 0.015056 -0.003771 0.000000 -0.008394 0.000000
# 3 -0.005517 -0.003771 0.019958 0.000000 0.000734 0.000000
# 4 0.000000 0.000000 0.000000 0.837109 0.000000 -0.320377
# 5 -0.012920 -0.008394 0.000734 0.000000 0.085380 0.000000
# 6 0.000000 0.000000 0.000000 -0.320377 0.000000 0.270385
#
#
# Mechanical properties :
#
#
# Convention : Reuss Voigt Hill
#
# Bulk Modulus (GPa) = 32.73053 39.66425 36.19739
# Shear Modulus (GPa) = 3.90608 14.40085 9.15347
#
# Velocity S-wave (km/s) = 1.50838 2.89625 2.30905
# Velocity P-wave (km/s) = 4.70091 5.85560 5.30974
#
# Compressibility (1/GPa) = 0.03055252
#
# Stress axis : x y z
#
# Youngs Moduli (GPa) = 53.30391 66.41809 50.10514
#
# Poissons Ratio (x) = 0.15431 0.27643
# Poissons Ratio (y) = 0.12384 0.18893
# Poissons Ratio (z) = 0.29407 0.25045
#
# Static dielectric constant tensor:
#      x y z
#    x 1.590960 0.000000 0.002290 
#    y 0.000000 1.580350 0.000000 
#    z 0.002290 0.000000 1.594160 
# 
# From -- ./inp_files/57993.got.cif
#   From: 2010.05.17/outbox.cif.g08.bks.cpg/sg10_29_cif.got.tgz:57993.got - 2010.06.03 11:33:40.
