data_PCOD9144858
_publ_section_title
;
Structure prediction by ZEFSAII (Michael W. Deem and Ramdas Pophale) SiO2 
 PCOD9144858
Probable space group: P 2/M
;
_chemical_formula_sum "Si O2"
_cell_formula_units_Z 16
_cell_length_a 11.906841
_cell_length_b 13.724793
_cell_length_c 5.392089
_cell_angle_alpha 90.000000
_cell_angle_beta 51.663746
_cell_angle_gamma 90.000000
_cell_volume 691.175224
_symmetry_space_group_name_H-M "P 2/M"
_symmetry_group_IT_number 10
_symmetry_cell_setting 'monoclinic'
loop_
_space_group_symop_operation_xyz
x,y,z
-x,y,-z
-x,-y,-z
x,-y,z
loop_
_atom_site_type_symbol
_atom_site_label
_atom_site_fract_x
_atom_site_fract_y
_atom_site_fract_z
Si Si1 0.325277 0.112432 0.255651
Si Si2 0.669208 0.788713 0.253023
Si Si3 0.938667 0.614233 0.334211
Si Si4 0.364958 0.611656 0.028445
O O1 0.274508 0.177430 0.558031
O O2 0.286574 0.000000 0.347824
O O3 0.500000 0.116184 0.000000
O O4 0.271587 0.152723 0.065394
O O5 0.500000 0.812972 0.500000
O O6 0.671237 0.676629 0.160481
O O7 0.988211 0.500000 0.266368
O O8 0.769574 0.612920 0.603052
O O9 0.000000 0.660382 0.500000
O O10 0.000000 0.658354 0.000000
O O11 0.393527 0.500000 0.917628
O O12 0.500000 0.650485 0.000000
#
# Coordination Sequence:
#
# PCOD9144858 Si02
#       4
#     4   4   4   4
#     4   9  17  30  48  69  99 140 178 217 272 327
#     4  10  19  31  47  73 107 140 177 220 266 321
#     4   9  19  36  55  74 101 141 187 230 267 307
#     4  10  21  36  55  81 115 152 185 220 268 326
#
# _framework density 23.148978
#
# number of rings (size 3 to 8) (size 9 to 14) (size 15 to 20)
#    0.000    2.500    0.000    3.000    0.000    7.500 
#    0.000    8.750    0.000    0.750    0.000    0.000 
#    0.000   20.000    0.000    0.000    0.000    0.500 
#
# Total GULP energy -89413.851565 kJ/mol
# GULP energy per Si atom -5588.365723 kJ/mol
# Density = 2.309629 g / cm^3
# Si number density = 23.148978 Si / 1000 Ang^3
#
#
#
# Elastic Constant Matrix: (Units=GPa)
#
#
# Indices 1 2 3 4 5 6 
#
# 1 56.7935 19.7151 60.7267 0.0000 24.8500 0.0000
# 2 19.7151 146.0044 33.5646 0.0000 41.3168 0.0000
# 3 60.7267 33.5646 137.5732 0.0000 55.9399 0.0000
# 4 0.0000 0.0000 0.0000 22.4292 0.0000 6.6438
# 5 24.8500 41.3168 55.9399 0.0000 51.2684 0.0000
# 6 0.0000 0.0000 0.0000 6.6438 0.0000 4.7809
#
#
#
# Elastic Compliance Matrix: (Units=1/GPa)
#
#
# Indices 1 2 3 4 5 6 
#
# 1 0.033575 -0.001436 -0.014961 0.000000 0.001208 0.000000
# 2 -0.001436 0.009073 0.001996 0.000000 -0.008793 0.000000
# 3 -0.014961 0.001996 0.019937 0.000000 -0.016110 0.000000
# 4 0.000000 0.000000 0.000000 0.075776 0.000000 -0.105303
# 5 0.001208 -0.008793 -0.016110 0.000000 0.043584 0.000000
# 6 0.000000 0.000000 0.000000 -0.105303 0.000000 0.355500
#
#
# Mechanical properties :
#
#
# Convention : Reuss Voigt Hill
#
# Bulk Modulus (GPa) = 29.60220 63.15375 46.37797
# Shear Modulus (GPa) = 8.65790 30.78668 19.72229
#
# Velocity S-wave (km/s) = 1.93603 3.65079 2.92202
# Velocity P-wave (km/s) = 4.22055 6.71652 5.60913
#
# Compressibility (1/GPa) = 0.03378128
#
# Stress axis : x y z
#
# Youngs Moduli (GPa) = 29.78407 110.22311 50.15898
#
# Poissons Ratio (x) = 0.15829 0.75044
# Poissons Ratio (y) = 0.04277 -0.10011
# Poissons Ratio (z) = 0.44561 -0.21999
#
# Static dielectric constant tensor:
#      x y z
#    x 1.916990 0.000000 0.024440 
#    y 0.000000 1.901840 0.000000 
#    z 0.024440 0.000000 1.996660 
# 
# From -- ./inp_files/9139.got.cif
#   From: 2010.05.17/outbox.cif.g08.bks.cpg/sg10_5_cif.got.tgz:9139.got - 2010.06.03 11:33:40.
