data_PCOD9144066
_publ_section_title
;
Structure prediction by ZEFSAII (Michael W. Deem and Ramdas Pophale) SiO2 
 PCOD9144066
Probable space group: P 2/M
;
_chemical_formula_sum "Si O2"
_cell_formula_units_Z 26
_cell_length_a 9.480501
_cell_length_b 14.700743
_cell_length_c 11.063526
_cell_angle_alpha 90.000000
_cell_angle_beta 62.317709
_cell_angle_gamma 90.000000
_cell_volume 1365.434816
_symmetry_space_group_name_H-M "P 2/M"
_symmetry_group_IT_number 10
_symmetry_cell_setting 'monoclinic'
loop_
_space_group_symop_operation_xyz
x,y,z
-x,y,-z
-x,-y,-z
x,-y,z
loop_
_atom_site_type_symbol
_atom_site_label
_atom_site_fract_x
_atom_site_fract_y
_atom_site_fract_z
Si Si1 0.623785 0.106141 0.056058
Si Si2 0.981790 0.899724 0.862880
Si Si3 0.000000 0.654664 0.500000
Si Si4 0.885095 0.282371 0.290773
Si Si5 0.669919 0.601003 0.740088
Si Si6 0.821255 0.392149 0.936026
Si Si7 0.376150 0.282784 0.785499
O O1 0.618117 0.179164 0.166521
O O2 0.603651 0.000000 0.102779
O O3 0.500000 0.128537 0.000000
O O4 0.793953 0.111997 0.922272
O O5 0.073055 0.819302 0.764785
O O6 0.032836 0.000000 0.803204
O O7 0.000000 0.894264 0.000000
O O8 0.926064 0.707104 0.414946
O O9 0.846160 0.602211 0.611976
O O10 0.706719 0.296220 0.311803
O O11 0.009759 0.348854 0.170942
O O12 0.599822 0.500000 0.755226
O O13 0.703384 0.619078 0.867994
O O14 0.549485 0.672754 0.730712
O O15 0.837396 0.500000 0.953921
O O16 0.742013 0.336716 0.076004
#
# Coordination Sequence:
#
# PCOD9144066 Si02
#       7
#     4   4   2   4   4   4   4
#     4  10  20  32  53  90 126 151 176 217 283 354
#     4  10  18  34  60  89 120 151 184 229 288 348
#     4  10  25  44  59  72 108 160 207 240 279 326
#     4  11  22  38  56  83 116 155 195 236 279 338
#     4  10  22  40  61  82 112 153 194 237 284 342
#     4  10  20  35  56  87 122 149 176 228 300 357
#     4  12  21  33  59  90 119 143 185 241 295 343
#
# _framework density 19.041554999999999
#
# number of rings (size 3 to 8) (size 9 to 14) (size 15 to 20)
#    0.000    1.538    3.077    2.538    2.154    4.308 
#    0.000    1.154    0.000    0.923    0.000    2.154 
#    0.000    0.000    0.000    0.000    0.000    0.000 
#
# Total GULP energy -145092.287611 kJ/mol
# GULP energy per Si atom -5580.472600 kJ/mol
# Density = 1.899822 g / cm^3
# Si number density = 19.041555 Si / 1000 Ang^3
#
#
#
# Elastic Constant Matrix: (Units=GPa)
#
#
# Indices 1 2 3 4 5 6 
#
# 1 131.9866 41.3082 20.5709 0.0000 12.2883 0.0000
# 2 41.3082 106.0348 11.8665 0.0000 10.9516 0.0000
# 3 20.5709 11.8665 36.0270 0.0000 12.1962 0.0000
# 4 0.0000 0.0000 0.0000 4.6944 0.0000 -3.5802
# 5 12.2883 10.9516 12.1962 0.0000 19.4653 0.0000
# 6 0.0000 0.0000 0.0000 -3.5802 0.0000 26.8648
#
#
#
# Elastic Compliance Matrix: (Units=1/GPa)
#
#
# Indices 1 2 3 4 5 6 
#
# 1 0.009262 -0.003006 -0.003670 0.000000 -0.001857 0.000000
# 2 -0.003006 0.011077 -0.000590 0.000000 -0.003965 0.000000
# 3 -0.003670 -0.000590 0.036998 0.000000 -0.020532 0.000000
# 4 0.000000 0.000000 0.000000 0.237122 0.000000 0.031600
# 5 -0.001857 -0.003965 -0.020532 0.000000 0.067641 0.000000
# 6 0.000000 0.000000 0.000000 0.031600 0.000000 0.041435
#
#
# Mechanical properties :
#
#
# Convention : Reuss Voigt Hill
#
# Bulk Modulus (GPa) = 23.36152 46.83774 35.09963
# Shear Modulus (GPa) = 11.56509 23.55841 17.56175
#
# Velocity S-wave (km/s) = 2.46714 3.52122 3.04021
# Velocity P-wave (km/s) = 4.51786 6.41740 5.54951
#
# Compressibility (1/GPa) = 0.04280543
#
# Stress axis : x y z
#
# Youngs Moduli (GPa) = 107.96696 90.27387 27.02872
#
# Poissons Ratio (x) = 0.27134 0.09920
# Poissons Ratio (y) = 0.32453 0.01595
# Poissons Ratio (z) = 0.39624 0.05327
#
# Static dielectric constant tensor:
#      x y z
#    x 0.602930 0.000000 0.214750 
#    y 0.000000 1.667790 0.000000 
#    z 0.214750 0.000000 1.620750 
# 
# From -- ./inp_files/42596.got.cif
#   From: 2010.05.17/outbox.cif.g08.bks.cpg/sg10_22_cif.got.tgz:42596.got - 2010.06.03 11:33:40.
