data_PCOD9144534
_publ_section_title
;
Structure prediction by ZEFSAII (Michael W. Deem and Ramdas Pophale) SiO2 
 PCOD9144534
Probable space group: P 2/M
;
_chemical_formula_sum "Si O2"
_cell_formula_units_Z 24
_cell_length_a 23.329065
_cell_length_b 7.470111
_cell_length_c 21.922607
_cell_angle_alpha 90.000000
_cell_angle_beta 161.692422
_cell_angle_gamma 90.000000
_cell_volume 1200.077920
_symmetry_space_group_name_H-M "P 2/M"
_symmetry_group_IT_number 10
_symmetry_cell_setting 'monoclinic'
loop_
_space_group_symop_operation_xyz
x,y,z
-x,y,-z
-x,-y,-z
x,-y,z
loop_
_atom_site_type_symbol
_atom_site_label
_atom_site_fract_x
_atom_site_fract_y
_atom_site_fract_z
Si Si1 0.009688 0.781503 0.108541
Si Si2 0.721390 0.716588 0.048656
Si Si3 0.315571 0.293403 0.657963
Si Si4 0.292358 0.218317 0.291588
Si Si5 0.014082 0.281011 0.444558
Si Si6 0.029339 0.791117 0.266258
O O1 0.180819 0.728346 0.239348
O O2 0.021244 0.718550 0.189572
O O3 0.006819 0.000000 0.106887
O O4 0.828434 0.726120 0.888649
O O5 0.720603 0.500000 0.045862
O O6 0.841423 0.771147 0.228615
O O7 0.835907 0.773995 0.105184
O O8 0.514357 0.783410 0.844402
O O9 0.349330 0.500000 0.708730
O O10 0.182760 0.290457 0.465270
O O11 0.194695 0.217013 0.591201
O O12 0.500000 0.280175 0.500000
O O13 0.294520 0.000000 0.293542
O O14 0.017961 0.500000 0.448295
O O15 0.000000 0.222704 0.500000
O O16 0.075819 0.000000 0.309430
#
# Coordination Sequence:
#
# PCOD9144534 Si02
#       6
#     4   4   4   4   4   4
#     4   8  15  25  37  59  87 113 143 178 219 265
#     4   9  18  32  48  67  93 123 153 185 224 271
#     4   9  18  32  48  67  93 123 153 185 224 271
#     4   8  13  23  38  55  81 114 142 174 220 268
#     4   8  14  26  46  71  93 112 143 190 235 269
#     4  10  19  30  46  69  96 122 151 188 225 265
#
# _framework density 19.998701000000001
#
# number of rings (size 3 to 8) (size 9 to 14) (size 15 to 20)
#    0.000    3.333    0.000    2.500    0.000    2.667 
#    0.000    6.667    0.000    8.000    0.000   18.667 
#    0.000   16.000    0.000    0.000    0.000    0.000 
#
# Total GULP energy -133815.016920 kJ/mol
# GULP energy per Si atom -5575.625705 kJ/mol
# Density = 1.995318 g / cm^3
# Si number density = 19.998701 Si / 1000 Ang^3
#
#
#
# Elastic Constant Matrix: (Units=GPa)
#
#
# Indices 1 2 3 4 5 6 
#
# 1 178.4698 -7.2933 84.9000 0.0000 -7.1197 0.0000
# 2 -7.2933 55.2372 -6.7515 0.0000 0.3961 0.0000
# 3 84.9000 -6.7515 148.6600 0.0000 30.1035 0.0000
# 4 0.0000 0.0000 0.0000 2.6992 0.0000 0.6188
# 5 -7.1197 0.3961 30.1035 0.0000 18.7171 0.0000
# 6 0.0000 0.0000 0.0000 0.6188 0.0000 14.0457
#
#
#
# Elastic Compliance Matrix: (Units=1/GPa)
#
#
# Indices 1 2 3 4 5 6 
#
# 1 0.012026 0.000009 -0.011559 0.000000 0.023164 0.000000
# 2 0.000009 0.018287 0.001339 0.000000 -0.002537 0.000000
# 3 -0.011559 0.001339 0.021184 0.000000 -0.038496 0.000000
# 4 0.000000 0.000000 0.000000 0.374262 0.000000 -0.016489
# 5 0.023164 -0.002537 -0.038496 0.000000 0.124208 0.000000
# 6 0.000000 0.000000 0.000000 -0.016489 0.000000 0.071923
#
#
# Mechanical properties :
#
#
# Convention : Reuss Voigt Hill
#
# Bulk Modulus (GPa) = 32.17867 58.23080 45.20474
# Shear Modulus (GPa) = 7.66086 27.85985 17.76035
#
# Velocity S-wave (km/s) = 1.95933 3.73645 2.98329
# Velocity P-wave (km/s) = 4.60912 6.91341 5.87534
#
# Compressibility (1/GPa) = 0.03107649
#
# Stress axis : x y z
#
# Youngs Moduli (GPa) = 83.15198 54.68425 47.20509
#
# Poissons Ratio (x) = -0.00049 0.54562
# Poissons Ratio (y) = -0.00075 -0.06322
# Poissons Ratio (z) = 0.96111 -0.07323
#
# Static dielectric constant tensor:
#      x y z
#    x 1.681330 0.000000 0.010380 
#    y 0.000000 1.779140 0.000000 
#    z 0.010380 0.000000 1.680920 
# 
# From -- ./inp_files/86179.got.cif
#   From: 2010.05.17/outbox.cif.g08.bks.cpg/sg10_44_cif.got.tgz:86179.got - 2010.06.03 11:33:40.
