data_PCOD9144613
_publ_section_title
;
Structure prediction by ZEFSAII (Michael W. Deem and Ramdas Pophale) SiO2 
 PCOD9144613
Probable space group: P 2/M
;
_chemical_formula_sum "Si O2"
_cell_formula_units_Z 32
_cell_length_a 19.484656
_cell_length_b 7.506170
_cell_length_c 14.803492
_cell_angle_alpha 90.000000
_cell_angle_beta 41.662310
_cell_angle_gamma 90.000000
_cell_volume 1439.217767
_symmetry_space_group_name_H-M "P 2/M"
_symmetry_group_IT_number 10
_symmetry_cell_setting 'monoclinic'
loop_
_space_group_symop_operation_xyz
x,y,z
-x,y,-z
-x,-y,-z
x,-y,z
loop_
_atom_site_type_symbol
_atom_site_label
_atom_site_fract_x
_atom_site_fract_y
_atom_site_fract_z
Si Si1 0.048462 0.216032 0.158858
Si Si2 0.884437 0.217937 0.581687
Si Si3 0.387824 0.713884 0.828982
Si Si4 0.332777 0.719011 0.680211
Si Si5 0.169648 0.786756 0.566810
Si Si6 0.208413 0.211787 0.147326
Si Si7 0.393638 0.712783 0.428749
Si Si8 0.890184 0.296983 0.091306
O O1 0.107100 0.271372 0.191775
O O2 0.929088 0.273703 0.276900
O O3 0.053300 0.000000 0.147005
O O4 0.113078 0.296756 0.013723
O O5 0.851457 0.278677 0.514457
O O6 0.803729 0.277410 0.738456
O O7 0.000000 0.269486 0.500000
O O8 0.885767 0.000000 0.576194
O O9 0.386724 0.500000 0.825856
O O10 0.357288 0.777754 0.757831
O O11 0.506212 0.776581 0.724589
O O12 0.308369 0.757286 0.986966
O O13 0.333424 0.500000 0.681912
O O14 0.398797 0.774631 0.528439
O O15 0.216474 0.780596 0.770834
O O16 0.282431 0.747121 0.494325
O O17 0.161093 0.000000 0.573047
O O18 0.199454 0.000000 0.162692
O O19 0.402304 0.500000 0.425284
O O20 0.895711 0.500000 0.119680
O O21 0.000000 0.206240 0.000000
#
# Coordination Sequence:
#
# PCOD9144613 Si02
#       8
#     4   4   4   4   4   4   4   4
#     4  10  19  31  50  77 107 136 166 209 266 318
#     4   9  16  32  58  82 105 137 176 214 257 317
#     4  10  20  36  57  78 104 142 183 221 261 307
#     4   9  17  32  53  76 101 136 183 221 254 305
#     4  10  20  35  56  81 108 138 174 218 267 316
#     4  10  19  33  56  83 106 132 172 219 264 311
#     4  10  21  37  56  77 104 141 183 223 262 307
#     4  10  19  30  47  73 105 140 175 212 255 309
#
# _framework density 22.234300999999999
#
# number of rings (size 3 to 8) (size 9 to 14) (size 15 to 20)
#    0.000    2.250    2.500    1.125    0.000    3.750 
#    0.000    2.500    0.000    6.000    0.000    0.000 
#    0.000    0.000    0.000    0.000    0.000    0.000 
#
# Total GULP energy -178566.754694 kJ/mol
# GULP energy per Si atom -5580.211084 kJ/mol
# Density = 2.218370 g / cm^3
# Si number density = 22.234301 Si / 1000 Ang^3
#
#
#
# Elastic Constant Matrix: (Units=GPa)
#
#
# Indices 1 2 3 4 5 6 
#
# 1 72.5811 -1.9113 48.0919 0.0000 -3.8025 0.0000
# 2 -1.9113 56.9546 -0.5414 0.0000 3.1611 0.0000
# 3 48.0919 -0.5414 155.4817 0.0000 -9.7684 0.0000
# 4 0.0000 0.0000 0.0000 17.9814 0.0000 -0.2193
# 5 -3.8025 3.1611 -9.7684 0.0000 39.9515 0.0000
# 6 0.0000 0.0000 0.0000 -0.2193 0.0000 16.8370
#
#
#
# Elastic Compliance Matrix: (Units=1/GPa)
#
#
# Indices 1 2 3 4 5 6 
#
# 1 0.017349 0.000515 -0.005345 0.000000 0.000304 0.000000
# 2 0.000515 0.017651 -0.000185 0.000000 -0.001393 0.000000
# 3 -0.005345 -0.000185 0.008179 0.000000 0.001506 0.000000
# 4 0.000000 0.000000 0.000000 0.055622 0.000000 0.000725
# 5 0.000304 -0.001393 0.001506 0.000000 0.025538 0.000000
# 6 0.000000 0.000000 0.000000 0.000725 0.000000 0.059402
#
#
# Mechanical properties :
#
#
# Convention : Reuss Voigt Hill
#
# Bulk Modulus (GPa) = 30.16904 41.81064 35.98984
# Shear Modulus (GPa) = 24.41154 30.91254 27.66204
#
# Velocity S-wave (km/s) = 3.31709 3.73273 3.53103
# Velocity P-wave (km/s) = 5.31685 6.11744 5.73114
#
# Compressibility (1/GPa) = 0.03314657
#
# Stress axis : x y z
#
# Youngs Moduli (GPa) = 57.64044 56.65508 122.26535
#
# Poissons Ratio (x) = -0.02915 0.65355
# Poissons Ratio (y) = -0.02966 0.02264
# Poissons Ratio (z) = 0.30811 0.01049
#
# Static dielectric constant tensor:
#      x y z
#    x 1.855190 0.000000 -0.007580 
#    y 0.000000 1.861990 0.000000 
#    z -0.007580 0.000000 1.848800 
# 
# From -- ./inp_files/46662.got.cif
#   From: 2010.05.17/outbox.cif.g08.bks.cpg/sg10_24_cif.got.tgz:46662.got - 2010.06.03 11:33:40.
