data_PCOD9144928
_publ_section_title
;
Structure prediction by ZEFSAII (Michael W. Deem and Ramdas Pophale) SiO2 
 PCOD9144928
Probable space group: P 2/M
;
_chemical_formula_sum "Si O2"
_cell_formula_units_Z 32
_cell_length_a 23.470084
_cell_length_b 9.297089
_cell_length_c 21.215173
_cell_angle_alpha 90.000000
_cell_angle_beta 155.651587
_cell_angle_gamma 90.000000
_cell_volume 1908.556515
_symmetry_space_group_name_H-M "P 2/M"
_symmetry_group_IT_number 10
_symmetry_cell_setting 'monoclinic'
loop_
_space_group_symop_operation_xyz
x,y,z
-x,y,-z
-x,-y,-z
x,-y,z
loop_
_atom_site_type_symbol
_atom_site_label
_atom_site_fract_x
_atom_site_fract_y
_atom_site_fract_z
Si Si1 0.217783 0.670427 0.759272
Si Si2 0.662195 0.326733 0.671955
Si Si3 0.553519 0.328938 0.904475
Si Si4 0.747406 0.672509 0.352844
Si Si5 0.082050 0.335806 0.149535
Si Si6 0.249733 0.171202 0.987906
Si Si7 0.979430 0.829038 0.347862
Si Si8 0.834112 0.827391 0.954874
O O1 0.184408 0.500000 0.729808
O O2 0.249231 0.704271 0.718628
O O3 0.094265 0.760750 0.665165
O O4 0.349989 0.697984 0.937116
O O5 0.500000 0.292639 0.500000
O O6 0.674212 0.500000 0.693698
O O7 0.761661 0.293286 0.712082
O O8 0.731544 0.244667 0.800533
O O9 0.555651 0.500000 0.895878
O O10 0.398580 0.284976 0.764694
O O11 0.621155 0.250462 0.913421
O O12 0.763435 0.500000 0.375454
O O13 0.873550 0.754948 0.511272
O O14 0.082047 0.500000 0.173732
O O15 0.000000 0.337352 0.000000
O O16 0.988534 0.233449 0.098122
O O17 0.119942 0.203399 0.811459
O O18 0.272490 0.000000 0.008384
O O19 0.216029 0.210622 0.025519
O O20 0.991146 0.000000 0.366300
O O21 0.833955 0.000000 0.947489
#
# Coordination Sequence:
#
# PCOD9144928 Si02
#       8
#     4   4   4   4   4   4   4   4
#     4   9  17  31  50  70  94 123 154 195 247 295
#     4   9  18  33  52  76 107 134 154 187 237 283
#     4   9  18  32  51  72  93 123 162 199 238 291
#     4  10  19  31  48  72  98 120 150 198 252 296
#     4   8  15  29  49  73  99 127 158 190 228 273
#     4   9  20  37  51  66  93 129 165 200 238 278
#     4  10  20  33  48  67  94 127 162 198 237 285
#     4  10  19  32  52  74  96 127 166 201 233 275
#
# _framework density 16.766597000000001
#
# number of rings (size 3 to 8) (size 9 to 14) (size 15 to 20)
#    0.000    2.750    0.000    2.250    0.000    8.000 
#    0.000    1.250    0.000    9.750    0.000    0.000 
#    0.000    0.000    0.000    0.000    0.000    0.000 
#
# Total GULP energy -178377.434883 kJ/mol
# GULP energy per Si atom -5574.294840 kJ/mol
# Density = 1.672844 g / cm^3
# Si number density = 16.766597 Si / 1000 Ang^3
#
#
#
# Elastic Constant Matrix: (Units=GPa)
#
#
# Indices 1 2 3 4 5 6 
#
# 1 109.9305 50.8825 61.8461 0.0000 13.9624 0.0000
# 2 50.8825 38.3514 49.3490 0.0000 9.2466 0.0000
# 3 61.8461 49.3490 123.2175 0.0000 33.6366 0.0000
# 4 0.0000 0.0000 0.0000 66.6239 0.0000 23.0904
# 5 13.9624 9.2466 33.6366 0.0000 16.4559 0.0000
# 6 0.0000 0.0000 0.0000 23.0904 0.0000 35.1934
#
#
#
# Elastic Compliance Matrix: (Units=1/GPa)
#
#
# Indices 1 2 3 4 5 6 
#
# 1 0.024533 -0.037129 0.005755 0.000000 -0.011716 0.000000
# 2 -0.037129 0.118179 -0.043364 0.000000 0.053736 0.000000
# 3 0.005755 -0.043364 0.039085 0.000000 -0.060408 0.000000
# 4 0.000000 0.000000 0.000000 0.019427 0.000000 -0.012746
# 5 -0.011716 0.053736 -0.060408 0.000000 0.163992 0.000000
# 6 0.000000 0.000000 0.000000 -0.012746 0.000000 0.036777
#
#
# Mechanical properties :
#
#
# Convention : Reuss Voigt Hill
#
# Bulk Modulus (GPa) = 30.94036 66.18383 48.56210
# Shear Modulus (GPa) = 8.89296 30.94944 19.92120
#
# Velocity S-wave (km/s) = 2.30553 4.30105 3.45069
# Velocity P-wave (km/s) = 5.05776 8.01403 6.70096
#
# Compressibility (1/GPa) = 0.03232024
#
# Stress axis : x y z
#
# Youngs Moduli (GPa) = 40.76211 8.46175 25.58515
#
# Poissons Ratio (x) = 0.31418 -0.14724
# Poissons Ratio (y) = 1.51346 1.10948
# Poissons Ratio (z) = -0.23459 0.36694
#
# Static dielectric constant tensor:
#      x y z
#    x 1.550210 0.000000 0.008770 
#    y 0.000000 1.557570 0.000000 
#    z 0.008770 0.000000 1.571580 
# 
# From -- ./inp_files/90631.got.cif
#   From: 2010.05.17/outbox.cif.g08.bks.cpg/sg10_46_cif.got.tgz:90631.got - 2010.06.03 11:33:40.
