data_PCOD9144229
_publ_section_title
;
Structure prediction by ZEFSAII (Michael W. Deem and Ramdas Pophale) SiO2 
 PCOD9144229
Probable space group: P 2/M
;
_chemical_formula_sum "Si O2"
_cell_formula_units_Z 32
_cell_length_a 8.936057
_cell_length_b 13.774372
_cell_length_c 18.528490
_cell_angle_alpha 90.000000
_cell_angle_beta 132.514048
_cell_angle_gamma 90.000000
_cell_volume 1681.090341
_symmetry_space_group_name_H-M "P 2/M"
_symmetry_group_IT_number 10
_symmetry_cell_setting 'monoclinic'
loop_
_space_group_symop_operation_xyz
x,y,z
-x,y,-z
-x,-y,-z
x,-y,z
loop_
_atom_site_type_symbol
_atom_site_label
_atom_site_fract_x
_atom_site_fract_y
_atom_site_fract_z
Si Si1 0.808979 0.615874 0.722593
Si Si2 0.055083 0.759568 0.720045
Si Si3 0.167483 0.114298 0.616955
Si Si4 0.893552 0.614291 0.042855
Si Si5 0.554649 0.245793 0.723752
Si Si6 0.511135 0.276041 0.869927
Si Si7 0.921353 0.110818 0.806069
Si Si8 0.798848 0.890453 0.973940
O O1 0.784438 0.500000 0.708007
O O2 0.606947 0.674862 0.679739
O O3 0.907278 0.667467 0.684578
O O4 0.962915 0.635242 0.841454
O O5 0.085504 0.817536 0.655443
O O6 0.278602 0.721695 0.815743
O O7 0.968817 0.839241 0.746563
O O8 0.364456 0.173771 0.653464
O O9 0.000000 0.111822 0.500000
O O10 0.209741 0.000000 0.650721
O O11 0.855189 0.500000 0.031650
O O12 0.677730 0.668051 0.971138
O O13 0.000000 0.635617 0.000000
O O14 0.530286 0.303009 0.791528
O O15 0.748157 0.173980 0.787984
O O16 0.593083 0.166167 0.897155
O O17 0.127252 0.111377 0.919730
O O18 0.854141 0.000000 0.777462
O O19 0.776376 0.000000 0.940259
O O20 0.000000 0.849723 0.000000
#
# Coordination Sequence:
#
# PCOD9144229 Si02
#       8
#     4   4   4   4   4   4   4   4
#     4  10  21  38  57  83 120 158 195 237 278 320
#     4  10  23  36  54  81 112 149 181 229 291 345
#     4  10  22  42  66  90 114 138 173 230 294 356
#     4  10  19  31  52  80 110 148 199 245 275 307
#     4  10  19  33  59  84 105 146 192 229 278 335
#     4  11  19  31  49  73 108 146 191 236 273 317
#     4  10  19  32  48  73 109 145 185 228 272 327
#     4  10  19  28  43  69 104 148 192 229 263 315
#
# _framework density 19.035266
#
# number of rings (size 3 to 8) (size 9 to 14) (size 15 to 20)
#    0.000    1.875    2.500    2.625    0.000    5.000 
#    0.000    6.875    0.000    9.000    0.000    0.000 
#    0.000    0.000    0.000    0.000    0.000    0.000 
#
# Total GULP energy -178372.051835 kJ/mol
# GULP energy per Si atom -5574.126620 kJ/mol
# Density = 1.899194 g / cm^3
# Si number density = 19.035266 Si / 1000 Ang^3
#
#
#
# Elastic Constant Matrix: (Units=GPa)
#
#
# Indices 1 2 3 4 5 6 
#
# 1 78.4747 45.7975 18.5249 0.0000 8.7968 0.0000
# 2 45.7975 133.7477 17.9544 0.0000 5.0269 0.0000
# 3 18.5249 17.9544 37.2704 0.0000 2.7226 0.0000
# 4 0.0000 0.0000 0.0000 21.2649 0.0000 -1.6654
# 5 8.7968 5.0269 2.7226 0.0000 12.1215 0.0000
# 6 0.0000 0.0000 0.0000 -1.6654 0.0000 17.8632
#
#
#
# Elastic Compliance Matrix: (Units=1/GPa)
#
#
# Indices 1 2 3 4 5 6 
#
# 1 0.018186 -0.005070 -0.005883 0.000000 -0.009774 0.000000
# 2 -0.005070 0.009482 -0.002063 0.000000 0.000211 0.000000
# 3 -0.005883 -0.002063 0.030881 0.000000 -0.001811 0.000000
# 4 0.000000 0.000000 0.000000 0.047372 0.000000 0.004417
# 5 -0.009774 0.000211 -0.001811 0.000000 0.089911 0.000000
# 6 0.000000 0.000000 0.000000 0.004417 0.000000 0.056393
#
#
# Mechanical properties :
#
#
# Convention : Reuss Voigt Hill
#
# Bulk Modulus (GPa) = 30.75305 46.00516 38.37910
# Shear Modulus (GPa) = 17.29530 21.39765 19.34647
#
# Velocity S-wave (km/s) = 3.01756 3.35641 3.19148
# Velocity P-wave (km/s) = 5.32276 6.26430 5.81263
#
# Compressibility (1/GPa) = 0.03251710
#
# Stress axis : x y z
#
# Youngs Moduli (GPa) = 54.98655 105.46392 32.38226
#
# Poissons Ratio (x) = 0.53472 0.19050
# Poissons Ratio (y) = 0.27879 0.06681
# Poissons Ratio (z) = 0.32348 0.21758
#
# Static dielectric constant tensor:
#      x y z
#    x 1.697540 0.000000 -0.024140 
#    y 0.000000 1.689220 0.000000 
#    z -0.024140 0.000000 1.664300 
# 
# From -- ./inp_files/70791.got.cif
#   From: 2010.05.17/outbox.cif.g08.bks.cpg/sg10_36_cif.got.tgz:70791.got - 2010.06.03 11:33:40.
