data_PCOD9144117
_publ_section_title
;
Structure prediction by ZEFSAII (Michael W. Deem and Ramdas Pophale) SiO2 
 PCOD9144117
Probable space group: P 2/M
;
_chemical_formula_sum "Si O2"
_cell_formula_units_Z 32
_cell_length_a 12.305141
_cell_length_b 14.803851
_cell_length_c 18.415527
_cell_angle_alpha 90.000000
_cell_angle_beta 152.663395
_cell_angle_gamma 90.000000
_cell_volume 1540.506650
_symmetry_space_group_name_H-M "P 2/M"
_symmetry_group_IT_number 10
_symmetry_cell_setting 'monoclinic'
loop_
_space_group_symop_operation_xyz
x,y,z
-x,y,-z
-x,-y,-z
x,-y,z
loop_
_atom_site_type_symbol
_atom_site_label
_atom_site_fract_x
_atom_site_fract_y
_atom_site_fract_z
Si Si1 0.465572 0.793938 0.280211
Si Si2 0.153999 0.403156 0.733270
Si Si3 0.291278 0.893525 0.317451
Si Si4 0.812689 0.841147 0.115596
Si Si5 0.297868 0.366654 0.975398
Si Si6 0.571679 0.101255 0.208263
Si Si7 0.260139 0.399289 0.120393
Si Si8 0.979951 0.203472 0.375155
O O1 0.329014 0.832516 0.268712
O O2 0.414602 0.850129 0.176839
O O3 0.412102 0.687958 0.235076
O O4 0.742955 0.815211 0.456441
O O5 0.062062 0.500000 0.652595
O O6 0.431527 0.395022 0.878027
O O7 0.041261 0.312177 0.636316
O O8 0.147077 0.400613 0.817119
O O9 0.500000 0.875817 0.500000
O O10 0.044249 0.870870 0.209229
O O11 0.300941 0.000000 0.304150
O O12 0.881866 0.834649 0.240630
O O13 0.727278 0.740688 0.044069
O O14 0.591723 0.900574 0.960197
O O15 0.232373 0.396415 0.016808
O O16 0.803804 0.160080 0.329063
O O17 0.635895 0.000000 0.268528
O O18 0.353370 0.500000 0.195448
O O19 0.000000 0.389648 0.000000
#
# Coordination Sequence:
#
# PCOD9144117 Si02
#       8
#     4   4   4   4   4   4   4   4
#     4  12  25  44  65  93 133 170 207 264 324 381
#     4  10  19  34  62  93 123 161 208 256 307 368
#     4  11  24  43  67  93 123 167 216 259 316 379
#     4  11  21  42  66  94 127 166 213 269 311 368
#     4  10  18  35  61  90 126 157 205 256 312 366
#     4  12  26  42  65  96 129 169 216 264 318 380
#     4  11  23  40  65  94 127 168 214 261 318 378
#     4  11  24  41  63  94 135 171 205 258 325 384
#
# _framework density 20.772386000000001
#
# number of rings (size 3 to 8) (size 9 to 14) (size 15 to 20)
#    0.000    1.000    3.750    3.750    0.000    3.500 
#    0.000    1.250    0.000    3.375    0.000    0.000 
#    0.000    0.000    0.000    0.000    0.000    0.000 
#
# Total GULP energy -178805.753928 kJ/mol
# GULP energy per Si atom -5587.679810 kJ/mol
# Density = 2.072511 g / cm^3
# Si number density = 20.772386 Si / 1000 Ang^3
#
#
#
# Elastic Constant Matrix: (Units=GPa)
#
#
# Indices 1 2 3 4 5 6 
#
# 1 126.8450 32.8418 15.8625 0.0000 -3.1075 0.0000
# 2 32.8418 139.2433 15.4259 0.0000 -10.1654 0.0000
# 3 15.8625 15.4259 55.7776 0.0000 3.8041 0.0000
# 4 0.0000 0.0000 0.0000 -15.5411 0.0000 -19.5885
# 5 -3.1075 -10.1654 3.8041 0.0000 25.8509 0.0000
# 6 0.0000 0.0000 0.0000 -19.5885 0.0000 -65.3771
#
#
#
# Elastic Compliance Matrix: (Units=1/GPa)
#
#
# Indices 1 2 3 4 5 6 
#
# 1 0.008606 -0.001761 -0.002004 0.000000 0.000637 0.000000
# 2 -0.001761 0.008049 -0.001946 0.000000 0.003240 0.000000
# 3 -0.002004 -0.001946 0.019299 0.000000 -0.003846 0.000000
# 4 0.000000 0.000000 0.000000 -0.103392 0.000000 0.030979
# 5 0.000637 0.003240 -0.003846 0.000000 0.040600 0.000000
# 6 0.000000 0.000000 0.000000 0.030979 0.000000 -0.024578
#
#
# Mechanical properties :
#
#
# Convention : Reuss Voigt Hill
#
# Bulk Modulus (GPa) = 40.76408 50.01403 45.38906
# Shear Modulus (GPa) = -157.14814 6.16893 -75.48961
#
# Velocity S-wave (km/s) = -8.70728 1.72517 -6.03492
# Velocity P-wave (km/s) = 9.02342 5.30073 5.16354
#
# Compressibility (1/GPa) = 0.02453140
#
# Stress axis : x y z
#
# Youngs Moduli (GPa) = 116.20025 124.23565 51.81692
#
# Poissons Ratio (x) = 0.21882 0.10383
# Poissons Ratio (y) = 0.20466 0.10084
# Poissons Ratio (z) = 0.23283 0.24178
#
# Static dielectric constant tensor:
#      x y z
#    x 1.731280 0.000000 -0.041750 
#    y 0.000000 1.760360 0.000000 
#    z -0.041750 0.000000 1.738970 
# 
# From -- ./inp_files/77032.got.cif
#   From: 2010.05.17/outbox.cif.g08.bks.cpg/sg10_39_cif.got.tgz:77032.got - 2010.06.03 11:33:40.
