data_PCOD9144617
_publ_section_title
;
Structure prediction by ZEFSAII (Michael W. Deem and Ramdas Pophale) SiO2 
 PCOD9144617
Probable space group: P 2/M
;
_chemical_formula_sum "Si O2"
_cell_formula_units_Z 28
_cell_length_a 5.013572
_cell_length_b 23.419594
_cell_length_c 12.671621
_cell_angle_alpha 90.000000
_cell_angle_beta 90.866894
_cell_angle_gamma 90.000000
_cell_volume 1487.678483
_symmetry_space_group_name_H-M "P 2/M"
_symmetry_group_IT_number 10
_symmetry_cell_setting 'monoclinic'
loop_
_space_group_symop_operation_xyz
x,y,z
-x,y,-z
-x,-y,-z
x,-y,z
loop_
_atom_site_type_symbol
_atom_site_label
_atom_site_fract_x
_atom_site_fract_y
_atom_site_fract_z
Si Si1 0.143954 0.933554 0.767978
Si Si2 0.995535 0.566402 0.258246
Si Si3 0.511409 0.762279 0.628124
Si Si4 0.490426 0.567107 0.881726
Si Si5 0.338255 0.933455 0.096613
Si Si6 0.008613 0.830090 0.626985
Si Si7 0.755505 0.650182 0.572511
O O1 0.448352 0.931662 0.807590
O O2 0.093119 0.890756 0.672718
O O3 0.946263 0.913628 0.861801
O O4 0.077948 0.000000 0.744780
O O5 0.955301 0.500000 0.288714
O O6 0.221384 0.568849 0.169563
O O7 0.108338 0.601278 0.357564
O O8 0.726055 0.590148 0.203099
O O9 0.500000 0.763490 0.500000
O O10 0.221727 0.781683 0.662577
O O11 0.634241 0.699823 0.646564
O O12 0.721186 0.809873 0.664366
O O13 0.411634 0.500000 0.893216
O O14 0.500000 0.591713 0.000000
O O15 0.290396 0.000000 0.066400
O O16 0.500000 0.906499 0.000000
O O17 0.000000 0.832197 0.500000
O O18 0.500000 0.631379 0.500000
O O19 0.000000 0.672950 0.500000
#
# Coordination Sequence:
#
# PCOD9144617 Si02
#       7
#     4   4   4   4   4   4   4
#     4  10  19  30  47  74 102 128 159 194 245 303
#     4  10  20  32  49  77 107 135 168 203 253 312
#     4   9  18  33  50  68  90 125 172 211 236 270
#     4   9  17  31  50  72 101 135 171 211 248 289
#     4   9  17  30  47  68  97 130 163 199 235 279
#     4  10  19  32  50  71  98 127 160 202 242 286
#     4  11  21  34  52  74 103 135 169 209 248 294
#
# _framework density 18.821270999999999
#
# number of rings (size 3 to 8) (size 9 to 14) (size 15 to 20)
#    0.000    2.286    0.000    4.714    0.000    4.286 
#    0.000    0.000    0.000    5.143    0.000   15.000 
#    0.000    0.000    0.000    0.000    0.000    0.000 
#
# Total GULP energy -156001.606989 kJ/mol
# GULP energy per Si atom -5571.485964 kJ/mol
# Density = 1.877843 g / cm^3
# Si number density = 18.821271 Si / 1000 Ang^3
#
#
#
# Elastic Constant Matrix: (Units=GPa)
#
#
# Indices 1 2 3 4 5 6 
#
# 1 84.3467 2.8450 2.7514 0.0000 4.8772 0.0000
# 2 2.8450 56.6481 16.5712 0.0000 7.8639 0.0000
# 3 2.7514 16.5712 28.8656 0.0000 3.1050 0.0000
# 4 0.0000 0.0000 0.0000 -9.1881 0.0000 -2.9058
# 5 4.8772 7.8639 3.1050 0.0000 20.7443 0.0000
# 6 0.0000 0.0000 0.0000 -2.9058 0.0000 20.3584
#
#
#
# Elastic Compliance Matrix: (Units=1/GPa)
#
#
# Indices 1 2 3 4 5 6 
#
# 1 0.012040 0.000026 -0.000871 0.000000 -0.002710 0.000000
# 2 0.000026 0.022064 -0.011961 0.000000 -0.006580 0.000000
# 3 -0.000871 -0.011961 0.041756 0.000000 -0.001511 0.000000
# 4 0.000000 0.000000 0.000000 -0.104135 0.000000 -0.014864
# 5 -0.002710 -0.006580 -0.001511 0.000000 0.051564 0.000000
# 6 0.000000 0.000000 0.000000 -0.014864 0.000000 0.046998
#
#
# Mechanical properties :
#
#
# Convention : Reuss Voigt Hill
#
# Bulk Modulus (GPa) = 19.90150 23.79952 21.85051
# Shear Modulus (GPa) = 44.38632 16.22911 30.30771
#
# Velocity S-wave (km/s) = 4.86151 2.93964 4.01720
# Velocity P-wave (km/s) = 6.48916 4.91878 5.75776
#
# Compressibility (1/GPa) = 0.05024748
#
# Stress axis : x y z
#
# Youngs Moduli (GPa) = 83.05596 45.32278 23.94892
#
# Poissons Ratio (x) = -0.00120 0.02087
# Poissons Ratio (y) = -0.00220 0.28646
# Poissons Ratio (z) = 0.07236 0.54212
#
# Static dielectric constant tensor:
#      x y z
#    x 1.675820 0.000000 0.002650 
#    y 0.000000 1.670140 0.000000 
#    z 0.002650 0.000000 1.674580 
# 
# From -- ./inp_files/39605.got.cif
#   From: 2010.05.17/outbox.cif.g08.bks.cpg/sg10_20_cif.got.tgz:39605.got - 2010.06.03 11:33:40.
