data_PCOD9144474
_publ_section_title
;
Structure prediction by ZEFSAII (Michael W. Deem and Ramdas Pophale) SiO2 
 PCOD9144474
Probable space group: P 2/M
;
_chemical_formula_sum "Si O2"
_cell_formula_units_Z 32
_cell_length_a 21.398149
_cell_length_b 9.118822
_cell_length_c 28.498550
_cell_angle_alpha 90.000000
_cell_angle_beta 159.332982
_cell_angle_gamma 90.000000
_cell_volume 1962.610149
_symmetry_space_group_name_H-M "P 2/M"
_symmetry_group_IT_number 10
_symmetry_cell_setting 'monoclinic'
loop_
_space_group_symop_operation_xyz
x,y,z
-x,y,-z
-x,-y,-z
x,-y,z
loop_
_atom_site_type_symbol
_atom_site_label
_atom_site_fract_x
_atom_site_fract_y
_atom_site_fract_z
Si Si1 0.649535 0.673853 0.537689
Si Si2 0.819880 0.668159 0.341864
Si Si3 0.062645 0.171849 0.990328
Si Si4 0.375433 0.168330 0.717021
Si Si5 0.737251 0.823905 0.505512
Si Si6 0.014700 0.167857 0.401124
Si Si7 0.568029 0.324762 0.771120
Si Si8 0.248664 0.674114 0.283464
O O1 0.666439 0.500000 0.539403
O O2 0.737268 0.767869 0.558502
O O3 0.439449 0.706735 0.394065
O O4 0.728693 0.699769 0.645000
O O5 0.763105 0.500000 0.298884
O O6 0.678497 0.764464 0.270941
O O7 0.000000 0.671554 0.500000
O O8 0.875443 0.732697 0.330666
O O9 0.238735 0.265184 0.105365
O O10 0.098272 0.000000 0.006513
O O11 0.000000 0.187677 0.000000
O O12 0.905504 0.231392 0.847358
O O13 0.193601 0.168138 0.558632
O O14 0.509832 0.266406 0.781523
O O15 0.435080 0.000000 0.762329
O O16 0.913101 0.785729 0.599037
O O17 0.572462 0.746011 0.363812
O O18 0.715853 0.000000 0.487551
O O19 0.951344 0.000000 0.354783
O O20 0.558985 0.500000 0.762546
O O21 0.214954 0.500000 0.253025
#
# Coordination Sequence:
#
# PCOD9144474 Si02
#       8
#     4   4   4   4   4   4   4   4
#     4   9  18  33  52  71  93 120 152 190 231 276
#     4   9  15  22  35  56  81 112 151 188 221 264
#     4  11  23  36  50  70  95 122 154 192 232 275
#     4   9  16  27  41  57  83 117 151 187 227 271
#     4  10  19  30  45  67  95 124 156 192 232 277
#     4   8  15  25  36  54  83 118 150 183 224 268
#     4  11  21  32  47  66  91 123 158 194 232 276
#     4   9  19  35  52  71  93 120 154 190 230 276
#
# _framework density 16.304817
#
# number of rings (size 3 to 8) (size 9 to 14) (size 15 to 20)
#    0.000    2.500    0.000    4.875    0.000    9.000 
#    0.000    1.250    0.000    0.000    0.000    0.000 
#    0.000    1.000    0.000   10.500    0.000    8.125 
#
# Total GULP energy -178414.408509 kJ/mol
# GULP energy per Si atom -5575.450266 kJ/mol
# Density = 1.626771 g / cm^3
# Si number density = 16.304817 Si / 1000 Ang^3
#
#
#
# Elastic Constant Matrix: (Units=GPa)
#
#
# Indices 1 2 3 4 5 6 
#
# 1 117.9809 61.2036 8.4202 0.0000 6.6102 0.0000
# 2 61.2036 95.8242 18.9078 0.0000 5.6773 0.0000
# 3 8.4202 18.9078 21.8419 0.0000 0.8777 0.0000
# 4 0.0000 0.0000 0.0000 16.0578 0.0000 1.0620
# 5 6.6102 5.6773 0.8777 0.0000 10.5753 0.0000
# 6 0.0000 0.0000 0.0000 1.0620 0.0000 30.7462
#
#
#
# Elastic Compliance Matrix: (Units=1/GPa)
#
#
# Indices 1 2 3 4 5 6 
#
# 1 0.012935 -0.008547 0.002562 0.000000 -0.003709 0.000000
# 2 -0.008547 0.018608 -0.012669 0.000000 -0.003595 0.000000
# 3 0.002562 -0.012669 0.055740 0.000000 0.000574 0.000000
# 4 0.000000 0.000000 0.000000 0.062418 0.000000 -0.002156
# 5 -0.003709 -0.003595 0.000574 0.000000 0.098761 0.000000
# 6 0.000000 0.000000 0.000000 -0.002156 0.000000 0.032599
#
#
# Mechanical properties :
#
#
# Convention : Reuss Voigt Hill
#
# Bulk Modulus (GPa) = 20.01041 45.85668 32.93354
# Shear Modulus (GPa) = 14.92420 21.28354 18.10387
#
# Velocity S-wave (km/s) = 3.02872 3.61689 3.33579
# Velocity P-wave (km/s) = 4.95279 6.75486 5.92277
#
# Compressibility (1/GPa) = 0.04997399
#
# Stress axis : x y z
#
# Youngs Moduli (GPa) = 77.30991 53.74094 17.94051
#
# Poissons Ratio (x) = 0.45934 -0.04596
# Poissons Ratio (y) = 0.66080 0.22728
# Poissons Ratio (z) = -0.19804 0.68082
#
# Static dielectric constant tensor:
#      x y z
#    x 1.563180 0.000000 -0.000730 
#    y 0.000000 1.545260 0.000000 
#    z -0.000730 0.000000 1.517320 
# 
# From -- ./inp_files/54842.got.cif
#   From: 2010.05.17/outbox.cif.g08.bks.cpg/sg10_28_cif.got.tgz:54842.got - 2010.06.03 11:33:40.
