data_PCOD9144449
_publ_section_title
;
Structure prediction by ZEFSAII (Michael W. Deem and Ramdas Pophale) SiO2 
 PCOD9144449
Probable space group: P 2/M
;
_chemical_formula_sum "Si O2"
_cell_formula_units_Z 32
_cell_length_a 14.955043
_cell_length_b 7.707683
_cell_length_c 14.666656
_cell_angle_alpha 90.000000
_cell_angle_beta 108.150274
_cell_angle_gamma 90.000000
_cell_volume 1606.486898
_symmetry_space_group_name_H-M "P 2/M"
_symmetry_group_IT_number 10
_symmetry_cell_setting 'monoclinic'
loop_
_space_group_symop_operation_xyz
x,y,z
-x,y,-z
-x,-y,-z
x,-y,z
loop_
_atom_site_type_symbol
_atom_site_label
_atom_site_fract_x
_atom_site_fract_y
_atom_site_fract_z
Si Si1 0.049426 0.299089 0.815114
Si Si2 0.896611 0.798631 0.983453
Si Si3 0.273033 0.791152 0.192079
Si Si4 0.188809 0.206876 0.710998
Si Si5 0.367576 0.211579 0.883695
Si Si6 0.897138 0.291732 0.500351
Si Si7 0.423189 0.788244 0.101066
Si Si8 0.147687 0.291572 0.311119
O O1 0.044989 0.500000 0.838673
O O2 0.113989 0.209296 0.911140
O O3 0.097767 0.282775 0.732817
O O4 0.943918 0.225812 0.774089
O O5 0.901667 0.000000 0.958177
O O6 0.811458 0.722141 0.899469
O O7 0.000000 0.720206 0.000000
O O8 0.368773 0.729796 0.174387
O O9 0.241571 0.749044 0.284593
O O10 0.275267 0.000000 0.186721
O O11 0.280784 0.271395 0.794346
O O12 0.178407 0.251012 0.601924
O O13 0.185369 0.000000 0.719520
O O14 0.468627 0.266401 0.875135
O O15 0.365867 0.000000 0.882497
O O16 0.368707 0.263768 0.990668
O O17 0.905445 0.500000 0.509641
O O18 0.864397 0.227451 0.589323
O O19 0.000000 0.225169 0.500000
O O20 0.424164 0.000000 0.100960
O O21 0.139042 0.500000 0.310757
#
# Coordination Sequence:
#
# PCOD9144449 Si02
#       8
#     4   4   4   4   4   4   4   4
#     4  11  21  33  48  68  98 139 176 201 237 302
#     4  10  19  30  44  69 103 132 161 207 251 286
#     4  10  19  31  50  74 102 134 169 206 252 302
#     4  11  21  32  52  80 104 125 161 218 268 300
#     4   8  15  29  50  77 106 131 163 205 251 303
#     4  10  20  38  55  69  96 135 176 212 251 305
#     4   8  14  28  51  76 103 137 167 196 244 307
#     4  10  21  35  50  67  95 134 172 206 244 296
#
# _framework density 19.919241
#
# number of rings (size 3 to 8) (size 9 to 14) (size 15 to 20)
#    0.000    2.250    2.500    2.250    0.000    4.000 
#    0.000    0.000    0.000    2.250    0.000   10.500 
#    0.000    0.000    0.000    0.000    0.000    0.000 
#
# Total GULP energy -178525.019541 kJ/mol
# GULP energy per Si atom -5578.906861 kJ/mol
# Density = 1.987390 g / cm^3
# Si number density = 19.919241 Si / 1000 Ang^3
#
#
#
# Elastic Constant Matrix: (Units=GPa)
#
#
# Indices 1 2 3 4 5 6 
#
# 1 98.3390 5.3835 47.0931 0.0000 -21.1274 0.0000
# 2 5.3835 38.3777 2.4463 0.0000 -3.7636 0.0000
# 3 47.0931 2.4463 103.6886 0.0000 -20.3447 0.0000
# 4 0.0000 0.0000 0.0000 31.8826 0.0000 -10.9669
# 5 -21.1274 -3.7636 -20.3447 0.0000 32.2541 0.0000
# 6 0.0000 0.0000 0.0000 -10.9669 0.0000 -0.0580
#
#
#
# Elastic Compliance Matrix: (Units=1/GPa)
#
#
# Indices 1 2 3 4 5 6 
#
# 1 0.013941 -0.001062 -0.005180 0.000000 0.005740 0.000000
# 2 -0.001062 0.026439 0.000374 0.000000 0.002625 0.000000
# 3 -0.005180 0.000374 0.012931 0.000000 0.004807 0.000000
# 4 0.000000 0.000000 0.000000 0.000475 0.000000 -0.089802
# 5 0.005740 0.002625 0.004807 0.000000 0.038102 0.000000
# 6 0.000000 0.000000 0.000000 -0.089802 0.000000 -0.261070
#
#
# Mechanical properties :
#
#
# Convention : Reuss Voigt Hill
#
# Bulk Modulus (GPa) = 24.05352 38.91676 31.48514
# Shear Modulus (GPa) = -34.82271 25.18123 -4.82074
#
# Velocity S-wave (km/s) = -4.18568 3.55937 -1.55737
# Velocity P-wave (km/s) = 3.35531 6.03919 3.55061
#
# Compressibility (1/GPa) = 0.04157395
#
# Stress axis : x y z
#
# Youngs Moduli (GPa) = 71.73014 37.82228 77.33093
#
# Poissons Ratio (x) = 0.04018 0.40060
# Poissons Ratio (y) = 0.07621 -0.02891
# Poissons Ratio (z) = 0.37159 -0.01414
#
# Static dielectric constant tensor:
#      x y z
#    x 1.725560 0.000000 -0.030820 
#    y 0.000000 1.740720 0.000000 
#    z -0.030820 0.000000 1.731120 
# 
# From -- ./inp_files/65982.got.cif
#   From: 2010.05.17/outbox.cif.g08.bks.cpg/sg10_33_cif.got.tgz:65982.got - 2010.06.03 11:33:40.
