data_PCOD9144957
_publ_section_title
;
Structure prediction by ZEFSAII (Michael W. Deem and Ramdas Pophale) SiO2 
 PCOD9144957
Probable space group: P 2/M
;
_chemical_formula_sum "Si O2"
_cell_formula_units_Z 28
_cell_length_a 15.272133
_cell_length_b 9.038543
_cell_length_c 19.615057
_cell_angle_alpha 90.000000
_cell_angle_beta 142.489688
_cell_angle_gamma 90.000000
_cell_volume 1648.681156
_symmetry_space_group_name_H-M "P 2/M"
_symmetry_group_IT_number 10
_symmetry_cell_setting 'monoclinic'
loop_
_space_group_symop_operation_xyz
x,y,z
-x,y,-z
-x,-y,-z
x,-y,z
loop_
_atom_site_type_symbol
_atom_site_label
_atom_site_fract_x
_atom_site_fract_y
_atom_site_fract_z
Si Si1 0.328539 0.323699 0.666058
Si Si2 0.012531 0.324841 0.216219
Si Si3 0.614168 0.175678 0.869464
Si Si4 0.284706 0.823909 0.924340
Si Si5 0.216715 0.823673 0.735039
Si Si6 0.084399 0.321962 0.407122
Si Si7 0.055624 0.822208 0.960441
O O1 0.331004 0.500000 0.673628
O O2 0.488541 0.262369 0.754746
O O3 0.271072 0.254324 0.700843
O O4 0.218794 0.284473 0.537702
O O5 0.015336 0.500000 0.207653
O O6 0.854703 0.271704 0.142879
O O7 0.108045 0.287909 0.341598
O O8 0.034245 0.245137 0.157687
O O9 0.775749 0.216159 0.946120
O O10 0.595828 0.000000 0.847977
O O11 0.606100 0.203835 0.946415
O O12 0.313658 0.795358 0.862785
O O13 0.248481 0.000000 0.907020
O O14 0.057609 0.762860 0.654709
O O15 0.212802 0.000000 0.722243
O O16 0.057923 0.500000 0.395748
O O17 0.046505 0.000000 0.950614
O O18 0.000000 0.774705 0.000000
#
# Coordination Sequence:
#
# PCOD9144957 Si02
#       7
#     4   4   4   4   4   4   4
#     4  11  22  33  45  64  96 134 165 197 239 280
#     4   9  16  28  49  74  96 120 155 195 231 273
#     4   9  18  33  50  69  94 123 156 191 232 285
#     4   8  16  31  48  66  93 126 156 195 245 286
#     4  10  19  31  49  71  92 121 167 212 243 275
#     4   9  19  34  48  65  95 132 165 199 238 275
#     4   9  18  34  56  79 101 122 144 181 238 294
#
# _framework density 16.983270999999998
#
# number of rings (size 3 to 8) (size 9 to 14) (size 15 to 20)
#    0.000    2.714    0.000    2.571    0.000    7.143 
#    0.000    2.857    0.000    0.857    0.000    6.000 
#    0.000    0.000    0.000    0.000    0.000    0.000 
#
# Total GULP energy -156002.324226 kJ/mol
# GULP energy per Si atom -5571.511579 kJ/mol
# Density = 1.694462 g / cm^3
# Si number density = 16.983271 Si / 1000 Ang^3
#
#
#
# Elastic Constant Matrix: (Units=GPa)
#
#
# Indices 1 2 3 4 5 6 
#
# 1 89.9828 28.6705 58.4384 0.0000 -24.7534 0.0000
# 2 28.6705 24.3252 37.9852 0.0000 -6.8746 0.0000
# 3 58.4384 37.9852 110.0410 0.0000 -13.0780 0.0000
# 4 0.0000 0.0000 0.0000 10.0688 0.0000 36.4240
# 5 -24.7534 -6.8746 -13.0780 0.0000 22.8609 0.0000
# 6 0.0000 0.0000 0.0000 36.4240 0.0000 -75.7479
#
#
#
# Elastic Compliance Matrix: (Units=1/GPa)
#
#
# Indices 1 2 3 4 5 6 
#
# 1 0.024890 -0.014831 -0.005822 0.000000 0.019161 0.000000
# 2 -0.014831 0.100148 -0.026849 0.000000 -0.001302 0.000000
# 3 -0.005822 -0.026849 0.021178 0.000000 -0.002262 0.000000
# 4 0.000000 0.000000 0.000000 0.036253 0.000000 0.017433
# 5 0.019161 -0.001302 -0.002262 0.000000 0.062804 0.000000
# 6 0.000000 0.000000 0.000000 0.017433 0.000000 -0.004819
#
#
# Mechanical properties :
#
#
# Convention : Reuss Voigt Hill
#
# Bulk Modulus (GPa) = 19.52589 52.72634 36.12612
# Shear Modulus (GPa) = 14.18322 -1.94663 6.11829
#
# Velocity S-wave (km/s) = 2.89299 -1.07177 1.90009
# Velocity P-wave (km/s) = 4.76249 5.43892 5.11191
#
# Compressibility (1/GPa) = 0.05121405
#
# Stress axis : x y z
#
# Youngs Moduli (GPa) = 40.17611 9.98522 47.21810
#
# Poissons Ratio (x) = 0.14809 0.27489
# Poissons Ratio (y) = 0.59585 1.26775
# Poissons Ratio (z) = 0.23389 0.26809
#
# Static dielectric constant tensor:
#      x y z
#    x 1.572040 0.000000 -0.022770 
#    y 0.000000 1.564490 0.000000 
#    z -0.022770 0.000000 1.598500 
# 
# From -- ./inp_files/54651.got.cif
#   From: 2010.05.17/outbox.cif.g08.bks.cpg/sg10_28_cif.got.tgz:54651.got - 2010.06.03 11:33:40.
