data_PCOD9144677
_publ_section_title
;
Structure prediction by ZEFSAII (Michael W. Deem and Ramdas Pophale) SiO2 
 PCOD9144677
Probable space group: P 2/M
;
_chemical_formula_sum "Si O2"
_cell_formula_units_Z 28
_cell_length_a 8.386586
_cell_length_b 13.605270
_cell_length_c 14.473940
_cell_angle_alpha 90.000000
_cell_angle_beta 113.869202
_cell_angle_gamma 90.000000
_cell_volume 1510.251789
_symmetry_space_group_name_H-M "P 2/M"
_symmetry_group_IT_number 10
_symmetry_cell_setting 'monoclinic'
loop_
_space_group_symop_operation_xyz
x,y,z
-x,y,-z
-x,-y,-z
x,-y,z
loop_
_atom_site_type_symbol
_atom_site_label
_atom_site_fract_x
_atom_site_fract_y
_atom_site_fract_z
Si Si1 0.376292 0.733277 0.055637
Si Si2 0.462906 0.111863 0.622353
Si Si3 0.859938 0.387087 0.883320
Si Si4 0.830118 0.792831 0.742085
Si Si5 0.618563 0.894429 0.195615
Si Si6 0.117939 0.890511 0.909143
Si Si7 0.116098 0.882685 0.436655
O O1 0.314762 0.644530 0.104089
O O2 0.492531 0.807531 0.140719
O O3 0.500000 0.702713 0.000000
O O4 0.212860 0.801468 0.984742
O O5 0.626073 0.182487 0.679994
O O6 0.345724 0.110244 0.688164
O O7 0.321069 0.132214 0.510608
O O8 0.531071 0.000000 0.626394
O O9 0.863912 0.500000 0.854297
O O10 0.872137 0.312161 0.799519
O O11 0.000000 0.376055 0.000000
O O12 0.913074 0.816787 0.661161
O O13 0.919178 0.866607 0.837133
O O14 0.779764 0.891297 0.164539
O O15 0.530090 0.000000 0.156772
O O16 0.137750 0.000000 0.953857
O O17 0.000000 0.859349 0.500000
O O18 0.091147 0.000000 0.410942
#
# Coordination Sequence:
#
# PCOD9144677 Si02
#       7
#     4   4   4   4   4   4   4
#     4  10  19  35  56  80 109 146 188 229 284 346
#     4  10  19  31  52  82 116 150 185 223 265 331
#     4  11  24  43  60  80 110 146 196 252 302 341
#     4  12  21  35  57  82 111 153 194 232 286 337
#     4   9  17  30  49  78 116 152 180 215 265 333
#     4  10  19  30  48  79 118 152 182 218 268 341
#     4  10  21  37  57  85 122 159 189 222 272 342
#
# _framework density 18.539954000000002
#
# number of rings (size 3 to 8) (size 9 to 14) (size 15 to 20)
#    0.000    1.714    2.857    3.000    0.000    5.429 
#    0.000    0.714    0.000    2.143    0.000    0.000 
#    0.000    0.000    0.000    0.000    0.000    0.000 
#
# Total GULP energy -156092.815525 kJ/mol
# GULP energy per Si atom -5574.743412 kJ/mol
# Density = 1.849776 g / cm^3
# Si number density = 18.539954 Si / 1000 Ang^3
#
#
#
# Elastic Constant Matrix: (Units=GPa)
#
#
# Indices 1 2 3 4 5 6 
#
# 1 67.2846 30.7697 33.2828 0.0000 -12.2865 0.0000
# 2 30.7697 104.5908 45.4050 0.0000 -1.8754 0.0000
# 3 33.2828 45.4050 88.8320 0.0000 -6.5963 0.0000
# 4 0.0000 0.0000 0.0000 26.0120 0.0000 -2.2564
# 5 -12.2865 -1.8754 -6.5963 0.0000 41.5906 0.0000
# 6 0.0000 0.0000 0.0000 -2.2564 0.0000 22.0120
#
#
#
# Elastic Compliance Matrix: (Units=1/GPa)
#
#
# Indices 1 2 3 4 5 6 
#
# 1 0.019992 -0.003470 -0.005353 0.000000 0.004900 0.000000
# 2 -0.003470 0.012898 -0.005389 0.000000 -0.001298 0.000000
# 3 -0.005353 -0.005389 0.016071 0.000000 0.000725 0.000000
# 4 0.000000 0.000000 0.000000 0.038789 0.000000 0.003976
# 5 0.004900 -0.001298 0.000725 0.000000 0.025548 0.000000
# 6 0.000000 0.000000 0.000000 0.003976 0.000000 0.045837
#
#
# Mechanical properties :
#
#
# Convention : Reuss Voigt Hill
#
# Bulk Modulus (GPa) = 48.69138 53.29136 50.99137
# Shear Modulus (GPa) = 25.71967 28.00625 26.86296
#
# Velocity S-wave (km/s) = 3.72863 3.89085 3.81060
# Velocity P-wave (km/s) = 6.69753 6.99938 6.85012
#
# Compressibility (1/GPa) = 0.02053752
#
# Stress axis : x y z
#
# Youngs Moduli (GPa) = 50.02092 77.53129 62.22354
#
# Poissons Ratio (x) = 0.26901 0.33308
# Poissons Ratio (y) = 0.17356 0.33532
# Poissons Ratio (z) = 0.26776 0.41782
#
# Static dielectric constant tensor:
#      x y z
#    x 1.731430 0.000000 -0.010930 
#    y 0.000000 1.601890 0.000000 
#    z -0.010930 0.000000 1.682030 
# 
# From -- ./inp_files/61004.got.cif
#   From: 2010.05.17/outbox.cif.g08.bks.cpg/sg10_31_cif.got.tgz:61004.got - 2010.06.03 11:33:40.
