data_PCOD9144742
_publ_section_title
;
Structure prediction by ZEFSAII (Michael W. Deem and Ramdas Pophale) SiO2 
 PCOD9144742
Probable space group: P 2/M
;
_chemical_formula_sum "Si O2"
_cell_formula_units_Z 32
_cell_length_a 15.592579
_cell_length_b 7.386586
_cell_length_c 25.567020
_cell_angle_alpha 90.000000
_cell_angle_beta 26.322811
_cell_angle_gamma 90.000000
_cell_volume 1305.764946
_symmetry_space_group_name_H-M "P 2/M"
_symmetry_group_IT_number 10
_symmetry_cell_setting 'monoclinic'
loop_
_space_group_symop_operation_xyz
x,y,z
-x,y,-z
-x,-y,-z
x,-y,z
loop_
_atom_site_type_symbol
_atom_site_label
_atom_site_fract_x
_atom_site_fract_y
_atom_site_fract_z
Si Si1 0.293256 0.781279 0.860158
Si Si2 0.780645 0.279237 0.721361
Si Si3 0.638305 0.705113 0.467945
Si Si4 0.904987 0.780081 0.133996
Si Si5 0.575655 0.718296 0.015516
Si Si6 0.973548 0.787744 0.212829
Si Si7 0.804198 0.721519 0.480338
Si Si8 0.720437 0.706411 0.641304
O O1 0.490302 0.706636 0.774876
O O2 0.254461 0.722474 0.821339
O O3 0.303308 0.000000 0.855242
O O4 0.109495 0.729487 0.995654
O O5 0.774435 0.500000 0.722547
O O6 0.806174 0.215158 0.647640
O O7 0.970449 0.230639 0.650540
O O8 0.581119 0.218090 0.856226
O O9 0.500000 0.791053 0.500000
O O10 0.565151 0.500000 0.515697
O O11 0.666399 0.788770 0.509563
O O12 0.850811 0.699489 0.326001
O O13 0.902091 0.717843 0.195219
O O14 0.900264 0.000000 0.137763
O O15 0.570399 0.500000 0.018255
O O16 0.796154 0.768465 0.907113
O O17 0.500000 0.778837 0.000000
O O18 0.928836 0.000000 0.239640
O O19 0.792296 0.500000 0.485727
O O20 0.751328 0.786700 0.567163
O O21 0.790557 0.500000 0.598955
#
# Coordination Sequence:
#
# PCOD9144742 Si02
#       8
#     4   4   4   4   4   4   4   4
#     4   9  17  33  53  72 101 142 180 210 254 320
#     4   9  17  31  53  80 109 141 178 218 263 318
#     4  10  22  39  58  79 106 144 186 225 268 324
#     4   8  17  33  52  73 101 141 180 212 257 321
#     4  10  20  35  57  82 110 146 183 219 266 326
#     4  11  22  36  56  82 110 139 177 225 274 320
#     4   9  18  34  54  76 106 142 179 219 267 323
#     4  10  19  30  51  81 107 132 172 223 270 309
#
# _framework density 24.506709000000001
#
# number of rings (size 3 to 8) (size 9 to 14) (size 15 to 20)
#    0.000    2.500    0.000    3.000    1.750    4.000 
#    0.000    3.125    0.000    3.000    0.000    0.000 
#    0.000    0.000    0.000    0.000    0.000    0.000 
#
# Total GULP energy -178908.363722 kJ/mol
# GULP energy per Si atom -5590.886366 kJ/mol
# Density = 2.445093 g / cm^3
# Si number density = 24.506709 Si / 1000 Ang^3
#
#
#
# Elastic Constant Matrix: (Units=GPa)
#
#
# Indices 1 2 3 4 5 6 
#
# 1 177.1639 6.9707 28.4297 0.0000 8.0911 0.0000
# 2 6.9707 92.9388 -1.3433 0.0000 2.1448 0.0000
# 3 28.4297 -1.3433 58.2379 0.0000 8.0242 0.0000
# 4 0.0000 0.0000 0.0000 15.9285 0.0000 -9.8841
# 5 8.0911 2.1448 8.0242 0.0000 43.0481 0.0000
# 6 0.0000 0.0000 0.0000 -9.8841 0.0000 -4.6636
#
#
#
# Elastic Compliance Matrix: (Units=1/GPa)
#
#
# Indices 1 2 3 4 5 6 
#
# 1 0.006162 -0.000491 -0.002939 0.000000 -0.000586 0.000000
# 2 -0.000491 0.010818 0.000565 0.000000 -0.000552 0.000000
# 3 -0.002939 0.000565 0.019035 0.000000 -0.003024 0.000000
# 4 0.000000 0.000000 0.000000 0.027117 0.000000 -0.057473
# 5 -0.000586 -0.000552 -0.003024 0.000000 0.023931 0.000000
# 6 0.000000 0.000000 0.000000 -0.057473 0.000000 -0.092619
#
#
# Mechanical properties :
#
#
# Convention : Reuss Voigt Hill
#
# Bulk Modulus (GPa) = 33.01876 44.05053 38.53465
# Shear Modulus (GPa) = 486.92088 30.48151 258.70119
#
# Velocity S-wave (km/s) = 14.11099 3.53058 10.28555
# Velocity P-wave (km/s) = 16.70318 5.88506 12.52258
#
# Compressibility (1/GPa) = 0.03028581
#
# Stress axis : x y z
#
# Youngs Moduli (GPa) = 162.28071 92.44263 52.53416
#
# Poissons Ratio (x) = 0.04540 0.15438
# Poissons Ratio (y) = 0.07970 -0.02970
# Poissons Ratio (z) = 0.47690 -0.05226
#
# Static dielectric constant tensor:
#      x y z
#    x 1.938450 0.000000 0.018400 
#    y 0.000000 1.938200 0.000000 
#    z 0.018400 0.000000 1.914960 
# 
# From -- ./inp_files/56973.got.cif
#   From: 2010.05.17/outbox.cif.g08.bks.cpg/sg10_29_cif.got.tgz:56973.got - 2010.06.03 11:33:40.
