data_PCOD9144051
_publ_section_title
;
Structure prediction by ZEFSAII (Michael W. Deem and Ramdas Pophale) SiO2 
 PCOD9144051
Probable space group: P 2/M
;
_chemical_formula_sum "Si O2"
_cell_formula_units_Z 30
_cell_length_a 8.639306
_cell_length_b 14.866699
_cell_length_c 13.139051
_cell_angle_alpha 90.000000
_cell_angle_beta 113.396169
_cell_angle_gamma 90.000000
_cell_volume 1548.804318
_symmetry_space_group_name_H-M "P 2/M"
_symmetry_group_IT_number 10
_symmetry_cell_setting 'monoclinic'
loop_
_space_group_symop_operation_xyz
x,y,z
-x,y,-z
-x,-y,-z
x,-y,z
loop_
_atom_site_type_symbol
_atom_site_label
_atom_site_fract_x
_atom_site_fract_y
_atom_site_fract_z
Si Si1 0.013674 0.219390 0.383022
Si Si2 0.332507 0.103375 0.396575
Si Si3 0.797262 0.000000 0.022024
Si Si4 0.005685 0.399170 0.264184
Si Si5 0.640477 0.861677 0.831712
Si Si6 0.159882 0.683793 0.100128
Si Si7 0.281538 0.160286 0.843650
Si Si8 0.691757 0.359801 0.059060
O O1 0.174464 0.165636 0.382071
O O2 0.030272 0.324121 0.356312
O O3 0.000000 0.207675 0.500000
O O4 0.848588 0.183333 0.280451
O O5 0.500000 0.132580 0.500000
O O6 0.372043 0.106719 0.287219
O O7 0.294653 0.000000 0.415801
O O8 0.788842 0.920372 0.106766
O O9 0.774466 0.922518 0.926424
O O10 0.057784 0.500000 0.304457
O O11 0.102127 0.363078 0.188362
O O12 0.809919 0.399200 0.177432
O O13 0.701878 0.759182 0.843895
O O14 0.463853 0.867766 0.846287
O O15 0.227591 0.619326 0.029482
O O16 0.000000 0.727576 0.000000
O O17 0.302495 0.251732 0.915632
O O18 0.500000 0.387785 0.000000
#
# Coordination Sequence:
#
# PCOD9144051 Si02
#       8
#     4   4   2   4   4   4   4   4
#     4  11  25  46  66  88 116 162 208 262 326 367
#     4  11  25  43  63  92 125 166 214 252 295 366
#     4  12  23  34  59  96 131 164 207 254 301 346
#     4  10  23  41  64  91 120 156 207 263 320 376
#     4  12  20  37  60  89 127 171 206 248 304 354
#     4  10  20  35  58  86 127 165 201 239 310 376
#     4  11  22  36  59  91 127 164 209 256 301 360
#     4  10  18  34  59  87 129 169 202 239 302 375
#
# _framework density 19.369779999999999
#
# number of rings (size 3 to 8) (size 9 to 14) (size 15 to 20)
#    0.000    1.200    4.667    2.000    0.933    3.200 
#    0.000    1.000    0.000    0.400    0.000    0.000 
#    0.000    0.000    0.000    0.000    0.000    0.000 
#
# Total GULP energy -167042.002863 kJ/mol
# GULP energy per Si atom -5568.066762 kJ/mol
# Density = 1.932569 g / cm^3
# Si number density = 19.369780 Si / 1000 Ang^3
#
#
#
# Elastic Constant Matrix: (Units=GPa)
#
#
# Indices 1 2 3 4 5 6 
#
# 1 38.8727 -7.3680 13.6393 0.0000 -1.0304 0.0000
# 2 -7.3680 84.0332 7.0445 0.0000 1.1648 0.0000
# 3 13.6393 7.0445 96.2684 0.0000 -13.9591 0.0000
# 4 0.0000 0.0000 0.0000 30.8547 0.0000 0.9209
# 5 -1.0304 1.1648 -13.9591 0.0000 29.9090 0.0000
# 6 0.0000 0.0000 0.0000 0.9209 0.0000 -1.1065
#
#
#
# Elastic Compliance Matrix: (Units=1/GPa)
#
#
# Indices 1 2 3 4 5 6 
#
# 1 0.027737 0.002809 -0.004304 0.000000 -0.001163 0.000000
# 2 0.002809 0.012283 -0.001450 0.000000 -0.001058 0.000000
# 3 -0.004304 -0.001450 0.011895 0.000000 0.005460 0.000000
# 4 0.000000 0.000000 0.000000 0.031624 0.000000 0.026320
# 5 -0.001163 -0.001058 0.005460 0.000000 0.035984 0.000000
# 6 0.000000 0.000000 0.000000 0.026320 0.000000 -0.881847
#
#
# Mechanical properties :
#
#
# Convention : Reuss Voigt Hill
#
# Bulk Modulus (GPa) = 21.72778 27.31177 24.51977
# Shear Modulus (GPa) = -6.74680 25.65534 9.45427
#
# Velocity S-wave (km/s) = -1.86835 3.64332 2.21168
# Velocity P-wave (km/s) = 2.56660 5.64174 4.38273
#
# Compressibility (1/GPa) = 0.04602404
#
# Stress axis : x y z
#
# Youngs Moduli (GPa) = 36.05336 81.41614 84.06748
#
# Poissons Ratio (x) = -0.22868 0.36181
# Poissons Ratio (y) = -0.10127 0.12192
# Poissons Ratio (z) = 0.15517 0.11807
#
# Static dielectric constant tensor:
#      x y z
#    x 1.729380 0.000000 0.012570 
#    y 0.000000 1.683890 0.000000 
#    z 0.012570 0.000000 1.650860 
# 
# From -- ./inp_files/43012.got.cif
#   From: 2010.05.17/outbox.cif.g08.bks.cpg/sg10_22_cif.got.tgz:43012.got - 2010.06.03 11:33:40.
