data_PCOD9144316
_publ_section_title
;
Structure prediction by ZEFSAII (Michael W. Deem and Ramdas Pophale) SiO2 
 PCOD9144316
Probable space group: P 2/M
;
_chemical_formula_sum "Si O2"
_cell_formula_units_Z 32
_cell_length_a 13.928998
_cell_length_b 7.440396
_cell_length_c 26.987577
_cell_angle_alpha 90.000000
_cell_angle_beta 33.440615
_cell_angle_gamma 90.000000
_cell_volume 1541.304615
_symmetry_space_group_name_H-M "P 2/M"
_symmetry_group_IT_number 10
_symmetry_cell_setting 'monoclinic'
loop_
_space_group_symop_operation_xyz
x,y,z
-x,y,-z
-x,-y,-z
x,-y,z
loop_
_atom_site_type_symbol
_atom_site_label
_atom_site_fract_x
_atom_site_fract_y
_atom_site_fract_z
Si Si1 0.294611 0.283881 0.953434
Si Si2 0.225208 0.781080 0.601261
Si Si3 0.445389 0.793556 0.712752
Si Si4 0.561781 0.282128 0.920022
Si Si5 0.574569 0.781310 0.390633
Si Si6 0.859434 0.790406 0.718202
Si Si7 0.408416 0.213662 0.250431
Si Si8 0.070120 0.716785 0.915103
O O1 0.287802 0.500000 0.956878
O O2 0.414931 0.219178 0.945435
O O3 0.404256 0.238041 0.857102
O O4 0.097049 0.223743 0.044388
O O5 0.392647 0.735942 0.495733
O O6 0.272610 0.722436 0.637118
O O7 0.047867 0.714754 0.651953
O O8 0.214792 0.000000 0.607302
O O9 0.430416 0.715146 0.663874
O O10 0.568081 0.714494 0.703664
O O11 0.250984 0.793458 0.819036
O O12 0.503792 0.000000 0.681070
O O13 0.566661 0.500000 0.918034
O O14 0.741999 0.221751 0.818247
O O15 0.500000 0.221499 0.000000
O O16 0.586627 0.000000 0.383730
O O17 0.740386 0.715750 0.723743
O O18 0.885772 0.000000 0.694684
O O19 0.380549 0.000000 0.266324
O O20 0.090423 0.500000 0.905185
O O21 0.000000 0.762953 0.000000
#
# Coordination Sequence:
#
# PCOD9144316 Si02
#       8
#     4   4   4   4   4   4   4   4
#     4   9  17  30  45  59  81 117 155 181 209 258
#     4   8  14  28  49  68  90 117 149 184 221 269
#     4  10  19  29  44  67  94 118 146 185 228 268
#     4   9  18  31  45  63  89 119 148 181 222 264
#     4   8  15  28  46  69  92 117 146 182 226 269
#     4   9  17  29  47  68  87 115 151 183 218 260
#     4   9  17  28  41  62  92 117 140 177 221 261
#     4  10  19  30  44  63  87 118 155 187 215 259
#
# _framework density 20.761633
#
# number of rings (size 3 to 8) (size 9 to 14) (size 15 to 20)
#    0.000    3.000    1.250    0.750    0.000    2.000 
#    0.000    0.625    0.000    4.500    0.000    1.750 
#    0.000    5.000    0.000    0.000    0.000    0.000 
#
# Total GULP energy -178228.649541 kJ/mol
# GULP energy per Si atom -5569.645298 kJ/mol
# Density = 2.071438 g / cm^3
# Si number density = 20.761633 Si / 1000 Ang^3
#
#
#
# Elastic Constant Matrix: (Units=GPa)
#
#
# Indices 1 2 3 4 5 6 
#
# 1 167.3346 3.8951 79.1196 0.0000 5.1677 0.0000
# 2 3.8951 61.5018 -2.7623 0.0000 0.3540 0.0000
# 3 79.1196 -2.7623 61.7741 0.0000 0.9078 0.0000
# 4 0.0000 0.0000 0.0000 19.0258 0.0000 0.2761
# 5 5.1677 0.3540 0.9078 0.0000 44.6350 0.0000
# 6 0.0000 0.0000 0.0000 0.2761 0.0000 -0.8782
#
#
#
# Elastic Compliance Matrix: (Units=1/GPa)
#
#
# Indices 1 2 3 4 5 6 
#
# 1 0.015445 -0.001862 -0.019844 0.000000 -0.001370 0.000000
# 2 -0.001862 0.016518 0.003123 0.000000 0.000021 0.000000
# 3 -0.019844 0.003123 0.041723 0.000000 0.001424 0.000000
# 4 0.000000 0.000000 0.000000 0.052322 0.000000 0.016449
# 5 -0.001370 0.000021 0.001424 0.000000 0.022533 0.000000
# 6 0.000000 0.000000 0.000000 0.016449 0.000000 -1.133463
#
#
# Mechanical properties :
#
#
# Convention : Reuss Voigt Hill
#
# Bulk Modulus (GPa) = 27.38322 50.12393 38.75358
# Shear Modulus (GPa) = -5.34426 26.58037 10.61806
#
# Velocity S-wave (km/s) = -1.60614 3.58196 2.26393
# Velocity P-wave (km/s) = 3.12704 6.42668 5.05374
#
# Compressibility (1/GPa) = 0.03651872
#
# Stress axis : x y z
#
# Youngs Moduli (GPa) = 64.74783 60.54104 23.96754
#
# Poissons Ratio (x) = 0.11270 0.47562
# Poissons Ratio (y) = 0.12053 -0.07484
# Poissons Ratio (z) = 1.28488 -0.18904
#
# Static dielectric constant tensor:
#      x y z
#    x 1.831890 0.000000 0.007440 
#    y 0.000000 1.789360 0.000000 
#    z 0.007440 0.000000 1.696750 
# 
# From -- ./inp_files/93124.got.cif
#   From: 2010.05.17/outbox.cif.g08.bks.cpg/sg10_47_cif.got.tgz:93124.got - 2010.06.03 11:33:40.
