data_PCOD9144231
_publ_section_title
;
Structure prediction by ZEFSAII (Michael W. Deem and Ramdas Pophale) SiO2 
 PCOD9144231
Probable space group: P 2/M
;
_chemical_formula_sum "Si O2"
_cell_formula_units_Z 28
_cell_length_a 22.623131
_cell_length_b 11.735040
_cell_length_c 19.639161
_cell_angle_alpha 90.000000
_cell_angle_beta 19.252965
_cell_angle_gamma 90.000000
_cell_volume 1719.218955
_symmetry_space_group_name_H-M "P 2/M"
_symmetry_group_IT_number 10
_symmetry_cell_setting 'monoclinic'
loop_
_space_group_symop_operation_xyz
x,y,z
-x,y,-z
-x,-y,-z
x,-y,z
loop_
_atom_site_type_symbol
_atom_site_label
_atom_site_fract_x
_atom_site_fract_y
_atom_site_fract_z
Si Si1 0.305240 0.500000 0.788510
Si Si2 0.241442 0.638062 0.329127
Si Si3 0.629077 0.638145 0.957104
Si Si4 0.721492 0.500000 0.345811
Si Si5 0.120356 0.746257 0.801292
Si Si6 0.508952 0.136202 0.569687
Si Si7 0.884304 0.361114 0.800297
Si Si8 0.834330 0.735970 0.002210
O O1 0.510210 0.500000 0.592492
O O2 0.285990 0.500000 0.728085
O O3 0.214113 0.613300 0.913850
O O4 0.243459 0.500000 0.325217
O O5 0.257450 0.675113 0.232890
O O6 0.063701 0.667967 0.563070
O O7 0.424449 0.674829 0.167590
O O8 0.629535 0.500000 0.955176
O O9 0.719506 0.668740 0.929690
O O10 0.820067 0.613453 0.263798
O O11 0.303346 0.816889 0.606812
O O12 0.002608 0.777533 0.863726
O O13 0.000000 0.764778 0.000000
O O14 0.500000 0.174780 0.500000
O O15 0.504956 0.000000 0.575499
O O16 0.338920 0.186458 0.794583
O O17 0.882674 0.500000 0.814621
O O18 0.874634 0.290344 0.880038
#
# Coordination Sequence:
#
# PCOD9144231 Si02
#       8
#     2   4   4   2   4   4   4   4
#     4  11  19  34  53  73 103 138 169 204 258 313
#     4   8  14  26  42  64  92 134 181 207 231 281
#     4   8  14  26  44  62  93 137 177 208 233 276
#     4  11  20  33  56  73 103 135 171 212 249 310
#     4  12  22  35  56  78 100 132 171 215 263 311
#     4  11  24  42  60  76  94 126 178 232 274 313
#     4  10  19  28  43  70 105 138 169 202 246 300
#     4  12  23  36  51  78 108 137 169 215 266 313
#
# _framework density 16.286466000000001
#
# number of rings (size 3 to 8) (size 9 to 14) (size 15 to 20)
#    0.000    1.714    5.000    1.929    0.000    3.714 
#    0.000    0.000    0.000    0.000    0.000    0.000 
#    0.000    2.286    0.000    8.571    0.000    0.286 
#
# Total GULP energy -156161.057872 kJ/mol
# GULP energy per Si atom -5577.180638 kJ/mol
# Density = 1.624940 g / cm^3
# Si number density = 16.286466 Si / 1000 Ang^3
#
#
#
# Elastic Constant Matrix: (Units=GPa)
#
#
# Indices 1 2 3 4 5 6 
#
# 1 121.2264 12.7841 40.4631 0.0000 -13.9882 0.0000
# 2 12.7841 33.4880 15.7542 0.0000 -3.8189 0.0000
# 3 40.4631 15.7542 53.7950 0.0000 -20.5363 0.0000
# 4 0.0000 0.0000 0.0000 -1.9882 0.0000 6.0788
# 5 -13.9882 -3.8189 -20.5363 0.0000 22.1011 0.0000
# 6 0.0000 0.0000 0.0000 6.0788 0.0000 10.2664
#
#
#
# Elastic Compliance Matrix: (Units=1/GPa)
#
#
# Indices 1 2 3 4 5 6 
#
# 1 0.011035 -0.000274 -0.008634 0.000000 -0.001086 0.000000
# 2 -0.000274 0.035050 -0.012107 0.000000 -0.005367 0.000000
# 3 -0.008634 -0.012107 0.039897 0.000000 0.029515 0.000000
# 4 0.000000 0.000000 0.000000 -0.178973 0.000000 0.105971
# 5 -0.001086 -0.005367 0.029515 0.000000 0.071057 0.000000
# 6 0.000000 0.000000 0.000000 0.105971 0.000000 0.034660
#
#
# Mechanical properties :
#
#
# Convention : Reuss Voigt Hill
#
# Bulk Modulus (GPa) = 22.75341 38.50138 30.62739
# Shear Modulus (GPa) = 72.04010 15.37640 43.70825
#
# Velocity S-wave (km/s) = 6.65801 3.07599 5.18608
# Velocity P-wave (km/s) = 8.55024 6.02553 7.39641
#
# Compressibility (1/GPa) = 0.04394945
#
# Stress axis : x y z
#
# Youngs Moduli (GPa) = 90.62431 28.53080 25.06479
#
# Poissons Ratio (x) = 0.00783 0.21642
# Poissons Ratio (y) = 0.02487 0.30346
# Poissons Ratio (z) = 0.78247 0.34542
#
# Static dielectric constant tensor:
#      x y z
#    x 1.565250 0.000000 -0.014300 
#    y 0.000000 1.520040 0.000000 
#    z -0.014300 0.000000 1.564260 
# 
# From -- ./inp_files/79553.got.cif
#   From: 2010.05.17/outbox.cif.g08.bks.cpg/sg10_40_cif.got.tgz:79553.got - 2010.06.03 11:33:40.
