data_PCOD9144016
_publ_section_title
;
Structure prediction by ZEFSAII (Michael W. Deem and Ramdas Pophale) SiO2 
 PCOD9144016
Probable space group: P 2/M
;
_chemical_formula_sum "Si O2"
_cell_formula_units_Z 28
_cell_length_a 11.724841
_cell_length_b 16.243208
_cell_length_c 22.525852
_cell_angle_alpha 90.000000
_cell_angle_beta 17.945005
_cell_angle_gamma 90.000000
_cell_volume 1321.774325
_symmetry_space_group_name_H-M "P 2/M"
_symmetry_group_IT_number 10
_symmetry_cell_setting 'monoclinic'
loop_
_space_group_symop_operation_xyz
x,y,z
-x,y,-z
-x,-y,-z
x,-y,z
loop_
_atom_site_type_symbol
_atom_site_label
_atom_site_fract_x
_atom_site_fract_y
_atom_site_fract_z
Si Si1 0.457060 0.909527 0.420103
Si Si2 0.397240 0.304533 0.713833
Si Si3 0.567442 0.590836 0.734011
Si Si4 0.811513 0.746440 0.301009
Si Si5 0.276672 0.247046 0.277749
Si Si6 0.723763 0.841633 0.840015
Si Si7 0.370795 0.145211 0.792648
O O1 0.693750 0.835184 0.330827
O O2 0.448011 0.901589 0.352835
O O3 0.055294 0.894195 0.647450
O O4 0.597750 0.000000 0.366083
O O5 0.374918 0.381570 0.768214
O O6 0.199084 0.313537 0.749403
O O7 0.219606 0.228184 0.836170
O O8 0.834107 0.272218 0.490108
O O9 0.463029 0.500000 0.806368
O O10 0.540794 0.666822 0.792676
O O11 0.000000 0.589133 0.500000
O O12 0.500000 0.715981 0.500000
O O13 0.128653 0.769977 0.189196
O O14 0.429376 0.205834 0.142060
O O15 0.363089 0.180423 0.287176
O O16 0.500000 0.892873 0.000000
O O17 0.000000 0.101650 0.000000
#
# Coordination Sequence:
#
# PCOD9144016 Si02
#       7
#     4   4   4   4   4   4   4
#     4  10  22  40  58  77 108 144 175 229 290 329
#     4   9  16  31  55  78 108 142 177 226 268 314
#     4   8  15  27  52  85 112 142 173 218 278 326
#     4   9  17  34  54  76  99 143 183 224 265 317
#     4  10  18  34  57  81 115 140 182 232 264 318
#     4  11  23  35  58  81 105 141 194 228 265 324
#     4  10  20  33  57  82 106 141 183 225 275 324
#
# _framework density 21.183647000000001
#
# number of rings (size 3 to 8) (size 9 to 14) (size 15 to 20)
#    0.000    2.429    4.286    1.286    4.000    3.143 
#    0.000    1.429    0.000    8.571    0.000    0.000 
#    0.000    0.000    0.000    0.000    0.000    0.000 
#
# Total GULP energy -155898.020261 kJ/mol
# GULP energy per Si atom -5567.786438 kJ/mol
# Density = 2.113543 g / cm^3
# Si number density = 21.183647 Si / 1000 Ang^3
#
#
#
# Elastic Constant Matrix: (Units=GPa)
#
#
# Indices 1 2 3 4 5 6 
#
# 1 136.4289 14.6588 33.2053 0.0000 30.4283 0.0000
# 2 14.6588 75.4626 9.7725 0.0000 11.9033 0.0000
# 3 33.2053 9.7725 109.3561 0.0000 26.4507 0.0000
# 4 0.0000 0.0000 0.0000 -2.1449 0.0000 -2.2165
# 5 30.4283 11.9033 26.4507 0.0000 38.2057 0.0000
# 6 0.0000 0.0000 0.0000 -2.2165 0.0000 11.4573
#
#
#
# Elastic Compliance Matrix: (Units=1/GPa)
#
#
# Indices 1 2 3 4 5 6 
#
# 1 0.009072 -0.000629 -0.001199 0.000000 -0.006199 0.000000
# 2 -0.000629 0.013985 -0.000151 0.000000 -0.003751 0.000000
# 3 -0.001199 -0.000151 0.011146 0.000000 -0.006715 0.000000
# 4 0.000000 0.000000 0.000000 -0.388550 0.000000 -0.075166
# 5 -0.006199 -0.003751 -0.006715 0.000000 0.036929 0.000000
# 6 0.000000 0.000000 0.000000 -0.075166 0.000000 0.072739
#
#
# Mechanical properties :
#
#
# Convention : Reuss Voigt Hill
#
# Bulk Modulus (GPa) = 33.06431 48.50232 40.78331
# Shear Modulus (GPa) = -21.67895 27.07770 2.69937
#
# Velocity S-wave (km/s) = -3.20250 3.57912 1.13006
# Velocity P-wave (km/s) = 1.40271 6.32661 4.58222
#
# Compressibility (1/GPa) = 0.03024409
#
# Stress axis : x y z
#
# Youngs Moduli (GPa) = 110.23129 71.50452 89.71705
#
# Poissons Ratio (x) = 0.04499 0.10757
# Poissons Ratio (y) = 0.06935 0.01358
# Poissons Ratio (z) = 0.13217 0.01082
#
# Static dielectric constant tensor:
#      x y z
#    x 1.821950 0.000000 -0.101640 
#    y 0.000000 1.714670 0.000000 
#    z -0.101640 0.000000 2.344300 
# 
# From -- ./inp_files/84212.got.cif
#   From: 2010.05.17/outbox.cif.g08.bks.cpg/sg10_43_cif.got.tgz:84212.got - 2010.06.03 11:33:40.
