data_PCOD9144720
_publ_section_title
;
Structure prediction by ZEFSAII (Michael W. Deem and Ramdas Pophale) SiO2 
 PCOD9144720
Probable space group: P 2/M
;
_chemical_formula_sum "Si O2"
_cell_formula_units_Z 32
_cell_length_a 10.123315
_cell_length_b 13.646425
_cell_length_c 25.856943
_cell_angle_alpha 90.000000
_cell_angle_beta 151.679595
_cell_angle_gamma 90.000000
_cell_volume 1694.591803
_symmetry_space_group_name_H-M "P 2/M"
_symmetry_group_IT_number 10
_symmetry_cell_setting 'monoclinic'
loop_
_space_group_symop_operation_xyz
x,y,z
-x,y,-z
-x,-y,-z
x,-y,z
loop_
_atom_site_type_symbol
_atom_site_label
_atom_site_fract_x
_atom_site_fract_y
_atom_site_fract_z
Si Si1 0.551851 0.618657 0.640425
Si Si2 0.824714 0.745479 0.814305
Si Si3 0.806849 0.882536 0.129859
Si Si4 0.856369 0.112997 0.269220
Si Si5 0.087917 0.614879 0.753530
Si Si6 0.221286 0.281542 0.438337
Si Si7 0.279514 0.887909 0.129388
Si Si8 0.362058 0.614909 0.009607
O O1 0.513958 0.500000 0.630016
O O2 0.597828 0.674515 0.709908
O O3 0.317563 0.673889 0.525916
O O4 0.846277 0.637811 0.711731
O O5 0.711032 0.808095 0.822541
O O6 0.959516 0.823061 0.820534
O O7 0.084641 0.676826 0.918938
O O8 0.844857 0.861186 0.204146
O O9 0.837113 0.000000 0.133673
O O10 0.500000 0.857670 0.000000
O O11 0.545696 0.119911 0.184307
O O12 0.055328 0.180870 0.372589
O O13 0.947451 0.000000 0.304012
O O14 0.126382 0.500000 0.772179
O O15 0.392438 0.655945 0.869646
O O16 0.972557 0.641122 0.658133
O O17 0.500000 0.272826 0.500000
O O18 0.272398 0.000000 0.147819
O O19 0.000000 0.874180 0.000000
O O20 0.299525 0.500000 0.997479
O O21 0.500000 0.620071 0.000000
#
# Coordination Sequence:
#
# PCOD9144720 Si02
#       8
#     4   4   4   4   4   4   4   4
#     4  10  20  35  55  83 117 151 192 244 294 345
#     4  12  21  33  60  88 118 154 197 243 291 350
#     4  10  20  32  53  87 121 149 187 243 298 349
#     4  10  22  40  59  83 119 157 196 243 297 355
#     4   9  17  30  50  81 119 153 189 238 293 352
#     4  10  20  34  57  86 115 155 202 245 292 346
#     4  10  23  42  61  85 121 162 198 234 288 362
#     4  10  19  30  49  84 123 154 190 242 304 357
#
# _framework density 18.883603000000001
#
# number of rings (size 3 to 8) (size 9 to 14) (size 15 to 20)
#    0.000    1.875    1.250    3.750    3.500    3.750 
#    0.000    1.875    0.000    6.750    0.000    0.000 
#    0.000    0.000    0.000    0.000    0.000    0.000 
#
# Total GULP energy -178564.728073 kJ/mol
# GULP energy per Si atom -5580.147752 kJ/mol
# Density = 1.884062 g / cm^3
# Si number density = 18.883603 Si / 1000 Ang^3
#
#
#
# Elastic Constant Matrix: (Units=GPa)
#
#
# Indices 1 2 3 4 5 6 
#
# 1 40.8881 19.8122 12.1941 0.0000 -9.6151 0.0000
# 2 19.8122 88.4266 26.8013 0.0000 -12.4603 0.0000
# 3 12.1941 26.8013 108.7172 0.0000 -19.1844 0.0000
# 4 0.0000 0.0000 0.0000 38.5687 0.0000 -5.5293
# 5 -9.6151 -12.4603 -19.1844 0.0000 13.3429 0.0000
# 6 0.0000 0.0000 0.0000 -5.5293 0.0000 24.5206
#
#
#
# Elastic Compliance Matrix: (Units=1/GPa)
#
#
# Indices 1 2 3 4 5 6 
#
# 1 0.030934 -0.004493 0.001114 0.000000 0.019697 0.000000
# 2 -0.004493 0.013842 -0.001606 0.000000 0.007379 0.000000
# 3 0.001114 -0.001606 0.012524 0.000000 0.017309 0.000000
# 4 0.000000 0.000000 0.000000 0.026794 0.000000 0.006042
# 5 0.019697 0.007379 0.017309 0.000000 0.120918 0.000000
# 6 0.000000 0.000000 0.000000 0.006042 0.000000 0.042144
#
#
# Mechanical properties :
#
#
# Convention : Reuss Voigt Hill
#
# Bulk Modulus (GPa) = 21.12885 39.51635 30.32260
# Shear Modulus (GPa) = 18.32155 27.23475 22.77815
#
# Velocity S-wave (km/s) = 3.11824 3.80181 3.47686
# Velocity P-wave (km/s) = 4.91710 6.34377 5.67544
#
# Compressibility (1/GPa) = 0.04732865
#
# Stress axis : x y z
#
# Youngs Moduli (GPa) = 32.32723 72.24320 79.84918
#
# Poissons Ratio (x) = 0.32457 -0.08893
# Poissons Ratio (y) = 0.14524 0.12826
# Poissons Ratio (z) = -0.03600 0.11604
#
# Static dielectric constant tensor:
#      x y z
#    x 1.635960 0.000000 -0.026910 
#    y 0.000000 1.690390 0.000000 
#    z -0.026910 0.000000 1.677210 
# 
# From -- ./inp_files/65103.got.cif
#   From: 2010.05.17/outbox.cif.g08.bks.cpg/sg10_33_cif.got.tgz:65103.got - 2010.06.03 11:33:40.
