data_PCOD9144012
_publ_section_title
;
Structure prediction by ZEFSAII (Michael W. Deem and Ramdas Pophale) SiO2 
 PCOD9144012
Probable space group: P 2/M
;
_chemical_formula_sum "Si O2"
_cell_formula_units_Z 32
_cell_length_a 21.854940
_cell_length_b 8.541498
_cell_length_c 12.282201
_cell_angle_alpha 90.000000
_cell_angle_beta 133.987965
_cell_angle_gamma 90.000000
_cell_volume 1649.612838
_symmetry_space_group_name_H-M "P 2/M"
_symmetry_group_IT_number 10
_symmetry_cell_setting 'monoclinic'
loop_
_space_group_symop_operation_xyz
x,y,z
-x,y,-z
-x,-y,-z
x,-y,z
loop_
_atom_site_type_symbol
_atom_site_label
_atom_site_fract_x
_atom_site_fract_y
_atom_site_fract_z
Si Si1 0.112429 0.817023 0.553691
Si Si2 0.785852 0.186664 0.953734
Si Si3 0.723415 0.314509 0.649964
Si Si4 0.067569 0.683167 0.724999
Si Si5 0.748876 0.686466 0.438985
Si Si6 0.599707 0.188646 0.120702
Si Si7 0.629509 0.809499 0.913327
Si Si8 0.535787 0.815644 0.421453
O O1 0.115197 0.723121 0.670467
O O2 0.185310 0.767929 0.560696
O O3 0.020364 0.778345 0.388780
O O4 0.119093 0.000000 0.587870
O O5 0.763218 0.227704 0.802207
O O6 0.707194 0.241226 0.933111
O O7 0.793649 0.000000 0.976178
O O8 0.871140 0.266839 0.102025
O O9 0.735731 0.500000 0.678661
O O10 0.760641 0.265803 0.578977
O O11 0.623108 0.276845 0.521866
O O12 0.047574 0.500000 0.704075
O O13 0.759230 0.500000 0.444675
O O14 0.654863 0.732915 0.282540
O O15 0.606888 0.000000 0.140140
O O16 0.500000 0.227413 0.000000
O O17 0.636153 0.235958 0.047404
O O18 0.539139 0.760089 0.751029
O O19 0.628681 0.000000 0.909179
O O20 0.500000 0.806229 0.500000
O O21 0.553021 0.000000 0.419934
#
# Coordination Sequence:
#
# PCOD9144012 Si02
#       8
#     4   4   4   4   4   4   4   4
#     4  11  22  40  66  94 120 154 199 241 285 348
#     4  11  21  37  59  85 117 154 198 245 291 348
#     4  11  24  39  55  81 117 157 199 248 302 357
#     4  11  22  39  64  95 128 155 184 234 298 354
#     4  11  24  41  59  82 118 160 200 246 302 359
#     4  10  20  35  57  84 115 152 195 245 295 354
#     4   9  18  32  53  82 112 144 189 242 294 343
#     4  10  18  34  57  80 108 151 198 243 293 349
#
# _framework density 19.398492000000001
#
# number of rings (size 3 to 8) (size 9 to 14) (size 15 to 20)
#    0.000    1.500    1.250    5.625    0.000    4.500 
#    0.000    1.875    0.000    3.750    0.000    0.000 
#    0.000    0.000    0.000    0.000    0.000    0.000 
#
# Total GULP energy -178912.376533 kJ/mol
# GULP energy per Si atom -5591.011767 kJ/mol
# Density = 1.935434 g / cm^3
# Si number density = 19.398492 Si / 1000 Ang^3
#
#
#
# Elastic Constant Matrix: (Units=GPa)
#
#
# Indices 1 2 3 4 5 6 
#
# 1 56.7671 2.9524 9.7644 0.0000 -3.0019 0.0000
# 2 2.9524 24.1498 -3.7144 0.0000 -2.8573 0.0000
# 3 9.7644 -3.7144 89.4646 0.0000 -8.9691 0.0000
# 4 0.0000 0.0000 0.0000 44.1375 0.0000 15.8835
# 5 -3.0019 -2.8573 -8.9691 0.0000 23.0232 0.0000
# 6 0.0000 0.0000 0.0000 15.8835 0.0000 37.9439
#
#
#
# Elastic Compliance Matrix: (Units=1/GPa)
#
#
# Indices 1 2 3 4 5 6 
#
# 1 0.018143 -0.002362 -0.001946 0.000000 0.001314 0.000000
# 2 -0.002362 0.042817 0.002640 0.000000 0.006035 0.000000
# 3 -0.001946 0.002640 0.011975 0.000000 0.004739 0.000000
# 4 0.000000 0.000000 0.000000 0.026675 0.000000 -0.011166
# 5 0.001314 0.006035 0.004739 0.000000 0.046201 0.000000
# 6 0.000000 0.000000 0.000000 -0.011166 0.000000 0.031029
#
#
# Mechanical properties :
#
#
# Convention : Reuss Voigt Hill
#
# Bulk Modulus (GPa) = 14.36806 20.93184 17.64995
# Shear Modulus (GPa) = 24.58512 31.77953 28.18233
#
# Velocity S-wave (km/s) = 3.56388 4.05192 3.81571
# Velocity P-wave (km/s) = 4.93537 5.71879 5.34146
#
# Compressibility (1/GPa) = 0.06959883
#
# Stress axis : x y z
#
# Youngs Moduli (GPa) = 55.11776 23.35517 83.50898
#
# Poissons Ratio (x) = 0.05516 0.16255
# Poissons Ratio (y) = 0.13018 -0.22050
# Poissons Ratio (z) = 0.10729 -0.06167
#
# Static dielectric constant tensor:
#      x y z
#    x 1.671380 0.000000 -0.005920 
#    y 0.000000 1.663170 0.000000 
#    z -0.005920 0.000000 1.665020 
# 
# From -- ./inp_files/55378.got.cif
#   From: 2010.05.17/outbox.cif.g08.bks.cpg/sg10_28_cif.got.tgz:55378.got - 2010.06.03 11:33:40.
