data_PCOD9144478
_publ_section_title
;
Structure prediction by ZEFSAII (Michael W. Deem and Ramdas Pophale) SiO2 
 PCOD9144478
Probable space group: P 2/M
;
_chemical_formula_sum "Si O2"
_cell_formula_units_Z 24
_cell_length_a 24.041062
_cell_length_b 13.615269
_cell_length_c 12.768525
_cell_angle_alpha 90.000000
_cell_angle_beta 19.703862
_cell_angle_gamma 90.000000
_cell_volume 1409.142776
_symmetry_space_group_name_H-M "P 2/M"
_symmetry_group_IT_number 10
_symmetry_cell_setting 'monoclinic'
loop_
_space_group_symop_operation_xyz
x,y,z
-x,y,-z
-x,-y,-z
x,-y,z
loop_
_atom_site_type_symbol
_atom_site_label
_atom_site_fract_x
_atom_site_fract_y
_atom_site_fract_z
Si Si1 0.822980 0.114489 0.854065
Si Si2 0.590989 0.241109 0.133538
Si Si3 0.813462 0.387135 0.873095
Si Si4 0.373991 0.112027 0.126834
Si Si5 0.999207 0.887977 0.126773
Si Si6 0.775458 0.758800 0.133599
O O1 0.000000 0.155890 0.500000
O O2 0.836619 0.000000 0.826942
O O3 0.676290 0.150625 0.041948
O O4 0.781695 0.150794 0.042019
O O5 0.403391 0.255846 0.499950
O O6 0.698609 0.330829 0.991337
O O7 0.600312 0.202683 0.998185
O O8 0.760417 0.500000 0.979112
O O9 0.000000 0.385754 0.500000
O O10 0.810109 0.330968 0.991353
O O11 0.186707 0.115568 0.500032
O O12 0.398845 0.000000 0.038210
O O13 0.500000 0.120525 0.000000
O O14 0.062995 0.000000 0.038135
O O15 0.000000 0.879494 0.000000
O O16 0.098534 0.797310 0.001731
#
# Coordination Sequence:
#
# PCOD9144478 Si02
#       6
#     4   4   4   4   4   4
#     4  10  19  30  45  67  98 134 169 207 250 297
#     4  11  21  32  50  75 103 134 168 209 256 308
#     4  10  21  38  59  79 100 130 169 215 266 315
#     4  10  20  34  52  75 106 143 180 215 250 295
#     4  10  20  34  52  75 106 143 180 215 250 295
#     4  11  21  32  50  75 103 134 168 209 256 308
#
# _framework density 17.031631000000001
#
# number of rings (size 3 to 8) (size 9 to 14) (size 15 to 20)
#    0.000    1.667    0.000    8.000    0.000    8.667 
#    0.000    0.000    0.000    1.000    0.000    0.000 
#    0.000    0.000    0.000    0.000    0.000    0.000 
#
# Total GULP energy -133698.447634 kJ/mol
# GULP energy per Si atom -5570.768651 kJ/mol
# Density = 1.699287 g / cm^3
# Si number density = 17.031631 Si / 1000 Ang^3
#
#
#
# Elastic Constant Matrix: (Units=GPa)
#
#
# Indices 1 2 3 4 5 6 
#
# 1 94.7280 54.5866 37.4664 0.0000 3.6664 0.0000
# 2 54.5866 130.0044 37.8481 0.0000 2.0309 0.0000
# 3 37.4664 37.8481 101.9546 0.0000 -4.0287 0.0000
# 4 0.0000 0.0000 0.0000 -3.8272 0.0000 1.6356
# 5 3.6664 2.0309 -4.0287 0.0000 9.0918 0.0000
# 6 0.0000 0.0000 0.0000 1.6356 0.0000 15.5154
#
#
#
# Elastic Compliance Matrix: (Units=1/GPa)
#
#
# Indices 1 2 3 4 5 6 
#
# 1 0.015395 -0.005193 -0.003999 0.000000 -0.006820 0.000000
# 2 -0.005193 0.010481 -0.002028 0.000000 -0.001145 0.000000
# 3 -0.003999 -0.002028 0.012328 0.000000 0.007528 0.000000
# 4 0.000000 0.000000 0.000000 -0.250021 0.000000 0.026357
# 5 -0.006820 -0.001145 0.007528 0.000000 0.116331 0.000000
# 6 0.000000 0.000000 0.000000 0.026357 0.000000 0.061674
#
#
# Mechanical properties :
#
#
# Convention : Reuss Voigt Hill
#
# Bulk Modulus (GPa) = 63.43549 65.16546 64.30047
# Shear Modulus (GPa) = -817.25253 17.27504 -399.98874
#
# Velocity S-wave (km/s) = -21.92911 3.18825 -15.34146
# Velocity P-wave (km/s) = 24.57345 7.20401 16.61259
#
# Compressibility (1/GPa) = 0.01576405
#
# Stress axis : x y z
#
# Youngs Moduli (GPa) = 64.95724 95.41273 81.11637
#
# Poissons Ratio (x) = 0.49550 0.32438
# Poissons Ratio (y) = 0.33734 0.16447
# Poissons Ratio (z) = 0.25976 0.19345
#
# Static dielectric constant tensor:
#      x y z
#    x 1.582280 0.000000 0.000060 
#    y 0.000000 1.589030 0.000000 
#    z 0.000060 0.000000 1.582260 
# 
# From -- ./inp_files/24574.got.cif
#   From: 2010.05.17/outbox.cif.g08.bks.cpg/sg10_13_cif.got.tgz:24574.got - 2010.06.03 11:33:40.
