data_PCOD9144228
_publ_section_title
;
Structure prediction by ZEFSAII (Michael W. Deem and Ramdas Pophale) SiO2 
 PCOD9144228
Probable space group: P 2/M
;
_chemical_formula_sum "Si O2"
_cell_formula_units_Z 32
_cell_length_a 11.140598
_cell_length_b 17.388481
_cell_length_c 10.853382
_cell_angle_alpha 90.000000
_cell_angle_beta 38.898153
_cell_angle_gamma 90.000000
_cell_volume 1320.237249
_symmetry_space_group_name_H-M "P 2/M"
_symmetry_group_IT_number 10
_symmetry_cell_setting 'monoclinic'
loop_
_space_group_symop_operation_xyz
x,y,z
-x,y,-z
-x,-y,-z
x,-y,z
loop_
_atom_site_type_symbol
_atom_site_label
_atom_site_fract_x
_atom_site_fract_y
_atom_site_fract_z
Si Si1 0.766979 0.082569 0.400824
Si Si2 0.228648 0.805410 0.816908
Si Si3 0.347301 0.700454 0.286823
Si Si4 0.809137 0.134234 0.898498
Si Si5 0.568531 0.584304 0.583863
Si Si6 0.172082 0.630267 0.943140
Si Si7 0.770875 0.875908 0.666447
Si Si8 0.206399 0.306028 0.153024
O O1 0.705516 0.153878 0.362105
O O2 0.706633 0.083327 0.592311
O O3 0.998621 0.088689 0.225021
O O4 0.715957 0.000000 0.385047
O O5 0.241792 0.713229 0.828174
O O6 0.297126 0.848553 0.887218
O O7 0.000000 0.816997 0.000000
O O8 0.329574 0.654012 0.427193
O O9 0.281191 0.788119 0.327879
O O10 0.222958 0.662814 0.276650
O O11 0.571232 0.699948 0.069514
O O12 0.703702 0.104301 0.859927
O O13 0.870874 0.219591 0.800912
O O14 0.500000 0.599978 0.500000
O O15 0.662101 0.500000 0.514904
O O16 0.358701 0.580374 0.812292
O O17 0.095680 0.646545 0.140231
O O18 0.000000 0.599345 0.000000
O O19 0.000000 0.886790 0.500000
#
# Coordination Sequence:
#
# PCOD9144228 Si02
#       8
#     4   4   4   4   4   4   4   4
#     4  10  19  28  42  71 106 134 168 215 263 309
#     4   8  15  27  45  69  97 127 169 212 249 294
#     4   9  17  33  55  74 101 137 171 216 259 306
#     4   8  15  28  44  66  96 126 161 210 250 296
#     4  10  22  37  52  78 112 142 170 207 264 327
#     4   9  17  32  56  81 104 136 177 221 258 303
#     4   9  18  30  48  76 100 131 175 215 256 306
#     4   8  15  31  53  80 101 124 174 223 253 295
#
# _framework density 24.238068999999999
#
# number of rings (size 3 to 8) (size 9 to 14) (size 15 to 20)
#    0.000    3.125    0.000    0.750    1.750    4.750 
#    0.000    5.000    0.000    1.125    0.000   16.625 
#    0.000    0.000    0.000    0.000    0.000    0.000 
#
# Total GULP energy -178238.092799 kJ/mol
# GULP energy per Si atom -5569.940400 kJ/mol
# Density = 2.418290 g / cm^3
# Si number density = 24.238069 Si / 1000 Ang^3
#
#
#
# Elastic Constant Matrix: (Units=GPa)
#
#
# Indices 1 2 3 4 5 6 
#
# 1 112.5850 37.7600 24.8176 0.0000 21.3699 0.0000
# 2 37.7600 86.7487 10.9551 0.0000 24.0131 0.0000
# 3 24.8176 10.9551 34.8762 0.0000 8.5097 0.0000
# 4 0.0000 0.0000 0.0000 14.8347 0.0000 3.7709
# 5 21.3699 24.0131 8.5097 0.0000 54.6214 0.0000
# 6 0.0000 0.0000 0.0000 3.7709 0.0000 -4.7506
#
#
#
# Elastic Compliance Matrix: (Units=1/GPa)
#
#
# Indices 1 2 3 4 5 6 
#
# 1 0.012062 -0.003837 -0.006900 0.000000 -0.001957 0.000000
# 2 -0.003837 0.014618 -0.000686 0.000000 -0.004819 0.000000
# 3 -0.006900 -0.000686 0.034373 0.000000 -0.002354 0.000000
# 4 0.000000 0.000000 0.000000 0.056092 0.000000 0.044525
# 5 -0.001957 -0.004819 -0.002354 0.000000 0.021559 0.000000
# 6 0.000000 0.000000 0.000000 0.044525 0.000000 -0.175158
#
#
# Mechanical properties :
#
#
# Convention : Reuss Voigt Hill
#
# Bulk Modulus (GPa) = 26.17336 42.36392 34.26864
# Shear Modulus (GPa) = -5717.99626 23.65292 -2847.17167
#
# Velocity S-wave (km/s) = -48.62323 3.12726 -34.31063
# Velocity P-wave (km/s) = 56.04881 5.52774 39.43928
#
# Compressibility (1/GPa) = 0.03820679
#
# Stress axis : x y z
#
# Youngs Moduli (GPa) = 82.90784 68.40808 29.09285
#
# Poissons Ratio (x) = 0.26249 0.20074
# Poissons Ratio (y) = 0.31812 0.01995
# Poissons Ratio (z) = 0.57208 0.04690
#
# Static dielectric constant tensor:
#      x y z
#    x 1.960790 0.000000 0.080100 
#    y 0.000000 1.936210 0.000000 
#    z 0.080100 0.000000 2.187300 
# 
# From -- ./inp_files/47822.got.cif
#   From: 2010.05.17/outbox.cif.g08.bks.cpg/sg10_24_cif.got.tgz:47822.got - 2010.06.03 11:33:40.
