data_PCOD9144667
_publ_section_title
;
Structure prediction by ZEFSAII (Michael W. Deem and Ramdas Pophale) SiO2 
 PCOD9144667
Probable space group: P 2/M
;
_chemical_formula_sum "Si O2"
_cell_formula_units_Z 32
_cell_length_a 15.651181
_cell_length_b 8.293895
_cell_length_c 23.671316
_cell_angle_alpha 90.000000
_cell_angle_beta 148.072751
_cell_angle_gamma 90.000000
_cell_volume 1625.002435
_symmetry_space_group_name_H-M "P 2/M"
_symmetry_group_IT_number 10
_symmetry_cell_setting 'monoclinic'
loop_
_space_group_symop_operation_xyz
x,y,z
-x,y,-z
-x,-y,-z
x,-y,z
loop_
_atom_site_type_symbol
_atom_site_label
_atom_site_fract_x
_atom_site_fract_y
_atom_site_fract_z
Si Si1 0.010405 0.690675 0.221894
Si Si2 0.733130 0.316375 0.986290
Si Si3 0.200584 0.692733 0.698361
Si Si4 0.458878 0.694776 0.750270
Si Si5 0.069840 0.192614 0.379603
Si Si6 0.515563 0.181373 0.074842
Si Si7 0.644927 0.806451 0.625324
Si Si8 0.568691 0.805607 0.393105
O O1 0.979075 0.500000 0.207988
O O2 0.994727 0.757865 0.276842
O O3 0.191433 0.724176 0.302645
O O4 0.888051 0.758199 0.104962
O O5 0.775301 0.500000 0.993942
O O6 0.624509 0.246009 0.874068
O O7 0.599251 0.310315 0.960426
O O8 0.211763 0.500000 0.707883
O O9 0.298148 0.742501 0.696233
O O10 0.305230 0.778279 0.805474
O O11 0.020459 0.740928 0.615184
O O12 0.463890 0.500000 0.754832
O O13 0.449982 0.752223 0.681566
O O14 0.256420 0.248684 0.485678
O O15 0.066402 0.000000 0.380628
O O16 0.471477 0.000000 0.069274
O O17 0.500000 0.187874 0.000000
O O18 0.500000 0.777670 0.500000
O O19 0.575694 0.751601 0.646940
O O20 0.673568 0.000000 0.642113
O O21 0.569431 0.000000 0.396107
#
# Coordination Sequence:
#
# PCOD9144667 Si02
#       8
#     4   4   4   4   4   4   4   4
#     4  11  22  36  59  90 118 146 187 235 282 340
#     4   9  20  37  54  77 112 150 184 227 283 331
#     4  10  21  36  53  78 112 151 191 233 281 330
#     4   9  20  39  59  78 110 153 192 232 278 330
#     4  11  22  37  56  83 118 152 188 234 289 338
#     4  10  19  30  48  76 107 144 190 233 277 331
#     4  10  20  40  62  83 116 151 181 226 289 342
#     4  10  22  39  60  83 110 148 189 233 284 338
#
# _framework density 19.692278000000002
#
# number of rings (size 3 to 8) (size 9 to 14) (size 15 to 20)
#    0.000    2.000    1.250    3.000    0.000    8.750 
#    0.000    3.125    0.000    3.750    0.000    0.000 
#    0.000    0.000    0.000    0.000    0.000    0.000 
#
# Total GULP energy -178378.519157 kJ/mol
# GULP energy per Si atom -5574.328724 kJ/mol
# Density = 1.964746 g / cm^3
# Si number density = 19.692278 Si / 1000 Ang^3
#
#
#
# Elastic Constant Matrix: (Units=GPa)
#
#
# Indices 1 2 3 4 5 6 
#
# 1 105.1928 9.6862 31.3756 0.0000 -14.3619 0.0000
# 2 9.6862 22.7233 0.4448 0.0000 -6.5275 0.0000
# 3 31.3756 0.4448 59.4438 0.0000 0.8900 0.0000
# 4 0.0000 0.0000 0.0000 18.4342 0.0000 8.2485
# 5 -14.3619 -6.5275 0.8900 0.0000 24.4648 0.0000
# 6 0.0000 0.0000 0.0000 8.2485 0.0000 27.6786
#
#
#
# Elastic Compliance Matrix: (Units=1/GPa)
#
#
# Indices 1 2 3 4 5 6 
#
# 1 0.012788 -0.003346 -0.006827 0.000000 0.006863 0.000000
# 2 -0.003346 0.048554 0.001239 0.000000 0.010945 0.000000
# 3 -0.006827 0.001239 0.020483 0.000000 -0.004423 0.000000
# 4 0.000000 0.000000 0.000000 0.062593 0.000000 -0.018653
# 5 0.006863 0.010945 -0.004423 0.000000 0.047985 0.000000
# 6 0.000000 0.000000 0.000000 -0.018653 0.000000 0.041688
#
#
# Mechanical properties :
#
#
# Convention : Reuss Voigt Hill
#
# Bulk Modulus (GPa) = 15.63579 30.04148 22.83863
# Shear Modulus (GPa) = 18.29634 23.83908 21.06771
#
# Velocity S-wave (km/s) = 3.05144 3.48311 3.27440
# Velocity P-wave (km/s) = 4.51357 5.60934 5.09102
#
# Compressibility (1/GPa) = 0.06395584
#
# Stress axis : x y z
#
# Youngs Moduli (GPa) = 78.19963 20.59567 48.82056
#
# Poissons Ratio (x) = 0.06891 0.33332
# Poissons Ratio (y) = 0.26166 -0.06048
# Poissons Ratio (z) = 0.53390 -0.02552
#
# Static dielectric constant tensor:
#      x y z
#    x 1.694220 0.000000 -0.058340 
#    y 0.000000 1.703280 0.000000 
#    z -0.058340 0.000000 2.005390 
# 
# From -- ./inp_files/89538.got.cif
#   From: 2010.05.17/outbox.cif.g08.bks.cpg/sg10_45_cif.got.tgz:89538.got - 2010.06.03 11:33:40.
