data_PCOD9144314
_publ_section_title
;
Structure prediction by ZEFSAII (Michael W. Deem and Ramdas Pophale) SiO2 
 PCOD9144314
Probable space group: P 2/M
;
_chemical_formula_sum "Si O2"
_cell_formula_units_Z 32
_cell_length_a 15.716398
_cell_length_b 8.940500
_cell_length_c 17.003474
_cell_angle_alpha 90.000000
_cell_angle_beta 51.497054
_cell_angle_gamma 90.000000
_cell_volume 1869.730852
_symmetry_space_group_name_H-M "P 2/M"
_symmetry_group_IT_number 10
_symmetry_cell_setting 'monoclinic'
loop_
_space_group_symop_operation_xyz
x,y,z
-x,y,-z
-x,-y,-z
x,-y,z
loop_
_atom_site_type_symbol
_atom_site_label
_atom_site_fract_x
_atom_site_fract_y
_atom_site_fract_z
Si Si1 0.932315 0.169584 0.120807
Si Si2 0.894094 0.678142 0.728754
Si Si3 0.133017 0.820437 0.587512
Si Si4 0.131655 0.826625 0.414788
Si Si5 0.867883 0.320292 0.915535
Si Si6 0.547003 0.680672 0.352528
Si Si7 0.739817 0.319309 0.143260
Si Si8 0.668953 0.680346 0.445481
O O1 0.824544 0.258936 0.159486
O O2 0.014601 0.250069 0.132580
O O3 0.908391 0.000000 0.159655
O O4 0.000000 0.163755 0.000000
O O5 0.905322 0.500000 0.717781
O O6 0.013990 0.750309 0.665215
O O7 0.840225 0.736155 0.679511
O O8 0.836181 0.717037 0.844500
O O9 0.173874 0.776793 0.475789
O O10 0.218214 0.759520 0.601276
O O11 0.124319 0.000000 0.594755
O O12 0.000000 0.818375 0.500000
O O13 0.159554 0.000000 0.386679
O O14 0.878278 0.500000 0.915329
O O15 0.784458 0.271817 0.032064
O O16 0.540482 0.500000 0.352966
O O17 0.619222 0.731364 0.237312
O O18 0.617006 0.714907 0.390562
O O19 0.424005 0.730955 0.438645
O O20 0.742785 0.500000 0.143893
O O21 0.682606 0.500000 0.441945
#
# Coordination Sequence:
#
# PCOD9144314 Si02
#       8
#     4   4   4   4   4   4   4   4
#     4   9  17  27  38  56  83 113 147 184 213 243
#     4  10  19  29  44  67  92 117 148 183 216 254
#     4  10  20  32  46  66  91 119 146 175 220 270
#     4   8  16  31  46  62  88 117 143 174 218 269
#     4   9  18  29  41  61  87 116 149 180 211 256
#     4   8  16  30  48  66  87 115 147 186 226 257
#     4   9  16  29  46  60  82 118 151 178 216 261
#     4   9  17  31  48  68  89 111 147 189 222 258
#
# _framework density 17.114761999999999
#
# number of rings (size 3 to 8) (size 9 to 14) (size 15 to 20)
#    0.000    3.000    0.000    2.625    1.750    5.250 
#    0.000    1.875    0.000    0.000    0.000    0.875 
#    0.000    7.000    0.000    0.000    0.000    0.000 
#
# Total GULP energy -178205.770793 kJ/mol
# GULP energy per Si atom -5568.930337 kJ/mol
# Density = 1.707581 g / cm^3
# Si number density = 17.114762 Si / 1000 Ang^3
#
#
#
# Elastic Constant Matrix: (Units=GPa)
#
#
# Indices 1 2 3 4 5 6 
#
# 1 17.7507 5.0283 2.2114 0.0000 5.9686 0.0000
# 2 5.0283 21.1578 18.2863 0.0000 6.8619 0.0000
# 3 2.2114 18.2863 85.2527 0.0000 7.9766 0.0000
# 4 0.0000 0.0000 0.0000 4.5262 0.0000 4.2464
# 5 5.9686 6.8619 7.9766 0.0000 25.2728 0.0000
# 6 0.0000 0.0000 0.0000 4.2464 0.0000 6.2217
#
#
#
# Elastic Compliance Matrix: (Units=1/GPa)
#
#
# Indices 1 2 3 4 5 6 
#
# 1 0.063907 -0.013229 0.002325 0.000000 -0.012234 0.000000
# 2 -0.013229 0.064644 -0.012543 0.000000 -0.010468 0.000000
# 3 0.002325 -0.012543 0.014522 0.000000 -0.001727 0.000000
# 4 0.000000 0.000000 0.000000 0.614288 0.000000 -0.419261
# 5 -0.012234 -0.010468 -0.001727 0.000000 0.045845 0.000000
# 6 0.000000 0.000000 0.000000 -0.419261 0.000000 0.446880
#
#
# Mechanical properties :
#
#
# Convention : Reuss Voigt Hill
#
# Bulk Modulus (GPa) = 10.39751 19.46814 14.93282
# Shear Modulus (GPa) = 3.76211 13.77983 8.77097
#
# Velocity S-wave (km/s) = 1.48423 2.84058 2.26626
# Velocity P-wave (km/s) = 3.00427 4.70726 3.94866
#
# Compressibility (1/GPa) = 0.09617688
#
# Stress axis : x y z
#
# Youngs Moduli (GPa) = 15.64766 15.46940 68.86326
#
# Poissons Ratio (x) = 0.20465 -0.16008
# Poissons Ratio (y) = 0.20701 0.86376
# Poissons Ratio (z) = -0.03637 0.19403
#
# Static dielectric constant tensor:
#      x y z
#    x 1.556300 0.000000 0.025600 
#    y 0.000000 1.574120 0.000000 
#    z 0.025600 0.000000 1.646060 
# 
# From -- ./inp_files/78522.got.cif
#   From: 2010.05.17/outbox.cif.g08.bks.cpg/sg10_40_cif.got.tgz:78522.got - 2010.06.03 11:33:40.
