data_PCOD9144320
_publ_section_title
;
Structure prediction by ZEFSAII (Michael W. Deem and Ramdas Pophale) SiO2 
 PCOD9144320
Probable space group: P 2/M
;
_chemical_formula_sum "Si O2"
_cell_formula_units_Z 28
_cell_length_a 13.039559
_cell_length_b 7.214757
_cell_length_c 16.075555
_cell_angle_alpha 90.000000
_cell_angle_beta 133.634653
_cell_angle_gamma 90.000000
_cell_volume 1094.565989
_symmetry_space_group_name_H-M "P 2/M"
_symmetry_group_IT_number 10
_symmetry_cell_setting 'monoclinic'
loop_
_space_group_symop_operation_xyz
x,y,z
-x,y,-z
-x,-y,-z
x,-y,z
loop_
_atom_site_type_symbol
_atom_site_label
_atom_site_fract_x
_atom_site_fract_y
_atom_site_fract_z
Si Si1 0.624537 0.213408 0.636310
Si Si2 0.837615 0.776112 0.407109
Si Si3 0.370140 0.791921 0.049862
Si Si4 0.546806 0.227354 0.299766
Si Si5 0.183986 0.774941 0.791279
Si Si6 0.101587 0.206139 0.297737
Si Si7 0.080700 0.276477 0.962236
O O1 0.500000 0.210435 0.500000
O O2 0.556784 0.289035 0.683540
O O3 0.757171 0.296428 0.660153
O O4 0.668112 0.000000 0.679325
O O5 0.712640 0.718169 0.400410
O O6 0.780046 0.732287 0.282720
O O7 0.000000 0.710267 0.500000
O O8 0.845546 0.000000 0.418638
O O9 0.488540 0.711122 0.176897
O O10 0.417670 0.000000 0.053976
O O11 0.296968 0.711835 0.924870
O O12 0.237995 0.796034 0.039719
O O13 0.543312 0.000000 0.298846
O O14 0.020101 0.711131 0.711451
O O15 0.178574 0.000000 0.797281
O O16 0.006806 0.195487 0.162146
O O17 0.139179 0.000000 0.351920
O O18 0.084871 0.500000 0.957810
O O19 0.000000 0.227279 0.000000
#
# Coordination Sequence:
#
# PCOD9144320 Si02
#       7
#     4   4   4   4   4   4   4
#     4   9  17  26  40  63  92 126 161 196 232 276
#     4   9  17  26  39  61  95 128 153 191 241 287
#     4   9  17  30  47  67  95 124 158 195 232 283
#     4   9  17  27  40  63  92 126 159 191 235 282
#     4   8  15  26  41  63  88 123 157 186 232 280
#     4   9  17  29  46  67  93 125 159 193 231 277
#     4  10  19  29  44  68  96 125 157 193 235 281
#
# _framework density 25.580915000000001
#
# number of rings (size 3 to 8) (size 9 to 14) (size 15 to 20)
#    0.000    3.000    0.000    2.143    2.000    2.857 
#    0.000    2.857    0.000    0.429    0.000    8.000 
#    0.000    9.714    0.000    0.000    0.000    0.000 
#
# Total GULP energy -156178.942583 kJ/mol
# GULP energy per Si atom -5577.819378 kJ/mol
# Density = 2.552269 g / cm^3
# Si number density = 25.580915 Si / 1000 Ang^3
#
#
#
# Elastic Constant Matrix: (Units=GPa)
#
#
# Indices 1 2 3 4 5 6 
#
# 1 131.8754 1.1053 45.7060 0.0000 11.9969 0.0000
# 2 1.1053 123.8660 -2.1207 0.0000 -0.9944 0.0000
# 3 45.7060 -2.1207 87.4242 0.0000 18.5802 0.0000
# 4 0.0000 0.0000 0.0000 9.4209 0.0000 -11.0279
# 5 11.9969 -0.9944 18.5802 0.0000 47.5474 0.0000
# 6 0.0000 0.0000 0.0000 -11.0279 0.0000 -39.3077
#
#
#
# Elastic Compliance Matrix: (Units=1/GPa)
#
#
# Indices 1 2 3 4 5 6 
#
# 1 0.009275 -0.000168 -0.004749 0.000000 -0.000488 0.000000
# 2 -0.000168 0.008080 0.000261 0.000000 0.000110 0.000000
# 3 -0.004749 0.000261 0.014910 0.000000 -0.004623 0.000000
# 4 0.000000 0.000000 0.000000 0.079905 0.000000 -0.022418
# 5 -0.000488 0.000110 -0.004623 0.000000 0.022963 0.000000
# 6 0.000000 0.000000 0.000000 -0.022418 0.000000 -0.019151
#
#
# Mechanical properties :
#
#
# Convention : Reuss Voigt Hill
#
# Bulk Modulus (GPa) = 43.57004 48.06074 45.81539
# Shear Modulus (GPa) = 37.60903 23.43046 30.51974
#
# Velocity S-wave (km/s) = 3.83848 3.02973 3.45783
# Velocity P-wave (km/s) = 6.05924 5.57382 5.82159
#
# Compressibility (1/GPa) = 0.02295155
#
# Stress axis : x y z
#
# Youngs Moduli (GPa) = 107.81982 123.76118 67.06807
#
# Poissons Ratio (x) = 0.02079 0.31853
# Poissons Ratio (y) = 0.01811 -0.01747
# Poissons Ratio (z) = 0.51207 -0.03225
#
# Static dielectric constant tensor:
#      x y z
#    x 4.420310 0.000000 -0.354940 
#    y 0.000000 2.028910 0.000000 
#    z -0.354940 0.000000 2.044460 
# 
# From -- ./inp_files/56882.got.cif
#   From: 2010.05.17/outbox.cif.g08.bks.cpg/sg10_29_cif.got.tgz:56882.got - 2010.06.03 11:33:40.
