data_PCOD9144577
_publ_section_title
;
Structure prediction by ZEFSAII (Michael W. Deem and Ramdas Pophale) SiO2 
 PCOD9144577
Probable space group: P 2/M
;
_chemical_formula_sum "Si O2"
_cell_formula_units_Z 32
_cell_length_a 16.018697
_cell_length_b 7.992327
_cell_length_c 14.708474
_cell_angle_alpha 90.000000
_cell_angle_beta 88.173518
_cell_angle_gamma 90.000000
_cell_volume 1882.120142
_symmetry_space_group_name_H-M "P 2/M"
_symmetry_group_IT_number 10
_symmetry_cell_setting 'monoclinic'
loop_
_space_group_symop_operation_xyz
x,y,z
-x,y,-z
-x,-y,-z
x,-y,z
loop_
_atom_site_type_symbol
_atom_site_label
_atom_site_fract_x
_atom_site_fract_y
_atom_site_fract_z
Si Si1 0.646023 0.703511 0.207571
Si Si2 0.395880 0.308154 0.594446
Si Si3 0.578057 0.812019 0.600878
Si Si4 0.518424 0.801152 0.897011
Si Si5 0.828999 0.705547 0.879722
Si Si6 0.010891 0.306108 0.889779
Si Si7 0.191740 0.704979 0.910211
Si Si8 0.672311 0.303835 0.771830
O O1 0.642941 0.500000 0.207866
O O2 0.646498 0.758619 0.312621
O O3 0.562408 0.766018 0.161634
O O4 0.727333 0.757326 0.148591
O O5 0.370458 0.500000 0.581799
O O6 0.383124 0.214803 0.499944
O O7 0.495848 0.302555 0.610033
O O8 0.640859 0.780094 0.680601
O O9 0.545226 0.000000 0.608859
O O10 0.599105 0.718886 0.848649
O O11 0.533520 0.000000 0.899522
O O12 0.500000 0.741232 0.000000
O O13 0.830557 0.500000 0.879383
O O14 0.923497 0.765560 0.856901
O O15 0.758363 0.760760 0.812079
O O16 0.804831 0.754421 0.983803
O O17 0.013831 0.500000 0.859696
O O18 0.103256 0.234204 0.871958
O O19 0.000000 0.307468 0.000000
O O20 0.189335 0.500000 0.909493
O O21 0.682180 0.500000 0.752634
#
# Coordination Sequence:
#
# PCOD9144577 Si02
#       8
#     4   4   4   4   4   4   4   4
#     4  10  19  30  47  69  91 119 151 186 226 270
#     4  10  19  32  49  68  89 114 150 192 234 272
#     4  11  21  33  49  66  87 116 151 190 236 277
#     4  11  23  34  43  60  91 128 160 187 218 261
#     4   8  14  23  39  64  93 123 151 181 220 264
#     4   7  10  19  36  60  91 120 145 179 221 263
#     4   8  13  23  40  65  94 121 149 180 219 268
#     4  11  20  31  47  67  91 120 155 192 227 269
#
# _framework density 17.002103999999999
#
# number of rings (size 3 to 8) (size 9 to 14) (size 15 to 20)
#    0.000    2.500    1.250    5.250    0.000    2.500 
#    0.000    0.000    0.000    0.000    0.000    2.625 
#    0.000   16.500    0.000    0.000    0.000    0.000 
#
# Total GULP energy -178379.255532 kJ/mol
# GULP energy per Si atom -5574.351735 kJ/mol
# Density = 1.696341 g / cm^3
# Si number density = 17.002104 Si / 1000 Ang^3
#
#
#
# Elastic Constant Matrix: (Units=GPa)
#
#
# Indices 1 2 3 4 5 6 
#
# 1 77.8071 -6.0416 19.3284 0.0000 24.9665 0.0000
# 2 -6.0416 20.7150 1.9200 0.0000 1.8038 0.0000
# 3 19.3284 1.9200 79.4378 0.0000 20.6379 0.0000
# 4 0.0000 0.0000 0.0000 -26.1392 0.0000 -37.5463
# 5 24.9665 1.8038 20.6379 0.0000 16.7729 0.0000
# 6 0.0000 0.0000 0.0000 -37.5463 0.0000 -54.6839
#
#
#
# Elastic Compliance Matrix: (Units=1/GPa)
#
#
# Indices 1 2 3 4 5 6 
#
# 1 0.029004 0.012424 0.006182 0.000000 -0.052115 0.000000
# 2 0.012424 0.054056 0.002918 0.000000 -0.027897 0.000000
# 3 0.006182 0.002918 0.019823 0.000000 -0.033907 0.000000
# 4 0.000000 0.000000 0.000000 -2.780322 0.000000 1.908987
# 5 -0.052115 -0.027897 -0.033907 0.000000 0.181914 0.000000
# 6 0.000000 0.000000 0.000000 1.908987 0.000000 -1.329009
#
#
# Mechanical properties :
#
#
# Convention : Reuss Voigt Hill
#
# Bulk Modulus (GPa) = 6.85252 23.15263 15.00257
# Shear Modulus (GPa) = -1.30926 -1.95983 -1.63455
#
# Velocity S-wave (km/s) = -0.87848 -1.07480 -0.98156
# Velocity P-wave (km/s) = 1.73498 3.47948 2.74927
#
# Compressibility (1/GPa) = 0.14593171
#
# Stress axis : x y z
#
# Youngs Moduli (GPa) = 34.47818 18.49921 50.44740
#
# Poissons Ratio (x) = -0.22984 -0.31188
# Poissons Ratio (y) = -0.42836 -0.14722
# Poissons Ratio (z) = -0.21315 -0.05398
#
# Static dielectric constant tensor:
#      x y z
#    x 1.584550 0.000000 0.001880 
#    y 0.000000 1.600540 0.000000 
#    z 0.001880 0.000000 1.567960 
# 
# From -- ./inp_files/66147.got.cif
#   From: 2010.05.17/outbox.cif.g08.bks.cpg/sg10_34_cif.got.tgz:66147.got - 2010.06.03 11:33:40.
