data_PCOD9144247
_publ_section_title
;
Structure prediction by ZEFSAII (Michael W. Deem and Ramdas Pophale) SiO2 
 PCOD9144247
Probable space group: P 2/M
;
_chemical_formula_sum "Si O2"
_cell_formula_units_Z 32
_cell_length_a 15.501483
_cell_length_b 8.190081
_cell_length_c 23.179884
_cell_angle_alpha 90.000000
_cell_angle_beta 143.661485
_cell_angle_gamma 90.000000
_cell_volume 1743.818275
_symmetry_space_group_name_H-M "P 2/M"
_symmetry_group_IT_number 10
_symmetry_cell_setting 'monoclinic'
loop_
_space_group_symop_operation_xyz
x,y,z
-x,y,-z
-x,-y,-z
x,-y,z
loop_
_atom_site_type_symbol
_atom_site_label
_atom_site_fract_x
_atom_site_fract_y
_atom_site_fract_z
Si Si1 0.054366 0.806973 0.163364
Si Si2 0.560109 0.303999 0.915168
Si Si3 0.246670 0.805096 0.788264
Si Si4 0.847675 0.692854 0.138444
Si Si5 0.322480 0.814640 0.235176
Si Si6 0.854756 0.679517 0.958765
Si Si7 0.852645 0.199241 0.390425
Si Si8 0.462324 0.198520 0.736858
O O1 0.209630 0.742175 0.221740
O O2 0.998690 0.771161 0.197447
O O3 0.058609 0.000000 0.155056
O O4 0.920873 0.733581 0.054581
O O5 0.557103 0.500000 0.916363
O O6 0.415968 0.237629 0.868927
O O7 0.547774 0.251822 0.841311
O O8 0.704846 0.245401 0.026235
O O9 0.184780 0.725652 0.812384
O O10 0.164743 0.751291 0.685635
O O11 0.233650 0.000000 0.786360
O O12 0.859013 0.500000 0.134075
O O13 0.232164 0.808358 0.126298
O O14 0.469999 0.740320 0.287597
O O15 0.353259 0.000000 0.270009
O O16 0.783203 0.500000 0.923515
O O17 0.000000 0.660041 0.000000
O O18 0.704306 0.250146 0.342733
O O19 0.000000 0.256067 0.500000
O O20 0.853286 0.000000 0.391346
O O21 0.466606 0.000000 0.737844
#
# Coordination Sequence:
#
# PCOD9144247 Si02
#       8
#     4   4   4   4   4   4   4   4
#     4  10  19  29  41  58  84 120 160 198 230 263
#     4  10  20  32  45  64  93 127 159 192 228 266
#     4  10  20  33  51  72  92 119 153 188 228 274
#     4  11  22  33  45  64  93 128 162 194 227 264
#     4   9  17  28  41  60  87 118 154 195 233 268
#     4   9  16  25  37  54  79 114 155 194 229 263
#     4   8  15  30  52  76  97 114 138 178 229 282
#     4   9  17  29  47  70  94 122 154 188 230 276
#
# _framework density 18.350535000000001
#
# number of rings (size 3 to 8) (size 9 to 14) (size 15 to 20)
#    0.000    2.500    0.000    3.750    0.000    8.000 
#    0.000    0.000    0.000    9.375    0.000    0.875 
#    0.000    7.000    0.000    0.000    0.000    0.000 
#
# Total GULP energy -178149.920396 kJ/mol
# GULP energy per Si atom -5567.185012 kJ/mol
# Density = 1.830877 g / cm^3
# Si number density = 18.350535 Si / 1000 Ang^3
#
#
#
# Elastic Constant Matrix: (Units=GPa)
#
#
# Indices 1 2 3 4 5 6 
#
# 1 158.2310 -1.1389 49.2642 0.0000 -0.3693 0.0000
# 2 -1.1389 27.3545 1.9998 0.0000 -0.2444 0.0000
# 3 49.2642 1.9998 70.1588 0.0000 10.8619 0.0000
# 4 0.0000 0.0000 0.0000 -12.6791 0.0000 15.7233
# 5 -0.3693 -0.2444 10.8619 0.0000 9.8661 0.0000
# 6 0.0000 0.0000 0.0000 15.7233 0.0000 -8.9814
#
#
#
# Elastic Compliance Matrix: (Units=1/GPa)
#
#
# Indices 1 2 3 4 5 6 
#
# 1 0.008660 0.000980 -0.007429 0.000000 0.008527 0.000000
# 2 0.000980 0.036795 -0.002271 0.000000 0.003448 0.000000
# 3 -0.007429 -0.002271 0.023611 0.000000 -0.026328 0.000000
# 4 0.000000 0.000000 0.000000 0.067354 0.000000 0.117913
# 5 0.008527 0.003448 -0.026328 0.000000 0.130747 0.000000
# 6 0.000000 0.000000 0.000000 0.117913 0.000000 0.095084
#
#
# Mechanical properties :
#
#
# Convention : Reuss Voigt Hill
#
# Bulk Modulus (GPa) = 19.37018 39.55495 29.46256
# Shear Modulus (GPa) = 12.59772 11.34906 11.97339
#
# Velocity S-wave (km/s) = 2.62297 2.48958 2.55714
# Velocity P-wave (km/s) = 4.44430 5.46498 4.98086
#
# Compressibility (1/GPa) = 0.05162574
#
# Stress axis : x y z
#
# Youngs Moduli (GPa) = 115.47689 27.17786 42.35401
#
# Poissons Ratio (x) = -0.02663 0.31464
# Poissons Ratio (y) = -0.11315 0.09617
# Poissons Ratio (z) = 0.85785 0.06171
#
# Static dielectric constant tensor:
#      x y z
#    x 1.719440 0.000000 0.029640 
#    y 0.000000 1.657530 0.000000 
#    z 0.029640 0.000000 1.631250 
# 
# From -- ./inp_files/66204.got.cif
#   From: 2010.05.17/outbox.cif.g08.bks.cpg/sg10_34_cif.got.tgz:66204.got - 2010.06.03 11:33:40.
