data_PCOD9144525
_publ_section_title
;
Structure prediction by ZEFSAII (Michael W. Deem and Ramdas Pophale) SiO2 
 PCOD9144525
Probable space group: P 2/M
;
_chemical_formula_sum "Si O2"
_cell_formula_units_Z 32
_cell_length_a 16.809498
_cell_length_b 7.519322
_cell_length_c 23.421386
_cell_angle_alpha 90.000000
_cell_angle_beta 149.996769
_cell_angle_gamma 90.000000
_cell_volume 1480.329654
_symmetry_space_group_name_H-M "P 2/M"
_symmetry_group_IT_number 10
_symmetry_cell_setting 'monoclinic'
loop_
_space_group_symop_operation_xyz
x,y,z
-x,y,-z
-x,-y,-z
x,-y,z
loop_
_atom_site_type_symbol
_atom_site_label
_atom_site_fract_x
_atom_site_fract_y
_atom_site_fract_z
Si Si1 0.780135 0.300117 0.070558
Si Si2 0.442871 0.795872 0.898504
Si Si3 0.840417 0.201699 0.983236
Si Si4 0.884582 0.212181 0.263960
Si Si5 0.431817 0.216477 0.265533
Si Si6 0.323993 0.216658 0.410040
Si Si7 0.761868 0.781956 0.515241
Si Si8 0.818736 0.217119 0.794476
O O1 0.833798 0.500000 0.094773
O O2 0.827070 0.195878 0.043257
O O3 0.850517 0.238540 0.175096
O O4 0.588176 0.294402 0.956653
O O5 0.265858 0.717084 0.793422
O O6 0.435873 0.000000 0.873444
O O7 0.500000 0.800705 0.000000
O O8 0.012541 0.282878 0.077342
O O9 0.847810 0.000000 0.965026
O O10 0.680918 0.278941 0.856204
O O11 0.059834 0.278328 0.388324
O O12 0.881146 0.000000 0.270554
O O13 0.613563 0.277376 0.384355
O O14 0.331040 0.264678 0.259475
O O15 0.442629 0.000000 0.270239
O O16 0.500000 0.271152 0.500000
O O17 0.276711 0.273813 0.443727
O O18 0.207699 0.273576 0.287088
O O19 0.323976 0.000000 0.411419
O O20 0.765143 0.000000 0.516781
O O21 0.823643 0.000000 0.797339
#
# Coordination Sequence:
#
# PCOD9144525 Si02
#       8
#     4   4   4   4   4   4   4   4
#     4  11  21  32  48  70  96 124 157 193 231 280
#     4   8  15  29  49  72  98 122 145 181 235 289
#     4  10  19  30  46  68  95 126 161 201 239 271
#     4   9  17  30  50  76 101 123 147 184 236 288
#     4   9  16  26  42  67  97 126 159 199 235 271
#     4   9  13  18  31  55  92 127 148 177 225 274
#     4   9  15  24  41  68 101 128 152 185 231 282
#     4   9  15  24  40  65  95 124 156 195 239 279
#
# _framework density 21.616806
#
# number of rings (size 3 to 8) (size 9 to 14) (size 15 to 20)
#    0.000    2.750    1.250    3.000    0.000    5.750 
#    0.000    0.000    0.000    3.000    0.000    6.125 
#    0.000    0.000    0.000    0.000    0.000    0.000 
#
# Total GULP energy -178479.572931 kJ/mol
# GULP energy per Si atom -5577.486654 kJ/mol
# Density = 2.156761 g / cm^3
# Si number density = 21.616806 Si / 1000 Ang^3
#
#
#
# Elastic Constant Matrix: (Units=GPa)
#
#
# Indices 1 2 3 4 5 6 
#
# 1 24.5288 -1.2579 31.3886 0.0000 21.7658 0.0000
# 2 -1.2579 55.5689 -0.0152 0.0000 4.4323 0.0000
# 3 31.3886 -0.0152 174.1602 0.0000 39.1347 0.0000
# 4 0.0000 0.0000 0.0000 49.2955 0.0000 171.1981
# 5 21.7658 4.4323 39.1347 0.0000 39.8836 0.0000
# 6 0.0000 0.0000 0.0000 171.1981 0.0000 435.0927
#
#
#
# Elastic Compliance Matrix: (Units=1/GPa)
#
#
# Indices 1 2 3 4 5 6 
#
# 1 0.085438 0.005217 -0.006145 0.000000 -0.041176 0.000000
# 2 0.005217 0.018522 0.000210 0.000000 -0.005111 0.000000
# 3 -0.006145 0.000210 0.007827 0.000000 -0.004349 0.000000
# 4 0.000000 0.000000 0.000000 -0.055350 0.000000 0.021779
# 5 -0.041176 -0.005111 -0.004349 0.000000 0.052380 0.000000
# 6 0.000000 0.000000 0.000000 0.021779 0.000000 -0.006271
#
#
# Mechanical properties :
#
#
# Convention : Reuss Voigt Hill
#
# Bulk Modulus (GPa) = 9.06221 34.94320 22.00270
# Shear Modulus (GPa) = 35.52033 119.79718 77.65875
#
# Velocity S-wave (km/s) = 4.05801 7.45244 6.00026
# Velocity P-wave (km/s) = 5.11448 9.50009 7.62921
#
# Compressibility (1/GPa) = 0.11034841
#
# Stress axis : x y z
#
# Youngs Moduli (GPa) = 11.70444 53.99126 127.76682
#
# Poissons Ratio (x) = -0.28166 0.78518
# Poissons Ratio (y) = -0.06106 -0.02682
# Poissons Ratio (z) = 0.07193 -0.01134
#
# Static dielectric constant tensor:
#      x y z
#    x 1.768590 0.000000 0.030220 
#    y 0.000000 1.831210 0.000000 
#    z 0.030220 0.000000 1.828880 
# 
# From -- ./inp_files/89976.got.cif
#   From: 2010.05.17/outbox.cif.g08.bks.cpg/sg10_45_cif.got.tgz:89976.got - 2010.06.03 11:33:40.
