data_PCOD9144942
_publ_section_title
;
Structure prediction by ZEFSAII (Michael W. Deem and Ramdas Pophale) SiO2 
 PCOD9144942
Probable space group: P 2/M
;
_chemical_formula_sum "Si O2"
_cell_formula_units_Z 26
_cell_length_a 11.656775
_cell_length_b 14.729114
_cell_length_c 9.523226
_cell_angle_alpha 90.000000
_cell_angle_beta 120.328725
_cell_angle_gamma 90.000000
_cell_volume 1411.307434
_symmetry_space_group_name_H-M "P 2/M"
_symmetry_group_IT_number 10
_symmetry_cell_setting 'monoclinic'
loop_
_space_group_symop_operation_xyz
x,y,z
-x,y,-z
-x,-y,-z
x,-y,z
loop_
_atom_site_type_symbol
_atom_site_label
_atom_site_fract_x
_atom_site_fract_y
_atom_site_fract_z
Si Si1 0.414964 0.397228 0.224511
Si Si2 0.993294 0.788858 0.160023
Si Si3 0.863512 0.104841 0.323443
Si Si4 0.500000 0.252290 0.500000
Si Si5 0.714627 0.398747 0.342849
Si Si6 0.150132 0.396767 0.876025
Si Si7 0.747659 0.789022 0.499607
O O1 0.412529 0.500000 0.282687
O O2 0.423953 0.320059 0.347028
O O3 0.554356 0.391073 0.224307
O O4 0.283207 0.386109 0.051564
O O5 0.889767 0.845470 0.192142
O O6 0.951663 0.683215 0.151536
O O7 0.134198 0.809051 0.320056
O O8 0.000000 0.811581 0.000000
O O9 0.764001 0.158845 0.363046
O O10 0.000000 0.107821 0.500000
O O11 0.827501 0.000000 0.281493
O O12 0.393712 0.194271 0.518183
O O13 0.739646 0.500000 0.414692
O O14 0.797466 0.388922 0.251365
O O15 0.754408 0.318191 0.469668
O O16 0.099084 0.500000 0.864818
#
# Coordination Sequence:
#
# PCOD9144942 Si02
#       7
#     4   4   4   2   4   4   4
#     4   9  17  29  46  72 107 146 187 220 251 300
#     4  11  22  35  54  81 112 139 174 219 265 317
#     4   9  19  38  61  80 102 135 174 218 267 319
#     4  10  19  32  53  76 106 144 182 218 262 304
#     4   9  17  30  51  76 104 143 186 221 253 300
#     4  10  19  31  48  75 110 145 178 217 264 308
#     4  10  20  36  55  81 108 139 180 217 260 319
#
# _framework density 18.422633999999999
#
# number of rings (size 3 to 8) (size 9 to 14) (size 15 to 20)
#    0.000    2.308    1.538    1.615    0.000    3.692 
#    0.000    1.923    0.000    0.000    0.000   14.000 
#    0.000    0.000    0.000    0.000    0.000    0.000 
#
# Total GULP energy -145008.823356 kJ/mol
# GULP energy per Si atom -5577.262437 kJ/mol
# Density = 1.838070 g / cm^3
# Si number density = 18.422634 Si / 1000 Ang^3
#
#
#
# Elastic Constant Matrix: (Units=GPa)
#
#
# Indices 1 2 3 4 5 6 
#
# 1 104.9624 48.8807 34.6146 0.0000 -31.1765 0.0000
# 2 48.8807 76.1372 23.1127 0.0000 -19.9083 0.0000
# 3 34.6146 23.1127 61.4540 0.0000 -22.1672 0.0000
# 4 0.0000 0.0000 0.0000 11.3031 0.0000 0.8509
# 5 -31.1765 -19.9083 -22.1672 0.0000 25.0326 0.0000
# 6 0.0000 0.0000 0.0000 0.8509 0.0000 2.3097
#
#
#
# Elastic Compliance Matrix: (Units=1/GPa)
#
#
# Indices 1 2 3 4 5 6 
#
# 1 0.017872 -0.006949 -0.002083 0.000000 0.014888 0.000000
# 2 -0.006949 0.019485 -0.001390 0.000000 0.005610 0.000000
# 3 -0.002083 -0.001390 0.024441 0.000000 0.017943 0.000000
# 4 0.000000 0.000000 0.000000 0.090995 0.000000 -0.033522
# 5 0.014888 0.005610 0.017943 0.000000 0.078841 0.000000
# 6 0.000000 0.000000 0.000000 -0.033522 0.000000 0.445309
#
#
# Mechanical properties :
#
#
# Convention : Reuss Voigt Hill
#
# Bulk Modulus (GPa) = 24.41826 50.64106 37.52966
# Shear Modulus (GPa) = 7.02802 16.79212 11.91007
#
# Velocity S-wave (km/s) = 1.95529 3.02237 2.54538
# Velocity P-wave (km/s) = 4.28729 6.30300 5.39021
#
# Compressibility (1/GPa) = 0.04095296
#
# Stress axis : x y z
#
# Youngs Moduli (GPa) = 55.95229 51.32281 40.91510
#
# Poissons Ratio (x) = 0.35664 0.08523
# Poissons Ratio (y) = 0.38881 0.05688
# Poissons Ratio (z) = 0.11655 0.07135
#
# Static dielectric constant tensor:
#      x y z
#    x 1.664380 0.000000 -0.006650 
#    y 0.000000 1.624180 0.000000 
#    z -0.006650 0.000000 1.621010 
# 
# From -- ./inp_files/24829.got.cif
#   From: 2010.05.17/outbox.cif.g08.bks.cpg/sg10_13_cif.got.tgz:24829.got - 2010.06.03 11:33:40.
