data_PCOD9144810
_publ_section_title
;
Structure prediction by ZEFSAII (Michael W. Deem and Ramdas Pophale) SiO2 
 PCOD9144810
Probable space group: P 2/M
;
_chemical_formula_sum "Si O2"
_cell_formula_units_Z 32
_cell_length_a 21.136966
_cell_length_b 9.084273
_cell_length_c 12.762853
_cell_angle_alpha 90.000000
_cell_angle_beta 65.114162
_cell_angle_gamma 90.000000
_cell_volume 2223.098814
_symmetry_space_group_name_H-M "P 2/M"
_symmetry_group_IT_number 10
_symmetry_cell_setting 'monoclinic'
loop_
_space_group_symop_operation_xyz
x,y,z
-x,y,-z
-x,-y,-z
x,-y,z
loop_
_atom_site_type_symbol
_atom_site_label
_atom_site_fract_x
_atom_site_fract_y
_atom_site_fract_z
Si Si1 0.667623 0.325028 0.910113
Si Si2 0.413593 0.823452 0.225763
Si Si3 0.559747 0.675498 0.168468
Si Si4 0.809629 0.169512 0.506992
Si Si5 0.081076 0.324542 0.443048
Si Si6 0.198411 0.168811 0.249130
Si Si7 0.424566 0.676561 0.599612
Si Si8 0.329693 0.177395 0.496272
O O1 0.672878 0.500000 0.889593
O O2 0.624876 0.252523 0.844619
O O3 0.744425 0.254471 0.856730
O O4 0.624271 0.298235 0.046122
O O5 0.492436 0.765051 0.177912
O O6 0.375602 0.783709 0.361814
O O7 0.411470 0.000000 0.215552
O O8 0.543338 0.500000 0.176227
O O9 0.576804 0.713760 0.276702
O O10 0.878034 0.265544 0.482306
O O11 0.774748 0.167035 0.647949
O O12 0.750254 0.223752 0.470097
O O13 0.828326 0.000000 0.470093
O O14 0.087375 0.500000 0.432293
O O15 0.124420 0.249535 0.317929
O O16 0.000000 0.283774 0.500000
O O17 0.190208 0.000000 0.221874
O O18 0.500000 0.719691 0.500000
O O19 0.418286 0.500000 0.593670
O O20 0.365121 0.752551 0.572500
O O21 0.329579 0.000000 0.504007
#
# Coordination Sequence:
#
# PCOD9144810 Si02
#       8
#     4   4   4   4   4   4   4   4
#     4  11  21  32  47  63  88 120 150 188 231 277
#     4  11  20  31  47  66  87 113 147 190 235 279
#     4  10  22  36  45  62  87 113 151 195 238 279
#     4   8  16  29  43  63  92 122 149 182 221 264
#     4   9  16  26  43  69  99 127 154 180 211 261
#     4   9  17  29  44  63  90 121 151 178 213 260
#     4  10  20  34  50  64  82 113 154 199 242 283
#     4  10  19  31  47  66  89 115 151 194 234 274
#
# _framework density 14.394322000000001
#
# number of rings (size 3 to 8) (size 9 to 14) (size 15 to 20)
#    0.750    1.500    2.500    1.500    0.000    5.250 
#    0.000    0.000    0.000    0.000    0.000    0.000 
#    0.000    1.000    0.000   11.250    0.000    5.625 
#
# Total GULP energy -178161.783364 kJ/mol
# GULP energy per Si atom -5567.555730 kJ/mol
# Density = 1.436156 g / cm^3
# Si number density = 14.394322 Si / 1000 Ang^3
#
#
#
# Elastic Constant Matrix: (Units=GPa)
#
#
# Indices 1 2 3 4 5 6 
#
# 1 106.7625 50.6094 49.1026 0.0000 -20.9783 0.0000
# 2 50.6094 58.3725 43.6707 0.0000 -12.8775 0.0000
# 3 49.1026 43.6707 76.9134 0.0000 -7.7076 0.0000
# 4 0.0000 0.0000 0.0000 15.3357 0.0000 1.7114
# 5 -20.9783 -12.8775 -7.7076 0.0000 20.4909 0.0000
# 6 0.0000 0.0000 0.0000 1.7114 0.0000 21.8505
#
#
#
# Elastic Compliance Matrix: (Units=1/GPa)
#
#
# Indices 1 2 3 4 5 6 
#
# 1 0.018523 -0.009789 -0.005179 0.000000 0.010864 0.000000
# 2 -0.009789 0.038604 -0.014801 0.000000 0.008672 0.000000
# 3 -0.005179 -0.014801 0.024159 0.000000 -0.005517 0.000000
# 4 0.000000 0.000000 0.000000 0.065782 0.000000 -0.005152
# 5 0.010864 0.008672 -0.005517 0.000000 0.063300 0.000000
# 6 0.000000 0.000000 0.000000 -0.005152 0.000000 0.046169
#
#
# Mechanical properties :
#
#
# Convention : Reuss Voigt Hill
#
# Bulk Modulus (GPa) = 45.97759 58.75708 52.36733
# Shear Modulus (GPa) = 15.46430 18.11315 16.78872
#
# Velocity S-wave (km/s) = 3.28126 3.55118 3.41888
# Velocity P-wave (km/s) = 6.80928 7.59755 7.21419
#
# Compressibility (1/GPa) = 0.02174973
#
# Stress axis : x y z
#
# Youngs Moduli (GPa) = 53.98549 25.90372 41.39234
#
# Poissons Ratio (x) = 0.25356 0.21437
# Poissons Ratio (y) = 0.52844 0.61265
# Poissons Ratio (z) = 0.27959 0.38340
#
# Static dielectric constant tensor:
#      x y z
#    x 1.468890 0.000000 -0.007190 
#    y 0.000000 1.483220 0.000000 
#    z -0.007190 0.000000 1.462990 
# 
# From -- ./inp_files/54839.got.cif
#   From: 2010.05.17/outbox.cif.g08.bks.cpg/sg10_28_cif.got.tgz:54839.got - 2010.06.03 11:33:40.
