data_PCOD9144116
_publ_section_title
;
Structure prediction by ZEFSAII (Michael W. Deem and Ramdas Pophale) SiO2 
 PCOD9144116
Probable space group: P 2/M
;
_chemical_formula_sum "Si O2"
_cell_formula_units_Z 32
_cell_length_a 15.900287
_cell_length_b 15.692444
_cell_length_c 10.600844
_cell_angle_alpha 90.000000
_cell_angle_beta 144.876688
_cell_angle_gamma 90.000000
_cell_volume 1521.805392
_symmetry_space_group_name_H-M "P 2/M"
_symmetry_group_IT_number 10
_symmetry_cell_setting 'monoclinic'
loop_
_space_group_symop_operation_xyz
x,y,z
-x,y,-z
-x,-y,-z
x,-y,z
loop_
_atom_site_type_symbol
_atom_site_label
_atom_site_fract_x
_atom_site_fract_y
_atom_site_fract_z
Si Si1 0.340297 0.741606 0.862725
Si Si2 0.644746 0.590450 0.593820
Si Si3 0.169534 0.099058 0.748905
Si Si4 0.886546 0.597450 0.476576
Si Si5 0.616556 0.906799 0.526400
Si Si6 0.936793 0.354436 0.062398
Si Si7 0.484262 0.741129 0.291751
Si Si8 0.789719 0.183795 0.927765
O O1 0.258973 0.832285 0.776179
O O2 0.238011 0.669502 0.678006
O O3 0.500000 0.750593 0.000000
O O4 0.378208 0.711986 0.050973
O O5 0.500000 0.586337 0.500000
O O6 0.337186 0.500000 0.453298
O O7 0.779248 0.602565 0.852474
O O8 0.610867 0.672151 0.466764
O O9 0.000000 0.104476 0.500000
O O10 0.215735 0.000000 0.794408
O O11 0.190454 0.130346 0.919803
O O12 0.833154 0.500000 0.394940
O O13 0.000000 0.614911 0.500000
O O14 0.970919 0.605283 0.712613
O O15 0.500000 0.913312 0.500000
O O16 0.559803 0.833054 0.364626
O O17 0.764336 0.876155 0.776419
O O18 0.627927 0.000000 0.482488
O O19 0.912653 0.254640 0.063136
O O20 0.000000 0.363504 0.000000
O O21 0.364458 0.762998 0.252999
#
# Coordination Sequence:
#
# PCOD9144116 Si02
#       8
#     4   4   4   4   4   4   4   4
#     4  11  25  41  65  94 132 175 227 287 357 408
#     4  11  22  38  63  93 125 166 216 270 324 393
#     4  10  21  40  67  96 129 176 234 283 334 412
#     4  11  26  48  70  95 133 186 242 286 341 421
#     4   9  16  28  53  87 117 146 192 258 321 373
#     4  12  25  42  67  98 139 177 218 280 350 406
#     4  10  19  37  59  87 122 162 216 269 321 397
#     4  10  18  35  61  88 128 166 215 263 326 398
#
# _framework density 21.027656
#
# number of rings (size 3 to 8) (size 9 to 14) (size 15 to 20)
#    0.000    1.500    2.500    3.750    1.750    5.000 
#    0.000    0.000    0.000    3.000    0.000    0.000 
#    0.000    0.000    0.000    0.000    0.000    0.000 
#
# Total GULP energy -178537.986977 kJ/mol
# GULP energy per Si atom -5579.312093 kJ/mol
# Density = 2.097980 g / cm^3
# Si number density = 21.027656 Si / 1000 Ang^3
#
#
#
# Elastic Constant Matrix: (Units=GPa)
#
#
# Indices 1 2 3 4 5 6 
#
# 1 60.7017 29.5469 23.3859 0.0000 6.9173 0.0000
# 2 29.5469 166.4321 65.4744 0.0000 7.6844 0.0000
# 3 23.3859 65.4744 123.7209 0.0000 -1.4887 0.0000
# 4 0.0000 0.0000 0.0000 27.6887 0.0000 -1.0473
# 5 6.9173 7.6844 -1.4887 0.0000 21.8967 0.0000
# 6 0.0000 0.0000 0.0000 -1.0473 0.0000 4.7266
#
#
#
# Elastic Compliance Matrix: (Units=1/GPa)
#
#
# Indices 1 2 3 4 5 6 
#
# 1 0.019119 -0.002140 -0.002547 0.000000 -0.005462 0.000000
# 2 -0.002140 0.008022 -0.003869 0.000000 -0.002402 0.000000
# 3 -0.002547 -0.003869 0.010647 0.000000 0.002886 0.000000
# 4 0.000000 0.000000 0.000000 0.036421 0.000000 0.008070
# 5 -0.005462 -0.002402 0.002886 0.000000 0.048434 0.000000
# 6 0.000000 0.000000 0.000000 0.008070 0.000000 0.213356
#
#
# Mechanical properties :
#
#
# Convention : Reuss Voigt Hill
#
# Bulk Modulus (GPa) = 48.36927 65.29656 56.83292
# Shear Modulus (GPa) = 13.88875 26.35890 20.12383
#
# Velocity S-wave (km/s) = 2.57281 3.54437 3.09693
# Velocity P-wave (km/s) = 5.64610 6.91883 6.31461
#
# Compressibility (1/GPa) = 0.02067428
#
# Stress axis : x y z
#
# Youngs Moduli (GPa) = 52.30275 124.66441 93.92607
#
# Poissons Ratio (x) = 0.26679 0.23925
# Poissons Ratio (y) = 0.11193 0.36344
# Poissons Ratio (z) = 0.13322 0.48239
#
# Static dielectric constant tensor:
#      x y z
#    x 1.787220 0.000000 -0.100780 
#    y 0.000000 1.822450 0.000000 
#    z -0.100780 0.000000 1.748570 
# 
# From -- ./inp_files/54067.got.cif
#   From: 2010.05.17/outbox.cif.g08.bks.cpg/sg10_28_cif.got.tgz:54067.got - 2010.06.03 11:33:40.
