data_PCOD9144414
_publ_section_title
;
Structure prediction by ZEFSAII (Michael W. Deem and Ramdas Pophale) SiO2 
 PCOD9144414
Probable space group: P 2/M
;
_chemical_formula_sum "Si O2"
_cell_formula_units_Z 32
_cell_length_a 8.819770
_cell_length_b 14.515532
_cell_length_c 19.452281
_cell_angle_alpha 90.000000
_cell_angle_beta 142.357810
_cell_angle_gamma 90.000000
_cell_volume 1520.928756
_symmetry_space_group_name_H-M "P 2/M"
_symmetry_group_IT_number 10
_symmetry_cell_setting 'monoclinic'
loop_
_space_group_symop_operation_xyz
x,y,z
-x,y,-z
-x,-y,-z
x,-y,z
loop_
_atom_site_type_symbol
_atom_site_label
_atom_site_fract_x
_atom_site_fract_y
_atom_site_fract_z
Si Si1 0.725136 0.892187 0.674028
Si Si2 0.152452 0.396220 0.485602
Si Si3 0.798456 0.254992 0.298592
Si Si4 0.825151 0.892390 0.544845
Si Si5 0.840608 0.602772 0.050274
Si Si6 0.612115 0.395715 0.815766
Si Si7 0.099013 0.743186 0.817469
Si Si8 0.341827 0.605587 0.373239
O O1 0.777585 0.885337 0.610414
O O2 0.438989 0.859849 0.582022
O O3 0.946789 0.833501 0.786620
O O4 0.735130 0.000000 0.695625
O O5 0.137495 0.500000 0.452746
O O6 0.024298 0.327219 0.387920
O O7 0.000000 0.390486 0.500000
O O8 0.439766 0.378648 0.603339
O O9 0.571475 0.308403 0.252393
O O10 0.925116 0.165465 0.378803
O O11 0.755293 0.238383 0.201573
O O12 0.856566 0.000000 0.539410
O O13 0.802122 0.500000 0.066786
O O14 0.133504 0.611721 0.136024
O O15 0.771051 0.685899 0.075668
O O16 0.697779 0.604368 0.926751
O O17 0.504495 0.500000 0.764333
O O18 0.876947 0.674426 0.716594
O O19 0.500000 0.618409 0.500000
O O20 0.258999 0.500000 0.339681
#
# Coordination Sequence:
#
# PCOD9144414 Si02
#       8
#     4   4   4   4   4   4   4   4
#     4   8  15  28  48  74 104 136 167 202 244 296
#     4  10  21  32  42  64  99 135 167 195 232 291
#     4  11  20  31  51  77 100 127 167 213 253 291
#     4   8  15  29  49  73 103 136 167 201 247 299
#     4   9  20  38  55  73  97 132 172 208 251 304
#     4   9  20  38  55  71  99 134 170 208 249 305
#     4  11  20  29  52  79 100 126 168 212 253 294
#     4  10  19  30  42  64 102 134 156 193 241 289
#
# _framework density 21.039774999999999
#
# number of rings (size 3 to 8) (size 9 to 14) (size 15 to 20)
#    0.000    2.500    1.250    3.000    3.500    2.000 
#    0.000    1.250    0.000    1.875    0.000    5.250 
#    0.000    0.000    0.000    0.000    0.000    0.000 
#
# Total GULP energy -178544.770152 kJ/mol
# GULP energy per Si atom -5579.524067 kJ/mol
# Density = 2.099189 g / cm^3
# Si number density = 21.039775 Si / 1000 Ang^3
#
#
#
# Elastic Constant Matrix: (Units=GPa)
#
#
# Indices 1 2 3 4 5 6 
#
# 1 61.5110 18.2207 9.1226 0.0000 6.1882 0.0000
# 2 18.2207 90.9132 21.8770 0.0000 9.0976 0.0000
# 3 9.1226 21.8770 40.3843 0.0000 3.5106 0.0000
# 4 0.0000 0.0000 0.0000 -38.8877 0.0000 -17.2994
# 5 6.1882 9.0976 3.5106 0.0000 31.6600 0.0000
# 6 0.0000 0.0000 0.0000 -17.2994 0.0000 0.0984
#
#
#
# Elastic Compliance Matrix: (Units=1/GPa)
#
#
# Indices 1 2 3 4 5 6 
#
# 1 0.017653 -0.002746 -0.002291 0.000000 -0.002407 0.000000
# 2 -0.002746 0.013345 -0.006384 0.000000 -0.002590 0.000000
# 3 -0.002291 -0.006384 0.028817 0.000000 -0.000913 0.000000
# 4 0.000000 0.000000 0.000000 -0.000325 0.000000 -0.057076
# 5 -0.002407 -0.002590 -0.000913 0.000000 0.032902 0.000000
# 6 0.000000 0.000000 0.000000 -0.057076 0.000000 0.128303
#
#
# Mechanical properties :
#
#
# Convention : Reuss Voigt Hill
#
# Bulk Modulus (GPa) = 27.04617 32.36101 29.70359
# Shear Modulus (GPa) = 19.54188 8.14669 13.84428
#
# Velocity S-wave (km/s) = 3.05094 1.96989 2.56794
# Velocity P-wave (km/s) = 5.02928 4.53742 4.78967
#
# Compressibility (1/GPa) = 0.03697382
#
# Stress axis : x y z
#
# Youngs Moduli (GPa) = 56.64911 74.93325 34.70134
#
# Poissons Ratio (x) = 0.20574 0.07950
# Poissons Ratio (y) = 0.15554 0.22153
# Poissons Ratio (z) = 0.12978 0.47837
#
# Static dielectric constant tensor:
#      x y z
#    x 1.880060 0.000000 -0.025080 
#    y 0.000000 1.768470 0.000000 
#    z -0.025080 0.000000 1.817850 
# 
# From -- ./inp_files/82839.got.cif
#   From: 2010.05.17/outbox.cif.g08.bks.cpg/sg10_42_cif.got.tgz:82839.got - 2010.06.03 11:33:40.
