data_PCOD9144260
_publ_section_title
;
Structure prediction by ZEFSAII (Michael W. Deem and Ramdas Pophale) SiO2 
 PCOD9144260
Probable space group: P 2/M
;
_chemical_formula_sum "Si O2"
_cell_formula_units_Z 18
_cell_length_a 16.881323
_cell_length_b 8.591770
_cell_length_c 12.490812
_cell_angle_alpha 90.000000
_cell_angle_beta 158.994568
_cell_angle_gamma 90.000000
_cell_volume 649.405858
_symmetry_space_group_name_H-M "P 2/M"
_symmetry_group_IT_number 10
_symmetry_cell_setting 'monoclinic'
loop_
_space_group_symop_operation_xyz
x,y,z
-x,y,-z
-x,-y,-z
x,-y,z
loop_
_atom_site_type_symbol
_atom_site_label
_atom_site_fract_x
_atom_site_fract_y
_atom_site_fract_z
Si Si1 0.248022 0.167341 0.637217
Si Si2 0.575342 0.500000 0.350031
Si Si3 0.816645 0.833331 0.861391
Si Si4 0.239115 0.500000 0.188077
Si Si5 0.511479 0.167981 0.278399
Si Si6 0.237489 0.500000 0.640545
O O1 0.292104 0.167936 0.563983
O O2 0.146377 0.328593 0.552435
O O3 0.147705 0.000000 0.539887
O O4 0.500000 0.166514 0.000000
O O5 0.750758 0.500000 0.669316
O O6 0.427471 0.344309 0.159987
O O7 0.737631 0.500000 0.455210
O O8 0.837594 0.669340 0.947284
O O9 0.598681 0.832312 0.510534
O O10 0.826760 0.000000 0.931772
O O11 0.000000 0.834764 0.000000
O O12 0.500000 0.500000 0.500000
O O13 0.398821 0.000000 0.117857
O O14 0.500000 0.500000 0.000000
#
# Coordination Sequence:
#
# PCOD9144260 Si02
#       6
#     4   2   4   2   4   2
#     4   8  12  17  26  42  65  92 116 140 179 231
#     4   8  14  23  33  48  71  98 125 153 189 233
#     4   9  17  29  44  60  79 107 141 174 208 244
#     4  10  19  29  42  60  83 112 142 171 206 246
#     4   8  13  21  33  49  69  95 124 153 188 230
#     4   8  12  18  29  44  63  90 119 146 182 229
#
# _framework density 27.717644
#
# number of rings (size 3 to 8) (size 9 to 14) (size 15 to 20)
#    0.000    3.556    0.000    0.333    0.000    0.444 
#    0.000    0.000    0.000    0.000    0.000    0.000 
#    0.000    0.000    0.000  144.000    0.000  721.333 
#
# Total GULP energy -100300.231942 kJ/mol
# GULP energy per Si atom -5572.235108 kJ/mol
# Density = 2.765456 g / cm^3
# Si number density = 27.717644 Si / 1000 Ang^3
#
#
#
# Elastic Constant Matrix: (Units=GPa)
#
#
# Indices 1 2 3 4 5 6 
#
# 1 39.5084 10.3603 17.6751 0.0000 -4.4138 0.0000
# 2 10.3603 459.0062 16.3888 0.0000 20.8855 0.0000
# 3 17.6751 16.3888 69.1991 0.0000 -11.6225 0.0000
# 4 0.0000 0.0000 0.0000 6.3840 0.0000 -5.8765
# 5 -4.4138 20.8855 -11.6225 0.0000 31.2356 0.0000
# 6 0.0000 0.0000 0.0000 -5.8765 0.0000 8.1812
#
#
#
# Elastic Compliance Matrix: (Units=1/GPa)
#
#
# Indices 1 2 3 4 5 6 
#
# 1 0.028737 -0.000484 -0.006922 0.000000 0.001809 0.000000
# 2 -0.000484 0.002301 -0.000738 0.000000 -0.001882 0.000000
# 3 -0.006922 -0.000738 0.017400 0.000000 0.005989 0.000000
# 4 0.000000 0.000000 0.000000 0.462345 0.000000 0.332102
# 5 0.001809 -0.001882 0.005989 0.000000 0.035757 0.000000
# 6 0.000000 0.000000 0.000000 0.332102 0.000000 0.360779
#
#
# Mechanical properties :
#
#
# Convention : Reuss Voigt Hill
#
# Bulk Modulus (GPa) = 31.10250 72.95135 52.02693
# Shear Modulus (GPa) = 5.35147 44.04612 24.69880
#
# Velocity S-wave (km/s) = 1.39101 3.99068 2.98834
# Velocity P-wave (km/s) = 3.71826 6.90004 5.54238
#
# Compressibility (1/GPa) = 0.03215175
#
# Stress axis : x y z
#
# Youngs Moduli (GPa) = 34.79885 434.50074 57.47241
#
# Poissons Ratio (x) = 0.21020 0.39780
# Poissons Ratio (y) = 0.01683 0.04239
# Poissons Ratio (z) = 0.24087 0.32047
#
# Static dielectric constant tensor:
#      x y z
#    x 1.717880 0.000000 0.149370 
#    y 0.000000 2.265440 0.000000 
#    z 0.149370 0.000000 2.201970 
# 
# From -- ./inp_files/10515.got.cif
#   From: 2010.05.17/outbox.cif.g08.bks.cpg/sg10_6_cif.got.tgz:10515.got - 2010.06.03 11:33:40.
