data_PCOD9144490
_publ_section_title
;
Structure prediction by ZEFSAII (Michael W. Deem and Ramdas Pophale) SiO2 
 PCOD9144490
Probable space group: P 2/M
;
_chemical_formula_sum "Si O2"
_cell_formula_units_Z 32
_cell_length_a 18.964669
_cell_length_b 13.597977
_cell_length_c 21.946734
_cell_angle_alpha 90.000000
_cell_angle_beta 20.379514
_cell_angle_gamma 90.000000
_cell_volume 1970.898502
_symmetry_space_group_name_H-M "P 2/M"
_symmetry_group_IT_number 10
_symmetry_cell_setting 'monoclinic'
loop_
_space_group_symop_operation_xyz
x,y,z
-x,y,-z
-x,-y,-z
x,-y,z
loop_
_atom_site_type_symbol
_atom_site_label
_atom_site_fract_x
_atom_site_fract_y
_atom_site_fract_z
Si Si1 0.075745 0.886130 0.505100
Si Si2 0.072867 0.612814 0.108461
Si Si3 0.528934 0.612817 0.289745
Si Si4 0.333207 0.113869 0.085950
Si Si5 0.766919 0.111548 0.411038
Si Si6 0.211364 0.195720 0.059124
Si Si7 0.371731 0.305134 0.542744
Si Si8 0.600079 0.195721 0.670408
O O1 0.249591 0.822472 0.395354
O O2 0.000000 0.854155 0.500000
O O3 0.882975 0.885049 0.705673
O O4 0.146336 0.000000 0.442260
O O5 0.075642 0.500000 0.127448
O O6 0.143936 0.691885 0.101304
O O7 0.846637 0.642966 0.272968
O O8 0.236886 0.621211 0.921053
O O9 0.466422 0.500000 0.330502
O O10 0.487893 0.642971 0.392512
O O11 0.408248 0.691883 0.346517
O O12 0.314744 0.177524 0.040310
O O13 0.380551 0.000000 0.030858
O O14 0.500000 0.145853 0.000000
O O15 0.673483 0.193489 0.442184
O O16 0.676061 0.131923 0.551797
O O17 0.007493 0.131920 0.220362
O O18 0.728008 0.000000 0.424006
O O19 0.375054 0.169249 0.874989
O O20 0.500000 0.309383 0.500000
#
# Coordination Sequence:
#
# PCOD9144490 Si02
#       8
#     4   4   4   4   4   4   4   4
#     4  10  19  30  45  69 101 133 166 205 248 294
#     4   9  19  35  54  76 100 129 165 204 252 302
#     4   9  19  35  54  76 100 129 165 204 252 302
#     4  10  19  30  45  69 101 133 166 205 248 294
#     4  10  20  34  51  72 100 135 173 205 241 298
#     4  10  19  32  51  73  99 131 167 210 250 292
#     4  10  21  35  52  77 105 130 163 207 252 299
#     4  10  19  32  51  73  99 131 167 210 250 292
#
# _framework density 16.236249999999998
#
# number of rings (size 3 to 8) (size 9 to 14) (size 15 to 20)
#    0.000    2.250    1.250    1.875    0.000    4.750 
#    0.000    1.250    0.000    0.750    0.000    7.000 
#    0.000    0.000    0.000    0.000    0.000    0.000 
#
# Total GULP energy -178441.618802 kJ/mol
# GULP energy per Si atom -5576.300588 kJ/mol
# Density = 1.619930 g / cm^3
# Si number density = 16.236250 Si / 1000 Ang^3
#
#
#
# Elastic Constant Matrix: (Units=GPa)
#
#
# Indices 1 2 3 4 5 6 
#
# 1 112.6956 45.3800 43.9860 0.0000 -9.0019 0.0000
# 2 45.3800 96.9011 44.8278 0.0000 -0.1222 0.0000
# 3 43.9860 44.8278 83.2791 0.0000 2.0399 0.0000
# 4 0.0000 0.0000 0.0000 -28.8962 0.0000 -8.1746
# 5 -9.0019 -0.1222 2.0399 0.0000 17.9924 0.0000
# 6 0.0000 0.0000 0.0000 -8.1746 0.0000 5.4774
#
#
#
# Elastic Compliance Matrix: (Units=1/GPa)
#
#
# Indices 1 2 3 4 5 6 
#
# 1 0.012866 -0.003720 -0.004964 0.000000 0.006975 0.000000
# 2 -0.003720 0.014833 -0.005993 0.000000 -0.001081 0.000000
# 3 -0.004964 -0.005993 0.017967 0.000000 -0.004561 0.000000
# 4 0.000000 0.000000 0.000000 -0.024333 0.000000 -0.036315
# 5 0.006975 -0.001081 -0.004561 0.000000 0.059578 0.000000
# 6 0.000000 0.000000 0.000000 -0.036315 0.000000 0.128369
#
#
# Mechanical properties :
#
#
# Convention : Reuss Voigt Hill
#
# Bulk Modulus (GPa) = 61.30349 62.36261 61.83305
# Shear Modulus (GPa) = 20.48569 9.49351 14.98960
#
# Velocity S-wave (km/s) = 3.55593 2.42070 3.04175
# Velocity P-wave (km/s) = 7.39585 6.80485 7.10650
#
# Compressibility (1/GPa) = 0.01631228
#
# Stress axis : x y z
#
# Youngs Moduli (GPa) = 77.72381 67.41678 55.65669
#
# Poissons Ratio (x) = 0.25080 0.27627
# Poissons Ratio (y) = 0.28915 0.33355
# Poissons Ratio (z) = 0.38581 0.40403
#
# Static dielectric constant tensor:
#      x y z
#    x 1.515530 0.000000 0.012410 
#    y 0.000000 1.539820 0.000000 
#    z 0.012410 0.000000 1.567780 
# 
# From -- ./inp_files/85934.got.cif
#   From: 2010.05.17/outbox.cif.g08.bks.cpg/sg10_43_cif.got.tgz:85934.got - 2010.06.03 11:33:40.
