data_PCOD9144616
_publ_section_title
;
Structure prediction by ZEFSAII (Michael W. Deem and Ramdas Pophale) SiO2 
 PCOD9144616
Probable space group: P 2/M
;
_chemical_formula_sum "Si O2"
_cell_formula_units_Z 28
_cell_length_a 13.270076
_cell_length_b 23.185937
_cell_length_c 5.107585
_cell_angle_alpha 90.000000
_cell_angle_beta 77.576236
_cell_angle_gamma 90.000000
_cell_volume 1534.697843
_symmetry_space_group_name_H-M "P 2/M"
_symmetry_group_IT_number 10
_symmetry_cell_setting 'monoclinic'
loop_
_space_group_symop_operation_xyz
x,y,z
-x,y,-z
-x,-y,-z
x,-y,z
loop_
_atom_site_type_symbol
_atom_site_label
_atom_site_fract_x
_atom_site_fract_y
_atom_site_fract_z
Si Si1 0.761262 0.930605 0.234658
Si Si2 0.571721 0.852013 0.206485
Si Si3 0.894135 0.566456 0.953584
Si Si4 0.111126 0.930052 0.336008
Si Si5 0.756956 0.566195 0.549640
Si Si6 0.376207 0.330742 0.539836
Si Si7 0.375921 0.268136 0.040348
O O1 0.653344 0.900702 0.234223
O O2 0.803094 0.914823 0.497062
O O3 0.750915 0.000000 0.227457
O O4 0.847495 0.912968 0.971676
O O5 0.500000 0.838259 0.500000
O O6 0.633637 0.795449 0.073269
O O7 0.500000 0.868841 0.000000
O O8 0.920957 0.500000 0.861445
O O9 0.818660 0.565041 0.242914
O O10 0.833201 0.588893 0.734989
O O11 0.000000 0.594035 0.000000
O O12 0.000000 0.909010 0.500000
O O13 0.103891 0.000000 0.333840
O O14 0.726865 0.500000 0.632606
O O15 0.662559 0.608986 0.553149
O O16 0.500000 0.330885 0.500000
O O17 0.336115 0.313697 0.849159
O O18 0.339276 0.282511 0.351651
O O19 0.500000 0.274914 0.000000
#
# Coordination Sequence:
#
# PCOD9144616 Si02
#       7
#     4   4   4   4   4   4   4
#     4  10  20  32  49  77 106 132 163 198 250 308
#     4  11  21  34  52  74 102 133 167 206 243 288
#     4   9  17  30  47  68  96 127 160 197 232 276
#     4   9  17  31  50  72 100 132 168 208 243 284
#     4  10  19  30  47  74 101 125 155 190 242 301
#     4  10  19  32  50  71  97 126 158 199 238 280
#     4   9  18  33  50  68  90 124 172 209 230 264
#
# _framework density 18.244634000000001
#
# number of rings (size 3 to 8) (size 9 to 14) (size 15 to 20)
#    0.000    2.286    0.000    4.714    0.000    4.286 
#    0.000    0.000    0.000    5.143    0.000   20.000 
#    0.000    0.000    0.000    0.000    0.000    0.000 
#
# Total GULP energy -155980.486366 kJ/mol
# GULP energy per Si atom -5570.731656 kJ/mol
# Density = 1.820311 g / cm^3
# Si number density = 18.244634 Si / 1000 Ang^3
#
#
#
# Elastic Constant Matrix: (Units=GPa)
#
#
# Indices 1 2 3 4 5 6 
#
# 1 39.4527 21.4790 2.5677 0.0000 14.0565 0.0000
# 2 21.4790 43.6990 9.3471 0.0000 9.6362 0.0000
# 3 2.5677 9.3471 65.7517 0.0000 15.8734 0.0000
# 4 0.0000 0.0000 0.0000 17.3812 0.0000 1.5924
# 5 14.0565 9.6362 15.8734 0.0000 27.4916 0.0000
# 6 0.0000 0.0000 0.0000 1.5924 0.0000 -5.1811
#
#
#
# Elastic Compliance Matrix: (Units=1/GPa)
#
#
# Indices 1 2 3 4 5 6 
#
# 1 0.040693 -0.017187 0.005139 0.000000 -0.017749 0.000000
# 2 -0.017187 0.032216 -0.003839 0.000000 -0.000288 0.000000
# 3 0.005139 -0.003839 0.018433 0.000000 -0.011925 0.000000
# 4 0.000000 0.000000 0.000000 0.055958 0.000000 0.017199
# 5 -0.017749 -0.000288 -0.011925 0.000000 0.052436 0.000000
# 6 0.000000 0.000000 0.000000 0.017199 0.000000 -0.187724
#
#
# Mechanical properties :
#
#
# Convention : Reuss Voigt Hill
#
# Bulk Modulus (GPa) = 16.78742 23.96566 20.37654
# Shear Modulus (GPa) = 78.56534 15.63901 47.10218
#
# Velocity S-wave (km/s) = 6.56930 2.93095 5.08656
# Velocity P-wave (km/s) = 8.17081 4.96167 6.75945
#
# Compressibility (1/GPa) = 0.05956841
#
# Stress axis : x y z
#
# Youngs Moduli (GPa) = 24.57422 31.04040 54.25172
#
# Poissons Ratio (x) = 0.53348 -0.27880
# Poissons Ratio (y) = 0.42235 0.20827
# Poissons Ratio (z) = -0.12629 0.11917
#
# Static dielectric constant tensor:
#      x y z
#    x 1.623810 0.000000 0.002530 
#    y 0.000000 1.644620 0.000000 
#    z 0.002530 0.000000 1.648840 
# 
# From -- ./inp_files/7565.got.cif
#   From: 2010.05.17/outbox.cif.g08.bks.cpg/sg10_4_cif.got.tgz:7565.got - 2010.06.03 11:33:40.
