data_PCOD9144079
_publ_section_title
;
Structure prediction by ZEFSAII (Michael W. Deem and Ramdas Pophale) SiO2 
 PCOD9144079
Probable space group: P 2/M
;
_chemical_formula_sum "Si O2"
_cell_formula_units_Z 32
_cell_length_a 12.527366
_cell_length_b 13.666782
_cell_length_c 15.104713
_cell_angle_alpha 90.000000
_cell_angle_beta 140.866473
_cell_angle_gamma 90.000000
_cell_volume 1632.139228
_symmetry_space_group_name_H-M "P 2/M"
_symmetry_group_IT_number 10
_symmetry_cell_setting 'monoclinic'
loop_
_space_group_symop_operation_xyz
x,y,z
-x,y,-z
-x,-y,-z
x,-y,z
loop_
_atom_site_type_symbol
_atom_site_label
_atom_site_fract_x
_atom_site_fract_y
_atom_site_fract_z
Si Si1 0.441257 0.886937 0.218711
Si Si2 0.611982 0.388886 0.429418
Si Si3 0.199777 0.387478 0.638562
Si Si4 0.261596 0.711258 0.174800
Si Si5 0.875045 0.708569 0.721796
Si Si6 0.221226 0.384629 0.964847
Si Si7 0.536282 0.251215 0.119919
Si Si8 0.655621 0.887893 0.534146
O O1 0.283770 0.820400 0.149922
O O2 0.513426 0.830669 0.180032
O O3 0.579308 0.884915 0.386461
O O4 0.398092 0.000000 0.174532
O O5 0.552563 0.500000 0.397454
O O6 0.709813 0.376967 0.399091
O O7 0.450232 0.319747 0.326450
O O8 0.741153 0.364557 0.590556
O O9 0.228758 0.500000 0.687365
O O10 0.286541 0.307392 0.756328
O O11 0.000000 0.373592 0.500000
O O12 0.145962 0.708103 0.185960
O O13 0.215083 0.637586 0.066213
O O14 0.810095 0.813882 0.646439
O O15 0.062381 0.672205 0.820484
O O16 0.214513 0.500000 0.943195
O O17 0.395609 0.335410 0.046584
O O18 0.500000 0.210231 0.000000
O O19 0.500000 0.861112 0.500000
O O20 0.702161 0.000000 0.585202
#
# Coordination Sequence:
#
# PCOD9144079 Si02
#       8
#     4   4   4   4   4   4   4   4
#     4  10  20  39  67  93 119 156 201 255 315 365
#     4  11  21  35  56  85 121 158 204 256 302 355
#     4  10  21  38  63  91 119 155 207 265 311 360
#     4  11  21  38  58  84 120 170 208 245 299 363
#     4  12  22  35  55  91 126 158 209 249 296 360
#     4  11  25  41  57  84 129 173 206 247 303 368
#     4  11  24  43  65  90 118 163 206 256 315 376
#     4  10  18  34  64  95 122 159 206 258 311 358
#
# _framework density 19.606171
#
# number of rings (size 3 to 8) (size 9 to 14) (size 15 to 20)
#    0.000    1.250    5.000    1.875    1.750    4.250 
#    0.000    2.500    0.000    4.125    0.000    0.000 
#    0.000    0.000    0.000    0.000    0.000    0.000 
#
# Total GULP energy -178826.130118 kJ/mol
# GULP energy per Si atom -5588.316566 kJ/mol
# Density = 1.956155 g / cm^3
# Si number density = 19.606171 Si / 1000 Ang^3
#
#
#
# Elastic Constant Matrix: (Units=GPa)
#
#
# Indices 1 2 3 4 5 6 
#
# 1 45.8827 17.0626 20.8046 0.0000 -7.4301 0.0000
# 2 17.0626 120.4055 26.2957 0.0000 8.6212 0.0000
# 3 20.8046 26.2957 64.0435 0.0000 0.0434 0.0000
# 4 0.0000 0.0000 0.0000 28.0909 0.0000 2.6779
# 5 -7.4301 8.6212 0.0434 0.0000 38.9993 0.0000
# 6 0.0000 0.0000 0.0000 2.6779 0.0000 10.3978
#
#
#
# Elastic Compliance Matrix: (Units=1/GPa)
#
#
# Indices 1 2 3 4 5 6 
#
# 1 0.027215 -0.002568 -0.007790 0.000000 0.005761 0.000000
# 2 -0.002568 0.009526 -0.003076 0.000000 -0.002592 0.000000
# 3 -0.007790 -0.003076 0.019408 0.000000 -0.000826 0.000000
# 4 0.000000 0.000000 0.000000 0.036495 0.000000 -0.009399
# 5 0.005761 -0.002592 -0.000826 0.000000 0.027313 0.000000
# 6 0.000000 0.000000 0.000000 -0.009399 0.000000 0.098595
#
#
# Mechanical properties :
#
#
# Convention : Reuss Voigt Hill
#
# Bulk Modulus (GPa) = 34.15025 39.85084 37.00054
# Shear Modulus (GPa) = 19.59398 26.57553 23.08476
#
# Velocity S-wave (km/s) = 3.16472 3.68566 3.43508
# Velocity P-wave (km/s) = 5.55067 6.20338 5.88608
#
# Compressibility (1/GPa) = 0.02928236
#
# Stress axis : x y z
#
# Youngs Moduli (GPa) = 36.74453 104.97155 51.52398
#
# Poissons Ratio (x) = 0.26954 0.40139
# Poissons Ratio (y) = 0.09435 0.15846
# Poissons Ratio (z) = 0.28625 0.32285
#
# Static dielectric constant tensor:
#      x y z
#    x 1.694150 0.000000 -0.025690 
#    y 0.000000 1.678540 0.000000 
#    z -0.025690 0.000000 1.700690 
# 
# From -- ./inp_files/65128.got.cif
#   From: 2010.05.17/outbox.cif.g08.bks.cpg/sg10_33_cif.got.tgz:65128.got - 2010.06.03 11:33:40.
