data_PCOD9144248
_publ_section_title
;
Structure prediction by ZEFSAII (Michael W. Deem and Ramdas Pophale) SiO2 
 PCOD9144248
Probable space group: P 2/M
;
_chemical_formula_sum "Si O2"
_cell_formula_units_Z 32
_cell_length_a 29.081101
_cell_length_b 9.179213
_cell_length_c 21.738054
_cell_angle_alpha 90.000000
_cell_angle_beta 159.236918
_cell_angle_gamma 90.000000
_cell_volume 2057.115896
_symmetry_space_group_name_H-M "P 2/M"
_symmetry_group_IT_number 10
_symmetry_cell_setting 'monoclinic'
loop_
_space_group_symop_operation_xyz
x,y,z
-x,y,-z
-x,-y,-z
x,-y,z
loop_
_atom_site_type_symbol
_atom_site_label
_atom_site_fract_x
_atom_site_fract_y
_atom_site_fract_z
Si Si1 0.773855 0.174161 0.564704
Si Si2 0.490920 0.323099 0.723593
Si Si3 0.587778 0.332834 0.973111
Si Si4 0.653156 0.832696 0.172731
Si Si5 0.281540 0.667603 0.626703
Si Si6 0.973757 0.825582 0.037707
Si Si7 0.710327 0.323888 0.748459
Si Si8 0.465487 0.676399 0.359768
O O1 0.647741 0.249229 0.437153
O O2 0.785720 0.240035 0.511083
O O3 0.754915 0.000000 0.537928
O O4 0.900227 0.205843 0.763400
O O5 0.475183 0.500000 0.705714
O O6 0.584524 0.285004 0.897937
O O7 0.541153 0.278448 0.719343
O O8 0.632537 0.500000 0.033583
O O9 0.435052 0.331961 0.801006
O O10 0.659861 0.234869 0.113156
O O11 0.726013 0.739395 0.315692
O O12 0.694665 0.000000 0.225904
O O13 0.500000 0.829352 0.000000
O O14 0.238653 0.500000 0.573000
O O15 0.847001 0.746867 0.904737
O O16 0.952945 0.000000 0.012427
O O17 0.000000 0.781600 0.000000
O O18 0.720769 0.500000 0.760926
O O19 0.648806 0.277760 0.737061
O O20 0.602368 0.281854 0.562292
O O21 0.463572 0.500000 0.357919
#
# Coordination Sequence:
#
# PCOD9144248 Si02
#       8
#     4   4   4   4   4   4   4   4
#     4  10  19  29  41  59  85 114 145 180 214 251
#     4   9  16  27  43  61  85 115 144 175 214 258
#     4   8  14  22  33  52  77 107 139 169 203 246
#     4   9  15  22  34  52  76 107 139 171 206 244
#     4   9  16  26  39  54  76 107 142 176 209 250
#     4  10  21  34  45  61  89 119 144 176 217 255
#     4   9  17  30  49  68  85 109 144 182 216 255
#     4   8  15  29  47  67  88 109 138 180 223 254
#
# _framework density 15.555759999999999
#
# number of rings (size 3 to 8) (size 9 to 14) (size 15 to 20)
#    0.000    3.000    0.000    3.375    0.000    5.750 
#    0.000    1.875    0.000    0.000    0.000    0.000 
#    0.000    1.000    0.000   11.500    0.000    5.250 
#
# Total GULP energy -178187.946673 kJ/mol
# GULP energy per Si atom -5568.373334 kJ/mol
# Density = 1.552035 g / cm^3
# Si number density = 15.555760 Si / 1000 Ang^3
#
#
#
# Elastic Constant Matrix: (Units=GPa)
#
#
# Indices 1 2 3 4 5 6 
#
# 1 124.3364 41.1617 58.5215 0.0000 -33.5733 0.0000
# 2 41.1617 47.6335 36.2108 0.0000 -15.2423 0.0000
# 3 58.5215 36.2108 62.2722 0.0000 -20.8195 0.0000
# 4 0.0000 0.0000 0.0000 18.0735 0.0000 -7.9478
# 5 -33.5733 -15.2423 -20.8195 0.0000 29.1866 0.0000
# 6 0.0000 0.0000 0.0000 -7.9478 0.0000 14.2299
#
#
#
# Elastic Compliance Matrix: (Units=1/GPa)
#
#
# Indices 1 2 3 4 5 6 
#
# 1 0.016808 -0.003316 -0.010483 0.000000 0.010125 0.000000
# 2 -0.003316 0.038917 -0.018377 0.000000 0.003401 0.000000
# 3 -0.010483 -0.018377 0.038549 0.000000 0.005843 0.000000
# 4 0.000000 0.000000 0.000000 0.073344 0.000000 0.040965
# 5 0.010125 0.003401 0.005843 0.000000 0.051854 0.000000
# 6 0.000000 0.000000 0.000000 0.040965 0.000000 0.093155
#
#
# Mechanical properties :
#
#
# Convention : Reuss Voigt Hill
#
# Bulk Modulus (GPa) = 33.41774 56.22560 44.82167
# Shear Modulus (GPa) = 12.92148 18.85454 15.88801
#
# Velocity S-wave (km/s) = 2.88524 3.48524 3.19934
# Velocity P-wave (km/s) = 5.71215 7.24009 6.52103
#
# Compressibility (1/GPa) = 0.02992422
#
# Stress axis : x y z
#
# Youngs Moduli (GPa) = 59.49435 25.69553 25.94084
#
# Poissons Ratio (x) = 0.08520 0.27193
# Poissons Ratio (y) = 0.19727 0.47671
# Poissons Ratio (z) = 0.62366 0.47221
#
# Static dielectric constant tensor:
#      x y z
#    x 1.528940 0.000000 -0.028140 
#    y 0.000000 1.520940 0.000000 
#    z -0.028140 0.000000 1.496670 
# 
# From -- ./inp_files/56450.got.cif
#   From: 2010.05.17/outbox.cif.g08.bks.cpg/sg10_29_cif.got.tgz:56450.got - 2010.06.03 11:33:40.
