data_PCOD9144143
_publ_section_title
;
Structure prediction by ZEFSAII (Michael W. Deem and Ramdas Pophale) SiO2 
 PCOD9144143
Probable space group: P 2/M
;
_chemical_formula_sum "Si O2"
_cell_formula_units_Z 30
_cell_length_a 14.216681
_cell_length_b 17.286970
_cell_length_c 18.452464
_cell_angle_alpha 90.000000
_cell_angle_beta 19.475045
_cell_angle_gamma 90.000000
_cell_volume 1511.931764
_symmetry_space_group_name_H-M "P 2/M"
_symmetry_group_IT_number 10
_symmetry_cell_setting 'monoclinic'
loop_
_space_group_symop_operation_xyz
x,y,z
-x,y,-z
-x,-y,-z
x,-y,z
loop_
_atom_site_type_symbol
_atom_site_label
_atom_site_fract_x
_atom_site_fract_y
_atom_site_fract_z
Si Si1 0.329113 0.411380 0.335026
Si Si2 0.420795 0.087669 0.283141
Si Si3 0.066688 0.187436 0.031243
Si Si4 0.493961 0.313911 0.342853
Si Si5 0.711834 0.656298 0.783456
Si Si6 0.356608 0.916343 0.026474
Si Si7 0.500000 0.736011 0.500000
Si Si8 0.986742 0.793083 0.661298
O O1 0.383741 0.500000 0.276479
O O2 0.468625 0.388696 0.310135
O O3 0.412294 0.356028 0.206764
O O4 0.993856 0.395159 0.584123
O O5 0.167213 0.138773 0.495460
O O6 0.414280 0.000000 0.315681
O O7 0.717129 0.129371 0.087028
O O8 0.411453 0.085882 0.203639
O O9 0.783043 0.211286 0.281179
O O10 0.247715 0.263840 0.877551
O O11 0.000000 0.152855 0.000000
O O12 0.500722 0.314596 0.425284
O O13 0.208931 0.266785 0.532282
O O14 0.804160 0.743946 0.736464
O O15 0.500000 0.632185 0.000000
O O16 0.184145 0.837014 0.152371
O O17 0.204059 0.000000 0.127043
O O18 0.500000 0.917635 0.000000
#
# Coordination Sequence:
#
# PCOD9144143 Si02
#       8
#     4   4   4   4   4   4   2   4
#     4  10  22  39  57  85 119 143 174 220 268 323
#     4  10  21  36  53  75 107 145 182 225 278 326
#     4   9  19  35  56  81 104 134 180 229 274 324
#     4   9  20  34  55  81 105 140 180 221 268 323
#     4  10  21  35  56  84 112 148 185 222 266 317
#     4  10  21  33  46  70 104 142 182 223 266 314
#     4  10  18  36  58  78 108 140 180 228 274 322
#     4  10  20  34  53  77 105 140 184 227 267 313
#
# _framework density 19.842165000000001
#
# number of rings (size 3 to 8) (size 9 to 14) (size 15 to 20)
#    0.000    2.267    0.000    2.400    0.000   13.600 
#    0.000    2.667    0.000    3.600    0.000    0.000 
#    0.000    0.000    0.000    0.000    0.000    0.000 
#
# Total GULP energy -167193.539526 kJ/mol
# GULP energy per Si atom -5573.117984 kJ/mol
# Density = 1.979700 g / cm^3
# Si number density = 19.842165 Si / 1000 Ang^3
#
#
#
# Elastic Constant Matrix: (Units=GPa)
#
#
# Indices 1 2 3 4 5 6 
#
# 1 94.6614 28.0566 16.6567 0.0000 21.4158 0.0000
# 2 28.0566 80.4092 14.2895 0.0000 4.6293 0.0000
# 3 16.6567 14.2895 72.7520 0.0000 17.4092 0.0000
# 4 0.0000 0.0000 0.0000 15.4091 0.0000 8.0957
# 5 21.4158 4.6293 17.4092 0.0000 24.8761 0.0000
# 6 0.0000 0.0000 0.0000 8.0957 0.0000 17.8852
#
#
#
# Elastic Compliance Matrix: (Units=1/GPa)
#
#
# Indices 1 2 3 4 5 6 
#
# 1 0.014515 -0.004450 0.000412 0.000000 -0.011956 0.000000
# 2 -0.004450 0.014262 -0.002479 0.000000 0.002912 0.000000
# 3 0.000412 -0.002479 0.016951 0.000000 -0.011756 0.000000
# 4 0.000000 0.000000 0.000000 0.085145 0.000000 -0.038541
# 5 -0.011956 0.002912 -0.011756 0.000000 0.058178 0.000000
# 6 0.000000 0.000000 0.000000 -0.038541 0.000000 0.073357
#
#
# Mechanical properties :
#
#
# Convention : Reuss Voigt Hill
#
# Bulk Modulus (GPa) = 30.58640 40.64759 35.61699
# Shear Modulus (GPa) = 17.46172 24.22208 20.84190
#
# Velocity S-wave (km/s) = 2.96975 3.49770 3.24448
# Velocity P-wave (km/s) = 5.21608 6.06974 5.65903
#
# Compressibility (1/GPa) = 0.03269427
#
# Stress axis : x y z
#
# Youngs Moduli (GPa) = 68.89319 70.11693 58.99284
#
# Poissons Ratio (x) = 0.31199 -0.02429
# Poissons Ratio (y) = 0.30654 0.14626
# Poissons Ratio (z) = -0.02837 0.17384
#
# Static dielectric constant tensor:
#      x y z
#    x 1.771250 0.000000 -0.014940 
#    y 0.000000 1.720510 0.000000 
#    z -0.014940 0.000000 1.708310 
# 
# From -- ./inp_files/78372.got.cif
#   From: 2010.05.17/outbox.cif.g08.bks.cpg/sg10_40_cif.got.tgz:78372.got - 2010.06.03 11:33:40.
