data_PCOD9144530
_publ_section_title
;
Structure prediction by ZEFSAII (Michael W. Deem and Ramdas Pophale) SiO2 
 PCOD9144530
Probable space group: P 2/M
;
_chemical_formula_sum "Si O2"
_cell_formula_units_Z 32
_cell_length_a 10.809384
_cell_length_b 7.692960
_cell_length_c 17.793505
_cell_angle_alpha 90.000000
_cell_angle_beta 55.878245
_cell_angle_gamma 90.000000
_cell_volume 1224.915738
_symmetry_space_group_name_H-M "P 2/M"
_symmetry_group_IT_number 10
_symmetry_cell_setting 'monoclinic'
loop_
_space_group_symop_operation_xyz
x,y,z
-x,y,-z
-x,-y,-z
x,-y,z
loop_
_atom_site_type_symbol
_atom_site_label
_atom_site_fract_x
_atom_site_fract_y
_atom_site_fract_z
Si Si1 0.824312 0.203376 0.546363
Si Si2 0.456024 0.698134 0.743393
Si Si3 0.581952 0.286232 0.396882
Si Si4 0.804366 0.297310 0.720475
Si Si5 0.867863 0.791478 0.137125
Si Si6 0.810741 0.792044 0.977384
Si Si7 0.129724 0.701031 0.632569
Si Si8 0.511181 0.803294 0.889946
O O1 0.756164 0.236964 0.652935
O O2 0.798826 0.297855 0.475715
O O3 0.000000 0.248712 0.500000
O O4 0.814276 0.000000 0.534382
O O5 0.506746 0.500000 0.740360
O O6 0.507424 0.773702 0.646445
O O7 0.278340 0.693969 0.785395
O O8 0.470319 0.801923 0.815008
O O9 0.500000 0.233165 0.500000
O O10 0.579680 0.500000 0.394367
O O11 0.749914 0.218633 0.352840
O O12 0.829408 0.500000 0.702453
O O13 0.677349 0.273318 0.827010
O O14 0.964858 0.216729 0.686029
O O15 0.847537 0.767657 0.053446
O O16 0.857557 0.000000 0.152826
O O17 0.030990 0.730388 0.110947
O O18 0.640517 0.724638 0.021292
O O19 0.801724 0.000000 0.967382
O O20 0.113892 0.500000 0.660652
O O21 0.527597 0.000000 0.909973
#
# Coordination Sequence:
#
# PCOD9144530 Si02
#       8
#     4   4   4   4   4   4   4   4
#     4   9  17  29  45  66  90 115 146 187 233 276
#     4  10  19  30  46  71  97 123 158 196 233 274
#     4   9  19  34  50  67  90 124 162 197 232 271
#     4  10  19  30  46  69  93 119 153 191 233 281
#     4   8  13  26  46  64  89 124 157 185 223 278
#     4   7  12  24  43  65  89 123 156 180 219 281
#     4   9  18  33  51  67  86 119 160 196 231 275
#     4  10  19  31  47  69  99 127 153 187 233 282
#
# _framework density 26.124244999999998
#
# number of rings (size 3 to 8) (size 9 to 14) (size 15 to 20)
#    0.000    3.000    0.000    3.000    1.750    2.000 
#    0.000    6.875    0.000    1.875    0.000    0.875 
#    0.000    7.000    0.000    0.000    0.000    0.000 
#
# Total GULP energy -178469.396688 kJ/mol
# GULP energy per Si atom -5577.168647 kJ/mol
# Density = 2.606479 g / cm^3
# Si number density = 26.124245 Si / 1000 Ang^3
#
#
#
# Elastic Constant Matrix: (Units=GPa)
#
#
# Indices 1 2 3 4 5 6 
#
# 1 105.4011 4.3019 23.2430 0.0000 -7.3682 0.0000
# 2 4.3019 50.3670 -6.5896 0.0000 10.7592 0.0000
# 3 23.2430 -6.5896 71.2230 0.0000 -6.4607 0.0000
# 4 0.0000 0.0000 0.0000 10.0605 0.0000 -19.2044
# 5 -7.3682 10.7592 -6.4607 0.0000 54.2291 0.0000
# 6 0.0000 0.0000 0.0000 -19.2044 0.0000 1.1518
#
#
#
# Elastic Compliance Matrix: (Units=1/GPa)
#
#
# Indices 1 2 3 4 5 6 
#
# 1 0.010401 -0.001620 -0.003424 0.000000 0.001327 0.000000
# 2 -0.001620 0.021159 0.002108 0.000000 -0.004167 0.000000
# 3 -0.003424 0.002108 0.015440 0.000000 0.000956 0.000000
# 4 0.000000 0.000000 0.000000 -0.003224 0.000000 -0.053760
# 5 0.001327 -0.004167 0.000956 0.000000 0.019561 0.000000
# 6 0.000000 0.000000 0.000000 -0.053760 0.000000 -0.028163
#
#
# Mechanical properties :
#
#
# Convention : Reuss Voigt Hill
#
# Bulk Modulus (GPa) = 24.31401 29.87798 27.09599
# Shear Modulus (GPa) = 91.31783 26.82398 59.07091
#
# Velocity S-wave (km/s) = 5.91871 3.20782 4.76032
# Velocity P-wave (km/s) = 7.48568 5.01816 6.37249
#
# Compressibility (1/GPa) = 0.04112855
#
# Stress axis : x y z
#
# Youngs Moduli (GPa) = 96.14022 47.26228 64.76867
#
# Poissons Ratio (x) = 0.07655 0.22176
# Poissons Ratio (y) = 0.15573 -0.13655
# Poissons Ratio (z) = 0.32918 -0.09964
#
# Static dielectric constant tensor:
#      x y z
#    x 2.147510 0.000000 -0.081660 
#    y 0.000000 1.908200 0.000000 
#    z -0.081660 0.000000 2.302550 
# 
# From -- ./inp_files/88525.got.cif
#   From: 2010.05.17/outbox.cif.g08.bks.cpg/sg10_45_cif.got.tgz:88525.got - 2010.06.03 11:33:40.
