data_PCOD9144618
_publ_section_title
;
Structure prediction by ZEFSAII (Michael W. Deem and Ramdas Pophale) SiO2 
 PCOD9144618
Probable space group: P 2/M
;
_chemical_formula_sum "Si O2"
_cell_formula_units_Z 28
_cell_length_a 5.179858
_cell_length_b 23.790587
_cell_length_c 13.657222
_cell_angle_alpha 90.000000
_cell_angle_beta 78.254249
_cell_angle_gamma 90.000000
_cell_volume 1647.763742
_symmetry_space_group_name_H-M "P 2/M"
_symmetry_group_IT_number 10
_symmetry_cell_setting 'monoclinic'
loop_
_space_group_symop_operation_xyz
x,y,z
-x,y,-z
-x,-y,-z
x,-y,z
loop_
_atom_site_type_symbol
_atom_site_label
_atom_site_fract_x
_atom_site_fract_y
_atom_site_fract_z
Si Si1 0.651229 0.382654 0.884056
Si Si2 0.193463 0.433345 0.788861
Si Si3 0.210918 0.265646 0.068934
Si Si4 0.784452 0.431650 0.439127
Si Si5 0.624069 0.931787 0.388436
Si Si6 0.208742 0.138932 0.069570
Si Si7 0.190255 0.932225 0.266208
O O1 0.434980 0.401394 0.821734
O O2 0.760769 0.319034 0.862822
O O3 0.912129 0.420824 0.860560
O O4 0.500000 0.385633 0.000000
O O5 0.249372 0.500000 0.788766
O O6 0.169783 0.415778 0.676901
O O7 0.149174 0.202936 0.110312
O O8 0.500000 0.260470 0.000000
O O9 0.000000 0.279592 0.000000
O O10 0.500000 0.414102 0.500000
O O11 0.791419 0.500000 0.439573
O O12 0.000000 0.411651 0.500000
O O13 0.500000 0.911494 0.500000
O O14 0.442409 0.915133 0.311004
O O15 0.925752 0.916391 0.345785
O O16 0.616861 0.000000 0.392672
O O17 0.189189 0.096884 0.161332
O O18 0.500000 0.136436 0.000000
O O19 0.000000 0.126276 0.000000
O O20 0.192515 0.000000 0.255068
#
# Coordination Sequence:
#
# PCOD9144618 Si02
#       7
#     4   4   4   4   4   4   4
#     4  11  21  34  50  70 100 133 163 196 233 282
#     4  11  22  33  49  76 103 128 159 192 241 300
#     4   9  18  34  52  68  89 125 173 210 230 263
#     4   9  17  31  49  68  93 123 156 195 231 269
#     4   9  17  30  47  68  97 131 167 205 239 280
#     4  10  20  33  50  72  99 129 163 202 239 283
#     4  10  19  30  47  74 103 130 161 196 247 303
#
# _framework density 16.992726000000001
#
# number of rings (size 3 to 8) (size 9 to 14) (size 15 to 20)
#    0.000    2.143    0.000    4.714    0.000    6.286 
#    0.000    0.000    0.000    0.000    0.000   10.000 
#    0.000    0.000    0.000    0.000    0.000    0.000 
#
# Total GULP energy -156089.017302 kJ/mol
# GULP energy per Si atom -5574.607761 kJ/mol
# Density = 1.695405 g / cm^3
# Si number density = 16.992726 Si / 1000 Ang^3
#
#
#
# Elastic Constant Matrix: (Units=GPa)
#
#
# Indices 1 2 3 4 5 6 
#
# 1 99.6267 9.9554 10.7584 0.0000 13.5639 0.0000
# 2 9.9554 42.0987 25.9810 0.0000 8.5108 0.0000
# 3 10.7584 25.9810 60.4206 0.0000 6.7550 0.0000
# 4 0.0000 0.0000 0.0000 -4.7112 0.0000 2.9038
# 5 13.5639 8.5108 6.7550 0.0000 29.4018 0.0000
# 6 0.0000 0.0000 0.0000 2.9038 0.0000 15.1068
#
#
#
# Elastic Compliance Matrix: (Units=1/GPa)
#
#
# Indices 1 2 3 4 5 6 
#
# 1 0.010859 -0.001059 -0.000977 0.000000 -0.004478 0.000000
# 2 -0.001059 0.033627 -0.013586 0.000000 -0.006124 0.000000
# 3 -0.000977 -0.013586 0.022659 0.000000 -0.000822 0.000000
# 4 0.000000 0.000000 0.000000 -0.189777 0.000000 0.036478
# 5 -0.004478 -0.006124 -0.000822 0.000000 0.038039 0.000000
# 6 0.000000 0.000000 0.000000 0.036478 0.000000 0.059184
#
#
# Mechanical properties :
#
#
# Convention : Reuss Voigt Hill
#
# Bulk Modulus (GPa) = 27.85655 32.83730 30.34693
# Shear Modulus (GPa) = 280.86843 18.32289 149.59566
#
# Velocity S-wave (km/s) = 12.87036 3.28728 9.39288
# Velocity P-wave (km/s) = 15.40424 5.81159 11.64184
#
# Compressibility (1/GPa) = 0.03589819
#
# Stress axis : x y z
#
# Youngs Moduli (GPa) = 92.09328 29.73803 44.13305
#
# Poissons Ratio (x) = 0.03150 0.04313
# Poissons Ratio (y) = 0.09756 0.59961
# Poissons Ratio (z) = 0.09000 0.40403
#
# Static dielectric constant tensor:
#      x y z
#    x 1.567870 0.000000 -0.001770 
#    y 0.000000 1.590220 0.000000 
#    z -0.001770 0.000000 1.558920 
# 
# From -- ./inp_files/39871.got.cif
#   From: 2010.05.17/outbox.cif.g08.bks.cpg/sg10_20_cif.got.tgz:39871.got - 2010.06.03 11:33:40.
