data_PCOD9144358
_publ_section_title
;
Structure prediction by ZEFSAII (Michael W. Deem and Ramdas Pophale) SiO2 
 PCOD9144358
Probable space group: P 2/M
;
_chemical_formula_sum "Si O2"
_cell_formula_units_Z 32
_cell_length_a 24.423134
_cell_length_b 8.919871
_cell_length_c 12.507517
_cell_angle_alpha 90.000000
_cell_angle_beta 46.314257
_cell_angle_gamma 90.000000
_cell_volume 1970.393083
_symmetry_space_group_name_H-M "P 2/M"
_symmetry_group_IT_number 10
_symmetry_cell_setting 'monoclinic'
loop_
_space_group_symop_operation_xyz
x,y,z
-x,y,-z
-x,-y,-z
x,-y,z
loop_
_atom_site_type_symbol
_atom_site_label
_atom_site_fract_x
_atom_site_fract_y
_atom_site_fract_z
Si Si1 0.410497 0.821854 0.946977
Si Si2 0.317321 0.178142 0.291487
Si Si3 0.580665 0.822192 0.450090
Si Si4 0.841247 0.818690 0.587949
Si Si5 0.007093 0.173412 0.360718
Si Si6 0.323162 0.679693 0.863701
Si Si7 0.429968 0.678330 0.302379
Si Si8 0.161314 0.678119 0.173400
O O1 0.370126 0.743007 0.901255
O O2 0.493917 0.754008 0.846755
O O3 0.415903 0.000000 0.918910
O O4 0.361366 0.799322 0.119935
O O5 0.230078 0.221021 0.388862
O O6 0.359718 0.269738 0.325192
O O7 0.320963 0.000000 0.310896
O O8 0.500000 0.799740 0.500000
O O9 0.643947 0.755526 0.286456
O O10 0.579118 0.739447 0.565300
O O11 0.590957 0.000000 0.451915
O O12 0.924484 0.772348 0.434302
O O13 0.829538 0.752608 0.722121
O O14 0.842795 0.000000 0.596377
O O15 0.000000 0.177729 0.500000
O O16 0.081983 0.264937 0.232357
O O17 0.017615 0.000000 0.315723
O O18 0.332314 0.500000 0.846168
O O19 0.235116 0.714937 0.004272
O O20 0.437986 0.500000 0.291426
O O21 0.158253 0.500000 0.191660
#
# Coordination Sequence:
#
# PCOD9144358 Si02
#       8
#     4   4   4   4   4   4   4   4
#     4  11  21  35  55  76 101 138 178 213 252 301
#     4  10  21  36  54  75 104 139 178 216 250 300
#     4  11  23  39  59  77  96 130 176 218 257 307
#     4   9  17  31  49  71 100 138 175 209 248 294
#     4   8  15  27  45  68  98 135 173 206 244 297
#     4  11  22  34  52  78 106 136 170 213 262 307
#     4  12  25  38  54  75 104 136 170 216 263 308
#     4  10  19  29  45  73 107 136 166 206 254 307
#
# _framework density 16.240414000000001
#
# number of rings (size 3 to 8) (size 9 to 14) (size 15 to 20)
#    0.000    1.750    2.500    3.750    0.000    7.250 
#    0.000    0.000    0.000    0.000    0.000    0.875 
#    0.000    7.000    0.000    0.000    0.000    0.000 
#
# Total GULP energy -178625.724003 kJ/mol
# GULP energy per Si atom -5582.053875 kJ/mol
# Density = 1.620345 g / cm^3
# Si number density = 16.240414 Si / 1000 Ang^3
#
#
#
# Elastic Constant Matrix: (Units=GPa)
#
#
# Indices 1 2 3 4 5 6 
#
# 1 103.4047 39.1868 42.2392 0.0000 -28.6763 0.0000
# 2 39.1868 51.0238 31.2421 0.0000 -12.0610 0.0000
# 3 42.2392 31.2421 49.5232 0.0000 -23.5615 0.0000
# 4 0.0000 0.0000 0.0000 23.8807 0.0000 -5.8812
# 5 -28.6763 -12.0610 -23.5615 0.0000 29.8881 0.0000
# 6 0.0000 0.0000 0.0000 -5.8812 0.0000 -3.6851
#
#
#
# Elastic Compliance Matrix: (Units=1/GPa)
#
#
# Indices 1 2 3 4 5 6 
#
# 1 0.017468 -0.007818 -0.005591 0.000000 0.009198 0.000000
# 2 -0.007818 0.035868 -0.020229 0.000000 -0.008974 0.000000
# 3 -0.005591 -0.020229 0.050064 0.000000 0.025939 0.000000
# 4 0.000000 0.000000 0.000000 0.030060 0.000000 -0.047974
# 5 0.009198 -0.008974 0.025939 0.000000 0.059110 0.000000
# 6 0.000000 0.000000 0.000000 -0.047974 0.000000 -0.194801
#
#
# Mechanical properties :
#
#
# Convention : Reuss Voigt Hill
#
# Bulk Modulus (GPa) = 27.68249 47.69866 37.69057
# Shear Modulus (GPa) = 64.86301 16.10233 40.48267
#
# Velocity S-wave (km/s) = 6.32661 3.15222 4.99812
# Velocity P-wave (km/s) = 8.39347 6.53321 7.52108
#
# Compressibility (1/GPa) = 0.03612391
#
# Stress axis : x y z
#
# Youngs Moduli (GPa) = 57.24785 27.87980 19.97462
#
# Poissons Ratio (x) = 0.21797 0.11167
# Poissons Ratio (y) = 0.44758 0.40407
# Poissons Ratio (z) = 0.32005 0.56398
#
# Static dielectric constant tensor:
#      x y z
#    x 1.548510 0.000000 -0.030300 
#    y 0.000000 1.540250 0.000000 
#    z -0.030300 0.000000 1.530190 
# 
# From -- ./inp_files/56409.got.cif
#   From: 2010.05.17/outbox.cif.g08.bks.cpg/sg10_29_cif.got.tgz:56409.got - 2010.06.03 11:33:40.
