data_PCOD9144056
_publ_section_title
;
Structure prediction by ZEFSAII (Michael W. Deem and Ramdas Pophale) SiO2 
 PCOD9144056
Probable space group: P 2/M
;
_chemical_formula_sum "Si O2"
_cell_formula_units_Z 28
_cell_length_a 9.874983
_cell_length_b 8.662358
_cell_length_c 28.271839
_cell_angle_alpha 90.000000
_cell_angle_beta 141.128818
_cell_angle_gamma 90.000000
_cell_volume 1517.713470
_symmetry_space_group_name_H-M "P 2/M"
_symmetry_group_IT_number 10
_symmetry_cell_setting 'monoclinic'
loop_
_space_group_symop_operation_xyz
x,y,z
-x,y,-z
-x,-y,-z
x,-y,z
loop_
_atom_site_type_symbol
_atom_site_label
_atom_site_fract_x
_atom_site_fract_y
_atom_site_fract_z
Si Si1 0.146722 0.685484 0.634849
Si Si2 0.741343 0.817665 0.055339
Si Si3 0.558190 0.815017 0.367949
Si Si4 0.175747 0.315512 0.204468
Si Si5 0.465289 0.687208 0.194251
Si Si6 0.667894 0.813406 0.504974
Si Si7 0.765870 0.320550 0.960503
O O1 0.144883 0.500000 0.632375
O O2 0.258798 0.746380 0.617153
O O3 0.307075 0.733774 0.721205
O O4 0.907702 0.748367 0.576932
O O5 0.929519 0.737176 0.136420
O O6 0.752178 0.000000 0.067079
O O7 0.500000 0.761464 0.000000
O O8 0.776780 0.779643 0.010129
O O9 0.328547 0.757924 0.285653
O O10 0.592788 0.768248 0.431713
O O11 0.569593 0.000000 0.368103
O O12 0.189737 0.500000 0.211644
O O13 0.284780 0.268177 0.183888
O O14 0.460729 0.500000 0.191063
O O15 0.401776 0.738834 0.124657
O O16 0.500000 0.763398 0.500000
O O17 0.678267 0.000000 0.509172
O O18 0.716277 0.500000 0.959480
O O19 0.000000 0.321562 0.000000
#
# Coordination Sequence:
#
# PCOD9144056 Si02
#       7
#     4   4   4   4   4   4   4
#     4  10  20  35  58  86 116 146 186 235 278 328
#     4  11  24  39  53  78 117 154 190 231 276 330
#     4  10  20  36  60  86 112 145 185 230 280 332
#     4  10  19  36  60  84 111 144 186 232 281 333
#     4   8  16  32  54  83 112 137 174 231 284 324
#     4  10  22  40  58  79 113 154 189 225 279 341
#     4  10  18  34  60  83 108 145 189 234 280 327
#
# _framework density 18.448803999999999
#
# number of rings (size 3 to 8) (size 9 to 14) (size 15 to 20)
#    0.000    2.143    1.429    3.000    0.000    4.571 
#    2.571    1.429    0.000    0.000    0.000    0.000 
#    0.000    0.000    0.000    0.000    0.000    0.000 
#
# Total GULP energy -156252.251985 kJ/mol
# GULP energy per Si atom -5580.437571 kJ/mol
# Density = 1.840681 g / cm^3
# Si number density = 18.448804 Si / 1000 Ang^3
#
#
#
# Elastic Constant Matrix: (Units=GPa)
#
#
# Indices 1 2 3 4 5 6 
#
# 1 76.9680 17.3637 66.8728 0.0000 16.1574 0.0000
# 2 17.3637 21.1286 27.0455 0.0000 5.7788 0.0000
# 3 66.8728 27.0455 150.9990 0.0000 15.4237 0.0000
# 4 0.0000 0.0000 0.0000 34.8116 0.0000 1.6593
# 5 16.1574 5.7788 15.4237 0.0000 28.3500 0.0000
# 6 0.0000 0.0000 0.0000 1.6593 0.0000 19.7718
#
#
#
# Elastic Compliance Matrix: (Units=1/GPa)
#
#
# Indices 1 2 3 4 5 6 
#
# 1 0.023297 -0.006335 -0.008427 0.000000 -0.007402 0.000000
# 2 -0.006335 0.064439 -0.008220 0.000000 -0.005053 0.000000
# 3 -0.008427 -0.008220 0.011822 0.000000 0.000047 0.000000
# 4 0.000000 0.000000 0.000000 0.028841 0.000000 -0.002420
# 5 -0.007402 -0.005053 0.000047 0.000000 0.040497 0.000000
# 6 0.000000 0.000000 0.000000 -0.002420 0.000000 0.050780
#
#
# Mechanical properties :
#
#
# Convention : Reuss Voigt Hill
#
# Bulk Modulus (GPa) = 18.65848 52.40662 35.53255
# Shear Modulus (GPa) = 17.63641 25.77423 21.70532
#
# Velocity S-wave (km/s) = 3.09522 3.74179 3.43376
# Velocity P-wave (km/s) = 4.78638 6.86558 5.91801
#
# Compressibility (1/GPa) = 0.05359493
#
# Stress axis : x y z
#
# Youngs Moduli (GPa) = 42.92432 15.51851 84.58717
#
# Poissons Ratio (x) = 0.09830 0.71280
# Poissons Ratio (y) = 0.27190 0.69533
# Poissons Ratio (z) = 0.36172 0.12757
#
# Static dielectric constant tensor:
#      x y z
#    x 1.620900 0.000000 -0.001420 
#    y 0.000000 1.629420 0.000000 
#    z -0.001420 0.000000 1.644790 
# 
# From -- ./inp_files/37301.got.cif
#   From: 2010.05.17/outbox.cif.g08.bks.cpg/sg10_19_cif.got.tgz:37301.got - 2010.06.03 11:33:40.
