data_PCOD9144376
_publ_section_title
;
Structure prediction by ZEFSAII (Michael W. Deem and Ramdas Pophale) SiO2 
 PCOD9144376
Probable space group: P 2/M
;
_chemical_formula_sum "Si O2"
_cell_formula_units_Z 28
_cell_length_a 9.734120
_cell_length_b 14.562081
_cell_length_c 15.388757
_cell_angle_alpha 90.000000
_cell_angle_beta 43.163793
_cell_angle_gamma 90.000000
_cell_volume 1492.225923
_symmetry_space_group_name_H-M "P 2/M"
_symmetry_group_IT_number 10
_symmetry_cell_setting 'monoclinic'
loop_
_space_group_symop_operation_xyz
x,y,z
-x,y,-z
-x,-y,-z
x,-y,z
loop_
_atom_site_type_symbol
_atom_site_label
_atom_site_fract_x
_atom_site_fract_y
_atom_site_fract_z
Si Si1 0.915434 0.202104 0.324904
Si Si2 0.218683 0.237942 0.422908
Si Si3 0.532508 0.602310 0.632006
Si Si4 0.292504 0.109927 0.226647
Si Si5 0.828140 0.889447 0.200334
Si Si6 0.723210 0.110942 0.059547
Si Si7 0.170149 0.398041 0.672841
O O1 0.120475 0.145619 0.242192
O O2 0.777602 0.159525 0.313229
O O3 0.802911 0.200334 0.469339
O O4 0.961680 0.307842 0.279730
O O5 0.387727 0.316286 0.344672
O O6 0.248342 0.157631 0.339672
O O7 0.000000 0.280530 0.500000
O O8 0.541264 0.500000 0.667137
O O9 0.683154 0.601762 0.479186
O O10 0.313715 0.615361 0.690333
O O11 0.523005 0.136990 0.100819
O O12 0.281239 0.000000 0.237030
O O13 0.708143 0.863831 0.168733
O O14 0.819540 0.000000 0.213744
O O15 0.059478 0.860205 0.074534
O O16 0.732017 0.000000 0.054148
O O17 0.077912 0.500000 0.720382
#
# Coordination Sequence:
#
# PCOD9144376 Si02
#       7
#     4   4   4   4   4   4   4
#     4  10  19  29  47  73  92 125 162 192 225 279
#     4   9  19  30  42  68 100 132 157 185 229 280
#     4   8  14  27  46  65  90 122 156 195 234 275
#     4  10  20  33  46  64  98 137 160 186 231 275
#     4   9  17  31  50  72  93 116 155 203 238 272
#     4   8  17  33  49  66  92 122 154 199 246 271
#     4   8  15  28  45  67  93 119 151 197 243 271
#
# _framework density 18.763915000000001
#
# number of rings (size 3 to 8) (size 9 to 14) (size 15 to 20)
#    0.000    3.143    0.000    2.143    2.000    4.000 
#    0.000    4.286    0.000    2.571    0.000    5.000 
#    0.000    0.000    0.000    0.000    0.000    0.000 
#
# Total GULP energy -155930.493838 kJ/mol
# GULP energy per Si atom -5568.946209 kJ/mol
# Density = 1.872121 g / cm^3
# Si number density = 18.763915 Si / 1000 Ang^3
#
#
#
# Elastic Constant Matrix: (Units=GPa)
#
#
# Indices 1 2 3 4 5 6 
#
# 1 51.7281 32.0200 9.2926 0.0000 6.0921 0.0000
# 2 32.0200 90.9882 0.8585 0.0000 -4.5615 0.0000
# 3 9.2926 0.8585 9.8852 0.0000 5.2986 0.0000
# 4 0.0000 0.0000 0.0000 -2.5786 0.0000 -6.4488
# 5 6.0921 -4.5615 5.2986 0.0000 27.6446 0.0000
# 6 0.0000 0.0000 0.0000 -6.4488 0.0000 30.5070
#
#
#
# Elastic Compliance Matrix: (Units=1/GPa)
#
#
# Indices 1 2 3 4 5 6 
#
# 1 0.031300 -0.010946 -0.026534 0.000000 -0.003618 0.000000
# 2 -0.010946 0.014952 0.007106 0.000000 0.003517 0.000000
# 3 -0.026534 0.007106 0.135661 0.000000 -0.018982 0.000000
# 4 0.000000 0.000000 0.000000 -0.253691 0.000000 -0.053627
# 5 -0.003618 0.003517 -0.018982 0.000000 0.041189 0.000000
# 6 0.000000 0.000000 0.000000 -0.053627 0.000000 0.021443
#
#
# Mechanical properties :
#
#
# Convention : Reuss Voigt Hill
#
# Bulk Modulus (GPa) = 8.25316 26.32708 17.29012
# Shear Modulus (GPa) = 54.35307 18.47663 36.41485
#
# Velocity S-wave (km/s) = 5.38792 3.14138 4.41010
# Velocity P-wave (km/s) = 6.56614 5.21717 5.93014
#
# Compressibility (1/GPa) = 0.12116573
#
# Stress axis : x y z
#
# Youngs Moduli (GPa) = 31.94871 66.88170 7.37131
#
# Poissons Ratio (x) = 0.73209 0.19559
# Poissons Ratio (y) = 0.34971 -0.05238
# Poissons Ratio (z) = 0.84771 -0.47526
#
# Static dielectric constant tensor:
#      x y z
#    x 1.677360 0.000000 -0.005270 
#    y 0.000000 1.659960 0.000000 
#    z -0.005270 0.000000 1.678200 
# 
# From -- ./inp_files/28942.got.cif
#   From: 2010.05.17/outbox.cif.g08.bks.cpg/sg10_15_cif.got.tgz:28942.got - 2010.06.03 11:33:40.
