data_PCOD9144374
_publ_section_title
;
Structure prediction by ZEFSAII (Michael W. Deem and Ramdas Pophale) SiO2 
 PCOD9144374
Probable space group: P 2/M
;
_chemical_formula_sum "Si O2"
_cell_formula_units_Z 30
_cell_length_a 5.616221
_cell_length_b 16.157306
_cell_length_c 19.057747
_cell_angle_alpha 90.000000
_cell_angle_beta 128.762173
_cell_angle_gamma 90.000000
_cell_volume 1348.468809
_symmetry_space_group_name_H-M "P 2/M"
_symmetry_group_IT_number 10
_symmetry_cell_setting 'monoclinic'
loop_
_space_group_symop_operation_xyz
x,y,z
-x,y,-z
-x,-y,-z
x,-y,z
loop_
_atom_site_type_symbol
_atom_site_label
_atom_site_fract_x
_atom_site_fract_y
_atom_site_fract_z
Si Si1 0.513129 0.908617 0.379783
Si Si2 0.676616 0.272323 0.159289
Si Si3 0.130802 0.675633 0.137320
Si Si4 0.793377 0.752550 0.519485
Si Si5 0.861154 0.500000 0.052344
Si Si6 0.589779 0.403874 0.326398
Si Si7 0.149521 0.144330 0.696602
Si Si8 0.924921 0.405347 0.679861
O O1 0.664649 0.835303 0.453826
O O2 0.621351 0.897501 0.318144
O O3 0.149216 0.902999 0.328154
O O4 0.617470 0.000000 0.422208
O O5 0.322957 0.300328 0.102747
O O6 0.697357 0.188783 0.208777
O O7 0.880208 0.343484 0.235694
O O8 0.860627 0.267182 0.119445
O O9 0.403717 0.662182 0.244752
O O10 0.985654 0.585349 0.105658
O O11 0.500000 0.713965 0.500000
O O12 0.000000 0.710146 0.500000
O O13 0.000326 0.784544 0.620979
O O14 0.500000 0.500000 0.000000
O O15 0.000000 0.500000 0.000000
O O16 0.520851 0.500000 0.292703
O O17 0.942515 0.395832 0.373115
O O18 0.430275 0.394263 0.371187
O O19 0.996873 0.500000 0.714866
#
# Coordination Sequence:
#
# PCOD9144374 Si02
#       8
#     4   4   4   4   2   4   4   4
#     4  10  19  31  48  67  96 136 171 208 248 293
#     4  10  19  29  47  65  92 128 158 207 258 290
#     4  10  19  32  47  64  91 128 160 197 255 282
#     4   8  16  27  42  62  90 123 156 206 244 284
#     4  12  24  36  52  76 102 132 176 216 242 282
#     4   8  12  21  35  52  70  97 134 169 211 258
#     4  10  19  30  43  69  97 121 171 212 243 303
#     4   8  14  21  35  54  74 100 135 177 224 272
#
# _framework density 22.247454999999999
#
# number of rings (size 3 to 8) (size 9 to 14) (size 15 to 20)
#    0.000    2.667    0.667    2.000    1.867    4.800 
#    0.000    0.000    0.000    0.000    0.000    0.000 
#    0.000    9.600    0.000    0.533    0.000  168.000 
#
# Total GULP energy -167145.973918 kJ/mol
# GULP energy per Si atom -5571.532464 kJ/mol
# Density = 2.219682 g / cm^3
# Si number density = 22.247455 Si / 1000 Ang^3
#
#
#
# Elastic Constant Matrix: (Units=GPa)
#
#
# Indices 1 2 3 4 5 6 
#
# 1 282.4513 12.0846 25.2754 0.0000 -12.5917 0.0000
# 2 12.0846 36.1112 13.0468 0.0000 3.3649 0.0000
# 3 25.2754 13.0468 15.3507 0.0000 -0.9821 0.0000
# 4 0.0000 0.0000 0.0000 9.7941 0.0000 -1.2366
# 5 -12.5917 3.3649 -0.9821 0.0000 28.2302 0.0000
# 6 0.0000 0.0000 0.0000 -1.2366 0.0000 15.7206
#
#
#
# Elastic Compliance Matrix: (Units=1/GPa)
#
#
# Indices 1 2 3 4 5 6 
#
# 1 0.004272 0.001359 -0.008095 0.000000 0.001462 0.000000
# 2 0.001359 0.041422 -0.037804 0.000000 -0.005646 0.000000
# 3 -0.008095 -0.037804 0.110907 0.000000 0.004754 0.000000
# 4 0.000000 0.000000 0.000000 0.103127 0.000000 0.008112
# 5 0.001462 -0.005646 0.004754 0.000000 0.036913 0.000000
# 6 0.000000 0.000000 0.000000 0.008112 0.000000 0.064249
#
#
# Mechanical properties :
#
#
# Convention : Reuss Voigt Hill
#
# Bulk Modulus (GPa) = 14.81038 48.30298 31.55668
# Shear Modulus (GPa) = 10.58249 29.64939 20.11594
#
# Velocity S-wave (km/s) = 2.18336 3.65459 3.01024
# Velocity P-wave (km/s) = 3.60938 6.29022 5.12808
#
# Compressibility (1/GPa) = 0.06752023
#
# Stress axis : x y z
#
# Youngs Moduli (GPa) = 234.08948 24.14164 9.01653
#
# Poissons Ratio (x) = -0.03281 0.07299
# Poissons Ratio (y) = -0.31813 0.34086
# Poissons Ratio (z) = 1.89502 0.91266
#
# Static dielectric constant tensor:
#      x y z
#    x 1.931210 0.000000 -0.019060 
#    y 0.000000 1.864860 0.000000 
#    z -0.019060 0.000000 1.845090 
# 
# From -- ./inp_files/73703.got.cif
#   From: 2010.05.17/outbox.cif.g08.bks.cpg/sg10_37_cif.got.tgz:73703.got - 2010.06.03 11:33:40.
