data_PCOD9144061
_publ_section_title
;
Structure prediction by ZEFSAII (Michael W. Deem and Ramdas Pophale) SiO2 
 PCOD9144061
Probable space group: P 2/M
;
_chemical_formula_sum "Si O2"
_cell_formula_units_Z 28
_cell_length_a 19.858307
_cell_length_b 8.623458
_cell_length_c 14.276430
_cell_angle_alpha 90.000000
_cell_angle_beta 141.117559
_cell_angle_gamma 90.000000
_cell_volume 1534.660766
_symmetry_space_group_name_H-M "P 2/M"
_symmetry_group_IT_number 10
_symmetry_cell_setting 'monoclinic'
loop_
_space_group_symop_operation_xyz
x,y,z
-x,y,-z
-x,-y,-z
x,-y,z
loop_
_atom_site_type_symbol
_atom_site_label
_atom_site_fract_x
_atom_site_fract_y
_atom_site_fract_z
Si Si1 0.427071 0.312258 0.223411
Si Si2 0.671956 0.314505 0.509628
Si Si3 0.714986 0.184448 0.761687
Si Si4 0.761997 0.687798 0.111300
Si Si5 0.096370 0.685529 0.914628
Si Si6 0.126741 0.816918 0.381355
Si Si7 0.115871 0.685604 0.577350
O O1 0.420538 0.500000 0.225070
O O2 0.550959 0.268573 0.350405
O O3 0.371441 0.240703 0.254880
O O4 0.352919 0.265772 0.054910
O O5 0.680318 0.500000 0.511086
O O6 0.691086 0.263948 0.637207
O O7 0.762378 0.237836 0.543850
O O8 0.710811 0.000000 0.747525
O O9 0.830495 0.236459 0.927101
O O10 0.763966 0.500000 0.117682
O O11 0.849374 0.730894 0.126535
O O12 0.797537 0.741351 0.252061
O O13 0.105081 0.500000 0.932823
O O14 0.973626 0.736090 0.778992
O O15 0.122985 0.767997 0.485895
O O16 0.114765 0.000000 0.359152
O O17 0.128033 0.500000 0.574895
O O18 0.000000 0.707975 0.500000
#
# Coordination Sequence:
#
# PCOD9144061 Si02
#       7
#     4   4   4   4   4   4   4
#     4   9  19  37  61  86 111 148 198 242 275 326
#     4  11  23  40  59  79 109 155 203 238 276 333
#     4  11  22  36  58  89 119 147 183 233 293 342
#     4   8  15  31  58  87 111 137 183 239 279 318
#     4  10  19  37  60  84 113 149 192 233 276 335
#     4  12  25  38  54  83 120 151 185 235 297 347
#     4  10  18  34  60  87 112 148 190 228 278 343
#
# _framework density 18.245075
#
# number of rings (size 3 to 8) (size 9 to 14) (size 15 to 20)
#    0.000    1.857    1.429    4.714    0.000    3.714 
#    0.000    4.286    0.000    4.286    0.000    0.000 
#    0.000    0.000    0.000    0.000    0.000    0.000 
#
# Total GULP energy -156377.541088 kJ/mol
# GULP energy per Si atom -5584.912182 kJ/mol
# Density = 1.820355 g / cm^3
# Si number density = 18.245075 Si / 1000 Ang^3
#
#
#
# Elastic Constant Matrix: (Units=GPa)
#
#
# Indices 1 2 3 4 5 6 
#
# 1 9.9353 -14.0764 25.8152 0.0000 36.8206 0.0000
# 2 -14.0764 14.0581 -1.5369 0.0000 14.9851 0.0000
# 3 25.8152 -1.5369 95.1163 0.0000 13.0277 0.0000
# 4 0.0000 0.0000 0.0000 131.3617 0.0000 -357.2745
# 5 36.8206 14.9851 13.0277 0.0000 4.8060 0.0000
# 6 0.0000 0.0000 0.0000 -357.2745 0.0000 1090.8636
#
#
#
# Elastic Compliance Matrix: (Units=1/GPa)
#
#
# Indices 1 2 3 4 5 6 
#
# 1 0.006184 -0.017948 -0.005000 0.000000 0.022134 0.000000
# 2 -0.017948 0.036057 0.003211 0.000000 0.016376 0.000000
# 3 -0.005000 0.003211 0.012798 0.000000 -0.006396 0.000000
# 4 0.000000 0.000000 0.000000 0.069692 0.000000 0.022825
# 5 0.022134 0.016376 -0.006396 0.000000 0.004773 0.000000
# 6 0.000000 0.000000 0.000000 0.022825 0.000000 0.008392
#
#
# Mechanical properties :
#
#
# Convention : Reuss Voigt Hill
#
# Bulk Modulus (GPa) = 64.24519 15.50151 39.87335
# Shear Modulus (GPa) = 27.38830 252.66680 140.02755
#
# Velocity S-wave (km/s) = 3.87865 11.78073 8.77011
# Velocity P-wave (km/s) = 7.43958 13.91266 11.15593
#
# Compressibility (1/GPa) = 0.01556537
#
# Stress axis : x y z
#
# Youngs Moduli (GPa) = 161.69613 27.73392 78.13424
#
# Poissons Ratio (x) = 0.49777 0.39068
# Poissons Ratio (y) = 2.90211 -0.25087
# Poissons Ratio (z) = 0.80850 -0.08905
#
# Static dielectric constant tensor:
#      x y z
#    x 1.591950 0.000000 0.001160 
#    y 0.000000 1.610380 0.000000 
#    z 0.001160 0.000000 1.641700 
# 
# From -- ./inp_files/68691.got.cif
#   From: 2010.05.17/outbox.cif.g08.bks.cpg/sg10_35_cif.got.tgz:68691.got - 2010.06.03 11:33:40.
