data_PCOD9144359
_publ_section_title
;
Structure prediction by ZEFSAII (Michael W. Deem and Ramdas Pophale) SiO2 
 PCOD9144359
Probable space group: P 2/M
;
_chemical_formula_sum "Si O2"
_cell_formula_units_Z 26
_cell_length_a 28.595622
_cell_length_b 12.796089
_cell_length_c 9.151173
_cell_angle_alpha 90.000000
_cell_angle_beta 158.558687
_cell_angle_gamma 90.000000
_cell_volume 1224.046756
_symmetry_space_group_name_H-M "P 2/M"
_symmetry_group_IT_number 10
_symmetry_cell_setting 'monoclinic'
loop_
_space_group_symop_operation_xyz
x,y,z
-x,y,-z
-x,-y,-z
x,-y,z
loop_
_atom_site_type_symbol
_atom_site_label
_atom_site_fract_x
_atom_site_fract_y
_atom_site_fract_z
Si Si1 0.734173 0.000000 0.070501
Si Si2 0.092143 0.383632 0.038513
Si Si3 0.146730 0.000000 0.878968
Si Si4 0.621011 0.156304 0.955234
Si Si5 0.846523 0.775880 0.019216
Si Si6 0.205785 0.617497 0.893352
Si Si7 0.518099 0.000000 0.877089
Si Si8 0.307330 0.384957 0.879200
O O1 0.728523 0.900951 0.165835
O O2 0.616219 0.000000 0.607682
O O3 0.847287 0.000000 0.280662
O O4 0.116574 0.500000 0.043725
O O5 0.161617 0.385295 0.395493
O O6 0.157552 0.289582 0.140702
O O7 0.940236 0.370556 0.589573
O O8 0.201791 0.106579 0.106055
O O9 0.000000 0.000000 0.500000
O O10 0.500000 0.134741 0.500000
O O11 0.595423 0.098356 0.033219
O O12 0.631524 0.280019 0.002934
O O13 0.776755 0.706233 0.937381
O O14 0.000000 0.776832 0.500000
O O15 0.215172 0.500000 0.981466
O O16 0.300319 0.625708 0.032573
O O17 0.500000 0.000000 0.000000
O O18 0.361172 0.500000 0.997246
#
# Coordination Sequence:
#
# PCOD9144359 Si02
#       8
#     2   4   2   4   4   4   2   4
#     4   9  18  35  56  74  99 133 167 208 250 287
#     4   9  17  29  44  66  97 130 167 208 242 280
#     4  10  19  29  45  74 107 134 162 196 239 295
#     4   9  19  36  55  75  99 129 168 211 253 295
#     4   9  17  28  43  64  95 133 166 199 239 283
#     4   9  16  28  47  69  93 128 172 204 232 286
#     4   9  19  36  60  82  93 117 169 222 254 284
#     4  10  19  30  48  73 100 129 158 198 253 301
#
# _framework density 21.241019999999999
#
# number of rings (size 3 to 8) (size 9 to 14) (size 15 to 20)
#    0.000    2.769    0.000    2.769    0.000    5.231 
#    0.000    0.769    0.000    0.462    0.000   11.846 
#    0.000    0.000    0.000    0.000    0.000    0.000 
#
# Total GULP energy -144827.092323 kJ/mol
# GULP energy per Si atom -5570.272782 kJ/mol
# Density = 2.119267 g / cm^3
# Si number density = 21.241020 Si / 1000 Ang^3
#
#
#
# Elastic Constant Matrix: (Units=GPa)
#
#
# Indices 1 2 3 4 5 6 
#
# 1 131.6310 82.6751 9.4135 0.0000 -9.0386 0.0000
# 2 82.6751 203.2761 -0.8359 0.0000 -3.2862 0.0000
# 3 9.4135 -0.8359 21.0636 0.0000 -6.7710 0.0000
# 4 0.0000 0.0000 0.0000 -240.2599 0.0000 -93.3268
# 5 -9.0386 -3.2862 -6.7710 0.0000 20.2400 0.0000
# 6 0.0000 0.0000 0.0000 -93.3268 0.0000 -31.7975
#
#
#
# Elastic Compliance Matrix: (Units=1/GPa)
#
#
# Indices 1 2 3 4 5 6 
#
# 1 0.010830 -0.004377 -0.004132 0.000000 0.002743 0.000000
# 2 -0.004377 0.006707 0.002178 0.000000 -0.000137 0.000000
# 3 -0.004132 0.002178 0.054825 0.000000 0.016849 0.000000
# 4 0.000000 0.000000 0.000000 0.029711 0.000000 -0.087203
# 5 0.002743 -0.000137 0.016849 0.000000 0.056247 0.000000
# 6 0.000000 0.000000 0.000000 -0.087203 0.000000 0.224495
#
#
# Mechanical properties :
#
#
# Convention : Reuss Voigt Hill
#
# Bulk Modulus (GPa) = 16.75061 59.83067 38.29064
# Shear Modulus (GPa) = 12.03728 -32.71563 -10.33917
#
# Velocity S-wave (km/s) = 2.38313 -3.92881 -2.20865
# Velocity P-wave (km/s) = 3.93389 2.76549 3.40025
#
# Compressibility (1/GPa) = 0.05969931
#
# Stress axis : x y z
#
# Youngs Moduli (GPa) = 92.33379 149.10850 18.23996
#
# Poissons Ratio (x) = 0.65272 0.07537
# Poissons Ratio (y) = 0.40419 -0.03973
# Poissons Ratio (z) = 0.38152 -0.32481
#
# Static dielectric constant tensor:
#      x y z
#    x 1.767530 0.000000 0.030180 
#    y 0.000000 1.812030 0.000000 
#    z 0.030180 0.000000 1.784250 
# 
# From -- ./inp_files/37622.got.cif
#   From: 2010.05.17/outbox.cif.g08.bks.cpg/sg10_19_cif.got.tgz:37622.got - 2010.06.03 11:33:40.
