data_PCOD9144932
_publ_section_title
;
Structure prediction by ZEFSAII (Michael W. Deem and Ramdas Pophale) SiO2 
 PCOD9144932
Probable space group: P 2/M
;
_chemical_formula_sum "Si O2"
_cell_formula_units_Z 28
_cell_length_a 15.056915
_cell_length_b 14.244584
_cell_length_c 9.464266
_cell_angle_alpha 90.000000
_cell_angle_beta 133.601195
_cell_angle_gamma 90.000000
_cell_volume 1469.960711
_symmetry_space_group_name_H-M "P 2/M"
_symmetry_group_IT_number 10
_symmetry_cell_setting 'monoclinic'
loop_
_space_group_symop_operation_xyz
x,y,z
-x,y,-z
-x,-y,-z
x,-y,z
loop_
_atom_site_type_symbol
_atom_site_label
_atom_site_fract_x
_atom_site_fract_y
_atom_site_fract_z
Si Si1 0.925534 0.892973 0.730698
Si Si2 0.352165 0.110460 0.112686
Si Si3 0.437952 0.237932 0.787624
Si Si4 0.398265 0.606874 0.509526
Si Si5 0.831965 0.809729 0.901691
Si Si6 0.231096 0.108851 0.691504
Si Si7 0.132672 0.397110 0.067889
O O1 0.855742 0.821306 0.760040
O O2 0.894842 0.879737 0.532418
O O3 0.888826 0.000000 0.727026
O O4 0.067035 0.878771 0.921340
O O5 0.469327 0.164710 0.183579
O O6 0.300951 0.156606 0.198402
O O7 0.373709 0.000000 0.152798
O O8 0.248165 0.124964 0.876410
O O9 0.409465 0.319904 0.647672
O O10 0.322103 0.178394 0.711343
O O11 0.500000 0.274878 0.000000
O O12 0.500000 0.628998 0.500000
O O13 0.425242 0.500000 0.585054
O O14 0.258136 0.606745 0.298039
O O15 0.859827 0.705953 0.992291
O O16 0.270099 0.000000 0.713939
O O17 0.138346 0.500000 0.999838
O O18 0.000000 0.396699 0.000000
#
# Coordination Sequence:
#
# PCOD9144932 Si02
#       7
#     4   4   4   4   4   4   4
#     4  10  19  31  48  73 104 138 172 215 262 313
#     4  10  20  34  52  76 106 142 179 217 263 320
#     4  10  20  34  54  78 108 142 181 220 270 318
#     4  10  21  37  58  84 111 140 181 232 277 325
#     4  11  19  32  52  77 104 135 172 225 269 315
#     4   9  19  34  51  72 104 142 180 216 258 316
#     4  10  20  35  56  82 108 141 182 223 272 329
#
# _framework density 19.048127000000001
#
# number of rings (size 3 to 8) (size 9 to 14) (size 15 to 20)
#    0.000    2.000    1.429    3.857    0.000    2.571 
#    0.000    2.143    0.000    5.143    0.000    1.000 
#    0.000    0.571    0.000    0.000    0.000    0.000 
#
# Total GULP energy -155964.180008 kJ/mol
# GULP energy per Si atom -5570.149286 kJ/mol
# Density = 1.900477 g / cm^3
# Si number density = 19.048127 Si / 1000 Ang^3
#
#
#
# Elastic Constant Matrix: (Units=GPa)
#
#
# Indices 1 2 3 4 5 6 
#
# 1 74.0929 21.1019 0.4133 0.0000 -0.8033 0.0000
# 2 21.1019 80.7611 -0.3087 0.0000 -6.2497 0.0000
# 3 0.4133 -0.3087 37.3474 0.0000 10.8263 0.0000
# 4 0.0000 0.0000 0.0000 6.0191 0.0000 1.8792
# 5 -0.8033 -6.2497 10.8263 0.0000 14.4468 0.0000
# 6 0.0000 0.0000 0.0000 1.8792 0.0000 25.8193
#
#
#
# Elastic Compliance Matrix: (Units=1/GPa)
#
#
# Indices 1 2 3 4 5 6 
#
# 1 0.014592 -0.003884 0.000074 0.000000 -0.000925 0.000000
# 2 -0.003884 0.013953 -0.001953 0.000000 0.007284 0.000000
# 3 0.000074 -0.001953 0.034496 0.000000 -0.026692 0.000000
# 4 0.000000 0.000000 0.000000 0.170000 0.000000 -0.012373
# 5 -0.000925 0.007284 -0.026692 0.000000 0.092322 0.000000
# 6 0.000000 0.000000 0.000000 -0.012373 0.000000 0.039631
#
#
# Mechanical properties :
#
#
# Convention : Reuss Voigt Hill
#
# Bulk Modulus (GPa) = 19.41136 26.06826 22.73981
# Shear Modulus (GPa) = 12.70028 20.65670 16.67849
#
# Velocity S-wave (km/s) = 2.58495 3.29667 2.96226
# Velocity P-wave (km/s) = 4.37288 5.31092 4.86456
#
# Compressibility (1/GPa) = 0.05151623
#
# Stress axis : x y z
#
# Youngs Moduli (GPa) = 68.52912 71.66783 28.98873
#
# Poissons Ratio (x) = 0.27836 -0.00216
# Poissons Ratio (y) = 0.26617 0.05662
# Poissons Ratio (z) = -0.00510 0.13998
#
# Static dielectric constant tensor:
#      x y z
#    x 1.656950 0.000000 0.001430 
#    y 0.000000 1.666200 0.000000 
#    z 0.001430 0.000000 1.698660 
# 
# From -- ./inp_files/29613.got.cif
#   From: 2010.05.17/outbox.cif.g08.bks.cpg/sg10_15_cif.got.tgz:29613.got - 2010.06.03 11:33:40.
