data_PCOD9144300
_publ_section_title
;
Structure prediction by ZEFSAII (Michael W. Deem and Ramdas Pophale) SiO2 
 PCOD9144300
Probable space group: P 2/M
;
_chemical_formula_sum "Si O2"
_cell_formula_units_Z 28
_cell_length_a 22.068935
_cell_length_b 12.563482
_cell_length_c 5.349400
_cell_angle_alpha 90.000000
_cell_angle_beta 83.038858
_cell_angle_gamma 90.000000
_cell_volume 1472.255699
_symmetry_space_group_name_H-M "P 2/M"
_symmetry_group_IT_number 10
_symmetry_cell_setting 'monoclinic'
loop_
_space_group_symop_operation_xyz
x,y,z
-x,y,-z
-x,-y,-z
x,-y,z
loop_
_atom_site_type_symbol
_atom_site_label
_atom_site_fract_x
_atom_site_fract_y
_atom_site_fract_z
Si Si1 0.568663 0.746888 0.465666
Si Si2 0.731741 0.246583 0.884129
Si Si3 0.607826 0.373405 0.946086
Si Si4 0.307642 0.126619 0.596179
Si Si5 0.021341 0.173950 0.239330
Si Si6 0.934309 0.616288 0.282845
Si Si7 0.129908 0.684391 0.185047
O O1 0.500000 0.790005 0.500000
O O2 0.578707 0.676462 0.211284
O O3 0.621604 0.835575 0.439197
O O4 0.578707 0.676461 0.710004
O O5 0.721930 0.176779 0.638859
O O6 0.798476 0.297453 0.850761
O O7 0.678436 0.335290 0.910782
O O8 0.721930 0.176780 0.139211
O O9 0.602332 0.500000 0.948834
O O10 0.302600 0.000000 0.598700
O O11 0.092081 0.204260 0.203960
O O12 0.000000 0.119352 0.500000
O O13 0.982821 0.287098 0.258589
O O14 0.000000 0.119352 0.000000
O O15 0.964034 0.500000 0.267983
O O16 0.893272 0.628235 0.550839
O O17 0.893272 0.628235 0.055888
#
# Coordination Sequence:
#
# PCOD9144300 Si02
#       7
#     4   4   4   4   4   4   4
#     4  10  21  36  56  82 107 135 175 215 253 307
#     4  10  21  37  54  78 108 137 178 216 253 313
#     4  10  21  35  51  75 111 150 181 212 246 286
#     4  10  21  39  61  81 105 132 161 215 278 319
#     4   8  16  27  41  61  91 126 170 212 257 298
#     4  10  19  29  43  67 100 137 180 222 256 295
#     4  10  19  31  46  66  97 135 172 212 256 299
#
# _framework density 19.018436000000001
#
# number of rings (size 3 to 8) (size 9 to 14) (size 15 to 20)
#    0.000    2.286    0.000    2.571    0.000    8.286 
#    0.000    0.000    0.000    5.143    0.000    0.000 
#    0.000  102.857    0.000    0.000    0.000    0.000 
#
# Total GULP energy -156278.187207 kJ/mol
# GULP energy per Si atom -5581.363829 kJ/mol
# Density = 1.897515 g / cm^3
# Si number density = 19.018436 Si / 1000 Ang^3
#
#
#
# Elastic Constant Matrix: (Units=GPa)
#
#
# Indices 1 2 3 4 5 6 
#
# 1 107.3397 6.4771 44.4555 0.0000 -14.2296 0.0000
# 2 6.4771 64.8673 15.9186 0.0000 2.6394 0.0000
# 3 44.4555 15.9186 163.5331 0.0000 29.9370 0.0000
# 4 0.0000 0.0000 0.0000 5.9479 0.0000 0.3836
# 5 -14.2296 2.6394 29.9370 0.0000 18.3492 0.0000
# 6 0.0000 0.0000 0.0000 0.3836 0.0000 4.5760
#
#
#
# Elastic Compliance Matrix: (Units=1/GPa)
#
#
# Indices 1 2 3 4 5 6 
#
# 1 0.017752 -0.000469 -0.010427 0.000000 0.030845 0.000000
# 2 -0.000469 0.015807 -0.001324 0.000000 -0.000477 0.000000
# 3 -0.010427 -0.001324 0.015005 0.000000 -0.032377 0.000000
# 4 0.000000 0.000000 0.000000 0.169040 0.000000 -0.014170
# 5 0.030845 -0.000477 -0.032377 0.000000 0.131310 0.000000
# 6 0.000000 0.000000 0.000000 -0.014170 0.000000 0.219720
#
#
# Mechanical properties :
#
#
# Convention : Reuss Voigt Hill
#
# Bulk Modulus (GPa) = 41.44996 52.16028 46.80512
# Shear Modulus (GPa) = 8.31787 23.70054 16.00921
#
# Velocity S-wave (km/s) = 2.09358 3.53397 2.90448
# Velocity P-wave (km/s) = 5.26175 6.64361 5.99265
#
# Compressibility (1/GPa) = 0.02412548
#
# Stress axis : x y z
#
# Youngs Moduli (GPa) = 56.33226 63.26231 66.64306
#
# Poissons Ratio (x) = 0.02966 0.69487
# Poissons Ratio (y) = 0.02641 0.08823
# Poissons Ratio (z) = 0.58736 0.08375
#
# Static dielectric constant tensor:
#      x y z
#    x 1.641150 0.000000 0.017280 
#    y 0.000000 1.631950 0.000000 
#    z 0.017280 0.000000 1.702960 
# 
# From -- ./inp_files/12387.got.cif
#   From: 2010.05.17/outbox.cif.g08.bks.cpg/sg10_7_cif.got.tgz:12387.got - 2010.06.03 11:33:40.
