data_PCOD9144417
_publ_section_title
;
Structure prediction by ZEFSAII (Michael W. Deem and Ramdas Pophale) SiO2 
 PCOD9144417
Probable space group: P 2/M
;
_chemical_formula_sum "Si O2"
_cell_formula_units_Z 32
_cell_length_a 15.329795
_cell_length_b 7.392753
_cell_length_c 14.581551
_cell_angle_alpha 90.000000
_cell_angle_beta 94.889765
_cell_angle_gamma 90.000000
_cell_volume 1646.503974
_symmetry_space_group_name_H-M "P 2/M"
_symmetry_group_IT_number 10
_symmetry_cell_setting 'monoclinic'
loop_
_space_group_symop_operation_xyz
x,y,z
-x,y,-z
-x,-y,-z
x,-y,z
loop_
_atom_site_type_symbol
_atom_site_label
_atom_site_fract_x
_atom_site_fract_y
_atom_site_fract_z
Si Si1 0.117567 0.707843 0.532802
Si Si2 0.755646 0.280457 0.608048
Si Si3 0.410532 0.788794 0.531686
Si Si4 0.714646 0.778573 0.325896
Si Si5 0.804694 0.793119 0.160851
Si Si6 0.900965 0.210468 0.995824
Si Si7 0.028415 0.279901 0.699148
Si Si8 0.148205 0.281928 0.212287
O O1 0.095855 0.500000 0.508818
O O2 0.161496 0.786295 0.445439
O O3 0.202074 0.711799 0.608235
O O4 0.042535 0.780106 0.594658
O O5 0.757238 0.500000 0.604334
O O6 0.666680 0.223202 0.550736
O O7 0.772330 0.225770 0.714348
O O8 0.500000 0.708734 0.500000
O O9 0.369292 0.717703 0.623168
O O10 0.427761 0.000000 0.551393
O O11 0.730439 0.717804 0.222757
O O12 0.717931 0.000000 0.327609
O O13 0.837921 0.709621 0.068548
O O14 0.891655 0.789277 0.232042
O O15 0.778075 0.000000 0.139563
O O16 0.912787 0.000000 0.023651
O O17 0.857993 0.218174 0.892128
O O18 0.000000 0.288114 0.000000
O O19 0.032291 0.500000 0.698297
O O20 0.940049 0.226717 0.742074
O O21 0.148039 0.500000 0.208554
#
# Coordination Sequence:
#
# PCOD9144417 Si02
#       8
#     4   4   4   4   4   4   4   4
#     4   8  14  25  40  57  81 112 144 175 204 242
#     4   9  18  31  44  62  89 117 144 174 210 255
#     4   9  17  30  49  72  93 111 134 167 211 263
#     4   8  14  25  42  63  86 110 135 168 210 254
#     4   9  16  27  42  59  82 112 146 182 216 248
#     4  10  19  30  43  60  82 113 153 192 222 248
#     4   9  16  25  39  59  81 111 148 181 213 244
#     4  10  20  30  41  60  86 116 150 185 218 251
#
# _framework density 19.435120000000001
#
# number of rings (size 3 to 8) (size 9 to 14) (size 15 to 20)
#    0.000    3.000    1.250    0.000    0.000    2.000 
#    0.000    2.500    0.000    0.000    0.000   10.500 
#    0.000    7.000    0.000    0.000    0.000    0.000 
#
# Total GULP energy -178285.313673 kJ/mol
# GULP energy per Si atom -5571.416052 kJ/mol
# Density = 1.939088 g / cm^3
# Si number density = 19.435120 Si / 1000 Ang^3
#
#
#
# Elastic Constant Matrix: (Units=GPa)
#
#
# Indices 1 2 3 4 5 6 
#
# 1 111.6784 2.5306 55.0696 0.0000 -33.8404 0.0000
# 2 2.5306 70.3118 -4.8799 0.0000 -6.2800 0.0000
# 3 55.0696 -4.8799 150.7982 0.0000 -35.5598 0.0000
# 4 0.0000 0.0000 0.0000 -0.7249 0.0000 11.8962
# 5 -33.8404 -6.2800 -35.5598 0.0000 28.8227 0.0000
# 6 0.0000 0.0000 0.0000 11.8962 0.0000 -0.9997
#
#
#
# Elastic Compliance Matrix: (Units=1/GPa)
#
#
# Indices 1 2 3 4 5 6 
#
# 1 0.014259 0.000691 -0.001695 0.000000 0.014802 0.000000
# 2 0.000691 0.014859 0.001669 0.000000 0.006108 0.000000
# 3 -0.001695 0.001669 0.009760 0.000000 0.010416 0.000000
# 4 0.000000 0.000000 0.000000 0.007100 0.000000 0.084493
# 5 0.014802 0.006108 0.010416 0.000000 0.066255 0.000000
# 6 0.000000 0.000000 0.000000 0.084493 0.000000 0.005149
#
#
# Mechanical properties :
#
#
# Convention : Reuss Voigt Hill
#
# Bulk Modulus (GPa) = 24.86992 48.69211 36.78102
# Shear Modulus (GPa) = 38.62356 24.09082 31.35719
#
# Velocity S-wave (km/s) = 4.46276 3.52454 4.02111
# Velocity P-wave (km/s) = 6.27528 6.45533 6.36594
#
# Compressibility (1/GPa) = 0.04020921
#
# Stress axis : x y z
#
# Youngs Moduli (GPa) = 70.12908 67.30011 102.45520
#
# Poissons Ratio (x) = -0.04652 0.17362
# Poissons Ratio (y) = -0.04847 -0.17097
# Poissons Ratio (z) = 0.11884 -0.11230
#
# Static dielectric constant tensor:
#      x y z
#    x 1.694230 0.000000 -0.049780 
#    y 0.000000 10.247960 0.000000 
#    z -0.049780 0.000000 1.715290 
# 
# From -- ./inp_files/66082.got.cif
#   From: 2010.05.17/outbox.cif.g08.bks.cpg/sg10_34_cif.got.tgz:66082.got - 2010.06.03 11:33:40.
