data_PCOD9144041
_publ_section_title
;
Structure prediction by ZEFSAII (Michael W. Deem and Ramdas Pophale) SiO2 
 PCOD9144041
Probable space group: P 2/M
;
_chemical_formula_sum "Si O2"
_cell_formula_units_Z 32
_cell_length_a 29.053717
_cell_length_b 7.708032
_cell_length_c 22.522920
_cell_angle_alpha 90.000000
_cell_angle_beta 162.153321
_cell_angle_gamma 90.000000
_cell_volume 1545.820835
_symmetry_space_group_name_H-M "P 2/M"
_symmetry_group_IT_number 10
_symmetry_cell_setting 'monoclinic'
loop_
_space_group_symop_operation_xyz
x,y,z
-x,y,-z
-x,-y,-z
x,-y,z
loop_
_atom_site_type_symbol
_atom_site_label
_atom_site_fract_x
_atom_site_fract_y
_atom_site_fract_z
Si Si1 0.448226 0.202890 0.191019
Si Si2 0.778986 0.208127 0.572315
Si Si3 0.220118 0.290043 0.811662
Si Si4 0.962436 0.209349 0.020254
Si Si5 0.777456 0.703247 0.983925
Si Si6 0.108891 0.709396 0.419039
Si Si7 0.337315 0.708139 0.281856
Si Si8 0.887222 0.288541 0.445999
O O1 0.616620 0.274980 0.393719
O O2 0.344083 0.283844 0.113612
O O3 0.458358 0.000000 0.217662
O O4 0.360048 0.223620 0.020804
O O5 0.803283 0.244805 0.532697
O O6 0.916996 0.273131 0.782496
O O7 0.776860 0.000000 0.576122
O O8 0.226247 0.500000 0.820499
O O9 0.207161 0.232148 0.727328
O O10 0.061639 0.240374 0.648079
O O11 0.971176 0.000000 0.030555
O O12 0.794972 0.257444 0.834158
O O13 0.000000 0.271043 0.000000
O O14 0.805860 0.500000 0.007741
O O15 0.716574 0.779501 0.847860
O O16 0.938334 0.775951 0.200685
O O17 0.106885 0.500000 0.420026
O O18 0.162276 0.770404 0.549530
O O19 0.500000 0.777036 0.500000
O O20 0.352520 0.500000 0.294668
O O21 0.884395 0.500000 0.441453
#
# Coordination Sequence:
#
# PCOD9144041 Si02
#       8
#     4   4   4   4   4   4   4   4
#     4  11  23  36  53  80 114 147 183 226 271 321
#     4  10  23  40  54  76 112 149 184 225 270 319
#     4   9  16  32  55  79 109 142 177 224 276 321
#     4  10  22  40  60  80 108 149 192 225 262 321
#     4  10  20  36  58  82 110 142 182 227 272 324
#     4  10  18  34  59  84 105 137 186 230 270 323
#     4  10  22  39  58  86 118 142 173 226 281 326
#     4   8  15  29  54  82 107 137 176 226 275 320
#
# _framework density 20.700976000000001
#
# number of rings (size 3 to 8) (size 9 to 14) (size 15 to 20)
#    0.000    2.250    2.500    1.125    1.750    2.500 
#    0.000    2.500    0.000    3.750    0.000    0.000 
#    0.000    0.000    0.000    0.000    0.000    0.000 
#
# Total GULP energy -178615.393674 kJ/mol
# GULP energy per Si atom -5581.731052 kJ/mol
# Density = 2.065386 g / cm^3
# Si number density = 20.700976 Si / 1000 Ang^3
#
#
#
# Elastic Constant Matrix: (Units=GPa)
#
#
# Indices 1 2 3 4 5 6 
#
# 1 96.1173 -15.9058 29.5736 0.0000 -8.3474 0.0000
# 2 -15.9058 27.5010 -9.8485 0.0000 -5.8844 0.0000
# 3 29.5736 -9.8485 73.0731 0.0000 5.7099 0.0000
# 4 0.0000 0.0000 0.0000 10.4961 0.0000 4.4615
# 5 -8.3474 -5.8844 5.7099 0.0000 32.3450 0.0000
# 6 0.0000 0.0000 0.0000 4.4615 0.0000 20.4835
#
#
#
# Elastic Compliance Matrix: (Units=1/GPa)
#
#
# Indices 1 2 3 4 5 6 
#
# 1 0.013650 0.007338 -0.004984 0.000000 0.005737 0.000000
# 2 0.007338 0.043387 0.002143 0.000000 0.009409 0.000000
# 3 -0.004984 0.002143 0.016285 0.000000 -0.003771 0.000000
# 4 0.000000 0.000000 0.000000 0.104994 0.000000 -0.022869
# 5 0.005737 0.009409 -0.003771 0.000000 0.034775 0.000000
# 6 0.000000 0.000000 0.000000 -0.022869 0.000000 0.053801
#
#
# Mechanical properties :
#
#
# Convention : Reuss Voigt Hill
#
# Bulk Modulus (GPa) = 12.14844 22.70334 17.42589
# Shear Modulus (GPa) = 17.52313 25.52303 21.52308
#
# Velocity S-wave (km/s) = 2.91260 3.51513 3.22796
# Velocity P-wave (km/s) = 4.14636 5.24080 4.72537
#
# Compressibility (1/GPa) = 0.08231510
#
# Stress axis : x y z
#
# Youngs Moduli (GPa) = 73.26085 23.04855 61.40489
#
# Poissons Ratio (x) = -0.16912 0.30602
# Poissons Ratio (y) = -0.53756 -0.13157
# Poissons Ratio (z) = 0.36511 -0.04939
#
# Static dielectric constant tensor:
#      x y z
#    x 1.727370 0.000000 -0.027450 
#    y 0.000000 1.773070 0.000000 
#    z -0.027450 0.000000 1.736170 
# 
# From -- ./inp_files/86923.got.cif
#   From: 2010.05.17/outbox.cif.g08.bks.cpg/sg10_44_cif.got.tgz:86923.got - 2010.06.03 11:33:40.
