data_PCOD9144139
_publ_section_title
;
Structure prediction by ZEFSAII (Michael W. Deem and Ramdas Pophale) SiO2 
 PCOD9144139
Probable space group: P 2/M
;
_chemical_formula_sum "Si O2"
_cell_formula_units_Z 17
_cell_length_a 8.249753
_cell_length_b 10.623434
_cell_length_c 9.488245
_cell_angle_alpha 90.000000
_cell_angle_beta 124.641534
_cell_angle_gamma 90.000000
_cell_volume 684.141918
_symmetry_space_group_name_H-M "P 2/M"
_symmetry_group_IT_number 10
_symmetry_cell_setting 'monoclinic'
loop_
_space_group_symop_operation_xyz
x,y,z
-x,y,-z
-x,-y,-z
x,-y,z
loop_
_atom_site_type_symbol
_atom_site_label
_atom_site_fract_x
_atom_site_fract_y
_atom_site_fract_z
Si Si1 0.826245 0.500000 0.789155
Si Si2 0.208755 0.716116 0.786382
Si Si3 0.493516 0.147640 0.726904
Si Si4 0.807299 0.225629 0.668936
Si Si5 0.000000 0.500000 0.500000
Si Si6 0.669351 0.500000 0.971966
O O1 0.820968 0.377847 0.689851
O O2 0.630885 0.500000 0.788371
O O3 0.000000 0.500000 0.000000
O O4 0.399486 0.780822 0.813415
O O5 0.233018 0.632665 0.939006
O O6 0.029173 0.810629 0.734322
O O7 0.138579 0.611259 0.639510
O O8 0.706803 0.183060 0.766008
O O9 0.338974 0.180160 0.525075
O O10 0.493840 0.000000 0.755100
O O11 0.500000 0.500000 0.000000
#
# Coordination Sequence:
#
# PCOD9144139 Si02
#       6
#     2   4   4   4   1   2
#     4  12  22  39  63  95 126 160 209 251 318 379
#     4  11  21  38  65  88 129 163 199 262 324 373
#     4  11  25  41  63  96 127 166 216 259 308 373
#     4  11  22  39  63  93 129 165 203 262 317 378
#     4  10  18  36  56  96 122 142 202 254 326 382
#     4  11  23  39  61  96 129 162 204 261 315 382
#
# _framework density 24.848645999999999
#
# number of rings (size 3 to 8) (size 9 to 14) (size 15 to 20)
#    0.000    0.941    4.706    3.529    0.000    5.647 
#    0.000    0.000    0.000   10.588    0.000    0.000 
#    0.000    0.000    0.000    0.000    0.000    0.000 
#
# Total GULP energy -94709.378761 kJ/mol
# GULP energy per Si atom -5571.139927 kJ/mol
# Density = 2.479209 g / cm^3
# Si number density = 24.848646 Si / 1000 Ang^3
#
#
#
# Elastic Constant Matrix: (Units=GPa)
#
#
# Indices 1 2 3 4 5 6 
#
# 1 199.0666 40.8600 20.5064 0.0000 -12.4562 0.0000
# 2 40.8600 135.0603 19.0961 0.0000 -6.1658 0.0000
# 3 20.5064 19.0961 54.5028 0.0000 -13.3681 0.0000
# 4 0.0000 0.0000 0.0000 8.4033 0.0000 -20.1411
# 5 -12.4562 -6.1658 -13.3681 0.0000 34.1900 0.0000
# 6 0.0000 0.0000 0.0000 -20.1411 0.0000 -0.6353
#
#
#
# Elastic Compliance Matrix: (Units=1/GPa)
#
#
# Indices 1 2 3 4 5 6 
#
# 1 0.005527 -0.001435 -0.001268 0.000000 0.001259 0.000000
# 2 -0.001435 0.008167 -0.002310 0.000000 0.000047 0.000000
# 3 -0.001268 -0.002310 0.021478 0.000000 0.007519 0.000000
# 4 0.000000 0.000000 0.000000 0.001546 0.000000 -0.049005
# 5 0.001259 0.000047 0.007519 0.000000 0.032656 0.000000
# 6 0.000000 0.000000 0.000000 -0.049005 0.000000 -0.020446
#
#
# Mechanical properties :
#
#
# Convention : Reuss Voigt Hill
#
# Bulk Modulus (GPa) = 39.76726 61.06161 50.41444
# Shear Modulus (GPa) = 74.25301 28.93607 51.59454
#
# Velocity S-wave (km/s) = 5.47238 3.41617 4.56164
# Velocity P-wave (km/s) = 7.48117 6.33932 6.93379
#
# Compressibility (1/GPa) = 0.02514631
#
# Stress axis : x y z
#
# Youngs Moduli (GPa) = 180.91396 122.44221 46.55844
#
# Poissons Ratio (x) = 0.17576 0.05903
# Poissons Ratio (y) = 0.25970 0.10755
# Poissons Ratio (z) = 0.22938 0.28284
#
# Static dielectric constant tensor:
#      x y z
#    x 2.251960 0.000000 0.088040 
#    y 0.000000 1.927030 0.000000 
#    z 0.088040 0.000000 2.063140 
# 
# From -- ./inp_files/40953.got.cif
#   From: 2010.05.17/outbox.cif.g08.bks.cpg/sg10_21_cif.got.tgz:40953.got - 2010.06.03 11:33:40.
