data_PCOD9144392
_publ_section_title
;
Structure prediction by ZEFSAII (Michael W. Deem and Ramdas Pophale) SiO2 
 PCOD9144392
Probable space group: P 2/M
;
_chemical_formula_sum "Si O2"
_cell_formula_units_Z 32
_cell_length_a 25.522847
_cell_length_b 7.304693
_cell_length_c 15.423898
_cell_angle_alpha 90.000000
_cell_angle_beta 27.564623
_cell_angle_gamma 90.000000
_cell_volume 1330.670405
_symmetry_space_group_name_H-M "P 2/M"
_symmetry_group_IT_number 10
_symmetry_cell_setting 'monoclinic'
loop_
_space_group_symop_operation_xyz
x,y,z
-x,y,-z
-x,-y,-z
x,-y,z
loop_
_atom_site_type_symbol
_atom_site_label
_atom_site_fract_x
_atom_site_fract_y
_atom_site_fract_z
Si Si1 0.481185 0.777544 0.302957
Si Si2 0.810591 0.789550 0.481201
Si Si3 0.026888 0.222815 0.059772
Si Si4 0.121209 0.720532 0.428152
Si Si5 0.559374 0.224142 0.824664
Si Si6 0.860216 0.278954 0.791780
Si Si7 0.282165 0.223022 0.712825
Si Si8 0.356529 0.791554 0.785548
O O1 0.500385 0.717499 0.176607
O O2 0.355715 0.729902 0.520888
O O3 0.567973 0.709767 0.248604
O O4 0.488819 0.000000 0.290453
O O5 0.819049 0.785948 0.572871
O O6 0.689605 0.712435 0.631885
O O7 0.925391 0.712338 0.270933
O O8 0.808123 0.000000 0.455043
O O9 0.030471 0.000000 0.058907
O O10 0.152698 0.285609 0.900331
O O11 0.000000 0.271757 0.000000
O O12 0.123995 0.500000 0.425330
O O13 0.167737 0.778757 0.266007
O O14 0.988888 0.775965 0.623533
O O15 0.559933 0.000000 0.825428
O O16 0.500000 0.283842 0.000000
O O17 0.856834 0.500000 0.799263
O O18 0.770743 0.207146 0.991056
O O19 0.348294 0.288020 0.701655
O O20 0.279840 0.000000 0.720667
O O21 0.397203 0.000000 0.715528
#
# Coordination Sequence:
#
# PCOD9144392 Si02
#       8
#     4   4   4   4   4   4   4   4
#     4   9  17  29  45  67 100 139 169 198 246 301
#     4  10  19  30  50  77 100 124 164 212 250 284
#     4   9  16  26  43  69 101 132 161 200 252 299
#     4   9  19  35  52  69  96 133 166 199 244 302
#     4   9  18  30  44  67 102 136 165 200 246 298
#     4   9  19  35  51  69  97 134 168 195 240 306
#     4   9  16  27  43  67 100 130 162 203 247 297
#     4  10  19  29  49  77 101 125 163 212 253 284
#
# _framework density 24.048027999999999
#
# number of rings (size 3 to 8) (size 9 to 14) (size 15 to 20)
#    0.000    2.750    0.000    2.625    1.750    6.500 
#    0.000    1.250    0.000    3.000    0.000    1.750 
#    0.000    0.000    0.000    0.000    0.000    0.000 
#
# Total GULP energy -178878.347901 kJ/mol
# GULP energy per Si atom -5589.948372 kJ/mol
# Density = 2.399329 g / cm^3
# Si number density = 24.048028 Si / 1000 Ang^3
#
#
#
# Elastic Constant Matrix: (Units=GPa)
#
#
# Indices 1 2 3 4 5 6 
#
# 1 160.7515 -0.1982 35.2274 0.0000 10.9342 0.0000
# 2 -0.1982 99.5598 3.0665 0.0000 -1.0764 0.0000
# 3 35.2274 3.0665 64.1390 0.0000 20.8442 0.0000
# 4 0.0000 0.0000 0.0000 167.0851 0.0000 76.0725
# 5 10.9342 -1.0764 20.8442 0.0000 37.2687 0.0000
# 6 0.0000 0.0000 0.0000 76.0725 0.0000 38.0685
#
#
#
# Elastic Compliance Matrix: (Units=1/GPa)
#
#
# Indices 1 2 3 4 5 6 
#
# 1 0.007074 0.000137 -0.003934 0.000000 0.000129 0.000000
# 2 0.000137 0.010076 -0.000780 0.000000 0.000687 0.000000
# 3 -0.003934 -0.000780 0.021291 0.000000 -0.010776 0.000000
# 4 0.000000 0.000000 0.000000 0.066362 0.000000 -0.132611
# 5 0.000129 0.000687 -0.010776 0.000000 0.032841 0.000000
# 6 0.000000 0.000000 0.000000 -0.132611 0.000000 0.291266
#
#
# Mechanical properties :
#
#
# Convention : Reuss Voigt Hill
#
# Bulk Modulus (GPa) = 34.14496 44.51574 39.33035
# Shear Modulus (GPa) = 11.16502 67.57476 39.36989
#
# Velocity S-wave (km/s) = 2.15705 5.30669 4.05054
# Velocity P-wave (km/s) = 4.52032 7.48994 6.18598
#
# Compressibility (1/GPa) = 0.02928690
#
# Stress axis : x y z
#
# Youngs Moduli (GPa) = 141.35767 99.24625 46.96787
#
# Poissons Ratio (x) = -0.01356 0.18476
# Poissons Ratio (y) = -0.01931 0.03664
# Poissons Ratio (z) = 0.55606 0.07742
#
# Static dielectric constant tensor:
#      x y z
#    x 1.881690 0.000000 -0.005640 
#    y 0.000000 1.913260 0.000000 
#    z -0.005640 0.000000 1.876080 
# 
# From -- ./inp_files/56974.got.cif
#   From: 2010.05.17/outbox.cif.g08.bks.cpg/sg10_29_cif.got.tgz:56974.got - 2010.06.03 11:33:40.
