data_PCOD9144815
_publ_section_title
;
Structure prediction by ZEFSAII (Michael W. Deem and Ramdas Pophale) SiO2 
 PCOD9144815
Probable space group: P 2/M
;
_chemical_formula_sum "Si O2"
_cell_formula_units_Z 32
_cell_length_a 24.684719
_cell_length_b 7.459354
_cell_length_c 10.574168
_cell_angle_alpha 90.000000
_cell_angle_beta 58.057102
_cell_angle_gamma 90.000000
_cell_volume 1652.213838
_symmetry_space_group_name_H-M "P 2/M"
_symmetry_group_IT_number 10
_symmetry_cell_setting 'monoclinic'
loop_
_space_group_symop_operation_xyz
x,y,z
-x,y,-z
-x,-y,-z
x,-y,z
loop_
_atom_site_type_symbol
_atom_site_label
_atom_site_fract_x
_atom_site_fract_y
_atom_site_fract_z
Si Si1 0.807978 0.706389 0.641299
Si Si2 0.948510 0.719646 0.459292
Si Si3 0.330097 0.283833 0.192826
Si Si4 0.947673 0.719586 0.167612
Si Si5 0.806585 0.293674 0.335963
Si Si6 0.464465 0.212800 0.920813
Si Si7 0.331739 0.715671 0.480754
Si Si8 0.468468 0.213975 0.412033
O O1 0.809175 0.500000 0.684423
O O2 0.877367 0.783427 0.585397
O O3 0.739543 0.784438 0.764254
O O4 0.805367 0.703400 0.491053
O O5 0.947083 0.500000 0.460057
O O6 0.961113 0.772561 0.297260
O O7 0.000000 0.774820 0.500000
O O8 0.325672 0.500000 0.203680
O O9 0.342906 0.221427 0.321743
O O10 0.389290 0.237884 0.031896
O O11 0.946042 0.500000 0.170277
O O12 0.876167 0.782805 0.218681
O O13 0.000000 0.774633 0.000000
O O14 0.807448 0.500000 0.289857
O O15 0.737375 0.215739 0.386567
O O16 0.495342 0.287214 0.755814
O O17 0.476616 0.000000 0.904665
O O18 0.500000 0.288433 0.000000
O O19 0.326074 0.500000 0.481430
O O20 0.393087 0.757422 0.488297
O O21 0.500000 0.286665 0.500000
O O22 0.478256 0.000000 0.401062
#
# Coordination Sequence:
#
# PCOD9144815 Si02
#       8
#     4   4   4   4   4   4   4   4
#     4   7  11  20  33  52  77 104 134 164 196 237
#     4   8  12  18  30  47  69 100 134 162 189 228
#     4   9  16  26  44  67  88 111 139 173 212 251
#     4   8  12  18  30  48  70  98 131 163 194 230
#     4   7  11  20  34  53  76 102 133 166 199 236
#     4  10  19  31  47  67  86 105 136 178 214 243
#     4   9  16  27  45  66  86 111 142 174 208 249
#     4  10  21  35  48  62  84 113 140 170 212 257
#
# _framework density 19.367953
#
# number of rings (size 3 to 8) (size 9 to 14) (size 15 to 20)
#    0.000    3.500    1.250    3.000    0.000    1.000 
#    0.000    0.000    2.750    0.000    0.000    0.000 
#    0.000    1.000    0.000    0.750    0.000    1.500 
#
# Total GULP energy -178152.190439 kJ/mol
# GULP energy per Si atom -5567.255951 kJ/mol
# Density = 1.932387 g / cm^3
# Si number density = 19.367953 Si / 1000 Ang^3
#
#
#
# Elastic Constant Matrix: (Units=GPa)
#
#
# Indices 1 2 3 4 5 6 
#
# 1 192.1185 1.5568 96.6360 0.0000 -21.5009 0.0000
# 2 1.5568 56.4283 7.3131 0.0000 5.6830 0.0000
# 3 96.6360 7.3131 118.5471 0.0000 -25.3841 0.0000
# 4 0.0000 0.0000 0.0000 4.1400 0.0000 -34.2955
# 5 -21.5009 5.6830 -25.3841 0.0000 29.9546 0.0000
# 6 0.0000 0.0000 0.0000 -34.2955 0.0000 3.1939
#
#
#
# Elastic Compliance Matrix: (Units=1/GPa)
#
#
# Indices 1 2 3 4 5 6 
#
# 1 0.008850 0.000685 -0.007237 0.000000 0.000089 0.000000
# 2 0.000685 0.018629 -0.002882 0.000000 -0.005485 0.000000
# 3 -0.007237 -0.002882 0.016514 0.000000 0.009346 0.000000
# 4 0.000000 0.000000 0.000000 -0.002746 0.000000 -0.029490
# 5 0.000089 -0.005485 0.009346 0.000000 0.042409 0.000000
# 6 0.000000 0.000000 0.000000 -0.029490 0.000000 -0.003560
#
#
# Mechanical properties :
#
#
# Convention : Reuss Voigt Hill
#
# Bulk Modulus (GPa) = 39.80259 64.23395 52.01827
# Shear Modulus (GPa) = 46.58139 24.89687 35.73913
#
# Velocity S-wave (km/s) = 4.90948 3.58923 4.30032
# Velocity P-wave (km/s) = 7.26172 7.10027 7.18145
#
# Compressibility (1/GPa) = 0.02512399
#
# Stress axis : x y z
#
# Youngs Moduli (GPa) = 112.99464 53.68091 60.55387
#
# Poissons Ratio (x) = -0.03676 0.43825
# Poissons Ratio (y) = -0.07738 0.17451
# Poissons Ratio (z) = 0.81778 0.15470
#
# Static dielectric constant tensor:
#      x y z
#    x 1.701650 0.000000 -0.035860 
#    y 0.000000 1.738290 0.000000 
#    z -0.035860 0.000000 1.666970 
# 
# From -- ./inp_files/34609.got.cif
#   From: 2010.05.17/outbox.cif.g08.bks.cpg/sg10_18_cif.got.tgz:34609.got - 2010.06.03 11:33:40.
