data_PCOD9144073
_publ_section_title
;
Structure prediction by ZEFSAII (Michael W. Deem and Ramdas Pophale) SiO2 
 PCOD9144073
Probable space group: P 2/M
;
_chemical_formula_sum "Si O2"
_cell_formula_units_Z 24
_cell_length_a 14.944474
_cell_length_b 13.994391
_cell_length_c 9.164440
_cell_angle_alpha 90.000000
_cell_angle_beta 140.123360
_cell_angle_gamma 90.000000
_cell_volume 1228.828496
_symmetry_space_group_name_H-M "P 2/M"
_symmetry_group_IT_number 10
_symmetry_cell_setting 'monoclinic'
loop_
_space_group_symop_operation_xyz
x,y,z
-x,y,-z
-x,-y,-z
x,-y,z
loop_
_atom_site_type_symbol
_atom_site_label
_atom_site_fract_x
_atom_site_fract_y
_atom_site_fract_z
Si Si1 0.684917 0.213750 0.572654
Si Si2 0.935797 0.106411 0.755702
Si Si3 0.049784 0.391932 0.726090
Si Si4 0.202906 0.199286 0.965616
Si Si5 0.444478 0.885300 0.095814
Si Si6 0.855856 0.388879 0.741811
O O1 0.800883 0.169926 0.608996
O O2 0.716519 0.183461 0.779064
O O3 0.542689 0.173077 0.331192
O O4 0.722409 0.325878 0.611942
O O5 0.895474 0.000000 0.660847
O O6 0.000000 0.102909 0.000000
O O7 0.053910 0.147872 0.799408
O O8 0.101699 0.500000 0.820792
O O9 0.000000 0.383842 0.500000
O O10 0.908162 0.380710 0.642336
O O11 0.163346 0.310909 0.901560
O O12 0.291482 0.155546 0.944051
O O13 0.449419 0.000000 0.128749
O O14 0.500000 0.869278 0.000000
O O15 0.837147 0.500000 0.755631
O O16 0.000000 0.353119 0.000000
#
# Coordination Sequence:
#
# PCOD9144073 Si02
#       6
#     4   4   4   4   4   4
#     4  11  20  37  60  90 117 154 199 244 300 350
#     4   9  17  30  54  87 115 138 185 248 295 343
#     4  10  21  36  59  93 128 159 192 238 299 358
#     4  11  21  37  62  89 117 155 202 245 294 352
#     4  11  27  45  59  80 119 165 203 246 302 358
#     4  10  18  34  61  94 126 152 190 244 297 352
#
# _framework density 19.530797
#
# number of rings (size 3 to 8) (size 9 to 14) (size 15 to 20)
#    0.000    1.667    3.333    2.000    2.333    2.667 
#    0.000    0.833    0.000    7.000    0.000    0.000 
#    0.000    0.000    0.000    0.000    0.000    0.000 
#
# Total GULP energy -133856.525837 kJ/mol
# GULP energy per Si atom -5577.355243 kJ/mol
# Density = 1.948634 g / cm^3
# Si number density = 19.530797 Si / 1000 Ang^3
#
#
#
# Elastic Constant Matrix: (Units=GPa)
#
#
# Indices 1 2 3 4 5 6 
#
# 1 122.1586 32.9351 15.3953 0.0000 2.4445 0.0000
# 2 32.9351 116.8876 17.9543 0.0000 8.8845 0.0000
# 3 15.3953 17.9543 18.0601 0.0000 1.3193 0.0000
# 4 0.0000 0.0000 0.0000 -4.2578 0.0000 5.7185
# 5 2.4445 8.8845 1.3193 0.0000 29.5997 0.0000
# 6 0.0000 0.0000 0.0000 5.7185 0.0000 23.5289
#
#
#
# Elastic Compliance Matrix: (Units=1/GPa)
#
#
# Indices 1 2 3 4 5 6 
#
# 1 0.009443 -0.001682 -0.006379 0.000000 0.000009 0.000000
# 2 -0.001682 0.010599 -0.008910 0.000000 -0.002645 0.000000
# 3 -0.006379 -0.008910 0.069659 0.000000 0.000096 0.000000
# 4 0.000000 0.000000 0.000000 -0.177065 0.000000 0.043034
# 5 0.000009 -0.002645 0.000096 0.000000 0.034573 0.000000
# 6 0.000000 0.000000 0.000000 0.043034 0.000000 0.032042
#
#
# Mechanical properties :
#
#
# Convention : Reuss Voigt Hill
#
# Bulk Modulus (GPa) = 17.93393 43.29728 30.61561
# Shear Modulus (GPa) = 157.34466 22.49562 89.92014
#
# Velocity S-wave (km/s) = 8.98539 3.39750 6.79265
# Velocity P-wave (km/s) = 10.80981 6.13250 8.78805
#
# Compressibility (1/GPa) = 0.05576023
#
# Stress axis : x y z
#
# Youngs Moduli (GPa) = 105.89660 94.35109 14.35573
#
# Poissons Ratio (x) = 0.15867 0.09157
# Poissons Ratio (y) = 0.17809 0.12791
# Poissons Ratio (z) = 0.67547 0.84065
#
# Static dielectric constant tensor:
#      x y z
#    x 1.721730 0.000000 -0.033780 
#    y 0.000000 1.727520 0.000000 
#    z -0.033780 0.000000 1.723650 
# 
# From -- ./inp_files/29661.got.cif
#   From: 2010.05.17/outbox.cif.g08.bks.cpg/sg10_15_cif.got.tgz:29661.got - 2010.06.03 11:33:40.
