data_PCOD9144256
_publ_section_title
;
Structure prediction by ZEFSAII (Michael W. Deem and Ramdas Pophale) SiO2 
 PCOD9144256
Probable space group: P 2/M
;
_chemical_formula_sum "Si O2"
_cell_formula_units_Z 32
_cell_length_a 14.093547
_cell_length_b 9.214201
_cell_length_c 16.605636
_cell_angle_alpha 90.000000
_cell_angle_beta 121.154310
_cell_angle_gamma 90.000000
_cell_volume 1845.415468
_symmetry_space_group_name_H-M "P 2/M"
_symmetry_group_IT_number 10
_symmetry_cell_setting 'monoclinic'
loop_
_space_group_symop_operation_xyz
x,y,z
-x,y,-z
-x,-y,-z
x,-y,z
loop_
_atom_site_type_symbol
_atom_site_label
_atom_site_fract_x
_atom_site_fract_y
_atom_site_fract_z
Si Si1 0.141747 0.173562 0.719171
Si Si2 0.268617 0.324437 0.630301
Si Si3 0.939635 0.663820 0.560839
Si Si4 0.138646 0.829427 0.220989
Si Si5 0.126700 0.828947 0.892511
Si Si6 0.326462 0.674617 0.386638
Si Si7 0.865057 0.334077 0.943190
Si Si8 0.540144 0.675625 0.392826
O O1 0.221782 0.247474 0.688874
O O2 0.172631 0.209885 0.824714
O O3 0.017551 0.232376 0.646616
O O4 0.142400 0.000000 0.710532
O O5 0.263798 0.500000 0.638705
O O6 0.183718 0.291507 0.519081
O O7 0.390767 0.278637 0.655035
O O8 0.937708 0.500000 0.593977
O O9 0.000000 0.656328 0.500000
O O10 0.209778 0.749055 0.319882
O O11 0.170602 0.759656 0.149092
O O12 0.006665 0.809468 0.172087
O O13 0.161271 0.000000 0.232111
O O14 0.146002 0.000000 0.916227
O O15 0.167328 0.735975 0.985879
O O16 0.313946 0.500000 0.379419
O O17 0.414578 0.720878 0.355848
O O18 0.386858 0.713361 0.496480
O O19 0.827441 0.500000 0.919142
O O20 0.000000 0.334002 0.000000
O O21 0.537866 0.500000 0.390023
#
# Coordination Sequence:
#
# PCOD9144256 Si02
#       8
#     4   4   4   4   4   4   4   4
#     4  10  19  29  41  62  90 120 154 186 218 265
#     4   9  17  30  45  61  85 119 154 188 230 270
#     4   8  15  26  39  56  81 112 149 187 220 257
#     4  10  19  31  47  67  95 126 150 179 228 278
#     4   9  19  32  44  63  96 129 151 179 225 273
#     4   9  17  31  50  70  89 115 156 197 230 269
#     4   9  17  30  48  70  91 115 152 190 221 263
#     4   8  16  31  49  67  90 119 152 196 240 267
#
# _framework density 17.340267999999998
#
# number of rings (size 3 to 8) (size 9 to 14) (size 15 to 20)
#    0.000    3.000    0.000    2.625    1.750    5.250 
#    0.000    2.500    0.000    0.000    0.000    0.875 
#    0.000    7.000    0.000    0.000    0.000    0.000 
#
# Total GULP energy -178271.777157 kJ/mol
# GULP energy per Si atom -5570.993036 kJ/mol
# Density = 1.730080 g / cm^3
# Si number density = 17.340268 Si / 1000 Ang^3
#
#
#
# Elastic Constant Matrix: (Units=GPa)
#
#
# Indices 1 2 3 4 5 6 
#
# 1 59.4658 16.5770 1.4335 0.0000 -19.0677 0.0000
# 2 16.5770 41.9856 20.9200 0.0000 -10.7760 0.0000
# 3 1.4335 20.9200 38.0598 0.0000 -16.8418 0.0000
# 4 0.0000 0.0000 0.0000 24.4434 0.0000 -3.6979
# 5 -19.0677 -10.7760 -16.8418 0.0000 25.6740 0.0000
# 6 0.0000 0.0000 0.0000 -3.6979 0.0000 11.6464
#
#
#
# Elastic Compliance Matrix: (Units=1/GPa)
#
#
# Indices 1 2 3 4 5 6 
#
# 1 0.029349 -0.013778 0.019098 0.000000 0.028542 0.000000
# 2 -0.013778 0.039406 -0.025855 0.000000 -0.010654 0.000000
# 3 0.019098 -0.025855 0.058109 0.000000 0.041450 0.000000
# 4 0.000000 0.000000 0.000000 0.042975 0.000000 0.013645
# 5 0.028542 -0.010654 0.041450 0.000000 0.082867 0.000000
# 6 0.000000 0.000000 0.000000 0.013645 0.000000 0.090196
#
#
# Mechanical properties :
#
#
# Convention : Reuss Voigt Hill
#
# Bulk Modulus (GPa) = 11.65598 24.15246 17.90422
# Shear Modulus (GPa) = 12.11913 19.05814 15.58863
#
# Velocity S-wave (km/s) = 2.64654 3.31882 3.00156
# Velocity P-wave (km/s) = 4.00942 5.35209 4.72865
#
# Compressibility (1/GPa) = 0.08579284
#
# Stress axis : x y z
#
# Youngs Moduli (GPa) = 34.07294 25.37684 17.20903
#
# Poissons Ratio (x) = 0.34964 -0.32866
# Poissons Ratio (y) = 0.46945 0.44495
# Poissons Ratio (z) = -0.65072 0.65613
#
# Static dielectric constant tensor:
#      x y z
#    x 1.632570 0.000000 -0.016050 
#    y 0.000000 1.575070 0.000000 
#    z -0.016050 0.000000 1.581650 
# 
# From -- ./inp_files/66562.got.cif
#   From: 2010.05.17/outbox.cif.g08.bks.cpg/sg10_34_cif.got.tgz:66562.got - 2010.06.03 11:33:40.
