data_PCOD9144510
_publ_section_title
;
Structure prediction by ZEFSAII (Michael W. Deem and Ramdas Pophale) SiO2 
 PCOD9144510
Probable space group: P 2/M
;
_chemical_formula_sum "Si O2"
_cell_formula_units_Z 32
_cell_length_a 11.983362
_cell_length_b 7.566414
_cell_length_c 23.850284
_cell_angle_alpha 90.000000
_cell_angle_beta 144.021797
_cell_angle_gamma 90.000000
_cell_volume 1270.438144
_symmetry_space_group_name_H-M "P 2/M"
_symmetry_group_IT_number 10
_symmetry_cell_setting 'monoclinic'
loop_
_space_group_symop_operation_xyz
x,y,z
-x,y,-z
-x,-y,-z
x,-y,z
loop_
_atom_site_type_symbol
_atom_site_label
_atom_site_fract_x
_atom_site_fract_y
_atom_site_fract_z
Si Si1 0.252693 0.282569 0.187743
Si Si2 0.475811 0.795163 0.925972
Si Si3 0.252426 0.209383 0.686785
Si Si4 0.670234 0.300030 0.899762
Si Si5 0.917445 0.699177 0.772763
Si Si6 0.680238 0.797507 0.402845
Si Si7 0.506559 0.215906 0.567944
Si Si8 0.920353 0.305438 0.273580
O O1 0.261967 0.500000 0.192470
O O2 0.221628 0.226007 0.110754
O O3 0.094154 0.226914 0.168831
O O4 0.458647 0.210145 0.291406
O O5 0.649974 0.778955 0.953583
O O6 0.301039 0.685756 0.831867
O O7 0.417457 0.000000 0.900967
O O8 0.500000 0.744002 0.000000
O O9 0.450909 0.294433 0.787803
O O10 0.212013 0.277580 0.607628
O O11 0.091226 0.231182 0.668375
O O12 0.290618 0.000000 0.698897
O O13 0.736163 0.500000 0.934251
O O14 0.999458 0.500000 0.809259
O O15 0.695681 0.695718 0.667810
O O16 0.999297 0.788426 0.749688
O O17 0.661632 0.725888 0.458405
O O18 0.745701 0.000000 0.435197
O O19 0.500000 0.258448 0.500000
O O20 0.520367 0.000000 0.578042
O O21 0.008536 0.500000 0.311857
#
# Coordination Sequence:
#
# PCOD9144510 Si02
#       8
#     4   4   4   4   4   4   4   4
#     4   8  14  25  41  62  86 110 139 176 216 255
#     4  10  20  32  46  65  90 118 146 178 217 260
#     4   9  15  24  40  61  86 113 142 178 218 258
#     4   9  15  24  42  65  86 109 140 178 216 254
#     4   9  18  31  46  66  92 119 146 179 219 262
#     4   8  14  24  39  61  86 111 141 178 218 256
#     4   9  17  29  46  68  92 117 147 183 220 260
#     4  10  19  30  46  67  90 116 147 182 218 258
#
# _framework density 25.188161000000001
#
# number of rings (size 3 to 8) (size 9 to 14) (size 15 to 20)
#    0.000    3.000    0.000    3.000    0.000    3.250 
#    0.000    0.000    0.000    1.500    0.000   10.500 
#    0.000    0.000    0.000    0.000    0.000    0.000 
#
# Total GULP energy -178216.052140 kJ/mol
# GULP energy per Si atom -5569.251629 kJ/mol
# Density = 2.513083 g / cm^3
# Si number density = 25.188161 Si / 1000 Ang^3
#
#
#
# Elastic Constant Matrix: (Units=GPa)
#
#
# Indices 1 2 3 4 5 6 
#
# 1 274.0745 8.1913 39.1414 0.0000 -80.1189 0.0000
# 2 8.1913 63.4048 2.8257 0.0000 -6.3679 0.0000
# 3 39.1414 2.8257 51.1043 0.0000 -8.8912 0.0000
# 4 0.0000 0.0000 0.0000 -3.7764 0.0000 -5.2372
# 5 -80.1189 -6.3679 -8.8912 0.0000 49.4600 0.0000
# 6 0.0000 0.0000 0.0000 -5.2372 0.0000 11.0658
#
#
#
# Elastic Compliance Matrix: (Units=1/GPa)
#
#
# Indices 1 2 3 4 5 6 
#
# 1 0.007588 0.000360 -0.003804 0.000000 0.011654 0.000000
# 2 0.000360 0.016010 -0.000723 0.000000 0.002514 0.000000
# 3 -0.003804 -0.000723 0.022125 0.000000 -0.002278 0.000000
# 4 0.000000 0.000000 0.000000 -0.159871 0.000000 -0.075663
# 5 0.011654 0.002514 -0.002278 0.000000 0.039010 0.000000
# 6 0.000000 0.000000 0.000000 -0.075663 0.000000 0.054559
#
#
# Mechanical properties :
#
#
# Convention : Reuss Voigt Hill
#
# Bulk Modulus (GPa) = 26.74687 54.32225 40.53456
# Shear Modulus (GPa) = 22792.10476 33.91155 11413.00816
#
# Velocity S-wave (km/s) = 95.22805 3.67322 67.38647
# Velocity P-wave (km/s) = 110.00826 6.29313 77.91476
#
# Compressibility (1/GPa) = 0.03738756
#
# Stress axis : x y z
#
# Youngs Moduli (GPa) = 131.78939 62.46132 45.19765
#
# Poissons Ratio (x) = -0.02247 0.17193
# Poissons Ratio (y) = -0.04740 0.03269
# Poissons Ratio (z) = 0.50132 0.04518
#
# Static dielectric constant tensor:
#      x y z
#    x 2.159470 0.000000 -0.069710 
#    y 0.000000 1.946130 0.000000 
#    z -0.069710 0.000000 2.023280 
# 
# From -- ./inp_files/92456.got.cif
#   From: 2010.05.17/outbox.cif.g08.bks.cpg/sg10_47_cif.got.tgz:92456.got - 2010.06.03 11:33:40.
