data_PCOD9144625
_publ_section_title
;
Structure prediction by ZEFSAII (Michael W. Deem and Ramdas Pophale) SiO2 
 PCOD9144625
Probable space group: P 2/M
;
_chemical_formula_sum "Si O2"
_cell_formula_units_Z 32
_cell_length_a 25.190768
_cell_length_b 8.445532
_cell_length_c 16.748966
_cell_angle_alpha 90.000000
_cell_angle_beta 153.593027
_cell_angle_gamma 90.000000
_cell_volume 1584.771674
_symmetry_space_group_name_H-M "P 2/M"
_symmetry_group_IT_number 10
_symmetry_cell_setting 'monoclinic'
loop_
_space_group_symop_operation_xyz
x,y,z
-x,y,-z
-x,-y,-z
x,-y,z
loop_
_atom_site_type_symbol
_atom_site_label
_atom_site_fract_x
_atom_site_fract_y
_atom_site_fract_z
Si Si1 0.782469 0.809193 0.519522
Si Si2 0.799841 0.180798 0.279737
Si Si3 0.626643 0.312218 0.632821
Si Si4 0.381819 0.684112 0.091741
Si Si5 0.633209 0.187362 0.463700
Si Si6 0.755344 0.811944 0.949381
Si Si7 0.022656 0.191930 0.348480
Si Si8 0.359865 0.322328 0.809220
O O1 0.749364 0.772514 0.566282
O O2 0.901265 0.766214 0.628797
O O3 0.683102 0.715991 0.336478
O O4 0.769442 0.000000 0.494185
O O5 0.730932 0.263126 0.114325
O O6 0.914303 0.246680 0.483638
O O7 0.700654 0.193595 0.215744
O O8 0.825400 0.000000 0.290467
O O9 0.500000 0.259329 0.500000
O O10 0.636936 0.500000 0.658661
O O11 0.632544 0.273918 0.547500
O O12 0.728378 0.225978 0.821305
O O13 0.403331 0.500000 0.107571
O O14 0.508057 0.772404 0.250239
O O15 0.340616 0.720939 0.126170
O O16 0.634042 0.000000 0.479461
O O17 0.743955 0.000000 0.948498
O O18 0.886933 0.759406 0.153706
O O19 0.025681 0.000000 0.357317
O O20 0.321168 0.500000 0.781991
O O21 0.500000 0.315494 0.000000
#
# Coordination Sequence:
#
# PCOD9144625 Si02
#       8
#     4   4   4   4   4   4   4   4
#     4   9  19  36  57  82 112 147 189 234 282 333
#     4  10  20  36  56  79 111 152 197 239 280 333
#     4  11  23  40  61  87 120 152 181 230 294 347
#     4  12  24  37  54  84 123 154 188 239 295 342
#     4  11  22  37  62  91 116 149 193 238 283 343
#     4  11  22  39  64  87 110 148 196 238 282 343
#     4   8  18  38  61  84 113 150 193 241 283 325
#     4  10  19  30  47  75 111 150 190 233 285 337
#
# _framework density 20.192184999999998
#
# number of rings (size 3 to 8) (size 9 to 14) (size 15 to 20)
#    0.000    1.750    1.250    4.500    0.000    5.000 
#    0.000    9.375    0.000    3.750    0.000    0.000 
#    0.000    0.000    0.000    0.000    0.000    0.000 
#
# Total GULP energy -178485.376840 kJ/mol
# GULP energy per Si atom -5577.668026 kJ/mol
# Density = 2.014623 g / cm^3
# Si number density = 20.192185 Si / 1000 Ang^3
#
#
#
# Elastic Constant Matrix: (Units=GPa)
#
#
# Indices 1 2 3 4 5 6 
#
# 1 56.1190 -5.3476 2.4607 0.0000 -10.4928 0.0000
# 2 -5.3476 21.3734 -3.2079 0.0000 -4.4214 0.0000
# 3 2.4607 -3.2079 72.3561 0.0000 -10.1569 0.0000
# 4 0.0000 0.0000 0.0000 107.1709 0.0000 -49.5496
# 5 -10.4928 -4.4214 -10.1569 0.0000 23.3492 0.0000
# 6 0.0000 0.0000 0.0000 -49.5496 0.0000 165.0886
#
#
#
# Elastic Compliance Matrix: (Units=1/GPa)
#
#
# Indices 1 2 3 4 5 6 
#
# 1 0.020597 0.007660 0.001216 0.000000 0.011235 0.000000
# 2 0.007660 0.052480 0.004201 0.000000 0.015207 0.000000
# 3 0.001216 0.004201 0.015074 0.000000 0.007899 0.000000
# 4 0.000000 0.000000 0.000000 0.010834 0.000000 0.003252
# 5 0.011235 0.015207 0.007899 0.000000 0.054193 0.000000
# 6 0.000000 0.000000 0.000000 0.003252 0.000000 0.007033
#
#
# Mechanical properties :
#
#
# Convention : Reuss Voigt Hill
#
# Bulk Modulus (GPa) = 8.74848 15.29543 12.02195
# Shear Modulus (GPa) = 29.04291 69.51795 49.28043
#
# Velocity S-wave (km/s) = 3.79664 5.87392 4.94557
# Velocity P-wave (km/s) = 4.85400 7.32088 6.21114
#
# Compressibility (1/GPa) = 0.11430562
#
# Stress axis : x y z
#
# Youngs Moduli (GPa) = 48.55159 19.05485 66.33810
#
# Poissons Ratio (x) = -0.14596 -0.08069
# Poissons Ratio (y) = -0.37191 -0.27868
# Poissons Ratio (z) = -0.05905 -0.08005
#
# Static dielectric constant tensor:
#      x y z
#    x 5.342640 0.000000 -0.996220 
#    y 0.000000 1.698420 0.000000 
#    z -0.996220 0.000000 2.004290 
# 
# From -- ./inp_files/71672.got.cif
#   From: 2010.05.17/outbox.cif.g08.bks.cpg/sg10_36_cif.got.tgz:71672.got - 2010.06.03 11:33:40.
