data_PCOD9144974
_publ_section_title
;
Structure prediction by ZEFSAII (Michael W. Deem and Ramdas Pophale) SiO2 
 PCOD9144974
Probable space group: P 2/M
;
_chemical_formula_sum "Si O2"
_cell_formula_units_Z 24
_cell_length_a 12.845021
_cell_length_b 9.062857
_cell_length_c 12.819880
_cell_angle_alpha 90.000000
_cell_angle_beta 88.791035
_cell_angle_gamma 90.000000
_cell_volume 1492.063199
_symmetry_space_group_name_H-M "P 2/M"
_symmetry_group_IT_number 10
_symmetry_cell_setting 'monoclinic'
loop_
_space_group_symop_operation_xyz
x,y,z
-x,y,-z
-x,-y,-z
x,-y,z
loop_
_atom_site_type_symbol
_atom_site_label
_atom_site_fract_x
_atom_site_fract_y
_atom_site_fract_z
Si Si1 0.216805 0.323950 0.384737
Si Si2 0.626282 0.822314 0.218064
Si Si3 0.995851 0.169222 0.626669
Si Si4 0.625827 0.168574 0.985294
Si Si5 0.599853 0.324245 0.776734
Si Si6 0.210354 0.676239 0.630532
O O1 0.198795 0.500000 0.377246
O O2 0.319158 0.287469 0.316503
O O3 0.229595 0.290136 0.507374
O O4 0.115066 0.240568 0.344666
O O5 0.663235 0.784290 0.099098
O O6 0.510658 0.756462 0.235252
O O7 0.704275 0.755328 0.300412
O O8 0.621551 0.000000 0.224156
O O9 0.095482 0.262895 0.659698
O O10 0.000000 0.170028 0.500000
O O11 0.003584 0.000000 0.661603
O O12 0.659061 0.000000 0.963365
O O13 0.500000 0.166182 0.000000
O O14 0.647037 0.271274 0.886398
O O15 0.583099 0.500000 0.778623
O O16 0.214823 0.500000 0.643444
#
# Coordination Sequence:
#
# PCOD9144974 Si02
#       6
#     4   4   4   4   4   4
#     4   9  19  33  48  70  99 128 156 191 235 280
#     4  10  20  33  48  69  98 127 158 196 237 280
#     4   9  17  30  49  71  93 121 160 198 230 273
#     4   8  16  31  48  66  91 123 157 195 236 277
#     4  10  19  31  49  72  97 125 159 195 232 279
#     4  10  19  32  50  70  96 128 159 192 234 281
#
# _framework density 16.085108999999999
#
# number of rings (size 3 to 8) (size 9 to 14) (size 15 to 20)
#    0.000    2.667    0.000    3.000    0.000    8.333 
#    0.000    3.333    0.000    1.000    0.000    7.000 
#    0.000    0.000    0.000    0.000    0.000    0.000 
#
# Total GULP energy -133734.439887 kJ/mol
# GULP energy per Si atom -5572.268329 kJ/mol
# Density = 1.604850 g / cm^3
# Si number density = 16.085109 Si / 1000 Ang^3
#
#
#
# Elastic Constant Matrix: (Units=GPa)
#
#
# Indices 1 2 3 4 5 6 
#
# 1 99.5017 57.7424 61.6441 0.0000 14.6570 0.0000
# 2 57.7424 71.5449 53.2160 0.0000 11.1346 0.0000
# 3 61.6441 53.2160 85.0007 0.0000 14.7556 0.0000
# 4 0.0000 0.0000 0.0000 23.8146 0.0000 9.2876
# 5 14.6570 11.1346 14.7556 0.0000 -1.1261 0.0000
# 6 0.0000 0.0000 0.0000 9.2876 0.0000 14.5914
#
#
#
# Elastic Compliance Matrix: (Units=1/GPa)
#
#
# Indices 1 2 3 4 5 6 
#
# 1 0.021011 -0.011354 -0.011029 0.000000 0.016701 0.000000
# 2 -0.011354 0.031643 -0.012288 0.000000 0.004095 0.000000
# 3 -0.011029 -0.012288 0.022435 0.000000 0.028924 0.000000
# 4 0.000000 0.000000 0.000000 0.055857 0.000000 -0.035554
# 5 0.016701 0.004095 0.028924 0.000000 -0.251160 0.000000
# 6 0.000000 0.000000 0.000000 -0.035554 0.000000 0.091164
#
#
# Mechanical properties :
#
#
# Convention : Reuss Voigt Hill
#
# Bulk Modulus (GPa) = 173.94952 66.80579 120.37765
# Shear Modulus (GPa) = 118.46663 13.01897 65.74280
#
# Velocity S-wave (km/s) = 8.59126 2.84805 6.40004
# Velocity P-wave (km/s) = 14.38023 7.24141 11.38484
#
# Compressibility (1/GPa) = 0.00574879
#
# Stress axis : x y z
#
# Youngs Moduli (GPa) = 47.59335 31.60285 44.57363
#
# Poissons Ratio (x) = 0.35880 0.49160
# Poissons Ratio (y) = 0.54035 0.54770
# Poissons Ratio (z) = 0.52490 0.38832
#
# Static dielectric constant tensor:
#      x y z
#    x 1.514190 0.000000 0.001870 
#    y 0.000000 1.539980 0.000000 
#    z 0.001870 0.000000 1.543890 
# 
# From -- ./inp_files/45136.got.cif
#   From: 2010.05.17/outbox.cif.g08.bks.cpg/sg10_23_cif.got.tgz:45136.got - 2010.06.03 11:33:40.
