data_PCOD9144348
_publ_section_title
;
Structure prediction by ZEFSAII (Michael W. Deem and Ramdas Pophale) SiO2 
 PCOD9144348
Probable space group: P 2/M
;
_chemical_formula_sum "Si O2"
_cell_formula_units_Z 30
_cell_length_a 14.354963
_cell_length_b 7.529046
_cell_length_c 17.839882
_cell_angle_alpha 90.000000
_cell_angle_beta 127.562978
_cell_angle_gamma 90.000000
_cell_volume 1528.389157
_symmetry_space_group_name_H-M "P 2/M"
_symmetry_group_IT_number 10
_symmetry_cell_setting 'monoclinic'
loop_
_space_group_symop_operation_xyz
x,y,z
-x,y,-z
-x,-y,-z
x,-y,z
loop_
_atom_site_type_symbol
_atom_site_label
_atom_site_fract_x
_atom_site_fract_y
_atom_site_fract_z
Si Si1 0.242114 0.288237 0.176189
Si Si2 0.000000 0.750705 0.000000
Si Si3 0.599225 0.212336 0.490579
Si Si4 0.684205 0.285617 0.060320
Si Si5 0.055711 0.209643 0.865620
Si Si6 0.819842 0.213130 0.684176
Si Si7 0.449021 0.716648 0.859462
Si Si8 0.494512 0.713340 0.720078
O O1 0.227581 0.500000 0.152198
O O2 0.132846 0.188524 0.085170
O O3 0.234375 0.261776 0.261566
O O4 0.369812 0.226547 0.213211
O O5 0.030554 0.687020 0.930441
O O6 0.500000 0.281524 0.500000
O O7 0.728078 0.280961 0.577536
O O8 0.564580 0.243120 0.387846
O O9 0.601335 0.000000 0.501991
O O10 0.684952 0.500000 0.060073
O O11 0.812539 0.227500 0.098281
O O12 0.644713 0.225918 0.124023
O O13 0.578404 0.230887 0.953007
O O14 0.956239 0.268109 0.757139
O O15 0.035533 0.000000 0.874132
O O16 0.822741 0.000000 0.678994
O O17 0.446902 0.500000 0.859171
O O18 0.433033 0.776163 0.766252
O O19 0.499752 0.500000 0.725936
#
# Coordination Sequence:
#
# PCOD9144348 Si02
#       8
#     4   2   4   4   4   4   4   4
#     4  10  19  29  45  70  97 125 160 199 232 275
#     4  10  20  32  46  66 100 138 162 184 228 294
#     4  10  19  33  51  69  93 130 170 202 240 296
#     4   9  17  33  56  74  97 132 166 196 236 290
#     4  10  20  33  49  70  97 129 162 199 241 285
#     4   9  19  34  48  64  94 132 163 192 238 295
#     4   8  16  32  52  75 100 130 162 196 243 294
#     4  10  19  30  48  74 101 124 156 205 251 284
#
# _framework density 19.628509000000001
#
# number of rings (size 3 to 8) (size 9 to 14) (size 15 to 20)
#    0.000    2.533    1.333    2.000    0.000    5.067 
#    0.000    4.000    0.000    0.800    0.000    5.600 
#    0.000    0.000    0.000    0.000    0.000    0.000 
#
# Total GULP energy -167070.387926 kJ/mol
# GULP energy per Si atom -5569.012931 kJ/mol
# Density = 1.958383 g / cm^3
# Si number density = 19.628509 Si / 1000 Ang^3
#
#
#
# Elastic Constant Matrix: (Units=GPa)
#
#
# Indices 1 2 3 4 5 6 
#
# 1 133.2355 5.9427 82.0867 0.0000 6.0738 0.0000
# 2 5.9427 44.6855 11.5252 0.0000 12.4422 0.0000
# 3 82.0867 11.5252 168.6042 0.0000 -1.1219 0.0000
# 4 0.0000 0.0000 0.0000 0.8448 0.0000 -2.8805
# 5 6.0738 12.4422 -1.1219 0.0000 26.9855 0.0000
# 6 0.0000 0.0000 0.0000 -2.8805 0.0000 19.5044
#
#
#
# Elastic Compliance Matrix: (Units=1/GPa)
#
#
# Indices 1 2 3 4 5 6 
#
# 1 0.010935 0.000787 -0.005398 0.000000 -0.003048 0.000000
# 2 0.000787 0.026311 -0.002264 0.000000 -0.012403 0.000000
# 3 -0.005398 -0.002264 0.008731 0.000000 0.002622 0.000000
# 4 0.000000 0.000000 0.000000 2.384442 0.000000 0.352141
# 5 -0.003048 -0.012403 0.002622 0.000000 0.043570 0.000000
# 6 0.000000 0.000000 0.000000 0.352141 0.000000 0.103276
#
#
# Mechanical properties :
#
#
# Convention : Reuss Voigt Hill
#
# Bulk Modulus (GPa) = 31.02976 60.62604 45.82790
# Shear Modulus (GPa) = 1.92178 25.93165 13.92671
#
# Velocity S-wave (km/s) = 0.99056 3.63867 2.66656
# Velocity P-wave (km/s) = 4.14139 6.97187 5.73402
#
# Compressibility (1/GPa) = 0.03222712
#
# Stress axis : x y z
#
# Youngs Moduli (GPa) = 91.44913 38.00648 114.53062
#
# Poissons Ratio (x) = -0.02990 0.61823
# Poissons Ratio (y) = -0.07195 0.25931
# Poissons Ratio (z) = 0.49363 0.08605
#
# Static dielectric constant tensor:
#      x y z
#    x 1.665860 0.000000 0.007970 
#    y 0.000000 1.839080 0.000000 
#    z 0.007970 0.000000 1.695130 
# 
# From -- ./inp_files/77564.got.cif
#   From: 2010.05.17/outbox.cif.g08.bks.cpg/sg10_39_cif.got.tgz:77564.got - 2010.06.03 11:33:40.
