data_PCOD9144507
_publ_section_title
;
Structure prediction by ZEFSAII (Michael W. Deem and Ramdas Pophale) SiO2 
 PCOD9144507
Probable space group: P 2/M
;
_chemical_formula_sum "Si O2"
_cell_formula_units_Z 28
_cell_length_a 15.520837
_cell_length_b 7.748733
_cell_length_c 19.531572
_cell_angle_alpha 90.000000
_cell_angle_beta 38.109021
_cell_angle_gamma 90.000000
_cell_volume 1449.708349
_symmetry_space_group_name_H-M "P 2/M"
_symmetry_group_IT_number 10
_symmetry_cell_setting 'monoclinic'
loop_
_space_group_symop_operation_xyz
x,y,z
-x,y,-z
-x,-y,-z
x,-y,z
loop_
_atom_site_type_symbol
_atom_site_label
_atom_site_fract_x
_atom_site_fract_y
_atom_site_fract_z
Si Si1 0.071999 0.696249 0.047689
Si Si2 0.508341 0.207706 0.655387
Si Si3 0.764168 0.205442 0.252523
Si Si4 0.924073 0.794615 0.797282
Si Si5 0.371405 0.707824 0.873871
Si Si6 0.620265 0.292117 0.975143
Si Si7 0.773171 0.789638 0.404946
O O1 0.075432 0.500000 0.022242
O O2 0.076131 0.704774 0.128294
O O3 0.918822 0.764819 0.125103
O O4 0.222805 0.779060 0.937407
O O5 0.367832 0.275862 0.706273
O O6 0.491925 0.249857 0.745272
O O7 0.647121 0.272559 0.530916
O O8 0.508456 0.000000 0.649035
O O9 0.758898 0.268073 0.334695
O O10 0.748062 0.000000 0.266106
O O11 0.777429 0.753620 0.854050
O O12 0.069349 0.744057 0.670911
O O13 0.930098 0.000000 0.806852
O O14 0.357471 0.500000 0.886009
O O15 0.394462 0.770466 0.936982
O O16 0.610662 0.500000 0.982841
O O17 0.500000 0.226992 0.000000
O O18 0.766010 0.000000 0.408873
#
# Coordination Sequence:
#
# PCOD9144507 Si02
#       7
#     4   4   4   4   4   4   4
#     4   9  17  30  46  63  90 126 158 191 234 278
#     4  10  19  30  46  66  91 126 161 192 230 274
#     4   9  17  29  46  67  89 118 162 207 234 259
#     4   9  16  28  49  74  96 117 148 191 231 268
#     4   9  19  33  46  65  93 121 149 185 231 278
#     4   9  18  34  55  75  95 119 146 180 227 282
#     4   8  15  29  47  66  91 124 159 193 228 264
#
# _framework density 19.314228
#
# number of rings (size 3 to 8) (size 9 to 14) (size 15 to 20)
#    0.000    3.000    0.000    3.000    0.000    6.000 
#    0.000    6.429    0.000    5.143    0.000    6.000 
#    0.000    0.000    0.000    0.000    0.000    0.000 
#
# Total GULP energy -156037.613364 kJ/mol
# GULP energy per Si atom -5572.771906 kJ/mol
# Density = 1.927027 g / cm^3
# Si number density = 19.314228 Si / 1000 Ang^3
#
#
#
# Elastic Constant Matrix: (Units=GPa)
#
#
# Indices 1 2 3 4 5 6 
#
# 1 122.4927 9.6186 61.6783 0.0000 -21.9489 0.0000
# 2 9.6186 29.9959 -0.6620 0.0000 0.7141 0.0000
# 3 61.6783 -0.6620 143.2642 0.0000 -13.0591 0.0000
# 4 0.0000 0.0000 0.0000 26.5847 0.0000 -8.5187
# 5 -21.9489 0.7141 -13.0591 0.0000 20.4888 0.0000
# 6 0.0000 0.0000 0.0000 -8.5187 0.0000 19.8709
#
#
#
# Elastic Compliance Matrix: (Units=1/GPa)
#
#
# Indices 1 2 3 4 5 6 
#
# 1 0.012742 -0.004446 -0.004510 0.000000 0.010931 0.000000
# 2 -0.004446 0.034917 0.001625 0.000000 -0.004944 0.000000
# 3 -0.004510 0.001625 0.009007 0.000000 0.000853 0.000000
# 4 0.000000 0.000000 0.000000 0.043606 0.000000 0.018694
# 5 0.010931 -0.004944 0.000853 0.000000 0.061233 0.000000
# 6 0.000000 0.000000 0.000000 0.018694 0.000000 0.058339
#
#
# Mechanical properties :
#
#
# Convention : Reuss Voigt Hill
#
# Bulk Modulus (GPa) = 23.80717 48.55806 36.18261
# Shear Modulus (GPa) = 20.12009 28.39674 24.25842
#
# Velocity S-wave (km/s) = 3.23108 3.83854 3.54784
# Velocity P-wave (km/s) = 5.12570 6.69638 5.96298
#
# Compressibility (1/GPa) = 0.04200416
#
# Stress axis : x y z
#
# Youngs Moduli (GPa) = 78.47795 28.63932 111.02451
#
# Poissons Ratio (x) = 0.12733 0.50072
# Poissons Ratio (y) = 0.34890 -0.18038
# Poissons Ratio (z) = 0.35394 -0.04653
#
# Static dielectric constant tensor:
#      x y z
#    x 1.687390 0.000000 -0.023640 
#    y 0.000000 1.723820 0.000000 
#    z -0.023640 0.000000 1.697780 
# 
# From -- ./inp_files/54655.got.cif
#   From: 2010.05.17/outbox.cif.g08.bks.cpg/sg10_28_cif.got.tgz:54655.got - 2010.06.03 11:33:40.
