data_PCOD9144375
_publ_section_title
;
Structure prediction by ZEFSAII (Michael W. Deem and Ramdas Pophale) SiO2 
 PCOD9144375
Probable space group: P 2/M
;
_chemical_formula_sum "Si O2"
_cell_formula_units_Z 24
_cell_length_a 10.635110
_cell_length_b 8.395159
_cell_length_c 28.014742
_cell_angle_alpha 90.000000
_cell_angle_beta 24.780587
_cell_angle_gamma 90.000000
_cell_volume 1048.386198
_symmetry_space_group_name_H-M "P 2/M"
_symmetry_group_IT_number 10
_symmetry_cell_setting 'monoclinic'
loop_
_space_group_symop_operation_xyz
x,y,z
-x,y,-z
-x,-y,-z
x,-y,z
loop_
_atom_site_type_symbol
_atom_site_label
_atom_site_fract_x
_atom_site_fract_y
_atom_site_fract_z
Si Si1 0.280473 0.000000 0.940009
Si Si2 0.089827 0.677935 0.524659
Si Si3 0.138738 0.327315 0.815989
Si Si4 0.816110 0.000000 0.363015
Si Si5 0.263811 0.000000 0.807299
Si Si6 0.844764 0.000000 0.658070
Si Si7 0.740913 0.334110 0.048319
Si Si8 0.206050 0.677704 0.689951
O O1 0.082419 0.000000 0.057609
O O2 0.434130 0.170873 0.886082
O O3 0.000000 0.000000 0.000000
O O4 0.988958 0.500000 0.576693
O O5 0.447450 0.682370 0.411321
O O6 0.000000 0.686503 0.500000
O O7 0.961339 0.836449 0.593835
O O8 0.300384 0.500000 0.763171
O O9 0.320995 0.164672 0.760562
O O10 0.906779 0.332724 0.939949
O O11 0.014222 0.317164 0.805231
O O12 0.500000 0.000000 0.500000
O O13 0.840706 0.836705 0.324337
O O14 0.050407 0.000000 0.324551
O O15 0.488401 0.000000 0.774131
O O16 0.570897 0.500000 0.112082
O O17 0.000000 0.333131 0.000000
O O18 0.161790 0.500000 0.683166
#
# Coordination Sequence:
#
# PCOD9144375 Si02
#       8
#     2   4   4   2   2   2   4   4
#     4   8  14  25  40  62  93 123 146 170 211 278
#     4  10  20  33  50  71  93 119 153 194 246 300
#     4   9  17  30  48  71  99 125 150 189 240 293
#     4  12  23  38  50  64  87 124 174 220 244 271
#     4  10  19  29  47  71  98 126 148 185 242 292
#     4  12  23  34  48  67  92 124 162 205 244 277
#     4   8  13  22  39  65  97 125 144 169 215 280
#     4  10  20  34  51  68  90 124 165 206 243 282
#
# _framework density 22.892326000000001
#
# number of rings (size 3 to 8) (size 9 to 14) (size 15 to 20)
#    0.000    2.333    1.667    1.750    0.000    3.000 
#    0.000    0.000    0.000    0.000    0.000    0.000 
#    0.000   42.667    0.000   96.833    0.000    0.000 
#
# Total GULP energy -133755.530057 kJ/mol
# GULP energy per Si atom -5573.147086 kJ/mol
# Density = 2.284022 g / cm^3
# Si number density = 22.892326 Si / 1000 Ang^3
#
#
#
# Elastic Constant Matrix: (Units=GPa)
#
#
# Indices 1 2 3 4 5 6 
#
# 1 83.1007 77.9556 18.6940 0.0000 20.9059 0.0000
# 2 77.9556 323.3797 47.0687 0.0000 24.0271 0.0000
# 3 18.6940 47.0687 62.6410 0.0000 16.9032 0.0000
# 4 0.0000 0.0000 0.0000 -14.1271 0.0000 18.1588
# 5 20.9059 24.0271 16.9032 0.0000 29.5851 0.0000
# 6 0.0000 0.0000 0.0000 18.1588 0.0000 51.4384
#
#
#
# Elastic Compliance Matrix: (Units=1/GPa)
#
#
# Indices 1 2 3 4 5 6 
#
# 1 0.017828 -0.003575 -0.000021 0.000000 -0.009682 0.000000
# 2 -0.003575 0.004252 -0.002220 0.000000 0.000342 0.000000
# 3 -0.000021 -0.002220 0.020274 0.000000 -0.009765 0.000000
# 4 0.000000 0.000000 0.000000 -0.048691 0.000000 0.017189
# 5 -0.009682 0.000342 -0.009765 0.000000 0.045944 0.000000
# 6 0.000000 0.000000 0.000000 0.017189 0.000000 0.013373
#
#
# Mechanical properties :
#
#
# Convention : Reuss Voigt Hill
#
# Bulk Modulus (GPa) = 32.55190 84.06199 58.30695
# Shear Modulus (GPa) = 66.79777 35.07282 50.93530
#
# Velocity S-wave (km/s) = 5.40763 3.91842 4.72210
# Velocity P-wave (km/s) = 7.29660 7.56785 7.43346
#
# Compressibility (1/GPa) = 0.03072017
#
# Stress axis : x y z
#
# Youngs Moduli (GPa) = 56.09134 235.18500 49.32518
#
# Poissons Ratio (x) = 0.84084 0.00105
# Poissons Ratio (y) = 0.20054 0.10951
# Poissons Ratio (z) = 0.00120 0.52216
#
# Static dielectric constant tensor:
#      x y z
#    x 1.850670 0.000000 0.022510 
#    y 0.000000 2.033080 0.000000 
#    z 0.022510 0.000000 1.888960 
# 
# From -- ./inp_files/87707.got.cif
#   From: 2010.05.17/outbox.cif.g08.bks.cpg/sg10_44_cif.got.tgz:87707.got - 2010.06.03 11:33:40.
