data_PCOD9144108
_publ_section_title
;
Structure prediction by ZEFSAII (Michael W. Deem and Ramdas Pophale) SiO2 
 PCOD9144108
Probable space group: P 2/M
;
_chemical_formula_sum "Si O2"
_cell_formula_units_Z 28
_cell_length_a 10.426257
_cell_length_b 7.675990
_cell_length_c 30.441255
_cell_angle_alpha 90.000000
_cell_angle_beta 34.149808
_cell_angle_gamma 90.000000
_cell_volume 1367.621061
_symmetry_space_group_name_H-M "P 2/M"
_symmetry_group_IT_number 10
_symmetry_cell_setting 'monoclinic'
loop_
_space_group_symop_operation_xyz
x,y,z
-x,y,-z
-x,-y,-z
x,-y,z
loop_
_atom_site_type_symbol
_atom_site_label
_atom_site_fract_x
_atom_site_fract_y
_atom_site_fract_z
Si Si1 0.854447 0.798860 0.275351
Si Si2 0.897820 0.789457 0.597098
Si Si3 0.662973 0.789623 0.994940
Si Si4 0.342043 0.796497 0.162695
Si Si5 0.648425 0.786864 0.578126
Si Si6 0.564166 0.703179 0.765807
Si Si7 0.153282 0.702824 0.822424
O O1 0.607375 0.722626 0.357832
O O2 0.865440 0.794590 0.219286
O O3 0.089710 0.718418 0.226345
O O4 0.848800 0.000000 0.292124
O O5 0.737623 0.735177 0.601350
O O6 0.791165 0.723195 0.672247
O O7 0.154581 0.734454 0.511826
O O8 0.895075 0.000000 0.599190
O O9 0.913665 0.716544 0.915423
O O10 0.687819 0.000000 0.989134
O O11 0.500000 0.746634 0.000000
O O12 0.534448 0.726209 0.075173
O O13 0.410438 0.785390 0.193795
O O14 0.321502 0.000000 0.155753
O O15 0.643899 0.000000 0.579810
O O16 0.517081 0.500000 0.786539
O O17 0.357192 0.774978 0.794751
O O18 0.203215 0.500000 0.798891
#
# Coordination Sequence:
#
# PCOD9144108 Si02
#       7
#     4   4   4   4   4   4   4
#     4  10  18  35  60  85 111 141 183 234 278 323
#     4   9  16  31  56  84 111 142 183 229 279 327
#     4  10  20  38  61  86 111 137 181 235 278 323
#     4  10  22  38  59  83 108 144 185 227 280 331
#     4   8  15  28  55  89 111 135 179 235 281 320
#     4  11  24  39  53  78 117 155 187 222 271 330
#     4  11  23  36  55  83 113 148 186 222 272 331
#
# _framework density 20.473510000000001
#
# number of rings (size 3 to 8) (size 9 to 14) (size 15 to 20)
#    0.000    2.143    2.857    1.714    0.000    3.714 
#    0.000    5.714    0.000    4.286    0.000    0.000 
#    0.000    0.000    0.000    0.000    0.000    0.000 
#
# Total GULP energy -156307.680951 kJ/mol
# GULP energy per Si atom -5582.417177 kJ/mol
# Density = 2.042691 g / cm^3
# Si number density = 20.473510 Si / 1000 Ang^3
#
#
#
# Elastic Constant Matrix: (Units=GPa)
#
#
# Indices 1 2 3 4 5 6 
#
# 1 72.7687 -7.0785 32.1517 0.0000 -1.8182 0.0000
# 2 -7.0785 36.4104 -10.9030 0.0000 -3.8958 0.0000
# 3 32.1517 -10.9030 123.1946 0.0000 -6.6331 0.0000
# 4 0.0000 0.0000 0.0000 -320.8751 0.0000 -277.0813
# 5 -1.8182 -3.8958 -6.6331 0.0000 32.7485 0.0000
# 6 0.0000 0.0000 0.0000 -277.0813 0.0000 -219.0197
#
#
#
# Elastic Compliance Matrix: (Units=1/GPa)
#
#
# Indices 1 2 3 4 5 6 
#
# 1 0.015659 0.001909 -0.003901 0.000000 0.000306 0.000000
# 2 0.001909 0.028948 0.002280 0.000000 0.004011 0.000000
# 3 -0.003901 0.002280 0.009443 0.000000 0.001967 0.000000
# 4 0.000000 0.000000 0.000000 0.033716 0.000000 -0.042654
# 5 0.000306 0.004011 0.001967 0.000000 0.031428 0.000000
# 6 0.000000 0.000000 0.000000 -0.042654 0.000000 0.049395
#
#
# Mechanical properties :
#
#
# Convention : Reuss Voigt Hill
#
# Bulk Modulus (GPa) = 18.30687 28.96825 23.63756
# Shear Modulus (GPa) = 26.84951 -86.88236 -30.01642
#
# Velocity S-wave (km/s) = 3.62529 -6.52140 -3.83314
# Velocity P-wave (km/s) = 5.14634 6.52112 2.83197
#
# Compressibility (1/GPa) = 0.05462429
#
# Stress axis : x y z
#
# Youngs Moduli (GPa) = 63.86000 34.54517 105.89731
#
# Poissons Ratio (x) = -0.06594 0.41314
# Poissons Ratio (y) = -0.12190 -0.24142
# Poissons Ratio (z) = 0.24914 -0.07875
#
# Static dielectric constant tensor:
#      x y z
#    x 1.696440 0.000000 -0.034290 
#    y 0.000000 1.749740 0.000000 
#    z -0.034290 0.000000 1.731470 
# 
# From -- ./inp_files/37062.got.cif
#   From: 2010.05.17/outbox.cif.g08.bks.cpg/sg10_19_cif.got.tgz:37062.got - 2010.06.03 11:33:40.
