data_PCOD9144759
_publ_section_title
;
Structure prediction by ZEFSAII (Michael W. Deem and Ramdas Pophale) SiO2 
 PCOD9144759
Probable space group: P 2/M
;
_chemical_formula_sum "Si O2"
_cell_formula_units_Z 30
_cell_length_a 23.144398
_cell_length_b 7.508417
_cell_length_c 14.950534
_cell_angle_alpha 90.000000
_cell_angle_beta 29.444772
_cell_angle_gamma 90.000000
_cell_volume 1277.171030
_symmetry_space_group_name_H-M "P 2/M"
_symmetry_group_IT_number 10
_symmetry_cell_setting 'monoclinic'
loop_
_space_group_symop_operation_xyz
x,y,z
-x,y,-z
-x,-y,-z
x,-y,z
loop_
_atom_site_type_symbol
_atom_site_label
_atom_site_fract_x
_atom_site_fract_y
_atom_site_fract_z
Si Si1 0.494492 0.209522 0.310723
Si Si2 0.937932 0.283284 0.770438
Si Si3 0.688451 0.797126 0.588463
Si Si4 0.129940 0.714179 0.799942
Si Si5 0.801015 0.708370 0.616946
Si Si6 0.500000 0.749266 0.500000
Si Si7 0.755740 0.716752 0.166978
Si Si8 0.256281 0.284080 0.109900
O O1 0.408200 0.280305 0.349245
O O2 0.481696 0.312362 0.421572
O O3 0.465760 0.000000 0.368547
O O4 0.626284 0.219130 0.096407
O O5 0.942281 0.500000 0.768727
O O6 0.859142 0.234114 0.791057
O O7 0.071155 0.217194 0.582927
O O8 0.863656 0.230564 0.957867
O O9 0.810300 0.787507 0.369219
O O10 0.712116 0.720642 0.654061
O O11 0.652477 0.000000 0.650758
O O12 0.124157 0.500000 0.796456
O O13 0.210411 0.753931 0.776859
O O14 0.000000 0.776776 0.000000
O O15 0.821358 0.500000 0.606983
O O16 0.754055 0.780525 0.774205
O O17 0.634624 0.810601 0.304453
O O18 0.737712 0.500000 0.180608
O O19 0.263125 0.500000 0.098671
#
# Coordination Sequence:
#
# PCOD9144759 Si02
#       8
#     4   4   4   4   4   2   4   4
#     4  11  25  42  61  85 118 160 199 244 297 353
#     4   9  17  34  60  92 124 151 186 237 299 357
#     4  11  24  41  58  82 117 161 206 244 293 349
#     4  10  20  36  59  87 118 154 195 241 294 351
#     4  10  21  39  64  90 119 154 196 247 300 352
#     4  12  20  38  60  82 115 158 193 236 287 354
#     4  10  19  30  55  92 120 147 186 237 292 344
#     4  10  21  38  64  94 118 150 196 248 299 352
#
# _framework density 23.489415000000001
#
# number of rings (size 3 to 8) (size 9 to 14) (size 15 to 20)
#    0.000    1.733    2.667    2.000    0.000    6.667 
#    0.000    3.333    0.000    1.600    0.000    0.000 
#    0.000    0.000    0.000    0.000    0.000    0.000 
#
# Total GULP energy -167483.741818 kJ/mol
# GULP energy per Si atom -5582.791394 kJ/mol
# Density = 2.343595 g / cm^3
# Si number density = 23.489415 Si / 1000 Ang^3
#
#
#
# Elastic Constant Matrix: (Units=GPa)
#
#
# Indices 1 2 3 4 5 6 
#
# 1 126.7035 4.4951 58.1514 0.0000 18.0166 0.0000
# 2 4.4951 72.5545 8.2683 0.0000 2.5577 0.0000
# 3 58.1514 8.2683 110.0146 0.0000 13.7622 0.0000
# 4 0.0000 0.0000 0.0000 -7.0301 0.0000 -8.0070
# 5 18.0166 2.5577 13.7622 0.0000 52.4894 0.0000
# 6 0.0000 0.0000 0.0000 -8.0070 0.0000 -44.6351
#
#
#
# Elastic Compliance Matrix: (Units=1/GPa)
#
#
# Indices 1 2 3 4 5 6 
#
# 1 0.010673 0.000029 -0.005361 0.000000 -0.002259 0.000000
# 2 0.000029 0.013911 -0.001008 0.000000 -0.000424 0.000000
# 3 -0.005361 -0.001008 0.012162 0.000000 -0.001299 0.000000
# 4 0.000000 0.000000 0.000000 -0.178772 0.000000 0.032069
# 5 -0.002259 -0.000424 -0.001299 0.000000 0.020188 0.000000
# 6 0.000000 0.000000 0.000000 0.032069 0.000000 -0.028157
#
#
# Mechanical properties :
#
#
# Convention : Reuss Voigt Hill
#
# Bulk Modulus (GPa) = 41.55233 50.12246 45.83740
# Shear Modulus (GPa) = -38.67184 16.05537 -11.30824
#
# Velocity S-wave (km/s) = -4.06193 2.61725 -2.19651
# Velocity P-wave (km/s) = 2.06659 5.52431 3.62265
#
# Compressibility (1/GPa) = 0.02406604
#
# Stress axis : x y z
#
# Youngs Moduli (GPa) = 93.69239 71.88697 82.22442
#
# Poissons Ratio (x) = -0.00211 0.44082
# Poissons Ratio (y) = -0.00275 0.08288
# Poissons Ratio (z) = 0.50231 0.07246
#
# Static dielectric constant tensor:
#      x y z
#    x 1.863060 0.000000 -0.016840 
#    y 0.000000 1.968450 0.000000 
#    z -0.016840 0.000000 1.842310 
# 
# From -- ./inp_files/71309.got.cif
#   From: 2010.05.17/outbox.cif.g08.bks.cpg/sg10_36_cif.got.tgz:71309.got - 2010.06.03 11:33:40.
