data_PCOD9144026
_publ_section_title
;
Structure prediction by ZEFSAII (Michael W. Deem and Ramdas Pophale) SiO2 
 PCOD9144026
Probable space group: P 2/M
;
_chemical_formula_sum "Si O2"
_cell_formula_units_Z 28
_cell_length_a 17.922505
_cell_length_b 7.575113
_cell_length_c 11.523484
_cell_angle_alpha 90.000000
_cell_angle_beta 51.800371
_cell_angle_gamma 90.000000
_cell_volume 1229.468225
_symmetry_space_group_name_H-M "P 2/M"
_symmetry_group_IT_number 10
_symmetry_cell_setting 'monoclinic'
loop_
_space_group_symop_operation_xyz
x,y,z
-x,y,-z
-x,-y,-z
x,-y,z
loop_
_atom_site_type_symbol
_atom_site_label
_atom_site_fract_x
_atom_site_fract_y
_atom_site_fract_z
Si Si1 0.248620 0.215166 0.202900
Si Si2 0.576637 0.796397 0.340398
Si Si3 0.557253 0.783890 0.100892
Si Si4 0.044122 0.787644 0.332517
Si Si5 0.262704 0.295010 0.652381
Si Si6 0.345607 0.213085 0.328399
Si Si7 0.048722 0.287892 0.831167
O O1 0.153514 0.275666 0.232082
O O2 0.259131 0.265377 0.327733
O O3 0.247281 0.000000 0.199134
O O4 0.348291 0.275415 0.054469
O O5 0.500000 0.713045 0.500000
O O6 0.573295 0.721703 0.216560
O O7 0.678971 0.792688 0.300470
O O8 0.546660 0.000000 0.352391
O O9 0.448625 0.731772 0.179361
O O10 0.558097 0.000000 0.089304
O O11 0.000000 0.726378 0.500000
O O12 0.997393 0.749109 0.251510
O O13 0.042988 0.000000 0.340795
O O14 0.253960 0.500000 0.691295
O O15 0.325597 0.277727 0.476191
O O16 0.157826 0.223376 0.728727
O O17 0.347863 0.000000 0.331213
O O18 0.049660 0.500000 0.837275
O O19 0.000000 0.225896 0.000000
#
# Coordination Sequence:
#
# PCOD9144026 Si02
#       7
#     4   4   4   4   4   4   4
#     4   9  18  31  54  85 114 143 179 228 278 328
#     4  10  19  34  55  82 112 143 182 222 265 328
#     4   9  17  30  51  82 114 143 180 221 266 325
#     4  10  21  38  60  90 121 148 189 244 297 345
#     4  11  23  37  56  80 109 145 186 228 278 331
#     4  10  18  34  58  82 111 147 183 221 270 329
#     4  10  24  44  61  81 113 153 199 245 289 344
#
# _framework density 22.774073000000001
#
# number of rings (size 3 to 8) (size 9 to 14) (size 15 to 20)
#    0.000    2.143    1.429    1.714    2.000    4.857 
#    0.000    0.714    0.000    3.429    0.000    0.000 
#    0.000    0.000    0.000    0.000    0.000    0.000 
#
# Total GULP energy -156197.217525 kJ/mol
# GULP energy per Si atom -5578.472054 kJ/mol
# Density = 2.272224 g / cm^3
# Si number density = 22.774073 Si / 1000 Ang^3
#
#
#
# Elastic Constant Matrix: (Units=GPa)
#
#
# Indices 1 2 3 4 5 6 
#
# 1 189.3012 -5.1729 60.8613 0.0000 0.1693 0.0000
# 2 -5.1729 48.8041 1.4533 0.0000 0.4787 0.0000
# 3 60.8613 1.4533 107.0166 0.0000 -2.7423 0.0000
# 4 0.0000 0.0000 0.0000 9.2624 0.0000 12.7846
# 5 0.1693 0.4787 -2.7423 0.0000 36.5336 0.0000
# 6 0.0000 0.0000 0.0000 12.7846 0.0000 94.8880
#
#
#
# Elastic Compliance Matrix: (Units=1/GPa)
#
#
# Indices 1 2 3 4 5 6 
#
# 1 0.006499 0.000803 -0.003715 0.000000 -0.000320 0.000000
# 2 0.000803 0.020601 -0.000745 0.000000 -0.000330 0.000000
# 3 -0.003715 -0.000745 0.011490 0.000000 0.000889 0.000000
# 4 0.000000 0.000000 0.000000 0.132629 0.000000 -0.017870
# 5 -0.000320 -0.000330 0.000889 0.000000 0.027445 0.000000
# 6 0.000000 0.000000 0.000000 -0.017870 0.000000 0.012946
#
#
# Mechanical properties :
#
#
# Convention : Reuss Voigt Hill
#
# Bulk Modulus (GPa) = 31.97400 51.04500 41.50950
# Shear Modulus (GPa) = 21.80079 47.33546 34.56812
#
# Velocity S-wave (km/s) = 3.09732 4.56398 3.90021
# Velocity P-wave (km/s) = 5.18279 7.08770 6.20874
#
# Compressibility (1/GPa) = 0.03127541
#
# Stress axis : x y z
#
# Youngs Moduli (GPa) = 153.86290 48.54233 87.03091
#
# Poissons Ratio (x) = -0.03896 0.32335
# Poissons Ratio (y) = -0.12350 0.06481
# Poissons Ratio (z) = 0.57165 0.03615
#
# Static dielectric constant tensor:
#      x y z
#    x 1.832220 0.000000 -0.002820 
#    y 0.000000 1.886650 0.000000 
#    z -0.002820 0.000000 1.862380 
# 
# From -- ./inp_files/49568.got.cif
#   From: 2010.05.17/outbox.cif.g08.bks.cpg/sg10_25_cif.got.tgz:49568.got - 2010.06.03 11:33:40.
