data_PCOD9144069
_publ_section_title
;
Structure prediction by ZEFSAII (Michael W. Deem and Ramdas Pophale) SiO2 
 PCOD9144069
Probable space group: P 2/M
;
_chemical_formula_sum "Si O2"
_cell_formula_units_Z 32
_cell_length_a 11.827929
_cell_length_b 7.743304
_cell_length_c 15.533498
_cell_angle_alpha 90.000000
_cell_angle_beta 82.692338
_cell_angle_gamma 90.000000
_cell_volume 1411.114641
_symmetry_space_group_name_H-M "P 2/M"
_symmetry_group_IT_number 10
_symmetry_cell_setting 'monoclinic'
loop_
_space_group_symop_operation_xyz
x,y,z
-x,y,-z
-x,-y,-z
x,-y,z
loop_
_atom_site_type_symbol
_atom_site_label
_atom_site_fract_x
_atom_site_fract_y
_atom_site_fract_z
Si Si1 0.617479 0.295438 0.526191
Si Si2 0.971858 0.293416 0.097687
Si Si3 0.785787 0.208861 0.866755
Si Si4 0.968602 0.708353 0.602275
Si Si5 0.788233 0.288727 0.367898
Si Si6 0.729061 0.707704 0.189724
Si Si7 0.617549 0.793088 0.028864
Si Si8 0.719876 0.198963 0.690788
O O1 0.500000 0.222707 0.500000
O O2 0.615454 0.500000 0.509897
O O3 0.723600 0.228053 0.459673
O O4 0.639624 0.274506 0.624875
O O5 0.959172 0.500000 0.092188
O O6 0.082217 0.259782 0.144834
O O7 0.852092 0.226652 0.144323
O O8 0.000000 0.223221 0.000000
O O9 0.723078 0.273950 0.786795
O O10 0.782237 0.000000 0.865727
O O11 0.722455 0.270917 0.959431
O O12 0.955202 0.500000 0.610030
O O13 0.849857 0.786461 0.643977
O O14 0.000000 0.746358 0.500000
O O15 0.079664 0.764253 0.645346
O O16 0.792338 0.500000 0.369259
O O17 0.720177 0.234454 0.289266
O O18 0.732307 0.500000 0.191813
O O19 0.637165 0.755038 0.126949
O O20 0.616422 0.000000 0.020639
O O21 0.500000 0.726677 0.000000
O O22 0.687453 0.000000 0.701493
#
# Coordination Sequence:
#
# PCOD9144069 Si02
#       8
#     4   4   4   4   4   4   4   4
#     4  10  21  39  60  80 106 145 192 232 271 328
#     4  10  19  33  56  85 112 139 175 224 275 326
#     4  10  22  38  56  80 112 150 184 221 273 331
#     4  10  18  34  61  84 109 148 185 219 269 331
#     4   9  18  34  56  83 111 140 176 222 275 325
#     4  10  20  35  56  82 112 140 173 223 277 325
#     4  10  22  40  58  76 104 145 190 229 267 320
#     4  11  23  37  55  83 117 146 180 229 280 329
#
# _framework density 22.677108
#
# number of rings (size 3 to 8) (size 9 to 14) (size 15 to 20)
#    0.000    2.000    2.500    1.125    0.000    4.500 
#    0.000    1.250    0.000    0.000    0.000    0.000 
#    0.000    0.000    0.000    0.000    0.000    0.000 
#
# Total GULP energy -178770.759524 kJ/mol
# GULP energy per Si atom -5586.586235 kJ/mol
# Density = 2.262549 g / cm^3
# Si number density = 22.677108 Si / 1000 Ang^3
#
#
#
# Elastic Constant Matrix: (Units=GPa)
#
#
# Indices 1 2 3 4 5 6 
#
# 1 65.3604 -3.8680 2.5270 0.0000 39.6311 0.0000
# 2 -3.8680 24.6914 -4.3927 0.0000 -4.2880 0.0000
# 3 2.5270 -4.3927 91.6640 0.0000 36.9279 0.0000
# 4 0.0000 0.0000 0.0000 16.7206 0.0000 15.4036
# 5 39.6311 -4.2880 36.9279 0.0000 35.4760 0.0000
# 6 0.0000 0.0000 0.0000 15.4036 0.0000 10.3186
#
#
#
# Elastic Compliance Matrix: (Units=1/GPa)
#
#
# Indices 1 2 3 4 5 6 
#
# 1 -0.140288 0.005651 -0.102080 0.000000 0.263660 0.000000
# 2 0.005651 0.041141 0.004057 0.000000 -0.005563 0.000000
# 3 -0.102080 0.004057 -0.055490 0.000000 0.172287 0.000000
# 4 0.000000 0.000000 0.000000 -0.159388 0.000000 0.237934
# 5 0.263660 -0.005563 0.172287 0.000000 -0.446363 0.000000
# 6 0.000000 0.000000 0.000000 0.237934 0.000000 -0.258277
#
#
# Mechanical properties :
#
#
# Convention : Reuss Voigt Hill
#
# Bulk Modulus (GPa) = -2.94653 18.91650 7.98499
# Shear Modulus (GPa) = -5.27957 24.99967 9.86005
#
# Velocity S-wave (km/s) = -1.52748 3.32387 2.08745
# Velocity P-wave (km/s) = 2.10074 4.80527 3.05594
#
# Compressibility (1/GPa) = -0.33938227
#
# Stress axis : x y z
#
# Youngs Moduli (GPa) = -7.12817 24.30679 -18.02133
#
# Poissons Ratio (x) = -0.13736 -1.83962
# Poissons Ratio (y) = 0.04028 0.07311
# Poissons Ratio (z) = -0.72764 -0.09861
#
# Static dielectric constant tensor:
#      x y z
#    x 1.829270 0.000000 0.007860 
#    y 0.000000 1.840780 0.000000 
#    z 0.007860 0.000000 1.855570 
# 
# From -- ./inp_files/58334.got.cif
#   From: 2010.05.17/outbox.cif.g08.bks.cpg/sg10_30_cif.got.tgz:58334.got - 2010.06.03 11:33:40.
