data_PCOD9144180
_publ_section_title
;
Structure prediction by ZEFSAII (Michael W. Deem and Ramdas Pophale) SiO2 
 PCOD9144180
Probable space group: P 2/M
;
_chemical_formula_sum "Si O2"
_cell_formula_units_Z 22
_cell_length_a 12.581971
_cell_length_b 16.630009
_cell_length_c 5.223373
_cell_angle_alpha 90.000000
_cell_angle_beta 106.791655
_cell_angle_gamma 90.000000
_cell_volume 1046.328851
_symmetry_space_group_name_H-M "P 2/M"
_symmetry_group_IT_number 10
_symmetry_cell_setting 'monoclinic'
loop_
_space_group_symop_operation_xyz
x,y,z
-x,y,-z
-x,-y,-z
x,-y,z
loop_
_atom_site_type_symbol
_atom_site_label
_atom_site_fract_x
_atom_site_fract_y
_atom_site_fract_z
Si Si1 0.500000 0.699120 0.500000
Si Si2 0.388474 0.177674 0.816518
Si Si3 0.884133 0.189589 0.825417
Si Si4 0.168041 0.906087 0.692775
Si Si5 0.282159 0.308665 0.120984
Si Si6 0.927379 0.405748 0.209781
O O1 0.564132 0.760843 0.359415
O O2 0.604166 0.651481 0.695097
O O3 0.295028 0.112664 0.693789
O O4 0.500000 0.137189 0.000000
O O5 0.330788 0.238434 0.975989
O O6 0.897505 0.140215 0.575854
O O7 0.792977 0.259233 0.727778
O O8 0.850536 0.130826 0.037531
O O9 0.000000 0.226118 0.000000
O O10 0.144075 0.000000 0.677927
O O11 0.190935 0.362461 0.914395
O O12 0.905327 0.500000 0.248324
O O13 0.000000 0.373379 0.500000
O O14 0.000000 0.402659 0.000000
#
# Coordination Sequence:
#
# PCOD9144180 Si02
#       6
#     2   4   4   4   4   4
#     4  10  18  38  60  86 118 152 202 256 298 344
#     4   9  20  36  57  84 114 153 201 249 295 347
#     4  11  23  38  58  85 114 154 200 243 292 357
#     4  11  23  39  56  82 117 153 195 246 305 359
#     4  10  21  36  64  88 120 157 202 246 296 355
#     4  10  23  41  64  96 131 162 194 240 294 349
#
# _framework density 21.025894000000001
#
# number of rings (size 3 to 8) (size 9 to 14) (size 15 to 20)
#    0.000    1.818    1.818    1.636    2.545    5.455 
#    0.000    0.909    0.000    4.909    0.000    0.000 
#    0.000    0.000    0.000    0.000    0.000    0.000 
#
# Total GULP energy -122663.703220 kJ/mol
# GULP energy per Si atom -5575.622874 kJ/mol
# Density = 2.097804 g / cm^3
# Si number density = 21.025894 Si / 1000 Ang^3
#
#
#
# Elastic Constant Matrix: (Units=GPa)
#
#
# Indices 1 2 3 4 5 6 
#
# 1 133.1589 22.9751 50.5563 0.0000 35.6845 0.0000
# 2 22.9751 60.8300 20.7313 0.0000 19.0412 0.0000
# 3 50.5563 20.7313 112.3664 0.0000 28.1566 0.0000
# 4 0.0000 0.0000 0.0000 18.9467 0.0000 4.4480
# 5 35.6845 19.0412 28.1566 0.0000 56.2979 0.0000
# 6 0.0000 0.0000 0.0000 4.4480 0.0000 -3.3751
#
#
#
# Elastic Compliance Matrix: (Units=1/GPa)
#
#
# Indices 1 2 3 4 5 6 
#
# 1 0.010133 -0.001369 -0.003216 0.000000 -0.004351 0.000000
# 2 -0.001369 0.019013 -0.001713 0.000000 -0.004706 0.000000
# 3 -0.003216 -0.001713 0.011440 0.000000 -0.003104 0.000000
# 4 0.000000 0.000000 0.000000 0.040309 0.000000 0.053122
# 5 -0.004351 -0.004706 -0.003104 0.000000 0.023665 0.000000
# 6 0.000000 0.000000 0.000000 0.053122 0.000000 -0.226276
#
#
# Mechanical properties :
#
#
# Convention : Reuss Voigt Hill
#
# Bulk Modulus (GPa) = 35.72591 54.98675 45.35633
# Shear Modulus (GPa) = -50.10522 28.51339 -10.79592
#
# Velocity S-wave (km/s) = -4.88692 3.68653 -2.26842
# Velocity P-wave (km/s) = 3.84894 6.65803 3.84155
#
# Compressibility (1/GPa) = 0.02799089
#
# Stress axis : x y z
#
# Youngs Moduli (GPa) = 98.68503 52.59500 87.41070
#
# Poissons Ratio (x) = 0.07201 0.28113
# Poissons Ratio (y) = 0.13511 0.14970
# Poissons Ratio (z) = 0.31739 0.09007
#
# Static dielectric constant tensor:
#      x y z
#    x 1.844810 0.000000 0.043400 
#    y 0.000000 1.730020 0.000000 
#    z 0.043400 0.000000 1.874170 
# 
# From -- ./inp_files/7270.got.cif
#   From: 2010.05.17/outbox.cif.g08.bks.cpg/sg10_4_cif.got.tgz:7270.got - 2010.06.03 11:33:40.
