data_PCOD9144226
_publ_section_title
;
Structure prediction by ZEFSAII (Michael W. Deem and Ramdas Pophale) SiO2 
 PCOD9144226
Probable space group: P 2/M
;
_chemical_formula_sum "Si O2"
_cell_formula_units_Z 32
_cell_length_a 19.368459
_cell_length_b 17.881546
_cell_length_c 13.899296
_cell_angle_alpha 90.000000
_cell_angle_beta 157.771630
_cell_angle_gamma 90.000000
_cell_volume 1821.077139
_symmetry_space_group_name_H-M "P 2/M"
_symmetry_group_IT_number 10
_symmetry_cell_setting 'monoclinic'
loop_
_space_group_symop_operation_xyz
x,y,z
-x,y,-z
-x,-y,-z
x,-y,z
loop_
_atom_site_type_symbol
_atom_site_label
_atom_site_fract_x
_atom_site_fract_y
_atom_site_fract_z
Si Si1 0.445119 0.410867 0.775448
Si Si2 0.859239 0.411946 0.900911
Si Si3 0.441228 0.156740 0.568449
Si Si4 0.118398 0.087596 0.251621
Si Si5 0.462986 0.333588 0.606889
Si Si6 0.854384 0.588845 0.112167
Si Si7 0.758401 0.089927 0.877768
Si Si8 0.209778 0.411000 0.665587
O O1 0.444982 0.500000 0.751858
O O2 0.383216 0.362656 0.605675
O O3 0.320074 0.401684 0.707906
O O4 0.650438 0.386506 0.071538
O O5 0.821544 0.500000 0.836501
O O6 0.672015 0.367332 0.646693
O O7 0.931367 0.404370 0.102433
O O8 0.000000 0.387486 0.000000
O O9 0.305299 0.132228 0.478536
O O10 0.466692 0.245052 0.602145
O O11 0.638462 0.117146 0.813122
O O12 0.334850 0.128963 0.335168
O O13 0.163182 0.000000 0.318706
O O14 0.000000 0.095021 0.000000
O O15 0.973317 0.108788 0.147453
O O16 0.663838 0.368792 0.865064
O O17 0.822109 0.500000 0.087155
O O18 0.005744 0.617083 0.382996
O O19 0.742097 0.000000 0.845942
O O20 0.190696 0.500000 0.656046
#
# Coordination Sequence:
#
# PCOD9144226 Si02
#       8
#     4   4   4   4   4   4   4   4
#     4   9  17  33  54  72  90 118 169 220 259 298
#     4  10  21  35  48  60  85 131 179 209 237 288
#     4  10  19  28  41  67  98 126 160 194 237 292
#     4   8  14  28  48  66  84 116 163 203 235 273
#     4  12  23  30  42  69 103 134 158 195 253 307
#     4  10  20  33  48  66  90 125 169 212 252 289
#     4   9  17  31  51  67  87 130 174 206 235 273
#     4   8  16  33  56  73  83 111 169 231 263 290
#
# _framework density 17.572019000000001
#
# number of rings (size 3 to 8) (size 9 to 14) (size 15 to 20)
#    0.000    2.500    0.000    5.250    3.500    5.000 
#    2.250    1.875    0.000    0.000    0.000    0.000 
#    0.000    0.000    0.000   40.500    0.000    0.500 
#
# Total GULP energy -178338.057167 kJ/mol
# GULP energy per Si atom -5573.064286 kJ/mol
# Density = 1.753202 g / cm^3
# Si number density = 17.572019 Si / 1000 Ang^3
#
#
#
# Elastic Constant Matrix: (Units=GPa)
#
#
# Indices 1 2 3 4 5 6 
#
# 1 52.9188 21.7818 20.5702 0.0000 17.1643 0.0000
# 2 21.7818 64.8555 34.3034 0.0000 8.1859 0.0000
# 3 20.5702 34.3034 89.5380 0.0000 19.8222 0.0000
# 4 0.0000 0.0000 0.0000 -30.0303 0.0000 -14.3134
# 5 17.1643 8.1859 19.8222 0.0000 36.1306 0.0000
# 6 0.0000 0.0000 0.0000 -14.3134 0.0000 -1.1978
#
#
#
# Elastic Compliance Matrix: (Units=1/GPa)
#
#
# Indices 1 2 3 4 5 6 
#
# 1 0.025271 -0.006680 -0.001052 0.000000 -0.009915 0.000000
# 2 -0.006680 0.021107 -0.007052 0.000000 0.002260 0.000000
# 3 -0.001052 -0.007052 0.015534 0.000000 -0.006425 0.000000
# 4 0.000000 0.000000 0.000000 0.007092 0.000000 -0.084743
# 5 -0.009915 0.002260 -0.006425 0.000000 0.035401 0.000000
# 6 0.000000 0.000000 0.000000 -0.084743 0.000000 0.177795
#
#
# Mechanical properties :
#
#
# Convention : Reuss Voigt Hill
#
# Bulk Modulus (GPa) = 30.91634 40.06924 35.49279
# Shear Modulus (GPa) = 15.50155 9.69095 12.59625
#
# Velocity S-wave (km/s) = 2.97336 2.35095 2.68028
# Velocity P-wave (km/s) = 5.42403 5.49742 5.46085
#
# Compressibility (1/GPa) = 0.03234535
#
# Stress axis : x y z
#
# Youngs Moduli (GPa) = 39.57112 47.37754 64.37375
#
# Poissons Ratio (x) = 0.31646 0.06770
# Poissons Ratio (y) = 0.26432 0.45398
# Poissons Ratio (z) = 0.04161 0.33412
#
# Static dielectric constant tensor:
#      x y z
#    x 1.681630 0.000000 0.051380 
#    y 0.000000 1.553970 0.000000 
#    z 0.051380 0.000000 1.634310 
# 
# From -- ./inp_files/70880.got.cif
#   From: 2010.05.17/outbox.cif.g08.bks.cpg/sg10_36_cif.got.tgz:70880.got - 2010.06.03 11:33:40.
