data_PCOD9144457
_publ_section_title
;
Structure prediction by ZEFSAII (Michael W. Deem and Ramdas Pophale) SiO2 
 PCOD9144457
Probable space group: P 2/M
;
_chemical_formula_sum "Si O2"
_cell_formula_units_Z 28
_cell_length_a 17.069855
_cell_length_b 7.829693
_cell_length_c 22.127384
_cell_angle_alpha 90.000000
_cell_angle_beta 32.118247
_cell_angle_gamma 90.000000
_cell_volume 1572.336277
_symmetry_space_group_name_H-M "P 2/M"
_symmetry_group_IT_number 10
_symmetry_cell_setting 'monoclinic'
loop_
_space_group_symop_operation_xyz
x,y,z
-x,y,-z
-x,-y,-z
x,-y,z
loop_
_atom_site_type_symbol
_atom_site_label
_atom_site_fract_x
_atom_site_fract_y
_atom_site_fract_z
Si Si1 0.264006 0.305068 0.673390
Si Si2 0.470609 0.799822 0.430396
Si Si3 0.970565 0.292470 0.263303
Si Si4 0.242980 0.202159 0.485949
Si Si5 0.162368 0.700550 0.405346
Si Si6 0.706086 0.291779 0.914733
Si Si7 0.612849 0.291375 0.841106
O O1 0.236429 0.500000 0.708557
O O2 0.358038 0.223280 0.666032
O O3 0.375897 0.297556 0.543001
O O4 0.116177 0.230140 0.739928
O O5 0.400797 0.747252 0.412171
O O6 0.435700 0.000000 0.461674
O O7 0.968511 0.500000 0.262293
O O8 0.877805 0.242000 0.383447
O O9 0.138260 0.233347 0.160628
O O10 0.205125 0.285711 0.447271
O O11 0.244437 0.000000 0.474701
O O12 0.152465 0.500000 0.395873
O O13 0.288132 0.771576 0.278875
O O14 0.000000 0.775863 0.500000
O O15 0.708405 0.500000 0.914543
O O16 0.685867 0.243579 0.857597
O O17 0.557551 0.235248 0.045794
O O18 0.608346 0.500000 0.842872
#
# Coordination Sequence:
#
# PCOD9144457 Si02
#       7
#     4   4   4   4   4   4   4
#     4   9  15  22  36  59  83 106 133 167 208 248
#     4   9  16  26  38  53  78 111 141 167 200 245
#     4   9  16  26  42  64  88 112 138 172 211 250
#     4  10  20  30  41  60  86 116 145 172 206 247
#     4  10  19  30  45  65  87 111 141 174 207 246
#     4   8  13  24  42  63  86 108 134 170 208 246
#     4   8  14  24  41  64  85 108 138 170 205 245
#
# _framework density 17.807894999999998
#
# number of rings (size 3 to 8) (size 9 to 14) (size 15 to 20)
#    0.000    3.000    0.000    3.857    0.000    4.857 
#    0.000    0.000    0.000    0.857    0.000    4.000 
#    0.000    8.000    0.000    0.000    0.000    0.000 
#
# Total GULP energy -155877.817922 kJ/mol
# GULP energy per Si atom -5567.064926 kJ/mol
# Density = 1.776736 g / cm^3
# Si number density = 17.807895 Si / 1000 Ang^3
#
#
#
# Elastic Constant Matrix: (Units=GPa)
#
#
# Indices 1 2 3 4 5 6 
#
# 1 129.9152 -4.1809 75.4186 0.0000 -34.2059 0.0000
# 2 -4.1809 19.0217 2.6895 0.0000 -1.2726 0.0000
# 3 75.4186 2.6895 100.6305 0.0000 -22.8918 0.0000
# 4 0.0000 0.0000 0.0000 -6.8017 0.0000 2.0030
# 5 -34.2059 -1.2726 -22.8918 0.0000 31.8557 0.0000
# 6 0.0000 0.0000 0.0000 2.0030 0.0000 22.2327
#
#
#
# Elastic Compliance Matrix: (Units=1/GPa)
#
#
# Indices 1 2 3 4 5 6 
#
# 1 0.016620 0.005810 -0.010159 0.000000 0.010777 0.000000
# 2 0.005810 0.054848 -0.004666 0.000000 0.005078 0.000000
# 3 -0.010159 -0.004666 0.018113 0.000000 0.001921 0.000000
# 4 0.000000 0.000000 0.000000 -0.143221 0.000000 0.012903
# 5 0.010777 0.005078 0.001921 0.000000 0.044547 0.000000
# 6 0.000000 0.000000 0.000000 0.012903 0.000000 0.043816
#
#
# Mechanical properties :
#
#
# Convention : Reuss Voigt Hill
#
# Bulk Modulus (GPa) = 13.97589 44.15800 29.06694
# Shear Modulus (GPa) = 65.27185 21.16667 43.21926
#
# Velocity S-wave (km/s) = 6.06077 3.45137 4.93178
# Velocity P-wave (km/s) = 7.53939 6.38226 6.98483
#
# Compressibility (1/GPa) = 0.07155179
#
# Stress axis : x y z
#
# Youngs Moduli (GPa) = 60.16948 18.23218 55.20861
#
# Poissons Ratio (x) = -0.10594 0.56089
# Poissons Ratio (y) = -0.34961 0.25758
# Poissons Ratio (z) = 0.61129 0.08506
#
# Static dielectric constant tensor:
#      x y z
#    x 1.639770 0.000000 -0.048130 
#    y 0.000000 1.638540 0.000000 
#    z -0.048130 0.000000 1.603170 
# 
# From -- ./inp_files/79872.got.cif
#   From: 2010.05.17/outbox.cif.g08.bks.cpg/sg10_40_cif.got.tgz:79872.got - 2010.06.03 11:33:40.
