data_PCOD9144923
_publ_section_title
;
Structure prediction by ZEFSAII (Michael W. Deem and Ramdas Pophale) SiO2 
 PCOD9144923
Probable space group: P 2/M
;
_chemical_formula_sum "Si O2"
_cell_formula_units_Z 28
_cell_length_a 14.288602
_cell_length_b 9.454366
_cell_length_c 19.174772
_cell_angle_alpha 90.000000
_cell_angle_beta 146.180321
_cell_angle_gamma 90.000000
_cell_volume 1441.719365
_symmetry_space_group_name_H-M "P 2/M"
_symmetry_group_IT_number 10
_symmetry_cell_setting 'monoclinic'
loop_
_space_group_symop_operation_xyz
x,y,z
-x,y,-z
-x,-y,-z
x,-y,z
loop_
_atom_site_type_symbol
_atom_site_label
_atom_site_fract_x
_atom_site_fract_y
_atom_site_fract_z
Si Si1 0.637383 0.662230 0.242831
Si Si2 0.147852 0.334482 0.035101
Si Si3 0.058311 0.168647 0.839205
Si Si4 0.783907 0.830638 0.561619
Si Si5 0.649533 0.662264 0.039396
Si Si6 0.517307 0.329587 0.317679
Si Si7 0.062169 0.164727 0.618569
O O1 0.694866 0.500000 0.278797
O O2 0.619284 0.712556 0.310650
O O3 0.766179 0.748217 0.275563
O O4 0.450534 0.664731 0.095748
O O5 0.164990 0.500000 0.024415
O O6 0.095920 0.242824 0.935973
O O7 0.323728 0.292764 0.181045
O O8 0.000000 0.324759 0.000000
O O9 0.877005 0.200022 0.692372
O O10 0.197588 0.231435 0.872439
O O11 0.075733 0.000000 0.855229
O O12 0.612440 0.748356 0.439172
O O13 0.920706 0.790970 0.586241
O O14 0.757128 0.000000 0.540021
O O15 0.704204 0.500000 0.087527
O O16 0.500000 0.696922 0.000000
O O17 0.526863 0.500000 0.331240
O O18 0.000000 0.178732 0.500000
O O19 0.097153 0.000000 0.653718
#
# Coordination Sequence:
#
# PCOD9144923 Si02
#       7
#     4   4   4   4   4   4   4
#     4  10  19  31  49  77 110 144 193 246 286 335
#     4  10  22  44  71  93 116 148 192 250 309 366
#     4  11  23  38  59  88 124 159 197 247 299 360
#     4  10  22  38  54  81 121 162 198 237 289 347
#     4  10  20  35  55  80 117 161 203 248 296 346
#     4  10  20  36  59  86 112 144 191 243 293 351
#     4  10  19  31  48  72 109 158 205 239 277 336
#
# _framework density 19.421256
#
# number of rings (size 3 to 8) (size 9 to 14) (size 15 to 20)
#    0.000    1.857    2.857    1.286    0.000    3.714 
#    0.000    0.714    0.000    4.286    0.000    0.000 
#    0.000    0.000    0.000    0.000    0.000    0.000 
#
# Total GULP energy -156250.459891 kJ/mol
# GULP energy per Si atom -5580.373568 kJ/mol
# Density = 1.937705 g / cm^3
# Si number density = 19.421256 Si / 1000 Ang^3
#
#
#
# Elastic Constant Matrix: (Units=GPa)
#
#
# Indices 1 2 3 4 5 6 
#
# 1 52.4905 36.6224 48.1283 0.0000 1.8079 0.0000
# 2 36.6224 48.3544 71.4252 0.0000 -3.1060 0.0000
# 3 48.1283 71.4252 160.6835 0.0000 -2.8505 0.0000
# 4 0.0000 0.0000 0.0000 41.7218 0.0000 19.0580
# 5 1.8079 -3.1060 -2.8505 0.0000 20.0397 0.0000
# 6 0.0000 0.0000 0.0000 19.0580 0.0000 54.7060
#
#
#
# Elastic Compliance Matrix: (Units=1/GPa)
#
#
# Indices 1 2 3 4 5 6 
#
# 1 0.043192 -0.040663 0.004970 0.000000 -0.009492 0.000000
# 2 -0.040663 0.099124 -0.031624 0.000000 0.014534 0.000000
# 3 0.004970 -0.031624 0.018744 0.000000 -0.002684 0.000000
# 4 0.000000 0.000000 0.000000 0.028504 0.000000 -0.009930
# 5 -0.009492 0.014534 -0.002684 0.000000 0.052628 0.000000
# 6 0.000000 0.000000 0.000000 -0.009930 0.000000 0.021739
#
#
# Mechanical properties :
#
#
# Convention : Reuss Voigt Hill
#
# Bulk Modulus (GPa) = 37.84242 63.76445 50.80344
# Shear Modulus (GPa) = 12.27371 30.31699 21.29535
#
# Velocity S-wave (km/s) = 2.51663 3.95526 3.31493
# Velocity P-wave (km/s) = 5.28885 7.33228 6.39274
#
# Compressibility (1/GPa) = 0.02642537
#
# Stress axis : x y z
#
# Youngs Moduli (GPa) = 23.15261 10.08837 53.34910
#
# Poissons Ratio (x) = 0.41022 -0.26514
# Poissons Ratio (y) = 0.94146 1.68712
# Poissons Ratio (z) = -0.11506 0.31904
#
# Static dielectric constant tensor:
#      x y z
#    x 1.695970 0.000000 -0.038660 
#    y 0.000000 1.653730 0.000000 
#    z -0.038660 0.000000 1.725830 
# 
# From -- ./inp_files/84994.got.cif
#   From: 2010.05.17/outbox.cif.g08.bks.cpg/sg10_43_cif.got.tgz:84994.got - 2010.06.03 11:33:40.
