data_PCOD9144965
_publ_section_title
;
Structure prediction by ZEFSAII (Michael W. Deem and Ramdas Pophale) SiO2 
 PCOD9144965
Probable space group: P 2/M
;
_chemical_formula_sum "Si O2"
_cell_formula_units_Z 28
_cell_length_a 19.114913
_cell_length_b 9.045133
_cell_length_c 18.252404
_cell_angle_alpha 90.000000
_cell_angle_beta 31.075598
_cell_angle_gamma 90.000000
_cell_volume 1628.916937
_symmetry_space_group_name_H-M "P 2/M"
_symmetry_group_IT_number 10
_symmetry_cell_setting 'monoclinic'
loop_
_space_group_symop_operation_xyz
x,y,z
-x,y,-z
-x,-y,-z
x,-y,z
loop_
_atom_site_type_symbol
_atom_site_label
_atom_site_fract_x
_atom_site_fract_y
_atom_site_fract_z
Si Si1 0.925591 0.178460 0.881851
Si Si2 0.866536 0.169303 0.774715
Si Si3 0.347065 0.172486 0.608793
Si Si4 0.164422 0.669394 0.342923
Si Si5 0.149401 0.673512 0.901716
Si Si6 0.219387 0.676738 0.589344
Si Si7 0.805128 0.830392 0.537980
O O1 0.847228 0.214630 0.876395
O O2 0.073828 0.253246 0.742653
O O3 0.940320 0.000000 0.871850
O O4 0.855153 0.242566 0.016845
O O5 0.807114 0.268059 0.763334
O O6 0.030514 0.170858 0.617743
O O7 0.822102 0.000000 0.804851
O O8 0.500000 0.180000 0.500000
O O9 0.251382 0.248953 0.754472
O O10 0.325161 0.257894 0.552364
O O11 0.309141 0.000000 0.633403
O O12 0.206480 0.500000 0.312295
O O13 0.223778 0.765667 0.355949
O O14 0.000000 0.674026 0.500000
O O15 0.181434 0.500000 0.882355
O O16 0.000000 0.683235 0.000000
O O17 0.211854 0.500000 0.599840
O O18 0.247853 0.731894 0.481428
O O19 0.760954 0.000000 0.570240
#
# Coordination Sequence:
#
# PCOD9144965 Si02
#       7
#     4   4   4   4   4   4   4
#     4  10  19  31  49  71  97 131 169 209 249 297
#     4   8  15  25  37  57  86 122 160 197 242 291
#     4  11  24  40  57  76 100 134 173 212 257 308
#     4   9  15  22  34  55  84 120 158 197 243 292
#     4  11  22  35  54  80 104 132 169 212 259 307
#     4  11  20  31  48  71  98 127 164 209 256 303
#     4   9  16  26  40  58  85 123 163 201 241 293
#
# _framework density 17.189336000000001
#
# number of rings (size 3 to 8) (size 9 to 14) (size 15 to 20)
#    0.000    2.143    1.429    4.286    0.000    7.429 
#    0.000    0.000    0.000    0.000    0.000    0.000 
#    0.000    1.143    0.000   12.000    0.000    8.429 
#
# Total GULP energy -156163.137486 kJ/mol
# GULP energy per Si atom -5577.254910 kJ/mol
# Density = 1.715021 g / cm^3
# Si number density = 17.189336 Si / 1000 Ang^3
#
#
#
# Elastic Constant Matrix: (Units=GPa)
#
#
# Indices 1 2 3 4 5 6 
#
# 1 125.6196 75.6104 26.8703 0.0000 32.8040 0.0000
# 2 75.6104 143.4872 29.4124 0.0000 15.7675 0.0000
# 3 26.8703 29.4124 21.7771 0.0000 6.2153 0.0000
# 4 0.0000 0.0000 0.0000 9.3246 0.0000 5.5529
# 5 32.8040 15.7675 6.2153 0.0000 20.3407 0.0000
# 6 0.0000 0.0000 0.0000 5.5529 0.0000 25.0881
#
#
#
# Elastic Compliance Matrix: (Units=1/GPa)
#
#
# Indices 1 2 3 4 5 6 
#
# 1 0.020039 -0.005830 -0.009770 0.000000 -0.024813 0.000000
# 2 -0.005830 0.011614 -0.009428 0.000000 0.003281 0.000000
# 3 -0.009770 -0.009428 0.070252 0.000000 0.001598 0.000000
# 4 0.000000 0.000000 0.000000 0.123525 0.000000 -0.027341
# 5 -0.024813 0.003281 0.001598 0.000000 0.086148 0.000000
# 6 0.000000 0.000000 0.000000 -0.027341 0.000000 0.045911
#
#
# Mechanical properties :
#
#
# Convention : Reuss Voigt Hill
#
# Bulk Modulus (GPa) = 19.28682 61.63000 40.45841
# Shear Modulus (GPa) = 11.76949 21.55005 16.65977
#
# Velocity S-wave (km/s) = 2.61951 3.54459 3.11656
# Velocity P-wave (km/s) = 4.51594 7.25835 6.04472
#
# Compressibility (1/GPa) = 0.05184888
#
# Stress axis : x y z
#
# Youngs Moduli (GPa) = 49.90212 86.10604 14.23450
#
# Poissons Ratio (x) = 0.50203 0.13907
# Poissons Ratio (y) = 0.29095 0.13420
# Poissons Ratio (z) = 0.48752 0.81180
#
# Static dielectric constant tensor:
#      x y z
#    x 1.594850 0.000000 0.014050 
#    y 0.000000 1.576330 0.000000 
#    z 0.014050 0.000000 1.557190 
# 
# From -- ./inp_files/77713.got.cif
#   From: 2010.05.17/outbox.cif.g08.bks.cpg/sg10_39_cif.got.tgz:77713.got - 2010.06.03 11:33:40.
