data_PCOD9144071
_publ_section_title
;
Structure prediction by ZEFSAII (Michael W. Deem and Ramdas Pophale) SiO2 
 PCOD9144071
Probable space group: P 2/M
;
_chemical_formula_sum "Si O2"
_cell_formula_units_Z 18
_cell_length_a 5.337215
_cell_length_b 20.807030
_cell_length_c 8.445810
_cell_angle_alpha 90.000000
_cell_angle_beta 118.762257
_cell_angle_gamma 90.000000
_cell_volume 822.203603
_symmetry_space_group_name_H-M "P 2/M"
_symmetry_group_IT_number 10
_symmetry_cell_setting 'monoclinic'
loop_
_space_group_symop_operation_xyz
x,y,z
-x,y,-z
-x,-y,-z
x,-y,z
loop_
_atom_site_type_symbol
_atom_site_label
_atom_site_fract_x
_atom_site_fract_y
_atom_site_fract_z
Si Si1 0.942309 0.250484 0.170830
Si Si2 0.500000 0.775083 0.500000
Si Si3 0.283119 0.862300 0.696539
Si Si4 0.843064 0.500000 0.616862
Si Si5 0.343630 0.000000 0.627193
Si Si6 0.820936 0.389049 0.106937
O O1 0.799013 0.183275 0.182409
O O2 0.774742 0.316340 0.155565
O O3 0.214355 0.261742 0.370425
O O4 0.000000 0.246053 0.000000
O O5 0.486808 0.820509 0.648735
O O6 0.404590 0.934377 0.742350
O O7 0.000000 0.867171 0.500000
O O8 0.500000 0.500000 0.500000
O O9 0.000000 0.500000 0.500000
O O10 0.969705 0.436473 0.737226
O O11 0.500000 0.000000 0.500000
O O12 0.000000 0.000000 0.500000
O O13 0.500000 0.417320 0.000000
O O14 0.000000 0.380949 0.000000
#
# Coordination Sequence:
#
# PCOD9144071 Si02
#       6
#     4   2   4   2   2   4
#     4  10  24  39  65  95 135 179 230 286 352 408
#     4  10  20  37  62  89 128 170 226 290 336 415
#     4   9  19  35  58  93 125 174 227 282 345 413
#     4  12  26  44  74 108 142 178 226 292 340 404
#     4  10  18  34  61  91 129 176 228 279 349 420
#     4  11  25  46  70  97 138 189 230 275 347 420
#
# _framework density 21.892385999999998
#
# number of rings (size 3 to 8) (size 9 to 14) (size 15 to 20)
#    0.000    1.778    1.111    2.000    7.778    2.667 
#    0.000    0.556    0.000    1.333    0.000    0.000 
#    0.000    0.000    0.000    0.000    0.000    0.000 
#
# Total GULP energy -100258.654438 kJ/mol
# GULP energy per Si atom -5569.925247 kJ/mol
# Density = 2.184256 g / cm^3
# Si number density = 21.892386 Si / 1000 Ang^3
#
#
#
# Elastic Constant Matrix: (Units=GPa)
#
#
# Indices 1 2 3 4 5 6 
#
# 1 117.2774 40.8004 40.8551 0.0000 13.7758 0.0000
# 2 40.8004 170.6113 67.0808 0.0000 -4.5298 0.0000
# 3 40.8551 67.0808 86.4403 0.0000 9.5227 0.0000
# 4 0.0000 0.0000 0.0000 39.4187 0.0000 49.3661
# 5 13.7758 -4.5298 9.5227 0.0000 54.6175 0.0000
# 6 0.0000 0.0000 0.0000 49.3661 0.0000 -83.4284
#
#
#
# Elastic Compliance Matrix: (Units=1/GPa)
#
#
# Indices 1 2 3 4 5 6 
#
# 1 0.010495 -0.001010 -0.003951 0.000000 -0.002042 0.000000
# 2 -0.001010 0.008725 -0.006527 0.000000 0.002116 0.000000
# 3 -0.003951 -0.006527 0.018812 0.000000 -0.002825 0.000000
# 4 0.000000 0.000000 0.000000 0.014571 0.000000 0.008622
# 5 -0.002042 0.002116 -0.002825 0.000000 0.019492 0.000000
# 6 0.000000 0.000000 0.000000 0.008622 0.000000 -0.006885
#
#
# Mechanical properties :
#
#
# Convention : Reuss Voigt Hill
#
# Bulk Modulus (GPa) = 66.42016 74.64463 70.53240
# Shear Modulus (GPa) = 53.64477 17.16108 35.40292
#
# Velocity S-wave (km/s) = 4.95551 2.80283 4.02572
# Velocity P-wave (km/s) = 7.94657 6.68166 7.34141
#
# Compressibility (1/GPa) = 0.01505567
#
# Stress axis : x y z
#
# Youngs Moduli (GPa) = 95.28731 114.60960 53.15679
#
# Poissons Ratio (x) = 0.11580 0.21003
# Poissons Ratio (y) = 0.09628 0.34694
# Poissons Ratio (z) = 0.37649 0.74802
#
# Static dielectric constant tensor:
#      x y z
#    x 1.636050 0.000000 -0.033280 
#    y 0.000000 2.187780 0.000000 
#    z -0.033280 0.000000 1.766450 
# 
# From -- ./inp_files/15358.got.cif
#   From: 2010.05.17/outbox.cif.g08.bks.cpg/sg10_8_cif.got.tgz:15358.got - 2010.06.03 11:33:40.
