data_PCOD9144119
_publ_section_title
;
Structure prediction by ZEFSAII (Michael W. Deem and Ramdas Pophale) SiO2 
 PCOD9144119
Probable space group: P 2/M
;
_chemical_formula_sum "Si O2"
_cell_formula_units_Z 28
_cell_length_a 16.786340
_cell_length_b 7.642050
_cell_length_c 20.117161
_cell_angle_alpha 90.000000
_cell_angle_beta 30.920251
_cell_angle_gamma 90.000000
_cell_volume 1326.063418
_symmetry_space_group_name_H-M "P 2/M"
_symmetry_group_IT_number 10
_symmetry_cell_setting 'monoclinic'
loop_
_space_group_symop_operation_xyz
x,y,z
-x,y,-z
-x,-y,-z
x,-y,z
loop_
_atom_site_type_symbol
_atom_site_label
_atom_site_fract_x
_atom_site_fract_y
_atom_site_fract_z
Si Si1 0.799274 0.800027 0.966773
Si Si2 0.093630 0.710934 0.258070
Si Si3 0.444143 0.288178 0.247727
Si Si4 0.742850 0.713565 0.492817
Si Si5 0.326492 0.285412 0.606722
Si Si6 0.047518 0.298280 0.895013
Si Si7 0.166815 0.713965 0.349975
O O1 0.839664 0.762025 0.861099
O O2 0.907900 0.700210 0.941540
O O3 0.836684 0.000000 0.953385
O O4 0.617718 0.768596 0.108035
O O5 0.094618 0.500000 0.258380
O O6 0.177584 0.769921 0.265355
O O7 0.914784 0.768148 0.391020
O O8 0.444077 0.500000 0.246726
O O9 0.384488 0.230234 0.362802
O O10 0.313359 0.229163 0.288742
O O11 0.742031 0.500000 0.493570
O O12 0.713736 0.771610 0.438873
O O13 0.500000 0.233171 0.500000
O O14 0.321219 0.500000 0.610285
O O15 0.197435 0.221508 0.750795
O O16 0.090557 0.500000 0.878801
O O17 0.000000 0.218936 0.000000
O O18 0.166404 0.500000 0.351885
O O19 0.000000 0.767141 0.500000
#
# Coordination Sequence:
#
# PCOD9144119 Si02
#       7
#     4   4   4   4   4   4   4
#     4  12  26  41  55  78 119 165 200 231 277 339
#     4  10  18  35  62  87 113 147 191 241 294 347
#     4  10  20  35  59  89 116 146 191 243 297 349
#     4   9  16  29  56  86 113 144 181 236 292 341
#     4   9  17  29  51  88 120 136 168 226 286 340
#     4  10  21  38  63  90 114 145 188 237 290 346
#     4   9  16  30  58  94 119 138 180 250 311 346
#
# _framework density 21.115127999999999
#
# number of rings (size 3 to 8) (size 9 to 14) (size 15 to 20)
#    0.000    2.143    2.857    1.286    2.000    0.857 
#    0.000    4.286    0.000    1.286    0.000    0.000 
#    0.000    0.000    0.000    0.000    0.000    0.000 
#
# Total GULP energy -156362.659065 kJ/mol
# GULP energy per Si atom -5584.380681 kJ/mol
# Density = 2.106707 g / cm^3
# Si number density = 21.115128 Si / 1000 Ang^3
#
#
#
# Elastic Constant Matrix: (Units=GPa)
#
#
# Indices 1 2 3 4 5 6 
#
# 1 119.9387 -3.7100 72.9023 0.0000 18.1832 0.0000
# 2 -3.7100 42.2027 -3.3785 0.0000 3.4700 0.0000
# 3 72.9023 -3.3785 177.8678 0.0000 13.4936 0.0000
# 4 0.0000 0.0000 0.0000 -176.4336 0.0000 -103.9933
# 5 18.1832 3.4700 13.4936 0.0000 40.8473 0.0000
# 6 0.0000 0.0000 0.0000 -103.9933 0.0000 -125.9071
#
#
#
# Elastic Compliance Matrix: (Units=1/GPa)
#
#
# Indices 1 2 3 4 5 6 
#
# 1 0.011663 0.000979 -0.004473 0.000000 -0.003797 0.000000
# 2 0.000979 0.024011 0.000249 0.000000 -0.002558 0.000000
# 3 -0.004473 0.000249 0.007499 0.000000 -0.000507 0.000000
# 4 0.000000 0.000000 0.000000 -0.011045 0.000000 0.009123
# 5 -0.003797 -0.002558 -0.000507 0.000000 0.026556 0.000000
# 6 0.000000 0.000000 0.000000 0.009123 0.000000 -0.015477
#
#
# Mechanical properties :
#
#
# Convention : Reuss Voigt Hill
#
# Bulk Modulus (GPa) = 27.26121 52.40410 39.83265
# Shear Modulus (GPa) = 80.74188 -34.01899 23.36145
#
# Velocity S-wave (km/s) = 6.19047 -4.01823 3.32984
# Velocity P-wave (km/s) = 8.00216 1.82864 5.80425
#
# Compressibility (1/GPa) = 0.03668216
#
# Stress axis : x y z
#
# Youngs Moduli (GPa) = 85.74367 41.64674 133.35323
#
# Poissons Ratio (x) = -0.04079 0.59656
# Poissons Ratio (y) = -0.08397 -0.03317
# Poissons Ratio (z) = 0.38357 -0.01036
#
# Static dielectric constant tensor:
#      x y z
#    x 1.745030 0.000000 0.018850 
#    y 0.000000 1.799040 0.000000 
#    z 0.018850 0.000000 1.728590 
# 
# From -- ./inp_files/85621.got.cif
#   From: 2010.05.17/outbox.cif.g08.bks.cpg/sg10_43_cif.got.tgz:85621.got - 2010.06.03 11:33:40.
