data_PCOD9144273
_publ_section_title
;
Structure prediction by ZEFSAII (Michael W. Deem and Ramdas Pophale) SiO2 
 PCOD9144273
Probable space group: P 2/M
;
_chemical_formula_sum "Si O2"
_cell_formula_units_Z 28
_cell_length_a 21.560588
_cell_length_b 8.769977
_cell_length_c 14.276801
_cell_angle_alpha 90.000000
_cell_angle_beta 138.334486
_cell_angle_gamma 90.000000
_cell_volume 1794.603263
_symmetry_space_group_name_H-M "P 2/M"
_symmetry_group_IT_number 10
_symmetry_cell_setting 'monoclinic'
loop_
_space_group_symop_operation_xyz
x,y,z
-x,y,-z
-x,-y,-z
x,-y,z
loop_
_atom_site_type_symbol
_atom_site_label
_atom_site_fract_x
_atom_site_fract_y
_atom_site_fract_z
Si Si1 0.222503 0.813650 0.193926
Si Si2 0.674460 0.317615 0.339855
Si Si3 0.421333 0.184375 0.336016
Si Si4 0.973903 0.823752 0.081298
Si Si5 0.826156 0.814786 0.648638
Si Si6 0.394684 0.175856 0.922900
Si Si7 0.471206 0.682282 0.191003
O O1 0.319801 0.766379 0.258630
O O2 0.213136 0.770571 0.292750
O O3 0.219171 0.000000 0.188816
O O4 0.130181 0.757011 0.034723
O O5 0.679145 0.500000 0.344530
O O6 0.759947 0.248800 0.493907
O O7 0.667370 0.256923 0.225793
O O8 0.577194 0.272561 0.281732
O O9 0.500000 0.229236 0.500000
O O10 0.444865 0.250531 0.261393
O O11 0.421618 0.000000 0.330534
O O12 0.066095 0.759268 0.234709
O O13 0.966451 0.000000 0.103752
O O14 0.000000 0.826343 0.000000
O O15 0.826816 0.000000 0.646426
O O16 0.367521 0.000000 0.903096
O O17 0.500000 0.180654 0.000000
O O18 0.403448 0.256600 0.032818
O O19 0.467579 0.500000 0.188744
#
# Coordination Sequence:
#
# PCOD9144273 Si02
#       7
#     4   4   4   4   4   4   4
#     4   8  14  25  41  62  88 116 147 183 217 248
#     4  10  19  29  42  63  91 117 139 171 218 263
#     4  10  19  29  43  64  89 118 152 185 211 241
#     4   7  11  21  39  62  84 108 141 180 219 255
#     4   9  15  25  44  66  86 111 145 182 217 255
#     4   9  17  30  48  66  83 107 142 180 214 253
#     4  10  20  32  44  60  87 120 148 175 211 256
#
# _framework density 15.602333
#
# number of rings (size 3 to 8) (size 9 to 14) (size 15 to 20)
#    0.000    3.000    0.000    3.857    0.000    4.857 
#    0.000    0.714    0.000    4.714    0.000    1.000 
#    0.000    8.000    0.000    0.000    0.000    0.000 
#
# Total GULP energy -155896.137187 kJ/mol
# GULP energy per Si atom -5567.719185 kJ/mol
# Density = 1.556682 g / cm^3
# Si number density = 15.602333 Si / 1000 Ang^3
#
#
#
# Elastic Constant Matrix: (Units=GPa)
#
#
# Indices 1 2 3 4 5 6 
#
# 1 81.1313 21.9998 72.5282 0.0000 6.0445 0.0000
# 2 21.9998 21.6533 38.0170 0.0000 1.0562 0.0000
# 3 72.5282 38.0170 173.7618 0.0000 7.5893 0.0000
# 4 0.0000 0.0000 0.0000 -39.7772 0.0000 -1.0259
# 5 6.0445 1.0562 7.5893 0.0000 26.2787 0.0000
# 6 0.0000 0.0000 0.0000 -1.0259 0.0000 13.1113
#
#
#
# Elastic Compliance Matrix: (Units=1/GPa)
#
#
# Indices 1 2 3 4 5 6 
#
# 1 0.020984 -0.009764 -0.006511 0.000000 -0.002554 0.000000
# 2 -0.009764 0.079609 -0.013470 0.000000 0.002937 0.000000
# 3 -0.006511 -0.013470 0.011476 0.000000 -0.001275 0.000000
# 4 0.000000 0.000000 0.000000 -0.025089 0.000000 -0.001963
# 5 -0.002554 0.002937 -0.001275 0.000000 0.038891 0.000000
# 6 0.000000 0.000000 0.000000 -0.001963 0.000000 0.076117
#
#
# Mechanical properties :
#
#
# Convention : Reuss Voigt Hill
#
# Bulk Modulus (GPa) = 19.01921 60.18183 39.60052
# Shear Modulus (GPa) = 17.92087 9.52264 13.72175
#
# Velocity S-wave (km/s) = 3.39278 2.47317 2.96880
# Velocity P-wave (km/s) = 5.25018 6.84189 6.09819
#
# Compressibility (1/GPa) = 0.05257842
#
# Stress axis : x y z
#
# Youngs Moduli (GPa) = 47.65491 12.56135 87.14166
#
# Poissons Ratio (x) = 0.12265 0.56738
# Poissons Ratio (y) = 0.46530 1.17383
# Poissons Ratio (z) = 0.31028 0.16921
#
# Static dielectric constant tensor:
#      x y z
#    x 1.512450 0.000000 0.026550 
#    y 0.000000 1.523150 0.000000 
#    z 0.026550 0.000000 1.523350 
# 
# From -- ./inp_files/54981.got.cif
#   From: 2010.05.17/outbox.cif.g08.bks.cpg/sg10_28_cif.got.tgz:54981.got - 2010.06.03 11:33:40.
