data_PCOD9144751
_publ_section_title
;
Structure prediction by ZEFSAII (Michael W. Deem and Ramdas Pophale) SiO2 
 PCOD9144751
Probable space group: P 2/M
;
_chemical_formula_sum "Si O2"
_cell_formula_units_Z 26
_cell_length_a 16.877638
_cell_length_b 7.881375
_cell_length_c 16.155549
_cell_angle_alpha 90.000000
_cell_angle_beta 142.118884
_cell_angle_gamma 90.000000
_cell_volume 1319.536783
_symmetry_space_group_name_H-M "P 2/M"
_symmetry_group_IT_number 10
_symmetry_cell_setting 'monoclinic'
loop_
_space_group_symop_operation_xyz
x,y,z
-x,y,-z
-x,-y,-z
x,-y,z
loop_
_atom_site_type_symbol
_atom_site_label
_atom_site_fract_x
_atom_site_fract_y
_atom_site_fract_z
Si Si1 0.525717 0.812516 0.672404
Si Si2 0.850660 0.500000 0.714814
Si Si3 0.255141 0.694643 0.510416
Si Si4 0.343905 0.500000 0.301431
Si Si5 0.734802 0.809746 0.989895
Si Si6 0.645684 0.294222 0.097357
Si Si7 0.868588 0.500000 0.018209
Si Si8 0.142705 0.292740 0.591453
O O1 0.378776 0.792653 0.579994
O O2 0.571338 0.664914 0.648864
O O3 0.548321 0.000000 0.656056
O O4 0.613767 0.794669 0.827303
O O5 0.842834 0.659895 0.645833
O O6 0.722674 0.500000 0.664550
O O7 0.979918 0.500000 0.873698
O O8 0.302244 0.500000 0.568880
O O9 0.187166 0.761958 0.536564
O O10 0.224735 0.500000 0.137862
O O11 0.687418 0.777901 0.043572
O O12 0.832809 0.664863 0.042525
O O13 0.787288 0.000000 0.024905
O O14 0.647611 0.500000 0.093269
O O15 0.748537 0.243964 0.252390
O O16 0.500000 0.242946 0.000000
O O17 0.137921 0.500000 0.585790
O O18 0.000000 0.234429 0.500000
#
# Coordination Sequence:
#
# PCOD9144751 Si02
#       8
#     4   2   4   2   4   4   2   4
#     4  10  20  37  61  87 119 152 187 239 300 347
#     4  10  22  36  63  87 114 155 195 234 295 352
#     4   9  19  34  57  82 115 150 191 235 283 344
#     4  10  20  40  61  90 119 143 190 245 291 358
#     4  10  21  35  57  86 113 152 199 241 289 346
#     4  10  19  30  52  82 113 148 199 246 292 338
#     4  10  21  38  62  82 116 153 186 239 296 341
#     4   9  18  30  51  79 113 155 195 236 287 342
#
# _framework density 19.703882
#
# number of rings (size 3 to 8) (size 9 to 14) (size 15 to 20)
#    0.462    1.846    1.538    1.154    2.154    2.769 
#    0.000    3.846    0.000    4.615    0.000    0.000 
#    0.000    0.000    0.000    0.000    0.000    0.000 
#
# Total GULP energy -145077.084238 kJ/mol
# GULP energy per Si atom -5579.887855 kJ/mol
# Density = 1.965904 g / cm^3
# Si number density = 19.703882 Si / 1000 Ang^3
#
#
#
# Elastic Constant Matrix: (Units=GPa)
#
#
# Indices 1 2 3 4 5 6 
#
# 1 82.0710 23.7896 46.7195 0.0000 1.4988 0.0000
# 2 23.7896 73.1605 27.4840 0.0000 2.8752 0.0000
# 3 46.7195 27.4840 93.7852 0.0000 12.7187 0.0000
# 4 0.0000 0.0000 0.0000 -1.1263 0.0000 -3.6100
# 5 1.4988 2.8752 12.7187 0.0000 34.4546 0.0000
# 6 0.0000 0.0000 0.0000 -3.6100 0.0000 -11.9394
#
#
#
# Elastic Compliance Matrix: (Units=1/GPa)
#
#
# Indices 1 2 3 4 5 6 
#
# 1 0.017682 -0.002709 -0.008359 0.000000 0.002543 0.000000
# 2 -0.002709 0.015780 -0.003276 0.000000 0.000010 0.000000
# 3 -0.008359 -0.003276 0.016528 0.000000 -0.005464 0.000000
# 4 0.000000 0.000000 0.000000-28.720543 0.000000 8.683850
# 5 0.002543 0.000010 -0.005464 0.000000 0.030929 0.000000
# 6 0.000000 0.000000 0.000000 8.683850 0.000000 -2.709377
#
#
# Mechanical properties :
#
#
# Convention : Reuss Voigt Hill
#
# Bulk Modulus (GPa) = 46.94706 49.44477 48.19592
# Shear Modulus (GPa) = -0.15968 14.34602 7.09317
#
# Velocity S-wave (km/s) = -0.28498 2.70122 1.89939
# Velocity P-wave (km/s) = 4.87542 5.90569 5.41512
#
# Compressibility (1/GPa) = 0.02130059
#
# Stress axis : x y z
#
# Youngs Moduli (GPa) = 56.55461 63.37190 60.50365
#
# Poissons Ratio (x) = 0.17169 0.50576
# Poissons Ratio (y) = 0.15322 0.19822
# Poissons Ratio (z) = 0.47275 0.20761
#
# Static dielectric constant tensor:
#      x y z
#    x 1.647670 0.000000 -0.008960 
#    y 0.000000 1.718850 0.000000 
#    z -0.008960 0.000000 1.698060 
# 
# From -- ./inp_files/66910.got.cif
#   From: 2010.05.17/outbox.cif.g08.bks.cpg/sg10_34_cif.got.tgz:66910.got - 2010.06.03 11:33:40.
