data_PCOD9144960
_publ_section_title
;
Structure prediction by ZEFSAII (Michael W. Deem and Ramdas Pophale) SiO2 
 PCOD9144960
Probable space group: P 2/M
;
_chemical_formula_sum "Si O2"
_cell_formula_units_Z 32
_cell_length_a 25.168447
_cell_length_b 7.629735
_cell_length_c 18.523544
_cell_angle_alpha 90.000000
_cell_angle_beta 29.402818
_cell_angle_gamma 90.000000
_cell_volume 1746.321547
_symmetry_space_group_name_H-M "P 2/M"
_symmetry_group_IT_number 10
_symmetry_cell_setting 'monoclinic'
loop_
_space_group_symop_operation_xyz
x,y,z
-x,y,-z
-x,-y,-z
x,-y,z
loop_
_atom_site_type_symbol
_atom_site_label
_atom_site_fract_x
_atom_site_fract_y
_atom_site_fract_z
Si Si1 0.681852 0.705736 0.145274
Si Si2 0.128254 0.795513 0.367616
Si Si3 0.868438 0.707593 0.031993
Si Si4 0.070881 0.784331 0.588475
Si Si5 0.538573 0.204192 0.530729
Si Si6 0.826046 0.787775 0.840618
Si Si7 0.772578 0.212633 0.299061
Si Si8 0.892545 0.203531 0.297416
O O1 0.669480 0.500000 0.173696
O O2 0.767963 0.775654 0.102635
O O3 0.563761 0.785376 0.295556
O O4 0.735141 0.732463 0.004312
O O5 0.133541 0.723008 0.442381
O O6 0.185021 0.722027 0.228807
O O7 0.000000 0.791552 0.500000
O O8 0.159866 0.000000 0.335052
O O9 0.877362 0.500000 0.008297
O O10 0.842999 0.738718 0.145818
O O11 0.981493 0.789027 0.874111
O O12 0.115396 0.721842 0.612443
O O13 0.944517 0.732915 0.729804
O O14 0.071455 0.000000 0.587035
O O15 0.500000 0.283313 0.500000
O O16 0.650493 0.277271 0.428956
O O17 0.562787 0.000000 0.487724
O O18 0.827621 0.000000 0.836246
O O19 0.823667 0.280402 0.313089
O O20 0.773204 0.000000 0.302283
O O21 0.860730 0.000000 0.341420
#
# Coordination Sequence:
#
# PCOD9144960 Si02
#       8
#     4   4   4   4   4   4   4   4
#     4  11  22  32  46  69  95 122 154 193 231 268
#     4   7  11  20  38  66  93 116 147 181 212 262
#     4  11  22  33  46  66  95 127 156 186 224 272
#     4   8  13  23  42  68  95 121 146 177 222 269
#     4  10  20  35  53  67  84 116 156 197 238 275
#     4   9  15  26  46  68  91 121 154 183 217 269
#     4  10  21  35  50  69  89 115 157 199 230 267
#     4  10  19  31  49  71  95 122 152 187 225 270
#
# _framework density 18.32423
#
# number of rings (size 3 to 8) (size 9 to 14) (size 15 to 20)
#    0.000    2.500    2.500    2.625    0.000    3.750 
#    0.000    0.000    0.000    4.125    0.000    0.875 
#    0.000    7.000    0.000    0.000    0.000    0.000 
#
# Total GULP energy -178415.203288 kJ/mol
# GULP energy per Si atom -5575.475103 kJ/mol
# Density = 1.828252 g / cm^3
# Si number density = 18.324230 Si / 1000 Ang^3
#
#
#
# Elastic Constant Matrix: (Units=GPa)
#
#
# Indices 1 2 3 4 5 6 
#
# 1 136.1671 -0.3125 54.6668 0.0000 29.6656 0.0000
# 2 -0.3125 36.6989 -8.1397 0.0000 -2.9622 0.0000
# 3 54.6668 -8.1397 57.8635 0.0000 25.2237 0.0000
# 4 0.0000 0.0000 0.0000 702.0052 0.0000 198.6822
# 5 29.6656 -2.9622 25.2237 0.0000 33.3998 0.0000
# 6 0.0000 0.0000 0.0000 198.6822 0.0000 60.0004
#
#
#
# Elastic Compliance Matrix: (Units=1/GPa)
#
#
# Indices 1 2 3 4 5 6 
#
# 1 0.012265 -0.002493 -0.010574 0.000000 -0.003129 0.000000
# 2 -0.002493 0.028645 0.006429 0.000000 -0.000100 0.000000
# 3 -0.010574 0.006429 0.035531 0.000000 -0.016871 0.000000
# 4 0.000000 0.000000 0.000000 0.022676 0.000000 -0.075089
# 5 -0.003129 -0.000100 -0.016871 0.000000 0.045452 0.000000
# 6 0.000000 0.000000 0.000000 -0.075089 0.000000 0.265313
#
#
# Mechanical properties :
#
#
# Convention : Reuss Voigt Hill
#
# Bulk Modulus (GPa) = 15.83189 35.90651 25.86920
# Shear Modulus (GPa) = 11.25582 171.38209 91.31895
#
# Velocity S-wave (km/s) = 2.48111 9.68146 7.06706
# Velocity P-wave (km/s) = 4.10689 12.02546 8.98550
#
# Compressibility (1/GPa) = 0.06316364
#
# Stress axis : x y z
#
# Youngs Moduli (GPa) = 81.53181 34.90965 28.14467
#
# Poissons Ratio (x) = 0.08705 0.29761
# Poissons Ratio (y) = 0.20330 -0.18094
# Poissons Ratio (z) = 0.86213 -0.22443
#
# Static dielectric constant tensor:
#      x y z
#    x 1.667550 0.000000 0.025800 
#    y 0.000000 1.686670 0.000000 
#    z 0.025800 0.000000 1.608260 
# 
# From -- ./inp_files/54796.got.cif
#   From: 2010.05.17/outbox.cif.g08.bks.cpg/sg10_28_cif.got.tgz:54796.got - 2010.06.03 11:33:40.
