data_PCOD9144726
_publ_section_title
;
Structure prediction by ZEFSAII (Michael W. Deem and Ramdas Pophale) SiO2 
 PCOD9144726
Probable space group: P 2/M
;
_chemical_formula_sum "Si O2"
_cell_formula_units_Z 24
_cell_length_a 15.319996
_cell_length_b 8.478207
_cell_length_c 8.198522
_cell_angle_alpha 90.000000
_cell_angle_beta 101.918043
_cell_angle_gamma 90.000000
_cell_volume 1041.919603
_symmetry_space_group_name_H-M "P 2/M"
_symmetry_group_IT_number 10
_symmetry_cell_setting 'monoclinic'
loop_
_space_group_symop_operation_xyz
x,y,z
-x,y,-z
-x,-y,-z
x,-y,z
loop_
_atom_site_type_symbol
_atom_site_label
_atom_site_fract_x
_atom_site_fract_y
_atom_site_fract_z
Si Si1 0.898983 0.666933 0.524066
Si Si2 0.157910 0.330727 0.134007
Si Si3 0.897448 0.000000 0.915257
Si Si4 0.594507 0.672494 0.947058
Si Si5 0.352016 0.672169 0.375025
Si Si6 0.598842 0.000000 0.458057
Si Si7 0.895938 0.000000 0.519210
Si Si8 0.394022 0.000000 0.923450
O O1 0.855021 0.500000 0.461035
O O2 0.900980 0.670695 0.722308
O O3 0.856756 0.831814 0.449992
O O4 0.000000 0.664935 0.500000
O O5 0.141433 0.500000 0.043642
O O6 0.257577 0.330224 0.244568
O O7 0.141452 0.166296 0.038135
O O8 0.887838 0.000000 0.713576
O O9 0.000000 0.000000 0.000000
O O10 0.637844 0.500000 0.995981
O O11 0.641931 0.835197 0.017433
O O12 0.500000 0.670118 0.000000
O O13 0.577956 0.680980 0.746733
O O14 0.362178 0.500000 0.462142
O O15 0.357593 0.835082 0.470505
O O16 0.500000 0.000000 0.500000
O O17 0.607366 0.000000 0.269228
O O18 0.000000 0.000000 0.500000
O O19 0.500000 0.000000 0.000000
#
# Coordination Sequence:
#
# PCOD9144726 Si02
#       8
#     4   4   2   4   4   2   2   2
#     4   8  13  23  43  69  93 123 163 203 246 302
#     4   9  18  33  53  77 107 142 179 221 275 333
#     4  10  19  30  50  79 107 137 174 218 263 312
#     4   9  17  32  54  77 104 143 188 226 267 329
#     4  10  21  37  59  85 112 146 189 240 291 334
#     4  12  23  35  57  87 116 143 185 244 288 334
#     4   8  14  25  41  63  91 122 159 200 242 291
#     4  10  20  34  52  75 106 144 180 220 275 333
#
# _framework density 23.034407000000002
#
# number of rings (size 3 to 8) (size 9 to 14) (size 15 to 20)
#    0.000    2.667    0.000    3.000    0.000    1.333 
#    0.000    0.000    0.000   16.000    0.000   21.000 
#    0.000    0.000    0.000    0.000    0.000    0.000 
#
# Total GULP energy -133696.738002 kJ/mol
# GULP energy per Si atom -5570.697417 kJ/mol
# Density = 2.298198 g / cm^3
# Si number density = 23.034407 Si / 1000 Ang^3
#
#
#
# Elastic Constant Matrix: (Units=GPa)
#
#
# Indices 1 2 3 4 5 6 
#
# 1 42.1087 9.0270 0.5316 0.0000 -6.2001 0.0000
# 2 9.0270 358.5018 43.3433 0.0000 15.6604 0.0000
# 3 0.5316 43.3433 38.0443 0.0000 -9.0321 0.0000
# 4 0.0000 0.0000 0.0000 -22.3578 0.0000 19.6450
# 5 -6.2001 15.6604 -9.0321 0.0000 21.8088 0.0000
# 6 0.0000 0.0000 0.0000 19.6450 0.0000 -0.3928
#
#
#
# Elastic Compliance Matrix: (Units=1/GPa)
#
#
# Indices 1 2 3 4 5 6 
#
# 1 0.025483 -0.001524 0.003726 0.000000 0.009882 0.000000
# 2 -0.001524 0.003729 -0.005507 0.000000 -0.005392 0.000000
# 3 0.003726 -0.005507 0.037372 0.000000 0.020492 0.000000
# 4 0.000000 0.000000 0.000000 0.001042 0.000000 0.052089
# 5 0.009882 -0.005392 0.020492 0.000000 0.061021 0.000000
# 6 0.000000 0.000000 0.000000 0.052089 0.000000 0.059282
#
#
# Mechanical properties :
#
#
# Convention : Reuss Voigt Hill
#
# Bulk Modulus (GPa) = 16.67387 60.49541 38.58464
# Shear Modulus (GPa) = 23.30678 25.52850 24.41764
#
# Velocity S-wave (km/s) = 3.18437 3.33269 3.25937
# Velocity P-wave (km/s) = 4.55792 6.41320 5.56345
#
# Compressibility (1/GPa) = 0.05997409
#
# Stress axis : x y z
#
# Youngs Moduli (GPa) = 39.24231 268.15884 26.75771
#
# Poissons Ratio (x) = 0.40862 -0.09970
# Poissons Ratio (y) = 0.05980 0.14736
# Poissons Ratio (z) = -0.14622 1.47684
#
# Static dielectric constant tensor:
#      x y z
#    x 1.891350 0.000000 -0.046740 
#    y 0.000000 2.091490 0.000000 
#    z -0.046740 0.000000 1.844570 
# 
# From -- ./inp_files/27399.got.cif
#   From: 2010.05.17/outbox.cif.g08.bks.cpg/sg10_14_cif.got.tgz:27399.got - 2010.06.03 11:33:40.
