data_PCOD9144752
_publ_section_title
;
Structure prediction by ZEFSAII (Michael W. Deem and Ramdas Pophale) SiO2 
 PCOD9144752
Probable space group: P 2/M
;
_chemical_formula_sum "Si O2"
_cell_formula_units_Z 28
_cell_length_a 12.570485
_cell_length_b 14.540805
_cell_length_c 8.312651
_cell_angle_alpha 90.000000
_cell_angle_beta 110.981636
_cell_angle_gamma 90.000000
_cell_volume 1418.682386
_symmetry_space_group_name_H-M "P 2/M"
_symmetry_group_IT_number 10
_symmetry_cell_setting 'monoclinic'
loop_
_space_group_symop_operation_xyz
x,y,z
-x,y,-z
-x,-y,-z
x,-y,z
loop_
_atom_site_type_symbol
_atom_site_label
_atom_site_fract_x
_atom_site_fract_y
_atom_site_fract_z
Si Si1 0.540769 0.393670 0.764208
Si Si2 0.790587 0.107341 0.336695
Si Si3 0.322108 0.607083 0.820778
Si Si4 0.632121 0.895871 0.531518
Si Si5 0.842127 0.250542 0.122944
Si Si6 0.263717 0.283673 0.277737
Si Si7 0.074577 0.265636 0.402343
O O1 0.531855 0.500000 0.712700
O O2 0.413606 0.359744 0.737100
O O3 0.620098 0.339708 0.684073
O O4 0.609072 0.391003 0.971747
O O5 0.670041 0.114198 0.365479
O O6 0.791263 0.154587 0.162473
O O7 0.875941 0.172360 0.487722
O O8 0.823270 0.000000 0.350900
O O9 0.293056 0.500000 0.775055
O O10 0.216390 0.673974 0.789986
O O11 0.500000 0.883261 0.500000
O O12 0.702017 0.820173 0.663923
O O13 0.663633 0.000000 0.594328
O O14 0.977674 0.245116 0.217507
O O15 0.804366 0.279970 0.926222
O O16 0.179391 0.315935 0.373609
O O17 0.000000 0.314345 0.500000
#
# Coordination Sequence:
#
# PCOD9144752 Si02
#       7
#     4   4   4   4   4   4   4
#     4   8  15  29  50  75 104 133 164 204 253 308
#     4   9  19  35  53  73 101 140 175 203 251 312
#     4   8  15  29  48  74 106 136 163 199 254 311
#     4   9  19  35  51  69 101 144 175 197 244 317
#     4  10  19  30  53  81 104 126 171 221 256 286
#     4  10  19  32  54  80 101 129 170 221 255 286
#     4   9  19  35  52  70 101 141 172 202 249 313
#
# _framework density 19.736623000000002
#
# number of rings (size 3 to 8) (size 9 to 14) (size 15 to 20)
#    0.000    3.000    0.000    1.286    2.000    3.143 
#    0.000    0.714    0.000   25.286    0.000    0.000 
#    0.000    0.000    0.000    0.000    0.000    0.000 
#
# Total GULP energy -155961.665038 kJ/mol
# GULP energy per Si atom -5570.059466 kJ/mol
# Density = 1.969170 g / cm^3
# Si number density = 19.736623 Si / 1000 Ang^3
#
#
#
# Elastic Constant Matrix: (Units=GPa)
#
#
# Indices 1 2 3 4 5 6 
#
# 1 139.8141 38.5640 18.9659 0.0000 -27.5112 0.0000
# 2 38.5640 44.8290 3.3253 0.0000 -6.7325 0.0000
# 3 18.9659 3.3253 40.4380 0.0000 -12.1852 0.0000
# 4 0.0000 0.0000 0.0000 82.5865 0.0000 -27.6805
# 5 -27.5112 -6.7325 -12.1852 0.0000 28.7425 0.0000
# 6 0.0000 0.0000 0.0000 -27.6805 0.0000 30.5966
#
#
#
# Elastic Compliance Matrix: (Units=1/GPa)
#
#
# Indices 1 2 3 4 5 6 
#
# 1 0.011330 -0.008390 -0.002234 0.000000 0.007933 0.000000
# 2 -0.008390 0.029336 0.001345 0.000000 -0.000589 0.000000
# 3 -0.002234 0.001345 0.028796 0.000000 0.010385 0.000000
# 4 0.000000 0.000000 0.000000 0.017378 0.000000 0.015722
# 5 0.007933 -0.000589 0.010385 0.000000 0.046649 0.000000
# 6 0.000000 0.000000 0.000000 0.015722 0.000000 0.046907
#
#
# Mechanical properties :
#
#
# Convention : Reuss Voigt Hill
#
# Bulk Modulus (GPa) = 19.64435 38.53237 29.08836
# Shear Modulus (GPa) = 23.15658 39.33352 31.24505
#
# Velocity S-wave (km/s) = 3.42903 4.46906 3.98314
# Velocity P-wave (km/s) = 5.06483 6.79674 5.99367
#
# Compressibility (1/GPa) = 0.05090523
#
# Stress axis : x y z
#
# Youngs Moduli (GPa) = 88.25785 34.08761 34.72760
#
# Poissons Ratio (x) = 0.28599 0.07757
# Poissons Ratio (y) = 0.74047 -0.04672
# Poissons Ratio (z) = 0.19715 -0.04585
#
# Static dielectric constant tensor:
#      x y z
#    x 1.734690 0.000000 -0.029370 
#    y 0.000000 1.668950 0.000000 
#    z -0.029370 0.000000 1.744500 
# 
# From -- ./inp_files/25020.got.cif
#   From: 2010.05.17/outbox.cif.g08.bks.cpg/sg10_13_cif.got.tgz:25020.got - 2010.06.03 11:33:40.
