data_PCOD9144355
_publ_section_title
;
Structure prediction by ZEFSAII (Michael W. Deem and Ramdas Pophale) SiO2 
 PCOD9144355
Probable space group: P 2/M
;
_chemical_formula_sum "Si O2"
_cell_formula_units_Z 24
_cell_length_a 16.108079
_cell_length_b 8.486597
_cell_length_c 14.075767
_cell_angle_alpha 90.000000
_cell_angle_beta 149.180747
_cell_angle_gamma 90.000000
_cell_volume 985.826376
_symmetry_space_group_name_H-M "P 2/M"
_symmetry_group_IT_number 10
_symmetry_cell_setting 'monoclinic'
loop_
_space_group_symop_operation_xyz
x,y,z
-x,y,-z
-x,-y,-z
x,-y,z
loop_
_atom_site_type_symbol
_atom_site_label
_atom_site_fract_x
_atom_site_fract_y
_atom_site_fract_z
Si Si1 0.313858 0.666703 0.787276
Si Si2 0.192071 0.000000 0.164056
Si Si3 0.925532 0.000000 0.158827
Si Si4 0.190177 0.666960 0.159638
Si Si5 0.185558 0.000000 0.654815
Si Si6 0.194850 0.672107 0.934856
Si Si7 0.572940 0.672704 0.310172
Si Si8 0.285471 0.000000 0.527313
O O1 0.236698 0.500000 0.742575
O O2 0.250499 0.834442 0.758260
O O3 0.317388 0.667038 0.676385
O O4 0.500000 0.661084 0.000000
O O5 0.262768 0.832534 0.265090
O O6 0.000000 0.000000 0.000000
O O7 0.191221 0.000000 0.047712
O O8 0.110660 0.000000 0.306741
O O9 0.895111 0.166399 0.181050
O O10 0.260871 0.500000 0.262164
O O11 0.193363 0.668169 0.048464
O O12 0.000000 0.667600 0.000000
O O13 0.000000 0.000000 0.500000
O O14 0.238313 0.000000 0.594603
O O15 0.128453 0.500000 0.839689
O O16 0.384194 0.681717 0.094661
O O17 0.592045 0.500000 0.377198
O O18 0.619890 0.838939 0.402645
#
# Coordination Sequence:
#
# PCOD9144355 Si02
#       8
#     4   2   2   4   2   4   4   2
#     4   9  18  33  52  71  91 121 161 201 237 274
#     4   8  14  25  40  60  86 114 144 181 226 270
#     4  10  19  29  45  72  98 119 151 195 238 280
#     4   8  13  22  38  63  90 111 136 178 230 272
#     4  10  21  34  48  69  97 129 159 191 237 287
#     4   9  17  29  47  71  93 117 156 199 233 269
#     4   9  18  33  50  68  94 127 160 193 233 282
#     4  10  21  34  47  67  99 132 157 187 235 291
#
# _framework density 24.345057000000001
#
# number of rings (size 3 to 8) (size 9 to 14) (size 15 to 20)
#    0.000    3.000    0.000    0.750    0.000    2.333 
#    0.000    0.000    0.000    0.000    0.000   37.333 
#    0.000   61.333    0.000    0.000    0.000    0.000 
#
# Total GULP energy -133785.170969 kJ/mol
# GULP energy per Si atom -5574.382124 kJ/mol
# Density = 2.428965 g / cm^3
# Si number density = 24.345057 Si / 1000 Ang^3
#
#
#
# Elastic Constant Matrix: (Units=GPa)
#
#
# Indices 1 2 3 4 5 6 
#
# 1 71.1244 -8.1021 -13.4860 0.0000 -3.1990 0.0000
# 2 -8.1021 357.8296 49.2983 0.0000 16.9335 0.0000
# 3 -13.4860 49.2983 31.2853 0.0000 3.8847 0.0000
# 4 0.0000 0.0000 0.0000 33.1027 0.0000 43.3281
# 5 -3.1990 16.9335 3.8847 0.0000 28.8540 0.0000
# 6 0.0000 0.0000 0.0000 43.3281 0.0000 23.5183
#
#
#
# Elastic Compliance Matrix: (Units=1/GPa)
#
#
# Indices 1 2 3 4 5 6 
#
# 1 0.015493 -0.000771 0.007753 0.000000 0.001126 0.000000
# 2 -0.000771 0.003661 -0.005923 0.000000 -0.001437 0.000000
# 3 0.007753 -0.005923 0.044850 0.000000 -0.001703 0.000000
# 4 0.000000 0.000000 0.000000 -0.021403 0.000000 0.039432
# 5 0.001126 -0.001437 -0.001703 0.000000 0.035855 0.000000
# 6 0.000000 0.000000 0.000000 0.039432 0.000000 -0.030126
#
#
# Mechanical properties :
#
#
# Convention : Reuss Voigt Hill
#
# Bulk Modulus (GPa) = 15.12332 57.29552 36.20942
# Shear Modulus (GPa) = 73.25821 45.93028 59.59425
#
# Velocity S-wave (km/s) = 5.49153 4.34826 4.95299
# Velocity P-wave (km/s) = 6.81431 6.98539 6.90038
#
# Compressibility (1/GPa) = 0.06612304
#
# Stress axis : x y z
#
# Youngs Moduli (GPa) = 64.54622 273.13684 22.29632
#
# Poissons Ratio (x) = 0.21048 -0.17286
# Poissons Ratio (y) = 0.04974 0.13206
# Poissons Ratio (z) = -0.50042 1.61777
#
# Static dielectric constant tensor:
#      x y z
#    x 1.983650 0.000000 -0.060030 
#    y 0.000000 2.067420 0.000000 
#    z -0.060030 0.000000 1.823490 
# 
# From -- ./inp_files/31257.got.cif
#   From: 2010.05.17/outbox.cif.g08.bks.cpg/sg10_16_cif.got.tgz:31257.got - 2010.06.03 11:33:40.
