data_PCOD9144915
_publ_section_title
;
Structure prediction by ZEFSAII (Michael W. Deem and Ramdas Pophale) SiO2 
 PCOD9144915
Probable space group: P 2/M
;
_chemical_formula_sum "Si O2"
_cell_formula_units_Z 32
_cell_length_a 12.600564
_cell_length_b 7.624970
_cell_length_c 33.451815
_cell_angle_alpha 90.000000
_cell_angle_beta 27.023751
_cell_angle_gamma 90.000000
_cell_volume 1460.318953
_symmetry_space_group_name_H-M "P 2/M"
_symmetry_group_IT_number 10
_symmetry_cell_setting 'monoclinic'
loop_
_space_group_symop_operation_xyz
x,y,z
-x,y,-z
-x,-y,-z
x,-y,z
loop_
_atom_site_type_symbol
_atom_site_label
_atom_site_fract_x
_atom_site_fract_y
_atom_site_fract_z
Si Si1 0.513553 0.800526 0.376864
Si Si2 0.642768 0.785567 0.870302
Si Si3 0.077498 0.296869 0.568503
Si Si4 0.240954 0.793133 0.254219
Si Si5 0.361086 0.213090 0.820279
Si Si6 0.005990 0.215077 0.180184
Si Si7 0.889517 0.785905 0.945465
Si Si8 0.695824 0.705762 0.635776
O O1 0.346067 0.720988 0.466634
O O2 0.764873 0.722299 0.281237
O O3 0.370424 0.794386 0.383335
O O4 0.554064 0.000000 0.375607
O O5 0.772132 0.726224 0.786446
O O6 0.778191 0.730190 0.864581
O O7 0.643104 0.000000 0.871851
O O8 0.373990 0.728721 0.958107
O O9 0.014922 0.500000 0.590522
O O10 0.983259 0.226714 0.642101
O O11 0.917606 0.221741 0.586030
O O12 0.467686 0.722566 0.202122
O O13 0.282462 0.000000 0.236482
O O14 0.483838 0.270858 0.737909
O O15 0.091935 0.269026 0.908335
O O16 0.365040 0.000000 0.819718
O O17 0.037513 0.269063 0.123792
O O18 0.996292 0.000000 0.182658
O O19 0.886944 0.000000 0.946895
O O20 0.732323 0.500000 0.614233
#
# Coordination Sequence:
#
# PCOD9144915 Si02
#       8
#     4   4   4   4   4   4   4   4
#     4  11  20  31  50  76 103 131 164 207 254 296
#     4   9  17  29  48  74 102 134 170 207 248 294
#     4  10  21  35  51  72  99 134 170 203 246 303
#     4   9  18  32  50  74 103 133 168 209 248 289
#     4   9  16  28  47  74 106 133 162 203 252 295
#     4   9  17  29  46  73 106 134 163 202 251 299
#     4   9  15  26  47  75 105 133 162 203 253 300
#     4  10  19  31  48  72 103 134 165 200 246 303
#
# _framework density 21.913022000000002
#
# number of rings (size 3 to 8) (size 9 to 14) (size 15 to 20)
#    0.000    2.500    1.250    1.875    0.000    5.000 
#    0.000    3.125    0.000    6.000    0.000    4.375 
#    0.000    0.000    0.000    0.000    0.000    0.000 
#
# Total GULP energy -178575.710949 kJ/mol
# GULP energy per Si atom -5580.490967 kJ/mol
# Density = 2.186315 g / cm^3
# Si number density = 21.913022 Si / 1000 Ang^3
#
#
#
# Elastic Constant Matrix: (Units=GPa)
#
#
# Indices 1 2 3 4 5 6 
#
# 1 5.1077 2.3429 -13.1940 0.0000 19.5320 0.0000
# 2 2.3429 40.0723 -5.8897 0.0000 -2.5115 0.0000
# 3 -13.1940 -5.8897 59.5469 0.0000 -7.4967 0.0000
# 4 0.0000 0.0000 0.0000 -162.6462 0.0000 24.5388
# 5 19.5320 -2.5115 -7.4967 0.0000 11.8813 0.0000
# 6 0.0000 0.0000 0.0000 24.5388 0.0000 -38.2574
#
#
#
# Elastic Compliance Matrix: (Units=1/GPa)
#
#
# Indices 1 2 3 4 5 6 
#
# 1 -0.035634 0.005877 0.000236 0.000000 0.059971 0.000000
# 2 0.005877 0.024990 0.003501 0.000000 -0.002170 0.000000
# 3 0.000236 0.003501 0.018724 0.000000 0.012166 0.000000
# 4 0.000000 0.000000 0.000000 -0.006807 0.000000 -0.004366
# 5 0.059971 -0.002170 0.012166 0.000000 -0.007204 0.000000
# 6 0.000000 0.000000 0.000000 -0.004366 0.000000 -0.028939
#
#
# Mechanical properties :
#
#
# Convention : Reuss Voigt Hill
#
# Bulk Modulus (GPa) = 36.62199 7.91614 22.26906
# Shear Modulus (GPa) = -111.12331 -29.70662 -70.41497
#
# Velocity S-wave (km/s) = -7.12890 -3.68592 -5.67482
# Velocity P-wave (km/s) = 7.14233 3.80714 5.72308
#
# Compressibility (1/GPa) = 0.02730600
#
# Stress axis : x y z
#
# Youngs Moduli (GPa) = -28.06305 40.01622 53.40832
#
# Poissons Ratio (x) = -0.23517 -0.01259
# Poissons Ratio (y) = 0.16492 -0.18697
# Poissons Ratio (z) = 0.00662 -0.14008
#
# Static dielectric constant tensor:
#      x y z
#    x 1.783490 0.000000 -0.020020 
#    y 0.000000 1.813540 0.000000 
#    z -0.020020 0.000000 1.798660 
# 
# From -- ./inp_files/94975.got.cif
#   From: 2010.05.17/outbox.cif.g08.bks.cpg/sg10_48_cif.got.tgz:94975.got - 2010.06.03 11:33:40.
