data_PCOD9144833
_publ_section_title
;
Structure prediction by ZEFSAII (Michael W. Deem and Ramdas Pophale) SiO2 
 PCOD9144833
Probable space group: P 2/M
;
_chemical_formula_sum "Si O2"
_cell_formula_units_Z 28
_cell_length_a 8.057930
_cell_length_b 14.245778
_cell_length_c 13.034751
_cell_angle_alpha 90.000000
_cell_angle_beta 100.300524
_cell_angle_gamma 90.000000
_cell_volume 1472.163468
_symmetry_space_group_name_H-M "P 2/M"
_symmetry_group_IT_number 10
_symmetry_cell_setting 'monoclinic'
loop_
_space_group_symop_operation_xyz
x,y,z
-x,y,-z
-x,-y,-z
x,-y,z
loop_
_atom_site_type_symbol
_atom_site_label
_atom_site_fract_x
_atom_site_fract_y
_atom_site_fract_z
Si Si1 0.735828 0.894169 0.938910
Si Si2 0.143497 0.727293 0.907608
Si Si3 0.649964 0.393247 0.929457
Si Si4 0.238137 0.108023 0.663356
Si Si5 0.465409 0.233007 0.814041
Si Si6 0.910380 0.168635 0.756204
Si Si7 0.306704 0.109539 0.445022
O O1 0.556680 0.845800 0.893753
O O2 0.833627 0.891410 0.840945
O O3 0.723681 0.000000 0.975486
O O4 0.829072 0.825248 0.028151
O O5 0.297739 0.725691 0.846052
O O6 0.976427 0.737836 0.821648
O O7 0.185709 0.646863 0.993843
O O8 0.669107 0.500000 0.897578
O O9 0.594789 0.319884 0.834823
O O10 0.500000 0.390931 0.000000
O O11 0.391333 0.177201 0.709784
O O12 0.202600 0.120109 0.539060
O O13 0.075398 0.127183 0.716685
O O14 0.291969 0.000000 0.684422
O O15 0.768051 0.173165 0.653299
O O16 0.500000 0.124766 0.500000
O O17 0.291833 0.000000 0.409699
#
# Coordination Sequence:
#
# PCOD9144833 Si02
#       7
#     4   4   4   4   4   4   4
#     4  11  20  29  43  64  95 133 164 190 227 278
#     4   9  20  32  45  70  98 125 159 196 235 283
#     4   8  14  29  52  74  96 122 154 194 238 286
#     4  10  19  31  47  68  97 130 164 201 236 273
#     4   9  18  31  47  70  96 124 160 197 234 278
#     4  11  21  32  45  64  95 130 166 202 237 273
#     4  10  20  33  48  66  88 123 170 208 238 275
#
# _framework density 19.019627
#
# number of rings (size 3 to 8) (size 9 to 14) (size 15 to 20)
#    0.000    2.286    0.000    4.714    0.000    7.429 
#    0.000    0.000    0.000    6.857    0.000    1.000 
#    0.000   12.571    0.000    0.857    0.000    0.286 
#
# Total GULP energy -156066.244620 kJ/mol
# GULP energy per Si atom -5573.794451 kJ/mol
# Density = 1.897634 g / cm^3
# Si number density = 19.019627 Si / 1000 Ang^3
#
#
#
# Elastic Constant Matrix: (Units=GPa)
#
#
# Indices 1 2 3 4 5 6 
#
# 1 73.1695 13.0765 24.8027 0.0000 17.2027 0.0000
# 2 13.0765 96.6208 29.8194 0.0000 20.1669 0.0000
# 3 24.8027 29.8194 90.9912 0.0000 23.8788 0.0000
# 4 0.0000 0.0000 0.0000 14.9725 0.0000 3.8852
# 5 17.2027 20.1669 23.8788 0.0000 35.4785 0.0000
# 6 0.0000 0.0000 0.0000 3.8852 0.0000 -8.3629
#
#
#
# Elastic Compliance Matrix: (Units=1/GPa)
#
#
# Indices 1 2 3 4 5 6 
#
# 1 0.016002 -0.000084 -0.002806 0.000000 -0.005822 0.000000
# 2 -0.000084 0.012250 -0.002642 0.000000 -0.005145 0.000000
# 3 -0.002806 -0.002642 0.014416 0.000000 -0.006840 0.000000
# 4 0.000000 0.000000 0.000000 0.059604 0.000000 0.027690
# 5 -0.005822 -0.005145 -0.006840 0.000000 0.038537 0.000000
# 6 0.000000 0.000000 0.000000 0.027690 0.000000 -0.106711
#
#
# Mechanical properties :
#
#
# Convention : Reuss Voigt Hill
#
# Bulk Modulus (GPa) = 31.64185 44.01985 37.83085
# Shear Modulus (GPa) = 89.77133 21.28981 55.53057
#
# Velocity S-wave (km/s) = 6.87763 3.34931 5.40924
# Velocity P-wave (km/s) = 8.92981 6.17672 7.67768
#
# Compressibility (1/GPa) = 0.03160372
#
# Stress axis : x y z
#
# Youngs Moduli (GPa) = 62.49175 81.63157 69.36822
#
# Poissons Ratio (x) = 0.00689 0.19467
# Poissons Ratio (y) = 0.00527 0.18324
# Poissons Ratio (z) = 0.17537 0.21563
#
# Static dielectric constant tensor:
#      x y z
#    x 1.767240 0.000000 0.001210 
#    y 0.000000 1.637630 0.000000 
#    z 0.001210 0.000000 1.675780 
# 
# From -- ./inp_files/42749.got.cif
#   From: 2010.05.17/outbox.cif.g08.bks.cpg/sg10_22_cif.got.tgz:42749.got - 2010.06.03 11:33:40.
