data_PCOD9144145
_publ_section_title
;
Structure prediction by ZEFSAII (Michael W. Deem and Ramdas Pophale) SiO2 
 PCOD9144145
Probable space group: P 2/M
;
_chemical_formula_sum "Si O2"
_cell_formula_units_Z 24
_cell_length_a 17.882496
_cell_length_b 16.755212
_cell_length_c 12.431493
_cell_angle_alpha 90.000000
_cell_angle_beta 19.974999
_cell_angle_gamma 90.000000
_cell_volume 1272.424509
_symmetry_space_group_name_H-M "P 2/M"
_symmetry_group_IT_number 10
_symmetry_cell_setting 'monoclinic'
loop_
_space_group_symop_operation_xyz
x,y,z
-x,y,-z
-x,-y,-z
x,-y,z
loop_
_atom_site_type_symbol
_atom_site_label
_atom_site_fract_x
_atom_site_fract_y
_atom_site_fract_z
Si Si1 0.506913 0.706249 0.179175
Si Si2 0.823613 0.590544 0.642149
Si Si3 0.428975 0.914068 0.471390
Si Si4 0.068249 0.270420 0.665579
Si Si5 0.312703 0.259575 0.660459
Si Si6 0.835192 0.159244 0.810240
O O1 0.314556 0.745890 0.370077
O O2 0.403157 0.690878 0.437173
O O3 0.604009 0.629892 0.987716
O O4 0.706287 0.767387 0.927747
O O5 0.791026 0.500000 0.649045
O O6 0.916521 0.649904 0.426383
O O7 0.000000 0.589949 0.500000
O O8 0.500000 0.916946 0.500000
O O9 0.293803 0.832171 0.644282
O O10 0.328408 0.000000 0.579237
O O11 0.649563 0.899145 0.105245
O O12 0.963970 0.199678 0.735589
O O13 0.911245 0.283559 0.980115
O O14 0.500000 0.260731 0.500000
O O15 0.000000 0.124455 0.500000
#
# Coordination Sequence:
#
# PCOD9144145 Si02
#       6
#     4   4   4   4   4   4
#     4  11  21  34  57  83 110 145 189 230 274 332
#     4  11  22  39  60  83 116 150 182 229 283 329
#     4   9  17  32  57  83 110 149 188 231 281 333
#     4  12  20  35  57  83 112 145 188 233 273 329
#     4  10  18  36  58  81 112 144 186 236 272 332
#     4  11  20  35  54  82 113 148 188 233 276 328
#
# _framework density 18.861630999999999
#
# number of rings (size 3 to 8) (size 9 to 14) (size 15 to 20)
#    0.000    1.333    8.333    1.000    0.000    1.667 
#    0.000    0.833    0.000   17.000    0.000    5.833 
#    0.000    0.000    0.000    0.000    0.000    0.000 
#
# Total GULP energy -133919.002064 kJ/mol
# GULP energy per Si atom -5579.958419 kJ/mol
# Density = 1.881870 g / cm^3
# Si number density = 18.861631 Si / 1000 Ang^3
#
#
#
# Elastic Constant Matrix: (Units=GPa)
#
#
# Indices 1 2 3 4 5 6 
#
# 1 43.7991 11.9374 18.6753 0.0000 -3.4350 0.0000
# 2 11.9374 72.8379 30.2543 0.0000 21.0043 0.0000
# 3 18.6753 30.2543 114.2717 0.0000 30.1281 0.0000
# 4 0.0000 0.0000 0.0000 19.7408 0.0000 5.4649
# 5 -3.4350 21.0043 30.1281 0.0000 51.4112 0.0000
# 6 0.0000 0.0000 0.0000 5.4649 0.0000 12.9079
#
#
#
# Elastic Compliance Matrix: (Units=1/GPa)
#
#
# Indices 1 2 3 4 5 6 
#
# 1 0.026554 -0.004140 -0.004917 0.000000 0.006347 0.000000
# 2 -0.004140 0.017060 -0.002282 0.000000 -0.005909 0.000000
# 3 -0.004917 -0.002282 0.011827 0.000000 -0.006327 0.000000
# 4 0.000000 0.000000 0.000000 0.057382 0.000000 -0.024294
# 5 0.006347 -0.005909 -0.006327 0.000000 0.025997 0.000000
# 6 0.000000 0.000000 0.000000 -0.024294 0.000000 0.087758
#
#
# Mechanical properties :
#
#
# Convention : Reuss Voigt Hill
#
# Bulk Modulus (GPa) = 30.52268 39.18252 34.85260
# Shear Modulus (GPa) = 19.21773 28.14807 23.68290
#
# Velocity S-wave (km/s) = 3.19545 3.86728 3.54731
# Velocity P-wave (km/s) = 5.46188 6.38435 5.94104
#
# Compressibility (1/GPa) = 0.03276252
#
# Stress axis : x y z
#
# Youngs Moduli (GPa) = 37.65881 58.61834 84.55209
#
# Poissons Ratio (x) = 0.24267 0.41575
# Poissons Ratio (y) = 0.15590 0.19296
# Poissons Ratio (z) = 0.18517 0.13378
#
# Static dielectric constant tensor:
#      x y z
#    x 1.690100 0.000000 -0.000700 
#    y 0.000000 1.640940 0.000000 
#    z -0.000700 0.000000 1.668350 
# 
# From -- ./inp_files/54173.got.cif
#   From: 2010.05.17/outbox.cif.g08.bks.cpg/sg10_28_cif.got.tgz:54173.got - 2010.06.03 11:33:40.
