data_PCOD9144894
_publ_section_title
;
Structure prediction by ZEFSAII (Michael W. Deem and Ramdas Pophale) SiO2 
 PCOD9144894
Probable space group: P 2/M
;
_chemical_formula_sum "Si O2"
_cell_formula_units_Z 28
_cell_length_a 25.817432
_cell_length_b 8.367571
_cell_length_c 7.102410
_cell_angle_alpha 90.000000
_cell_angle_beta 49.032557
_cell_angle_gamma 90.000000
_cell_volume 1158.543774
_symmetry_space_group_name_H-M "P 2/M"
_symmetry_group_IT_number 10
_symmetry_cell_setting 'monoclinic'
loop_
_space_group_symop_operation_xyz
x,y,z
-x,y,-z
-x,-y,-z
x,-y,z
loop_
_atom_site_type_symbol
_atom_site_label
_atom_site_fract_x
_atom_site_fract_y
_atom_site_fract_z
Si Si1 0.401880 0.000000 0.893185
Si Si2 0.371960 0.674598 0.465418
Si Si3 0.239712 0.176425 0.679820
Si Si4 0.906244 0.685064 0.055355
Si Si5 0.553772 0.000000 0.654600
Si Si6 0.194389 0.176214 0.216644
Si Si7 0.051261 0.684869 0.607273
Si Si8 0.673598 0.675983 0.983824
O O1 0.360801 0.834876 0.018084
O O2 0.471899 0.000000 0.843027
O O3 0.421984 0.000000 0.622798
O O4 0.402823 0.500000 0.350387
O O5 0.301620 0.699705 0.515564
O O6 0.351613 0.672383 0.736737
O O7 0.416599 0.834422 0.333770
O O8 0.164922 0.224021 0.786778
O O9 0.259926 0.000000 0.565758
O O10 0.228609 0.166031 0.931190
O O11 0.894848 0.500000 0.027567
O O12 0.929749 0.687006 0.216033
O O13 0.973053 0.746330 0.780669
O O14 0.116501 0.227635 0.367152
O O15 0.195374 0.000000 0.301589
O O16 0.243921 0.295102 0.211942
O O17 0.051293 0.500000 0.547976
O O18 0.656415 0.500000 0.949226
#
# Coordination Sequence:
#
# PCOD9144894 Si02
#       8
#     2   4   4   4   2   4   4   4
#     4   9  16  26  40  62  94 127 160 198 239 291
#     4   9  16  27  43  63  91 127 163 200 244 288
#     4  10  19  31  48  70  97 128 165 208 248 291
#     4   9  19  35  51  68  94 127 163 206 253 298
#     4   9  16  26  40  62  94 127 160 198 239 291
#     4  10  19  31  48  70  97 128 165 208 248 291
#     4   9  19  35  51  68  94 127 163 206 253 298
#     4   9  16  27  43  63  91 127 163 200 244 288
#
# _framework density 24.168272000000002
#
# number of rings (size 3 to 8) (size 9 to 14) (size 15 to 20)
#    0.000    2.714    1.429    1.714    0.000    4.000 
#    0.000    7.143    0.000    0.000    0.000    0.000 
#    0.000    2.286    0.000    6.000    0.000    5.714 
#
# Total GULP energy -156480.538594 kJ/mol
# GULP energy per Si atom -5588.590664 kJ/mol
# Density = 2.411326 g / cm^3
# Si number density = 24.168272 Si / 1000 Ang^3
#
#
#
# Elastic Constant Matrix: (Units=GPa)
#
#
# Indices 1 2 3 4 5 6 
#
# 1 102.9995 61.6496 26.0345 0.0000 -32.7855 0.0000
# 2 61.6496 190.3974 51.6979 0.0000 -34.2418 0.0000
# 3 26.0345 51.6979 78.4293 0.0000 -3.6048 0.0000
# 4 0.0000 0.0000 0.0000 8.2208 0.0000 -1.0516
# 5 -32.7855 -34.2418 -3.6048 0.0000 37.3357 0.0000
# 6 0.0000 0.0000 0.0000 -1.0516 0.0000 22.2027
#
#
#
# Elastic Compliance Matrix: (Units=1/GPa)
#
#
# Indices 1 2 3 4 5 6 
#
# 1 0.015346 -0.002071 -0.003211 0.000000 0.011267 0.000000
# 2 -0.002071 0.008031 -0.004371 0.000000 0.005125 0.000000
# 3 -0.003211 -0.004371 0.016457 0.000000 -0.005240 0.000000
# 4 0.000000 0.000000 0.000000 0.122385 0.000000 0.005797
# 5 0.011267 0.005125 -0.005240 0.000000 0.040872 0.000000
# 6 0.000000 0.000000 0.000000 0.005797 0.000000 0.045314
#
#
# Mechanical properties :
#
#
# Convention : Reuss Voigt Hill
#
# Bulk Modulus (GPa) = 48.71390 72.28779 60.50084
# Shear Modulus (GPa) = 18.21134 29.04810 23.62972
#
# Velocity S-wave (km/s) = 2.74801 3.47062 3.13024
# Velocity P-wave (km/s) = 5.50170 6.78494 6.17673
#
# Compressibility (1/GPa) = 0.02052802
#
# Stress axis : x y z
#
# Youngs Moduli (GPa) = 65.16260 124.51325 60.76562
#
# Poissons Ratio (x) = 0.25785 0.19514
# Poissons Ratio (y) = 0.13494 0.26560
# Poissons Ratio (z) = 0.20926 0.54424
#
# Static dielectric constant tensor:
#      x y z
#    x 1.956210 0.000000 0.062050 
#    y 0.000000 1.874960 0.000000 
#    z 0.062050 0.000000 1.983200 
# 
# From -- ./inp_files/37215.got.cif
#   From: 2010.05.17/outbox.cif.g08.bks.cpg/sg10_19_cif.got.tgz:37215.got - 2010.06.03 11:33:40.
