data_PCOD9144983
_publ_section_title
;
Structure prediction by ZEFSAII (Michael W. Deem and Ramdas Pophale) SiO2 
 PCOD9144983
Probable space group: P 2/M
;
_chemical_formula_sum "Si O2"
_cell_formula_units_Z 32
_cell_length_a 19.798761
_cell_length_b 7.320405
_cell_length_c 15.268386
_cell_angle_alpha 90.000000
_cell_angle_beta 145.861179
_cell_angle_gamma 90.000000
_cell_volume 1241.892072
_symmetry_space_group_name_H-M "P 2/M"
_symmetry_group_IT_number 10
_symmetry_cell_setting 'monoclinic'
loop_
_space_group_symop_operation_xyz
x,y,z
-x,y,-z
-x,-y,-z
x,-y,z
loop_
_atom_site_type_symbol
_atom_site_label
_atom_site_fract_x
_atom_site_fract_y
_atom_site_fract_z
Si Si1 0.538082 0.781641 0.948819
Si Si2 0.719476 0.716715 0.395361
Si Si3 0.194270 0.722387 0.137328
Si Si4 0.717532 0.722481 0.588323
Si Si5 0.071444 0.277627 0.488673
Si Si6 0.951586 0.701215 0.178546
Si Si7 0.559347 0.721159 0.696297
Si Si8 0.278744 0.205988 0.974521
O O1 0.421501 0.749049 0.764997
O O2 0.665749 0.710436 0.052513
O O3 0.554836 0.000000 0.972234
O O4 0.500000 0.705216 0.000000
O O5 0.738096 0.500000 0.417115
O O6 0.753956 0.784942 0.529962
O O7 0.791144 0.780561 0.385149
O O8 0.187305 0.500000 0.126047
O O9 0.193989 0.777631 0.238291
O O10 0.329487 0.772618 0.248381
O O11 0.089409 0.787217 0.958200
O O12 0.715882 0.500000 0.585348
O O13 0.579419 0.777367 0.463868
O O14 0.062689 0.500000 0.482760
O O15 0.018510 0.220828 0.335934
O O16 0.000000 0.214802 0.500000
O O17 0.004805 0.500000 0.217712
O O18 0.820310 0.683769 0.081753
O O19 0.558161 0.500000 0.695909
O O20 0.606934 0.796187 0.838984
O O21 0.233633 0.000000 0.913438
#
# Coordination Sequence:
#
# PCOD9144983 Si02
#       8
#     4   4   4   4   4   4   4   4
#     4  10  22  37  51  71 105 139 163 200 258 309
#     4  10  20  34  54  78 101 130 172 213 247 295
#     4   8  14  24  43  71 100 132 166 200 243 293
#     4   9  15  25  44  72 102 130 165 206 244 290
#     4   9  19  35  53  75 102 129 162 214 265 294
#     4   9  18  33  53  73  98 134 173 205 246 300
#     4   9  15  26  45  69 100 136 167 196 238 297
#     4  10  19  31  49  73 102 132 162 206 254 293
#
# _framework density 25.767135
#
# number of rings (size 3 to 8) (size 9 to 14) (size 15 to 20)
#    0.000    2.750    1.250    1.500    1.750    2.250 
#    0.000    1.250    0.000   13.500    0.000    0.000 
#    0.000    5.000    0.000    0.000    0.000    0.000 
#
# Total GULP energy -178380.415739 kJ/mol
# GULP energy per Si atom -5574.387992 kJ/mol
# Density = 2.570849 g / cm^3
# Si number density = 25.767135 Si / 1000 Ang^3
#
#
#
# Elastic Constant Matrix: (Units=GPa)
#
#
# Indices 1 2 3 4 5 6 
#
# 1 97.8340 -0.9940 15.6082 0.0000 -17.0806 0.0000
# 2 -0.9940 102.2160 -8.0748 0.0000 0.0153 0.0000
# 3 15.6082 -8.0748 65.5403 0.0000 -16.6887 0.0000
# 4 0.0000 0.0000 0.0000 6.8907 0.0000 3.1948
# 5 -17.0806 0.0153 -16.6887 0.0000 36.6269 0.0000
# 6 0.0000 0.0000 0.0000 3.1948 0.0000 -23.6942
#
#
#
# Elastic Compliance Matrix: (Units=1/GPa)
#
#
# Indices 1 2 3 4 5 6 
#
# 1 0.011260 -0.000011 -0.001522 0.000000 0.004557 0.000000
# 2 -0.000011 0.009892 0.001379 0.000000 0.000619 0.000000
# 3 -0.001522 0.001379 0.017658 0.000000 0.007335 0.000000
# 4 0.000000 0.000000 0.000000 0.136584 0.000000 0.018416
# 5 0.004557 0.000619 0.007335 0.000000 0.032770 0.000000
# 6 0.000000 0.000000 0.000000 0.018416 0.000000 -0.039721
#
#
# Mechanical properties :
#
#
# Convention : Reuss Voigt Hill
#
# Bulk Modulus (GPa) = 25.97404 30.96323 28.46863
# Shear Modulus (GPa) = 27.53524 21.23474 24.38499
#
# Velocity S-wave (km/s) = 3.27252 2.87383 3.07963
# Velocity P-wave (km/s) = 4.93775 4.80151 4.87011
#
# Compressibility (1/GPa) = 0.03849998
#
# Stress axis : x y z
#
# Youngs Moduli (GPa) = 88.81145 101.09237 56.63144
#
# Poissons Ratio (x) = 0.00116 0.08622
# Poissons Ratio (y) = 0.00102 -0.07810
# Poissons Ratio (z) = 0.13521 -0.13941
#
# Static dielectric constant tensor:
#      x y z
#    x 2.078090 0.000000 -0.011380 
#    y 0.000000 2.060140 0.000000 
#    z -0.011380 0.000000 2.109660 
# 
# From -- ./inp_files/70048.got.cif
#   From: 2010.05.17/outbox.cif.g08.bks.cpg/sg10_36_cif.got.tgz:70048.got - 2010.06.03 11:33:40.
