data_PCOD9144820
_publ_section_title
;
Structure prediction by ZEFSAII (Michael W. Deem and Ramdas Pophale) SiO2 
 PCOD9144820
Probable space group: P 2/M
;
_chemical_formula_sum "Si O2"
_cell_formula_units_Z 32
_cell_length_a 17.611654
_cell_length_b 7.666721
_cell_length_c 17.309960
_cell_angle_alpha 90.000000
_cell_angle_beta 128.933497
_cell_angle_gamma 90.000000
_cell_volume 1818.093347
_symmetry_space_group_name_H-M "P 2/M"
_symmetry_group_IT_number 10
_symmetry_cell_setting 'monoclinic'
loop_
_space_group_symop_operation_xyz
x,y,z
-x,y,-z
-x,-y,-z
x,-y,z
loop_
_atom_site_type_symbol
_atom_site_label
_atom_site_fract_x
_atom_site_fract_y
_atom_site_fract_z
Si Si1 0.459302 0.210636 0.683342
Si Si2 0.551575 0.786582 0.152461
Si Si3 0.400853 0.293792 0.476813
Si Si4 0.004022 0.286076 0.093047
Si Si5 0.219424 0.288690 0.262987
Si Si6 0.354936 0.206263 0.943553
Si Si7 0.683057 0.204684 0.836167
Si Si8 0.184996 0.696239 0.940601
O O1 0.423707 0.270601 0.745008
O O2 0.406716 0.271206 0.572325
O O3 0.572838 0.265163 0.751755
O O4 0.456825 0.000000 0.680052
O O5 0.622116 0.727869 0.128077
O O6 0.551898 0.000000 0.155273
O O7 0.442139 0.730716 0.056209
O O8 0.500000 0.220830 0.500000
O O9 0.401212 0.500000 0.460059
O O10 0.300491 0.224709 0.375693
O O11 0.999042 0.500000 0.088132
O O12 0.106996 0.233050 0.196262
O O13 0.912551 0.221328 0.085267
O O14 0.000000 0.231919 0.000000
O O15 0.218006 0.500000 0.263739
O O16 0.257807 0.230497 0.204187
O O17 0.370468 0.000000 0.949662
O O18 0.248153 0.232974 0.909939
O O19 0.738813 0.300240 0.939898
O O20 0.679233 0.000000 0.855409
O O21 0.158781 0.500000 0.902501
#
# Coordination Sequence:
#
# PCOD9144820 Si02
#       8
#     4   4   4   4   4   4   4   4
#     4  10  19  31  47  67  92 125 159 183 218 274
#     4   8  15  29  48  67  90 124 154 181 222 281
#     4  10  20  31  46  69  93 119 153 193 232 265
#     4   9  17  30  48  66  87 124 160 183 222 278
#     4  10  19  34  49  63  91 125 158 191 227 273
#     4   9  16  30  49  67  92 121 153 186 225 277
#     4  11  20  29  45  68  94 123 157 191 226 264
#     4  11  20  30  46  68  94 124 158 190 225 270
#
# _framework density 17.600857000000001
#
# number of rings (size 3 to 8) (size 9 to 14) (size 15 to 20)
#    0.000    2.250    3.750    1.500    0.000    1.250 
#    0.000    3.750    0.000    0.000    0.000    0.875 
#    0.000    7.000    0.000    0.000    0.000    0.000 
#
# Total GULP energy -178379.866087 kJ/mol
# GULP energy per Si atom -5574.370815 kJ/mol
# Density = 1.756080 g / cm^3
# Si number density = 17.600857 Si / 1000 Ang^3
#
#
#
# Elastic Constant Matrix: (Units=GPa)
#
#
# Indices 1 2 3 4 5 6 
#
# 1 143.9084 2.8929 57.8272 0.0000 -1.6270 0.0000
# 2 2.8929 24.0577 3.4176 0.0000 6.2359 0.0000
# 3 57.8272 3.4176 86.9075 0.0000 3.0425 0.0000
# 4 0.0000 0.0000 0.0000 14.1305 0.0000 -5.3103
# 5 -1.6270 6.2359 3.0425 0.0000 26.2319 0.0000
# 6 0.0000 0.0000 0.0000 -5.3103 0.0000 17.2595
#
#
#
# Elastic Compliance Matrix: (Units=1/GPa)
#
#
# Indices 1 2 3 4 5 6 
#
# 1 0.009540 -0.000625 -0.006375 0.000000 0.001480 0.000000
# 2 -0.000625 0.044502 -0.000966 0.000000 -0.010506 0.000000
# 3 -0.006375 -0.000966 0.015856 0.000000 -0.002005 0.000000
# 4 0.000000 0.000000 0.000000 0.080021 0.000000 0.024620
# 5 0.001480 -0.010506 -0.002005 0.000000 0.040943 0.000000
# 6 0.000000 0.000000 0.000000 0.024620 0.000000 0.065514
#
#
# Mechanical properties :
#
#
# Convention : Reuss Voigt Hill
#
# Bulk Modulus (GPa) = 18.53017 42.57211 30.55114
# Shear Modulus (GPa) = 17.22363 24.24010 20.73187
#
# Velocity S-wave (km/s) = 3.13160 3.71511 3.43576
# Velocity P-wave (km/s) = 4.86074 6.53014 5.75628
#
# Compressibility (1/GPa) = 0.05396605
#
# Stress axis : x y z
#
# Youngs Moduli (GPa) = 104.82390 22.47073 63.06580
#
# Poissons Ratio (x) = 0.01405 0.40204
# Poissons Ratio (y) = 0.06553 0.06094
# Poissons Ratio (z) = 0.66824 0.02171
#
# Static dielectric constant tensor:
#      x y z
#    x 1.626230 0.000000 0.003050 
#    y 0.000000 1.658580 0.000000 
#    z 0.003050 0.000000 1.586110 
# 
# From -- ./inp_files/78526.got.cif
#   From: 2010.05.17/outbox.cif.g08.bks.cpg/sg10_40_cif.got.tgz:78526.got - 2010.06.03 11:33:40.
