data_PCOD9144267
_publ_section_title
;
Structure prediction by ZEFSAII (Michael W. Deem and Ramdas Pophale) SiO2 
 PCOD9144267
Probable space group: P 2/M
;
_chemical_formula_sum "Si O2"
_cell_formula_units_Z 24
_cell_length_a 19.213058
_cell_length_b 12.185619
_cell_length_c 8.108150
_cell_angle_alpha 90.000000
_cell_angle_beta 41.077487
_cell_angle_gamma 90.000000
_cell_volume 1247.336174
_symmetry_space_group_name_H-M "P 2/M"
_symmetry_group_IT_number 10
_symmetry_cell_setting 'monoclinic'
loop_
_space_group_symop_operation_xyz
x,y,z
-x,y,-z
-x,-y,-z
x,-y,z
loop_
_atom_site_type_symbol
_atom_site_label
_atom_site_fract_x
_atom_site_fract_y
_atom_site_fract_z
Si Si1 0.961987 0.500000 0.289045
Si Si2 0.923207 0.129131 0.395885
Si Si3 0.657259 0.500000 0.817034
Si Si4 0.287796 0.677671 0.756271
Si Si5 0.554584 0.500000 0.634924
Si Si6 0.183916 0.675709 0.581702
Si Si7 0.841432 0.500000 0.851068
Si Si8 0.155812 0.871133 0.085077
O O1 0.920000 0.604167 0.266991
O O2 0.904298 0.500000 0.570444
O O3 0.082123 0.500000 0.126709
O O4 0.849335 0.203079 0.413034
O O5 0.877959 0.141273 0.662887
O O6 0.047775 0.163891 0.180278
O O7 0.920566 0.000000 0.358101
O O8 0.600690 0.500000 0.739044
O O9 0.728986 0.609663 0.683706
O O10 0.570938 0.500000 0.115273
O O11 0.397552 0.610794 0.533496
O O12 0.228631 0.668067 0.685458
O O13 0.227874 0.607244 0.001452
O O14 0.260748 0.802072 0.855397
O O15 0.171146 0.000000 0.026064
#
# Coordination Sequence:
#
# PCOD9144267 Si02
#       8
#     2   4   2   4   2   4   2   4
#     4  10  19  29  42  61  90 127 155 176 216 278
#     4   9  18  32  48  66  93 131 164 183 212 269
#     4   8  16  32  50  67  90 119 149 186 236 288
#     4  10  19  29  46  71  92 114 150 196 237 267
#     4   8  16  32  50  67  90 119 149 186 236 288
#     4  10  19  29  46  71  92 114 150 196 237 267
#     4  10  19  29  42  61  90 127 155 176 216 278
#     4   9  18  32  48  66  93 131 164 183 212 269
#
# _framework density 19.241004
#
# number of rings (size 3 to 8) (size 9 to 14) (size 15 to 20)
#    0.000    2.667    0.000    4.500    0.000    6.667 
#    0.000    1.667    0.000   19.000    0.000    7.000 
#    0.000    0.000    0.000    0.000    0.000    0.000 
#
# Total GULP energy -133776.975032 kJ/mol
# GULP energy per Si atom -5574.040626 kJ/mol
# Density = 1.919721 g / cm^3
# Si number density = 19.241004 Si / 1000 Ang^3
#
#
#
# Elastic Constant Matrix: (Units=GPa)
#
#
# Indices 1 2 3 4 5 6 
#
# 1 51.3216 12.6791 9.3089 0.0000 5.4818 0.0000
# 2 12.6791 91.0094 46.1467 0.0000 -5.3765 0.0000
# 3 9.3089 46.1467 111.2490 0.0000 -11.1885 0.0000
# 4 0.0000 0.0000 0.0000 9.7823 0.0000 -8.5880
# 5 5.4818 -5.3765 -11.1885 0.0000 17.7115 0.0000
# 6 0.0000 0.0000 0.0000 -8.5880 0.0000 11.2757
#
#
#
# Elastic Compliance Matrix: (Units=1/GPa)
#
#
# Indices 1 2 3 4 5 6 
#
# 1 0.021319 -0.002701 -0.001505 0.000000 -0.008369 0.000000
# 2 -0.002701 0.014263 -0.005522 0.000000 0.001678 0.000000
# 3 -0.001505 -0.005522 0.012049 0.000000 0.006401 0.000000
# 4 0.000000 0.000000 0.000000 0.308522 0.000000 0.234983
# 5 -0.008369 0.001678 0.006401 0.000000 0.063604 0.000000
# 6 0.000000 0.000000 0.000000 0.234983 0.000000 0.267660
#
#
# Mechanical properties :
#
#
# Convention : Reuss Voigt Hill
#
# Bulk Modulus (GPa) = 35.49226 43.31659 39.40443
# Shear Modulus (GPa) = 6.98066 20.11692 13.54879
#
# Velocity S-wave (km/s) = 1.90680 3.23696 2.65648
# Velocity P-wave (km/s) = 4.83053 6.04418 5.47111
#
# Compressibility (1/GPa) = 0.02817516
#
# Stress axis : x y z
#
# Youngs Moduli (GPa) = 46.90583 70.11098 82.99475
#
# Poissons Ratio (x) = 0.18940 0.12491
# Poissons Ratio (y) = 0.12671 0.45827
# Poissons Ratio (z) = 0.07060 0.38713
#
# Static dielectric constant tensor:
#      x y z
#    x 1.713570 0.000000 0.012660 
#    y 0.000000 1.535080 0.000000 
#    z 0.012660 0.000000 1.705440 
# 
# From -- ./inp_files/34539.got.cif
#   From: 2010.05.17/outbox.cif.g08.bks.cpg/sg10_18_cif.got.tgz:34539.got - 2010.06.03 11:33:40.
