data_PCOD9144059
_publ_section_title
;
Structure prediction by ZEFSAII (Michael W. Deem and Ramdas Pophale) SiO2 
 PCOD9144059
Probable space group: P 2/M
;
_chemical_formula_sum "Si O2"
_cell_formula_units_Z 32
_cell_length_a 29.044030
_cell_length_b 8.756259
_cell_length_c 22.788871
_cell_angle_alpha 90.000000
_cell_angle_beta 161.537834
_cell_angle_gamma 90.000000
_cell_volume 1835.340736
_symmetry_space_group_name_H-M "P 2/M"
_symmetry_group_IT_number 10
_symmetry_cell_setting 'monoclinic'
loop_
_space_group_symop_operation_xyz
x,y,z
-x,y,-z
-x,-y,-z
x,-y,z
loop_
_atom_site_type_symbol
_atom_site_label
_atom_site_fract_x
_atom_site_fract_y
_atom_site_fract_z
Si Si1 0.700607 0.815870 0.793667
Si Si2 0.462423 0.683931 0.886510
Si Si3 0.153438 0.818569 0.476342
Si Si4 0.381072 0.816418 0.438867
Si Si5 0.011015 0.315226 0.417039
Si Si6 0.988311 0.683054 0.810097
Si Si7 0.768486 0.314792 0.211962
Si Si8 0.121035 0.315910 0.193662
O O1 0.550718 0.771318 0.644818
O O2 0.678423 0.775269 0.698079
O O3 0.713545 0.000000 0.812504
O O4 0.845514 0.739185 0.992393
O O5 0.445660 0.500000 0.861058
O O6 0.314003 0.760931 0.687499
O O7 0.500000 0.715257 0.000000
O O8 0.602840 0.734992 0.018815
O O9 0.046405 0.758394 0.397982
O O10 0.103409 0.750721 0.353990
O O11 0.150065 0.000000 0.470315
O O12 0.276490 0.744435 0.360508
O O13 0.375388 0.000000 0.436167
O O14 0.012903 0.500000 0.413785
O O15 0.137583 0.272999 0.616843
O O16 0.860333 0.267870 0.266036
O O17 0.984216 0.500000 0.802770
O O18 0.925225 0.732858 0.797155
O O19 0.767279 0.500000 0.210214
O O20 0.123021 0.500000 0.194922
O O21 0.000000 0.263844 0.000000
#
# Coordination Sequence:
#
# PCOD9144059 Si02
#       8
#     4   4   4   4   4   4   4   4
#     4   9  18  34  54  82 114 143 179 222 268 329
#     4  10  18  34  60  86 111 144 185 230 276 327
#     4  12  25  38  53  79 115 152 188 229 278 335
#     4   9  18  32  55  84 114 145 177 217 273 334
#     4   9  16  33  57  82 109 141 182 223 269 328
#     4  11  23  39  58  79 108 149 190 231 281 335
#     4   8  15  29  57  88 109 134 178 229 270 318
#     4  10  20  35  55  84 114 140 184 240 281 322
#
# _framework density 17.435455000000001
#
# number of rings (size 3 to 8) (size 9 to 14) (size 15 to 20)
#    0.000    2.250    2.500    3.000    0.000    2.000 
#    0.000    4.375    0.000    1.500    0.000    0.000 
#    0.000    0.000    0.000    0.000    0.000    0.000 
#
# Total GULP energy -178533.076365 kJ/mol
# GULP energy per Si atom -5579.158636 kJ/mol
# Density = 1.739577 g / cm^3
# Si number density = 17.435455 Si / 1000 Ang^3
#
#
#
# Elastic Constant Matrix: (Units=GPa)
#
#
# Indices 1 2 3 4 5 6 
#
# 1 144.3913 42.2481 83.6804 0.0000 9.5968 0.0000
# 2 42.2481 38.3056 44.6231 0.0000 -1.4020 0.0000
# 3 83.6804 44.6231 119.4200 0.0000 8.4113 0.0000
# 4 0.0000 0.0000 0.0000 25.8438 0.0000 3.1024
# 5 9.5968 -1.4020 8.4113 0.0000 29.8422 0.0000
# 6 0.0000 0.0000 0.0000 3.1024 0.0000 9.0344
#
#
#
# Elastic Compliance Matrix: (Units=1/GPa)
#
#
# Indices 1 2 3 4 5 6 
#
# 1 0.012673 -0.006998 -0.006076 0.000000 -0.002692 0.000000
# 2 -0.006998 0.051654 -0.015025 0.000000 0.008912 0.000000
# 3 -0.006076 -0.015025 0.018526 0.000000 -0.003974 0.000000
# 4 0.000000 0.000000 0.000000 0.040358 0.000000 -0.013859
# 5 -0.002692 0.008912 -0.003974 0.000000 0.035914 0.000000
# 6 0.000000 0.000000 0.000000 -0.013859 0.000000 0.115448
#
#
# Mechanical properties :
#
#
# Convention : Reuss Voigt Hill
#
# Bulk Modulus (GPa) = 37.51770 71.46890 54.49330
# Shear Modulus (GPa) = 14.72081 21.71510 18.21796
#
# Velocity S-wave (km/s) = 2.90884 3.53293 3.23597
# Velocity P-wave (km/s) = 5.73119 7.59748 6.72935
#
# Compressibility (1/GPa) = 0.02665408
#
# Stress axis : x y z
#
# Youngs Moduli (GPa) = 78.90502 19.35969 53.97942
#
# Poissons Ratio (x) = 0.13549 0.32798
# Poissons Ratio (y) = 0.55221 0.81104
# Poissons Ratio (z) = 0.47942 0.29088
#
# Static dielectric constant tensor:
#      x y z
#    x 1.591540 0.000000 0.018520 
#    y 0.000000 1.582460 0.000000 
#    z 0.018520 0.000000 1.578530 
# 
# From -- ./inp_files/86978.got.cif
#   From: 2010.05.17/outbox.cif.g08.bks.cpg/sg10_44_cif.got.tgz:86978.got - 2010.06.03 11:33:40.
