data_PCOD9144796
_publ_section_title
;
Structure prediction by ZEFSAII (Michael W. Deem and Ramdas Pophale) SiO2 
 PCOD9144796
Probable space group: P 2/M
;
_chemical_formula_sum "Si O2"
_cell_formula_units_Z 32
_cell_length_a 14.690146
_cell_length_b 9.356878
_cell_length_c 26.728362
_cell_angle_alpha 90.000000
_cell_angle_beta 144.996007
_cell_angle_gamma 90.000000
_cell_volume 2107.482353
_symmetry_space_group_name_H-M "P 2/M"
_symmetry_group_IT_number 10
_symmetry_cell_setting 'monoclinic'
loop_
_space_group_symop_operation_xyz
x,y,z
-x,y,-z
-x,-y,-z
x,-y,z
loop_
_atom_site_type_symbol
_atom_site_label
_atom_site_fract_x
_atom_site_fract_y
_atom_site_fract_z
Si Si1 0.293864 0.834298 0.737944
Si Si2 0.948499 0.160347 0.632405
Si Si3 0.317485 0.330993 0.541231
Si Si4 0.452538 0.328272 0.897304
Si Si5 0.755489 0.329059 0.099222
Si Si6 0.813834 0.670905 0.408594
Si Si7 0.069141 0.833316 0.256103
Si Si8 0.433447 0.172456 0.414473
O O1 0.413215 0.753179 0.828784
O O2 0.263774 0.754632 0.672226
O O3 0.124140 0.830894 0.689721
O O4 0.338042 0.000000 0.750603
O O5 0.838881 0.278656 0.558324
O O6 0.948302 0.176203 0.691726
O O7 0.884542 0.000000 0.592301
O O8 0.340533 0.500000 0.545731
O O9 0.281563 0.300955 0.583210
O O10 0.460548 0.246005 0.580002
O O11 0.443608 0.500000 0.886259
O O12 0.324700 0.290353 0.883294
O O13 0.624034 0.293657 0.998169
O O14 0.774482 0.500000 0.108018
O O15 0.923906 0.254566 0.168131
O O16 0.811939 0.500000 0.398027
O O17 0.000000 0.711570 0.500000
O O18 0.248910 0.786126 0.325928
O O19 0.054392 0.000000 0.235574
O O20 0.500000 0.210622 0.500000
O O21 0.443743 0.000000 0.415689
#
# Coordination Sequence:
#
# PCOD9144796 Si02
#       8
#     4   4   4   4   4   4   4   4
#     4  11  21  31  49  75  98 129 170 206 239 284
#     4  10  19  31  46  68 101 133 164 200 242 287
#     4  11  22  34  50  71  95 128 170 210 243 281
#     4   9  18  32  48  69 101 135 162 196 247 294
#     4   9  18  31  48  71  99 132 166 200 240 290
#     4  10  21  36  50  68  98 132 164 202 249 294
#     4  10  19  32  49  70  98 135 168 199 243 288
#     4  10  20  35  51  68  98 135 165 199 246 294
#
# _framework density 15.183994
#
# number of rings (size 3 to 8) (size 9 to 14) (size 15 to 20)
#    0.000    2.000    3.750    1.500    0.000    3.500 
#    0.000    1.250    0.000    0.000    0.000    0.875 
#    0.000    7.000    0.000    0.000    0.000    0.000 
#
# Total GULP energy -178465.485826 kJ/mol
# GULP energy per Si atom -5577.046432 kJ/mol
# Density = 1.514944 g / cm^3
# Si number density = 15.183994 Si / 1000 Ang^3
#
#
#
# Elastic Constant Matrix: (Units=GPa)
#
#
# Indices 1 2 3 4 5 6 
#
# 1 83.5629 46.2924 49.4367 0.0000 0.0014 0.0000
# 2 46.2924 50.8966 59.7087 0.0000 -5.2025 0.0000
# 3 49.4367 59.7087 121.5213 0.0000 -1.4618 0.0000
# 4 0.0000 0.0000 0.0000 26.0088 0.0000 4.8403
# 5 0.0014 -5.2025 -1.4618 0.0000 21.7823 0.0000
# 6 0.0000 0.0000 0.0000 4.8403 0.0000 19.8190
#
#
#
# Elastic Compliance Matrix: (Units=1/GPa)
#
#
# Indices 1 2 3 4 5 6 
#
# 1 0.025181 -0.026998 0.002946 0.000000 -0.006252 0.000000
# 2 -0.026998 0.077408 -0.026850 0.000000 0.016688 0.000000
# 3 0.002946 -0.026850 0.020162 0.000000 -0.005060 0.000000
# 4 0.000000 0.000000 0.000000 0.040279 0.000000 -0.009837
# 5 -0.006252 0.016688 -0.005060 0.000000 0.049556 0.000000
# 6 0.000000 0.000000 0.000000 -0.009837 0.000000 0.052859
#
#
# Mechanical properties :
#
#
# Convention : Reuss Voigt Hill
#
# Bulk Modulus (GPa) = 47.73938 62.98404 55.36171
# Shear Modulus (GPa) = 13.36075 20.22488 16.79282
#
# Velocity S-wave (km/s) = 2.96957 3.65360 3.32920
# Velocity P-wave (km/s) = 6.57774 7.70513 7.16364
#
# Compressibility (1/GPa) = 0.02094707
#
# Stress axis : x y z
#
# Youngs Moduli (GPa) = 39.71313 12.91857 49.59826
#
# Poissons Ratio (x) = 0.34878 -0.14614
# Poissons Ratio (y) = 1.07219 1.33171
# Poissons Ratio (z) = -0.11701 0.34686
#
# Static dielectric constant tensor:
#      x y z
#    x 1.493880 0.000000 0.008740 
#    y 0.000000 1.512780 0.000000 
#    z 0.008740 0.000000 1.493510 
# 
# From -- ./inp_files/66578.got.cif
#   From: 2010.05.17/outbox.cif.g08.bks.cpg/sg10_34_cif.got.tgz:66578.got - 2010.06.03 11:33:40.
