data_PCOD9144114
_publ_section_title
;
Structure prediction by ZEFSAII (Michael W. Deem and Ramdas Pophale) SiO2 
 PCOD9144114
Probable space group: P 2/M
;
_chemical_formula_sum "Si O2"
_cell_formula_units_Z 32
_cell_length_a 14.541889
_cell_length_b 8.643249
_cell_length_c 14.528462
_cell_angle_alpha 90.000000
_cell_angle_beta 87.434812
_cell_angle_gamma 90.000000
_cell_volume 1824.240476
_symmetry_space_group_name_H-M "P 2/M"
_symmetry_group_IT_number 10
_symmetry_cell_setting 'monoclinic'
loop_
_space_group_symop_operation_xyz
x,y,z
-x,y,-z
-x,-y,-z
x,-y,z
loop_
_atom_site_type_symbol
_atom_site_label
_atom_site_fract_x
_atom_site_fract_y
_atom_site_fract_z
Si Si1 0.142103 0.183661 0.727468
Si Si2 0.044454 0.313932 0.186084
Si Si3 0.338628 0.313516 0.187216
Si Si4 0.808670 0.184900 0.952695
Si Si5 0.524019 0.185366 0.104785
Si Si6 0.275513 0.683922 0.860676
Si Si7 0.191538 0.312749 0.337087
Si Si8 0.104636 0.686298 0.527833
O O1 0.232777 0.259251 0.766945
O O2 0.126249 0.234793 0.623205
O O3 0.055153 0.245776 0.789781
O O4 0.146996 0.000000 0.734366
O O5 0.040279 0.500000 0.182054
O O6 0.096950 0.249825 0.094472
O O7 0.109628 0.269330 0.270263
O O8 0.340592 0.500000 0.181339
O O9 0.273180 0.250262 0.108636
O O10 0.439571 0.245830 0.169636
O O11 0.286496 0.267236 0.283764
O O12 0.808237 0.000000 0.949382
O O13 0.786360 0.242852 0.055438
O O14 0.620704 0.258592 0.128699
O O15 0.530597 0.000000 0.109577
O O16 0.500000 0.227107 0.000000
O O17 0.271702 0.500000 0.867643
O O18 0.190123 0.500000 0.339999
O O19 0.169613 0.260139 0.440860
O O20 0.112873 0.500000 0.539193
O O21 0.000000 0.716046 0.500000
#
# Coordination Sequence:
#
# PCOD9144114 Si02
#       8
#     4   4   4   4   4   4   4   4
#     4  12  25  39  55  83 119 152 189 240 293 341
#     4  10  19  36  57  81 112 154 198 232 272 337
#     4  10  19  33  56  86 116 151 193 232 276 338
#     4  11  21  35  54  83 118 151 186 235 288 333
#     4  11  22  37  59  86 117 149 185 238 295 336
#     4  12  25  41  60  81 109 153 199 236 280 346
#     4   8  16  31  55  85 114 145 187 237 276 321
#     4  10  18  35  61  85 113 153 195 235 280 334
#
# _framework density 17.541546
#
# number of rings (size 3 to 8) (size 9 to 14) (size 15 to 20)
#    0.000    1.500    2.500    5.250    0.000    1.250 
#    0.000    3.750    0.000    0.750    0.000    5.250 
#    0.000    0.000    0.000    0.000    0.000    0.000 
#
# Total GULP energy -178789.400090 kJ/mol
# GULP energy per Si atom -5587.168753 kJ/mol
# Density = 1.750162 g / cm^3
# Si number density = 17.541546 Si / 1000 Ang^3
#
#
#
# Elastic Constant Matrix: (Units=GPa)
#
#
# Indices 1 2 3 4 5 6 
#
# 1 101.5578 32.6513 51.2085 0.0000 -3.9060 0.0000
# 2 32.6513 74.1204 25.8061 0.0000 0.7487 0.0000
# 3 51.2085 25.8061 79.3358 0.0000 -6.3365 0.0000
# 4 0.0000 0.0000 0.0000 9.8324 0.0000 -5.2821
# 5 -3.9060 0.7487 -6.3365 0.0000 25.8013 0.0000
# 6 0.0000 0.0000 0.0000 -5.2821 0.0000 18.1168
#
#
#
# Elastic Compliance Matrix: (Units=1/GPa)
#
#
# Indices 1 2 3 4 5 6 
#
# 1 0.015479 -0.003780 -0.008737 0.000000 0.000307 0.000000
# 2 -0.003780 0.016210 -0.002975 0.000000 -0.001773 0.000000
# 3 -0.008737 -0.002975 0.019495 0.000000 0.003551 0.000000
# 4 0.000000 0.000000 0.000000 0.120593 0.000000 0.035160
# 5 0.000307 -0.001773 0.003551 0.000000 0.039728 0.000000
# 6 0.000000 0.000000 0.000000 0.035160 0.000000 0.065449
#
#
# Mechanical properties :
#
#
# Convention : Reuss Voigt Hill
#
# Bulk Modulus (GPa) = 49.50166 52.70509 51.10338
# Shear Modulus (GPa) = 15.88956 20.43998 18.16477
#
# Velocity S-wave (km/s) = 3.01296 3.41725 3.22145
# Velocity P-wave (km/s) = 6.35490 6.75879 6.55996
#
# Compressibility (1/GPa) = 0.02020134
#
# Stress axis : x y z
#
# Youngs Moduli (GPa) = 64.60236 61.68929 51.29396
#
# Poissons Ratio (x) = 0.23318 0.44817
# Poissons Ratio (y) = 0.24420 0.15258
# Poissons Ratio (z) = 0.56445 0.18350
#
# Static dielectric constant tensor:
#      x y z
#    x 1.589840 0.000000 -0.009810 
#    y 0.000000 1.583810 0.000000 
#    z -0.009810 0.000000 1.603880 
# 
# From -- ./inp_files/66166.got.cif
#   From: 2010.05.17/outbox.cif.g08.bks.cpg/sg10_34_cif.got.tgz:66166.got - 2010.06.03 11:33:40.
