data_PCOD9144481
_publ_section_title
;
Structure prediction by ZEFSAII (Michael W. Deem and Ramdas Pophale) SiO2 
 PCOD9144481
Probable space group: P 2/M
;
_chemical_formula_sum "Si O2"
_cell_formula_units_Z 28
_cell_length_a 8.875958
_cell_length_b 13.080973
_cell_length_c 16.377815
_cell_angle_alpha 90.000000
_cell_angle_beta 63.218271
_cell_angle_gamma 90.000000
_cell_volume 1697.583560
_symmetry_space_group_name_H-M "P 2/M"
_symmetry_group_IT_number 10
_symmetry_cell_setting 'monoclinic'
loop_
_space_group_symop_operation_xyz
x,y,z
-x,y,-z
-x,-y,-z
x,-y,z
loop_
_atom_site_type_symbol
_atom_site_label
_atom_site_fract_x
_atom_site_fract_y
_atom_site_fract_z
Si Si1 0.487593 0.377580 0.599897
Si Si2 0.838860 0.620365 0.784492
Si Si3 0.204116 0.612480 0.949362
Si Si4 0.189145 0.310974 0.780260
Si Si5 0.015199 0.882875 0.898169
Si Si6 0.156685 0.623641 0.407311
Si Si7 0.314372 0.228106 0.057614
O O1 0.500000 0.362346 0.500000
O O2 0.461185 0.500000 0.619870
O O3 0.331132 0.318106 0.677211
O O4 0.662963 0.346232 0.599616
O O5 0.794725 0.500000 0.801568
O O6 0.858864 0.648201 0.684496
O O7 0.706896 0.696002 0.860131
O O8 0.016201 0.639561 0.788030
O O9 0.252508 0.500000 0.967408
O O10 0.253778 0.627425 0.843494
O O11 0.275260 0.698684 0.990169
O O12 0.000000 0.619292 0.000000
O O13 0.140147 0.199539 0.827238
O O14 0.831871 0.856005 0.906060
O O15 0.063040 0.000000 0.871679
O O16 0.000000 0.868077 0.000000
O O17 0.152497 0.500000 0.413082
O O18 0.000000 0.661876 0.500000
O O19 0.500000 0.185417 0.000000
#
# Coordination Sequence:
#
# PCOD9144481 Si02
#       7
#     4   4   4   4   4   4   4
#     4  10  20  32  50  76 106 139 173 208 246 299
#     4  10  19  30  45  68 100 139 169 203 250 299
#     4  11  19  31  48  72 106 144 173 202 241 302
#     4  11  19  33  52  75  98 133 177 214 256 302
#     4  10  20  38  58  74  96 130 176 226 271 309
#     4   9  18  31  45  66 100 138 173 203 238 287
#     4  11  22  33  47  73 106 136 172 209 254 313
#
# _framework density 16.494033000000002
#
# number of rings (size 3 to 8) (size 9 to 14) (size 15 to 20)
#    0.000    1.714    4.286    2.571    2.000    3.714 
#    0.000    0.000    0.000    0.429    0.000    0.000 
#    0.000   14.286    0.000    0.000    0.000    0.000 
#
# Total GULP energy -156231.119256 kJ/mol
# GULP energy per Si atom -5579.682831 kJ/mol
# Density = 1.645649 g / cm^3
# Si number density = 16.494033 Si / 1000 Ang^3
#
#
#
# Elastic Constant Matrix: (Units=GPa)
#
#
# Indices 1 2 3 4 5 6 
#
# 1 33.0840 7.8220 20.6285 0.0000 -3.3785 0.0000
# 2 7.8220 63.5991 22.8207 0.0000 -3.1223 0.0000
# 3 20.6285 22.8207 104.6205 0.0000 -3.9817 0.0000
# 4 0.0000 0.0000 0.0000 13.9683 0.0000 -0.4007
# 5 -3.3785 -3.1223 -3.9817 0.0000 33.0623 0.0000
# 6 0.0000 0.0000 0.0000 -0.4007 0.0000 4.8913
#
#
#
# Elastic Compliance Matrix: (Units=1/GPa)
#
#
# Indices 1 2 3 4 5 6 
#
# 1 0.034912 -0.001878 -0.006374 0.000000 0.002623 0.000000
# 2 -0.001878 0.017205 -0.003343 0.000000 0.001030 0.000000
# 3 -0.006374 -0.003343 0.011561 0.000000 0.000425 0.000000
# 4 0.000000 0.000000 0.000000 0.071759 0.000000 0.005878
# 5 0.002623 0.001030 0.000425 0.000000 0.030662 0.000000
# 6 0.000000 0.000000 0.000000 0.005878 0.000000 0.204926
#
#
# Mechanical properties :
#
#
# Convention : Reuss Voigt Hill
#
# Bulk Modulus (GPa) = 24.69953 33.76066 29.23010
# Shear Modulus (GPa) = 12.26357 20.38656 16.32506
#
# Velocity S-wave (km/s) = 2.72971 3.51949 3.14945
# Velocity P-wave (km/s) = 4.99424 6.08511 5.56646
#
# Compressibility (1/GPa) = 0.04048660
#
# Stress axis : x y z
#
# Youngs Moduli (GPa) = 28.64313 58.12373 86.50004
#
# Poissons Ratio (x) = 0.10914 0.55139
# Poissons Ratio (y) = 0.05379 0.28920
# Poissons Ratio (z) = 0.18258 0.19433
#
# Static dielectric constant tensor:
#      x y z
#    x 1.573820 0.000000 -0.003660 
#    y 0.000000 1.532730 0.000000 
#    z -0.003660 0.000000 1.570610 
# 
# From -- ./inp_files/28508.got.cif
#   From: 2010.05.17/outbox.cif.g08.bks.cpg/sg10_15_cif.got.tgz:28508.got - 2010.06.03 11:33:40.
