data_PCOD9144516
_publ_section_title
;
Structure prediction by ZEFSAII (Michael W. Deem and Ramdas Pophale) SiO2 
 PCOD9144516
Probable space group: P 2/M
;
_chemical_formula_sum "Si O2"
_cell_formula_units_Z 32
_cell_length_a 11.254355
_cell_length_b 8.759931
_cell_length_c 20.576837
_cell_angle_alpha 90.000000
_cell_angle_beta 53.697129
_cell_angle_gamma 90.000000
_cell_volume 1634.859077
_symmetry_space_group_name_H-M "P 2/M"
_symmetry_group_IT_number 10
_symmetry_cell_setting 'monoclinic'
loop_
_space_group_symop_operation_xyz
x,y,z
-x,y,-z
-x,-y,-z
x,-y,z
loop_
_atom_site_type_symbol
_atom_site_label
_atom_site_fract_x
_atom_site_fract_y
_atom_site_fract_z
Si Si1 0.821373 0.174409 0.550913
Si Si2 0.386931 0.681874 0.737795
Si Si3 0.599377 0.313982 0.407770
Si Si4 0.793518 0.317794 0.697748
Si Si5 0.922832 0.680139 0.111489
Si Si6 0.796545 0.817361 0.017801
Si Si7 0.129383 0.683789 0.600955
Si Si8 0.505707 0.818214 0.833174
O O1 0.765320 0.261545 0.632878
O O2 0.799674 0.255324 0.488955
O O3 0.000000 0.172719 0.500000
O O4 0.769093 0.000000 0.567794
O O5 0.417126 0.500000 0.736427
O O6 0.445021 0.737738 0.649584
O O7 0.208628 0.699482 0.794592
O O8 0.447941 0.767965 0.780581
O O9 0.500000 0.262590 0.500000
O O10 0.591933 0.500000 0.407949
O O11 0.765745 0.271814 0.373759
O O12 0.789675 0.500000 0.699527
O O13 0.666773 0.254483 0.785532
O O14 0.959605 0.265529 0.661290
O O15 0.937844 0.500000 0.094571
O O16 0.857426 0.759749 0.067924
O O17 0.085095 0.747991 0.070567
O O18 0.624294 0.770913 0.074597
O O19 0.804109 0.000000 0.012796
O O20 0.128359 0.500000 0.596838
O O21 0.517915 0.000000 0.831815
#
# Coordination Sequence:
#
# PCOD9144516 Si02
#       8
#     4   4   4   4   4   4   4   4
#     4   9  17  29  45  65  89 116 147 187 234 276
#     4   9  18  31  47  70  96 126 159 191 231 277
#     4   9  18  32  50  70  93 122 159 197 232 270
#     4  10  19  30  46  67  92 121 154 192 232 278
#     4   9  15  24  41  64  92 121 152 186 221 270
#     4   9  16  26  41  63  91 122 151 181 225 278
#     4   9  18  32  49  69  89 117 159 197 229 273
#     4  10  20  31  45  69  99 125 152 190 235 282
#
# _framework density 19.573554000000001
#
# number of rings (size 3 to 8) (size 9 to 14) (size 15 to 20)
#    0.000    2.750    0.000    2.625    1.750    4.000 
#    0.000    0.625    0.000    0.750    0.000    0.875 
#    0.000    7.000    0.000    0.000    0.000    0.000 
#
# Total GULP energy -178318.593414 kJ/mol
# GULP energy per Si atom -5572.456044 kJ/mol
# Density = 1.952900 g / cm^3
# Si number density = 19.573554 Si / 1000 Ang^3
#
#
#
# Elastic Constant Matrix: (Units=GPa)
#
#
# Indices 1 2 3 4 5 6 
#
# 1 40.0802 1.7584 5.8692 0.0000 -15.8971 0.0000
# 2 1.7584 25.7341 9.3694 0.0000 -11.2846 0.0000
# 3 5.8692 9.3694 63.3703 0.0000 -33.5884 0.0000
# 4 0.0000 0.0000 0.0000 31.8843 0.0000 -6.7409
# 5 -15.8971 -11.2846 -33.5884 0.0000 31.8019 0.0000
# 6 0.0000 0.0000 0.0000 -6.7409 0.0000 11.8660
#
#
#
# Elastic Compliance Matrix: (Units=1/GPa)
#
#
# Indices 1 2 3 4 5 6 
#
# 1 0.037383 0.008487 0.015411 0.000000 0.037976 0.000000
# 2 0.008487 0.048445 0.007750 0.000000 0.029618 0.000000
# 3 0.015411 0.007750 0.042590 0.000000 0.055437 0.000000
# 4 0.000000 0.000000 0.000000 0.035644 0.000000 0.020249
# 5 0.037976 0.029618 0.055437 0.000000 0.119489 0.000000
# 6 0.000000 0.000000 0.000000 0.020249 0.000000 0.095778
#
#
# Mechanical properties :
#
#
# Convention : Reuss Voigt Hill
#
# Bulk Modulus (GPa) = 5.21605 18.13096 11.67351
# Shear Modulus (GPa) = 13.16003 22.58961 17.87482
#
# Velocity S-wave (km/s) = 2.59576 3.40087 3.02522
# Velocity P-wave (km/s) = 3.41388 4.97035 4.26374
#
# Compressibility (1/GPa) = 0.19171600
#
# Stress axis : x y z
#
# Youngs Moduli (GPa) = 26.74990 20.64188 23.47949
#
# Poissons Ratio (x) = -0.17519 -0.36185
# Poissons Ratio (y) = -0.22704 -0.18197
# Poissons Ratio (z) = -0.41225 -0.15997
#
# Static dielectric constant tensor:
#      x y z
#    x 1.715060 0.000000 -0.059900 
#    y 0.000000 1.661410 0.000000 
#    z -0.059900 0.000000 1.745780 
# 
# From -- ./inp_files/88526.got.cif
#   From: 2010.05.17/outbox.cif.g08.bks.cpg/sg10_45_cif.got.tgz:88526.got - 2010.06.03 11:33:40.
