data_PCOD9144080
_publ_section_title
;
Structure prediction by ZEFSAII (Michael W. Deem and Ramdas Pophale) SiO2 
 PCOD9144080
Probable space group: P 2/M
;
_chemical_formula_sum "Si O2"
_cell_formula_units_Z 30
_cell_length_a 16.322374
_cell_length_b 14.634287
_cell_length_c 6.445691
_cell_angle_alpha 90.000000
_cell_angle_beta 104.868592
_cell_angle_gamma 90.000000
_cell_volume 1488.105841
_symmetry_space_group_name_H-M "P 2/M"
_symmetry_group_IT_number 10
_symmetry_cell_setting 'monoclinic'
loop_
_space_group_symop_operation_xyz
x,y,z
-x,y,-z
-x,-y,-z
x,-y,z
loop_
_atom_site_type_symbol
_atom_site_label
_atom_site_fract_x
_atom_site_fract_y
_atom_site_fract_z
Si Si1 0.931987 0.603731 0.766543
Si Si2 0.358626 0.153895 0.621955
Si Si3 0.576775 0.706352 0.668935
Si Si4 0.919816 0.799687 0.556558
Si Si5 0.500000 0.181095 0.000000
Si Si6 0.751330 0.604542 0.871712
Si Si7 0.790321 0.896799 0.768676
Si Si8 0.770140 0.232168 0.150184
O O1 0.941798 0.500000 0.682675
O O2 0.943889 0.696896 0.645552
O O3 0.833506 0.610509 0.776624
O O4 0.000000 0.607734 0.000000
O O5 0.403353 0.209750 0.470235
O O6 0.284942 0.100027 0.452879
O O7 0.306816 0.218964 0.743323
O O8 0.433745 0.120621 0.822695
O O9 0.500000 0.655360 0.500000
O O10 0.546886 0.750953 0.866488
O O11 0.663253 0.649006 0.738818
O O12 0.872865 0.852292 0.713342
O O13 0.852124 0.794393 0.329868
O O14 0.000000 0.845773 0.500000
O O15 0.736851 0.500000 0.911919
O O16 0.776630 0.664037 0.085422
O O17 0.806166 0.000000 0.851021
O O18 0.762877 0.831358 0.940974
#
# Coordination Sequence:
#
# PCOD9144080 Si02
#       8
#     4   4   4   4   2   4   4   4
#     4  10  21  39  66  97 130 168 213 263 314 373
#     4  10  19  37  65  90 119 160 207 253 317 371
#     4  10  20  36  60  90 127 169 212 257 309 368
#     4  11  24  39  66  92 125 166 209 257 319 379
#     4  10  18  34  66  90 124 166 204 258 312 380
#     4  11  20  36  60  89 126 169 213 256 310 375
#     4  11  24  42  64  90 124 162 210 264 320 383
#     4  11  21  40  62  87 122 163 206 257 317 372
#
# _framework density 20.159856000000001
#
# number of rings (size 3 to 8) (size 9 to 14) (size 15 to 20)
#    0.000    1.467    4.000    1.600    0.000    3.467 
#    0.000    2.000    0.000    7.600    0.000    0.000 
#    0.000    0.000    0.000    0.000    0.000    0.000 
#
# Total GULP energy -167164.453093 kJ/mol
# GULP energy per Si atom -5572.148436 kJ/mol
# Density = 2.011397 g / cm^3
# Si number density = 20.159856 Si / 1000 Ang^3
#
#
#
# Elastic Constant Matrix: (Units=GPa)
#
#
# Indices 1 2 3 4 5 6 
#
# 1 114.7479 15.4287 32.8763 0.0000 -9.8371 0.0000
# 2 15.4287 77.0361 14.8869 0.0000 -17.7396 0.0000
# 3 32.8763 14.8869 81.7727 0.0000 -10.4691 0.0000
# 4 0.0000 0.0000 0.0000 0.9099 0.0000 1.8518
# 5 -9.8371 -17.7396 -10.4691 0.0000 39.2044 0.0000
# 6 0.0000 0.0000 0.0000 1.8518 0.0000 -4.8236
#
#
#
# Elastic Compliance Matrix: (Units=1/GPa)
#
#
# Indices 1 2 3 4 5 6 
#
# 1 0.010005 -0.001048 -0.003697 0.000000 0.001049 0.000000
# 2 -0.001048 0.014880 -0.001511 0.000000 0.006067 0.000000
# 3 -0.003697 -0.001511 0.014272 0.000000 0.002200 0.000000
# 4 0.000000 0.000000 0.000000 0.616977 0.000000 0.236862
# 5 0.001049 0.006067 0.002200 0.000000 0.029103 0.000000
# 6 0.000000 0.000000 0.000000 0.236862 0.000000 -0.116383
#
#
# Mechanical properties :
#
#
# Convention : Reuss Voigt Hill
#
# Bulk Modulus (GPa) = 37.53088 44.43783 40.98435
# Shear Modulus (GPa) = 8.47102 21.08248 14.77675
#
# Velocity S-wave (km/s) = 2.05208 3.23734 2.71030
# Velocity P-wave (km/s) = 4.92664 6.00536 5.49255
#
# Compressibility (1/GPa) = 0.02664473
#
# Stress axis : x y z
#
# Youngs Moduli (GPa) = 99.95117 67.20551 70.06612
#
# Poissons Ratio (x) = 0.07041 0.25906
# Poissons Ratio (y) = 0.10472 0.10587
# Poissons Ratio (z) = 0.36956 0.10155
#
# Static dielectric constant tensor:
#      x y z
#    x 1.824020 0.000000 0.057960 
#    y 0.000000 1.688430 0.000000 
#    z 0.057960 0.000000 1.737790 
# 
# From -- ./inp_files/11456.got.cif
#   From: 2010.05.17/outbox.cif.g08.bks.cpg/sg10_6_cif.got.tgz:11456.got - 2010.06.03 11:33:40.
