data_PCOD9144023
_publ_section_title
;
Structure prediction by ZEFSAII (Michael W. Deem and Ramdas Pophale) SiO2 
 PCOD9144023
Probable space group: P 2/M
;
_chemical_formula_sum "Si O2"
_cell_formula_units_Z 20
_cell_length_a 32.414817
_cell_length_b 7.797994
_cell_length_c 10.593697
_cell_angle_alpha 90.000000
_cell_angle_beta 25.502003
_cell_angle_gamma 90.000000
_cell_volume 1152.896173
_symmetry_space_group_name_H-M "P 2/M"
_symmetry_group_IT_number 10
_symmetry_cell_setting 'monoclinic'
loop_
_space_group_symop_operation_xyz
x,y,z
-x,y,-z
-x,-y,-z
x,-y,z
loop_
_atom_site_type_symbol
_atom_site_label
_atom_site_fract_x
_atom_site_fract_y
_atom_site_fract_z
Si Si1 0.416448 0.500000 0.333205
Si Si2 0.046624 0.793426 0.742311
Si Si3 0.583652 0.500000 0.370643
Si Si4 0.061411 0.209157 0.210185
Si Si5 0.265778 0.805267 0.739838
Si Si6 0.234580 0.692381 0.098163
O O1 0.447680 0.500000 0.395308
O O2 0.350399 0.668187 0.497147
O O3 0.500000 0.500000 0.000000
O O4 0.157329 0.747009 0.413807
O O5 0.987581 0.732152 0.783352
O O6 0.040758 0.000000 0.759857
O O7 0.000000 0.728490 0.000000
O O8 0.500000 0.500000 0.500000
O O9 0.656968 0.661722 0.152977
O O10 0.000000 0.268424 0.500000
O O11 0.058580 0.000000 0.219419
O O12 0.172541 0.253623 0.919706
O O13 0.292123 0.000000 0.631016
O O14 0.233680 0.806208 0.975913
O O15 0.207557 0.500000 0.128082
#
# Coordination Sequence:
#
# PCOD9144023 Si02
#       6
#     2   4   2   4   4   4
#     4  10  22  40  56  83 108 132 180 227 281 318
#     4  10  19  32  49  75 114 147 172 216 263 308
#     4   8  18  38  58  70  98 142 174 224 281 312
#     4   9  16  28  51  77 105 142 176 209 256 311
#     4  10  18  34  58  81 108 142 179 217 262 319
#     4   9  18  32  53  78 103 136 187 215 256 323
#
# _framework density 17.347615000000001
#
# number of rings (size 3 to 8) (size 9 to 14) (size 15 to 20)
#    0.600    2.000    3.000    0.600    0.000    0.800 
#    5.400    1.500    0.000   15.000    0.000    0.000 
#    0.000    0.000    0.000    0.000    0.000    0.000 
#
# Total GULP energy -111355.650577 kJ/mol
# GULP energy per Si atom -5567.782529 kJ/mol
# Density = 1.730813 g / cm^3
# Si number density = 17.347615 Si / 1000 Ang^3
#
#
#
# Elastic Constant Matrix: (Units=GPa)
#
#
# Indices 1 2 3 4 5 6 
#
# 1 137.4768 18.5072 74.4933 0.0000 -4.5748 0.0000
# 2 18.5072 57.8094 25.4302 0.0000 -1.1790 0.0000
# 3 74.4933 25.4302 146.6110 0.0000 11.5665 0.0000
# 4 0.0000 0.0000 0.0000 -74.2415 0.0000 -26.2077
# 5 -4.5748 -1.1790 11.5665 0.0000 22.6307 0.0000
# 6 0.0000 0.0000 0.0000 -26.2077 0.0000 2.0892
#
#
#
# Elastic Compliance Matrix: (Units=1/GPa)
#
#
# Indices 1 2 3 4 5 6 
#
# 1 0.010606 -0.000812 -0.005641 0.000000 0.004985 0.000000
# 2 -0.000812 0.018955 -0.003064 0.000000 0.002389 0.000000
# 3 -0.005641 -0.003064 0.010755 0.000000 -0.006797 0.000000
# 4 0.000000 0.000000 0.000000 -0.002481 0.000000 -0.031127
# 5 0.004985 0.002389 -0.006797 0.000000 0.048794 0.000000
# 6 0.000000 0.000000 0.000000 -0.031127 0.000000 0.088178
#
#
# Mechanical properties :
#
#
# Convention : Reuss Voigt Hill
#
# Bulk Modulus (GPa) = 46.98979 64.30653 55.64816
# Shear Modulus (GPa) = 24.88386 4.99345 14.93866
#
# Velocity S-wave (km/s) = 3.79149 1.69845 2.93770
# Velocity P-wave (km/s) = 6.80538 6.40282 6.60717
#
# Compressibility (1/GPa) = 0.02128122
#
# Stress axis : x y z
#
# Youngs Moduli (GPa) = 94.28653 52.75766 92.98241
#
# Poissons Ratio (x) = 0.04285 0.52454
# Poissons Ratio (y) = 0.07658 0.28486
# Poissons Ratio (z) = 0.53190 0.16163
#
# Static dielectric constant tensor:
#      x y z
#    x 1.583840 0.000000 -0.004560 
#    y 0.000000 1.617970 0.000000 
#    z -0.004560 0.000000 1.593940 
# 
# From -- ./inp_files/37819.got.cif
#   From: 2010.05.17/outbox.cif.g08.bks.cpg/sg10_19_cif.got.tgz:37819.got - 2010.06.03 11:33:40.
