data_PCOD9144431
_publ_section_title
;
Structure prediction by ZEFSAII (Michael W. Deem and Ramdas Pophale) SiO2 
 PCOD9144431
Probable space group: P 2/M
;
_chemical_formula_sum "Si O2"
_cell_formula_units_Z 32
_cell_length_a 12.360720
_cell_length_b 8.897328
_cell_length_c 25.122263
_cell_angle_alpha 90.000000
_cell_angle_beta 49.210822
_cell_angle_gamma 90.000000
_cell_volume 2091.827957
_symmetry_space_group_name_H-M "P 2/M"
_symmetry_group_IT_number 10
_symmetry_cell_setting 'monoclinic'
loop_
_space_group_symop_operation_xyz
x,y,z
-x,y,-z
-x,-y,-z
x,-y,z
loop_
_atom_site_type_symbol
_atom_site_label
_atom_site_fract_x
_atom_site_fract_y
_atom_site_fract_z
Si Si1 0.847045 0.179860 0.994956
Si Si2 0.392764 0.680704 0.195680
Si Si3 0.338694 0.327710 0.376955
Si Si4 0.463354 0.179450 0.951459
Si Si5 0.106921 0.827538 0.516819
Si Si6 0.857458 0.319713 0.109509
Si Si7 0.426619 0.821055 0.765329
Si Si8 0.124551 0.672793 0.343745
O O1 0.988651 0.252555 0.924257
O O2 0.865569 0.000000 0.995360
O O3 0.702785 0.207263 0.008723
O O4 0.831741 0.255529 0.058012
O O5 0.405059 0.500000 0.197980
O O6 0.442960 0.733227 0.121973
O O7 0.493957 0.759161 0.207092
O O8 0.229136 0.722915 0.262705
O O9 0.382644 0.500000 0.370326
O O10 0.245236 0.267748 0.456013
O O11 0.472173 0.227500 0.316079
O O12 0.230260 0.324178 0.361164
O O13 0.488013 0.000000 0.937119
O O14 0.500000 0.220982 0.000000
O O15 0.000000 0.820147 0.500000
O O16 0.013438 0.767305 0.595889
O O17 0.146974 0.000000 0.511440
O O18 0.859884 0.500000 0.107622
O O19 0.727426 0.257367 0.186217
O O20 0.412991 0.000000 0.773172
O O21 0.082232 0.500000 0.348925
#
# Coordination Sequence:
#
# PCOD9144431 Si02
#       8
#     4   4   4   4   4   4   4   4
#     4  10  19  32  48  66  87 113 145 180 223 268
#     4  10  19  30  44  62  83 109 145 184 222 263
#     4   9  16  25  36  52  77 108 140 174 211 253
#     4  10  21  35  50  67  89 117 147 183 226 270
#     4   9  15  22  33  51  73 102 139 174 208 249
#     4  11  20  30  46  66  89 113 144 184 223 264
#     4  11  19  28  42  61  85 113 144 181 220 261
#     4   8  15  25  36  51  73 103 137 175 214 251
#
# _framework density 15.297625
#
# number of rings (size 3 to 8) (size 9 to 14) (size 15 to 20)
#    0.000    2.250    1.250    5.250    0.000    5.750 
#    0.000    0.000    0.000    0.000    0.000    0.000 
#    0.000    0.000    0.000    1.125    0.000   21.875 
#
# Total GULP energy -178345.791798 kJ/mol
# GULP energy per Si atom -5573.305994 kJ/mol
# Density = 1.526281 g / cm^3
# Si number density = 15.297625 Si / 1000 Ang^3
#
#
#
# Elastic Constant Matrix: (Units=GPa)
#
#
# Indices 1 2 3 4 5 6 
#
# 1 40.6385 26.8679 38.0993 0.0000 -4.4036 0.0000
# 2 26.8679 101.0951 57.9440 0.0000 -10.9690 0.0000
# 3 38.0993 57.9440 120.3983 0.0000 -22.5337 0.0000
# 4 0.0000 0.0000 0.0000 28.2986 0.0000 -6.2878
# 5 -4.4036 -10.9690 -22.5337 0.0000 13.6065 0.0000
# 6 0.0000 0.0000 0.0000 -6.2878 0.0000 3.6765
#
#
#
# Elastic Compliance Matrix: (Units=1/GPa)
#
#
# Indices 1 2 3 4 5 6 
#
# 1 0.037331 -0.004369 -0.011751 0.000000 -0.010901 0.000000
# 2 -0.004369 0.014171 -0.005165 0.000000 0.001457 0.000000
# 3 -0.011751 -0.005165 0.018867 0.000000 0.023278 0.000000
# 4 0.000000 0.000000 0.000000 0.056998 0.000000 0.097482
# 5 -0.010901 0.001457 0.023278 0.000000 0.109692 0.000000
# 6 0.000000 0.000000 0.000000 0.097482 0.000000 0.438719
#
#
# Mechanical properties :
#
#
# Convention : Reuss Voigt Hill
#
# Bulk Modulus (GPa) = 35.97186 56.43936 46.20561
# Shear Modulus (GPa) = 6.87178 18.39769 12.63473
#
# Velocity S-wave (km/s) = 2.12175 3.47169 2.87701
# Velocity P-wave (km/s) = 5.43766 7.28316 6.42700
#
# Compressibility (1/GPa) = 0.02779950
#
# Stress axis : x y z
#
# Youngs Moduli (GPa) = 26.78730 70.56528 53.00344
#
# Poissons Ratio (x) = 0.30831 0.62283
# Poissons Ratio (y) = 0.11704 0.27376
# Poissons Ratio (z) = 0.31477 0.36447
#
# Static dielectric constant tensor:
#      x y z
#    x 1.478960 0.000000 -0.022910 
#    y 0.000000 1.512600 0.000000 
#    z -0.022910 0.000000 1.531540 
# 
# From -- ./inp_files/88528.got.cif
#   From: 2010.05.17/outbox.cif.g08.bks.cpg/sg10_45_cif.got.tgz:88528.got - 2010.06.03 11:33:40.
