data_PCOD9144624
_publ_section_title
;
Structure prediction by ZEFSAII (Michael W. Deem and Ramdas Pophale) SiO2 
 PCOD9144624
Probable space group: P 2/M
;
_chemical_formula_sum "Si O2"
_cell_formula_units_Z 28
_cell_length_a 9.601518
_cell_length_b 13.458723
_cell_length_c 14.098426
_cell_angle_alpha 90.000000
_cell_angle_beta 121.783487
_cell_angle_gamma 90.000000
_cell_volume 1548.659929
_symmetry_space_group_name_H-M "P 2/M"
_symmetry_group_IT_number 10
_symmetry_cell_setting 'monoclinic'
loop_
_space_group_symop_operation_xyz
x,y,z
-x,y,-z
-x,-y,-z
x,-y,z
loop_
_atom_site_type_symbol
_atom_site_label
_atom_site_fract_x
_atom_site_fract_y
_atom_site_fract_z
Si Si1 0.973274 0.383817 0.784266
Si Si2 0.172078 0.757256 0.105728
Si Si3 0.683248 0.295231 0.039748
Si Si4 0.634743 0.885219 0.679861
Si Si5 0.859898 0.214612 0.622851
Si Si6 0.810815 0.883990 0.205864
Si Si7 0.255265 0.885407 0.597501
O O1 0.940577 0.500000 0.771547
O O2 0.880969 0.328353 0.838461
O O3 0.910533 0.325786 0.668445
O O4 0.167293 0.362719 0.867747
O O5 0.264286 0.843563 0.194681
O O6 0.283798 0.716547 0.060505
O O7 0.000000 0.793123 0.000000
O O8 0.715131 0.188048 0.100626
O O9 0.500000 0.328391 0.000000
O O10 0.692091 0.817578 0.613177
O O11 0.444360 0.878053 0.635833
O O12 0.671796 0.000000 0.671523
O O13 0.845731 0.185249 0.508621
O O14 0.998698 0.147640 0.724589
O O15 0.757957 0.864780 0.295741
O O16 0.789888 0.000000 0.176955
O O17 0.201495 0.000000 0.562374
#
# Coordination Sequence:
#
# PCOD9144624 Si02
#       7
#     4   4   4   4   4   4   4
#     4   9  20  38  56  74  95 124 167 212 258 310
#     4   9  19  33  51  74 100 136 168 200 248 295
#     4  10  20  33  51  77 104 131 166 206 248 289
#     4  10  19  30  47  75 106 133 166 204 241 288
#     4  10  19  32  52  73  96 127 169 214 250 289
#     4  10  20  32  48  73 106 142 173 196 229 290
#     4  10  19  31  50  75 104 139 169 197 240 289
#
# _framework density 18.080148000000001
#
# number of rings (size 3 to 8) (size 9 to 14) (size 15 to 20)
#    0.000    2.286    0.000    3.857    0.000    6.286 
#    0.000    0.000    0.000   13.714    0.000    0.000 
#    0.000    0.000    0.000    0.000    0.000    0.000 
#
# Total GULP energy -156240.808659 kJ/mol
# GULP energy per Si atom -5580.028881 kJ/mol
# Density = 1.803900 g / cm^3
# Si number density = 18.080148 Si / 1000 Ang^3
#
#
#
# Elastic Constant Matrix: (Units=GPa)
#
#
# Indices 1 2 3 4 5 6 
#
# 1 100.7052 10.4951 20.1490 0.0000 2.8541 0.0000
# 2 10.4951 88.2433 45.4362 0.0000 -0.8867 0.0000
# 3 20.1490 45.4362 65.0914 0.0000 -3.4539 0.0000
# 4 0.0000 0.0000 0.0000 13.2346 0.0000 -2.4109
# 5 2.8541 -0.8867 -3.4539 0.0000 22.6165 0.0000
# 6 0.0000 0.0000 0.0000 -2.4109 0.0000 10.2145
#
#
#
# Elastic Compliance Matrix: (Units=1/GPa)
#
#
# Indices 1 2 3 4 5 6 
#
# 1 0.010693 0.000727 -0.003919 0.000000 -0.001919 0.000000
# 2 0.000727 0.017773 -0.012702 0.000000 -0.001335 0.000000
# 3 -0.003919 -0.012702 0.025650 0.000000 0.003914 0.000000
# 4 0.000000 0.000000 0.000000 0.078955 0.000000 0.018636
# 5 -0.001919 -0.001335 0.003914 0.000000 0.045003 0.000000
# 6 0.000000 0.000000 0.000000 0.018636 0.000000 0.102298
#
#
# Mechanical properties :
#
#
# Convention : Reuss Voigt Hill
#
# Bulk Modulus (GPa) = 44.78790 45.13339 44.96065
# Shear Modulus (GPa) = 15.64445 21.07709 18.36077
#
# Velocity S-wave (km/s) = 2.94476 3.41802 3.19018
# Velocity P-wave (km/s) = 6.03223 6.37137 6.20412
#
# Compressibility (1/GPa) = 0.02232746
#
# Stress axis : x y z
#
# Youngs Moduli (GPa) = 93.52116 56.26663 38.98603
#
# Poissons Ratio (x) = -0.04091 0.15280
# Poissons Ratio (y) = -0.06799 0.49519
# Poissons Ratio (z) = 0.36653 0.71469
#
# Static dielectric constant tensor:
#      x y z
#    x 1.660120 0.000000 -0.008490 
#    y 0.000000 1.584260 0.000000 
#    z -0.008490 0.000000 1.629750 
# 
# From -- ./inp_files/28186.got.cif
#   From: 2010.05.17/outbox.cif.g08.bks.cpg/sg10_15_cif.got.tgz:28186.got - 2010.06.03 11:33:40.
