data_PCOD9144850
_publ_section_title
;
Structure prediction by ZEFSAII (Michael W. Deem and Ramdas Pophale) SiO2 
 PCOD9144850
Probable space group: P 2/M
;
_chemical_formula_sum "Si O2"
_cell_formula_units_Z 32
_cell_length_a 17.154700
_cell_length_b 9.243067
_cell_length_c 12.074207
_cell_angle_alpha 90.000000
_cell_angle_beta 97.799468
_cell_angle_gamma 90.000000
_cell_volume 1896.799963
_symmetry_space_group_name_H-M "P 2/M"
_symmetry_group_IT_number 10
_symmetry_cell_setting 'monoclinic'
loop_
_space_group_symop_operation_xyz
x,y,z
-x,y,-z
-x,-y,-z
x,-y,z
loop_
_atom_site_type_symbol
_atom_site_label
_atom_site_fract_x
_atom_site_fract_y
_atom_site_fract_z
Si Si1 0.184862 0.672557 0.062704
Si Si2 0.266237 0.329701 0.864135
Si Si3 0.048413 0.670503 0.623953
Si Si4 0.092387 0.327041 0.250755
Si Si5 0.579825 0.327768 0.954801
Si Si6 0.331365 0.827759 0.208136
Si Si7 0.214550 0.172537 0.641656
Si Si8 0.760418 0.173489 0.602514
O O1 0.203256 0.500000 0.077501
O O2 0.108139 0.699682 0.123094
O O3 0.253259 0.765582 0.133226
O O4 0.193175 0.702828 0.933928
O O5 0.263095 0.500000 0.836812
O O6 0.345670 0.302962 0.949568
O O7 0.262018 0.237845 0.753048
O O8 0.068006 0.500000 0.640909
O O9 0.127081 0.762273 0.632677
O O10 0.000000 0.685271 0.500000
O O11 0.990663 0.715919 0.712782
O O12 0.099122 0.500000 0.269725
O O13 0.162739 0.251184 0.332012
O O14 0.575918 0.500000 0.933780
O O15 0.500000 0.281997 0.000000
O O16 0.597779 0.247401 0.843312
O O17 0.314064 0.792679 0.333290
O O18 0.336128 0.000000 0.196378
O O19 0.248158 0.212935 0.527294
O O20 0.212052 0.000000 0.648404
O O21 0.773064 0.000000 0.612111
#
# Coordination Sequence:
#
# PCOD9144850 Si02
#       8
#     4   4   4   4   4   4   4   4
#     4   8  15  29  48  68  91 123 159 198 244 289
#     4   9  18  33  51  71  96 124 157 195 235 283
#     4  10  19  31  47  70  96 123 162 211 252 287
#     4   9  16  28  48  70  91 118 159 207 251 291
#     4   9  18  34  56  80 103 125 151 189 237 285
#     4   9  16  27  46  73 100 123 154 195 234 276
#     4  11  22  33  47  67  96 134 168 198 239 289
#     4   9  18  30  44  66  96 128 161 199 239 278
#
# _framework density 16.870518000000001
#
# number of rings (size 3 to 8) (size 9 to 14) (size 15 to 20)
#    0.000    2.750    1.250    1.500    0.000    4.000 
#    0.000    0.625    0.000    4.500    0.000    5.250 
#    0.000    0.000    0.000    0.000    0.000    0.000 
#
# Total GULP energy -178192.563427 kJ/mol
# GULP energy per Si atom -5568.517607 kJ/mol
# Density = 1.683212 g / cm^3
# Si number density = 16.870518 Si / 1000 Ang^3
#
#
#
# Elastic Constant Matrix: (Units=GPa)
#
#
# Indices 1 2 3 4 5 6 
#
# 1 66.9864 28.3898 51.2119 0.0000 -36.9117 0.0000
# 2 28.3898 32.2204 49.3931 0.0000 -14.7682 0.0000
# 3 51.2119 49.3931 119.7327 0.0000 -37.9022 0.0000
# 4 0.0000 0.0000 0.0000 20.3790 0.0000 -12.0462
# 5 -36.9117 -14.7682 -37.9022 0.0000 32.4399 0.0000
# 6 0.0000 0.0000 0.0000 -12.0462 0.0000 4.2486
#
#
#
# Elastic Compliance Matrix: (Units=1/GPa)
#
#
# Indices 1 2 3 4 5 6 
#
# 1 0.054037 -0.037262 0.010081 0.000000 0.056302 0.000000
# 2 -0.037262 0.110386 -0.043027 0.000000 -0.042417 0.000000
# 3 0.010081 -0.043027 0.030502 0.000000 0.027521 0.000000
# 4 0.000000 0.000000 0.000000 -0.072591 0.000000 -0.205820
# 5 0.056302 -0.042417 0.027521 0.000000 0.107733 0.000000
# 6 0.000000 0.000000 0.000000 -0.205820 0.000000 -0.348193
#
#
# Mechanical properties :
#
#
# Convention : Reuss Voigt Hill
#
# Bulk Modulus (GPa) = 18.34529 52.99212 35.66870
# Shear Modulus (GPa) = 123.58519 17.40981 70.49750
#
# Velocity S-wave (km/s) = 8.56821 3.21591 6.47133
# Velocity P-wave (km/s) = 10.42992 6.72820 8.77645
#
# Compressibility (1/GPa) = 0.05450991
#
# Stress axis : x y z
#
# Youngs Moduli (GPa) = 18.50579 9.05914 32.78514
#
# Poissons Ratio (x) = 0.33756 -0.33052
# Poissons Ratio (y) = 0.68956 1.41065
# Poissons Ratio (z) = -0.18657 0.38979
#
# Static dielectric constant tensor:
#      x y z
#    x 1.567810 0.000000 -0.038360 
#    y 0.000000 1.560430 0.000000 
#    z -0.038360 0.000000 1.605100 
# 
# From -- ./inp_files/52748.got.cif
#   From: 2010.05.17/outbox.cif.g08.bks.cpg/sg10_27_cif.got.tgz:52748.got - 2010.06.03 11:33:40.
