data_PCOD9144804
_publ_section_title
;
Structure prediction by ZEFSAII (Michael W. Deem and Ramdas Pophale) SiO2 
 PCOD9144804
Probable space group: P 2/M
;
_chemical_formula_sum "Si O2"
_cell_formula_units_Z 32
_cell_length_a 14.617993
_cell_length_b 7.563362
_cell_length_c 31.797048
_cell_angle_alpha 90.000000
_cell_angle_beta 150.601566
_cell_angle_gamma 90.000000
_cell_volume 1725.697721
_symmetry_space_group_name_H-M "P 2/M"
_symmetry_group_IT_number 10
_symmetry_cell_setting 'monoclinic'
loop_
_space_group_symop_operation_xyz
x,y,z
-x,y,-z
-x,-y,-z
x,-y,z
loop_
_atom_site_type_symbol
_atom_site_label
_atom_site_fract_x
_atom_site_fract_y
_atom_site_fract_z
Si Si1 0.942279 0.283620 0.149117
Si Si2 0.515006 0.699517 0.459699
Si Si3 0.079059 0.800798 0.381060
Si Si4 0.548658 0.706111 0.969533
Si Si5 0.850129 0.713899 0.207096
Si Si6 0.355457 0.283093 0.308237
Si Si7 0.073399 0.712915 0.594399
Si Si8 0.705548 0.715565 0.395390
O O1 0.935311 0.500000 0.145891
O O2 0.923111 0.230492 0.190444
O O3 0.144504 0.230005 0.213916
O O4 0.757475 0.219652 0.050739
O O5 0.500000 0.783464 0.500000
O O6 0.436009 0.500000 0.432717
O O7 0.734326 0.689312 0.537354
O O8 0.412531 0.777197 0.378125
O O9 0.933825 0.772505 0.360606
O O10 0.982908 0.766547 0.298099
O O11 0.147395 0.000000 0.410041
O O12 0.560298 0.500000 0.961663
O O13 0.363339 0.780362 0.873561
O O14 0.500000 0.709605 0.000000
O O15 0.843253 0.500000 0.203575
O O16 0.361514 0.500000 0.311499
O O17 0.512113 0.224657 0.337974
O O18 0.075702 0.500000 0.595492
O O19 0.878224 0.768160 0.494471
O O20 0.237491 0.772330 0.628816
O O21 0.703425 0.500000 0.394468
#
# Coordination Sequence:
#
# PCOD9144804 Si02
#       8
#     4   4   4   4   4   4   4   4
#     4   8  13  22  41  70  94 109 135 179 220 255
#     4  10  19  31  47  64  86 121 157 178 200 250
#     4  12  23  31  41  62  91 120 148 184 224 253
#     4   7  11  21  39  63  88 111 138 176 218 252
#     4   9  16  28  45  63  87 120 152 177 206 255
#     4   9  14  22  40  67  91 108 136 176 217 258
#     4   9  16  30  48  62  80 109 148 185 220 265
#     4   8  14  25  45  66  82 106 141 186 226 257
#
# _framework density 18.543223999999999
#
# number of rings (size 3 to 8) (size 9 to 14) (size 15 to 20)
#    0.000    3.000    1.250    4.125    0.000    2.250 
#    0.000    1.250    0.000    3.375    0.000    0.875 
#    0.000    7.000    0.000    0.000    0.000    0.000 
#
# Total GULP energy -178314.500795 kJ/mol
# GULP energy per Si atom -5572.328150 kJ/mol
# Density = 1.850102 g / cm^3
# Si number density = 18.543224 Si / 1000 Ang^3
#
#
#
# Elastic Constant Matrix: (Units=GPa)
#
#
# Indices 1 2 3 4 5 6 
#
# 1 88.0273 2.4833 9.4215 0.0000 26.2687 0.0000
# 2 2.4833 47.9697 -0.6298 0.0000 1.9696 0.0000
# 3 9.4215 -0.6298 50.6463 0.0000 30.0125 0.0000
# 4 0.0000 0.0000 0.0000 3.2807 0.0000 -26.3127
# 5 26.2687 1.9696 30.0125 0.0000 29.9210 0.0000
# 6 0.0000 0.0000 0.0000 -26.3127 0.0000 13.4989
#
#
#
# Elastic Compliance Matrix: (Units=1/GPa)
#
#
# Indices 1 2 3 4 5 6 
#
# 1 0.019617 0.000575 0.016239 0.000000 -0.033549 0.000000
# 2 0.000575 0.021065 0.003146 0.000000 -0.005047 0.000000
# 3 0.016239 0.003146 0.062461 0.000000 -0.077115 0.000000
# 4 0.000000 0.000000 0.000000 -0.020829 0.000000 -0.040601
# 5 -0.033549 -0.005047 -0.077115 0.000000 0.140558 0.000000
# 6 0.000000 0.000000 0.000000 -0.040601 0.000000 -0.005062
#
#
# Mechanical properties :
#
#
# Convention : Reuss Voigt Hill
#
# Bulk Modulus (GPa) = 6.98996 23.24370 15.11683
# Shear Modulus (GPa) = 22.16517 21.03135 21.59826
#
# Velocity S-wave (km/s) = 3.46110 3.37141 3.41655
# Velocity P-wave (km/s) = 4.44410 5.26472 4.87172
#
# Compressibility (1/GPa) = 0.14306240
#
# Stress axis : x y z
#
# Youngs Moduli (GPa) = 50.97528 47.47154 16.00999
#
# Poissons Ratio (x) = -0.02730 -0.25998
# Poissons Ratio (y) = -0.02932 -0.05036
# Poissons Ratio (z) = -0.82776 -0.14933
#
# Static dielectric constant tensor:
#      x y z
#    x 1.656270 0.000000 0.029370 
#    y 0.000000 1.713650 0.000000 
#    z 0.029370 0.000000 1.635940 
# 
# From -- ./inp_files/65994.got.cif
#   From: 2010.05.17/outbox.cif.g08.bks.cpg/sg10_33_cif.got.tgz:65994.got - 2010.06.03 11:33:40.
