data_PCOD9144614
_publ_section_title
;
Structure prediction by ZEFSAII (Michael W. Deem and Ramdas Pophale) SiO2 
 PCOD9144614
Probable space group: P 2/M
;
_chemical_formula_sum "Si O2"
_cell_formula_units_Z 28
_cell_length_a 14.480211
_cell_length_b 7.710386
_cell_length_c 11.198097
_cell_angle_alpha 90.000000
_cell_angle_beta 78.555181
_cell_angle_gamma 90.000000
_cell_volume 1225.385761
_symmetry_space_group_name_H-M "P 2/M"
_symmetry_group_IT_number 10
_symmetry_cell_setting 'monoclinic'
loop_
_space_group_symop_operation_xyz
x,y,z
-x,y,-z
-x,-y,-z
x,-y,z
loop_
_atom_site_type_symbol
_atom_site_label
_atom_site_fract_x
_atom_site_fract_y
_atom_site_fract_z
Si Si1 0.789519 0.795741 0.808263
Si Si2 0.797795 0.299314 0.315989
Si Si3 0.890667 0.709242 0.535068
Si Si4 0.609033 0.208922 0.467470
Si Si5 0.607583 0.791166 0.732654
Si Si6 0.776103 0.293606 0.067252
Si Si7 0.434168 0.704040 0.911931
O O1 0.848460 0.765251 0.673188
O O2 0.684445 0.723035 0.806766
O O3 0.779529 0.000000 0.825056
O O4 0.825399 0.729555 0.926548
O O5 0.828345 0.500000 0.308569
O O6 0.840570 0.221716 0.426863
O O7 0.684241 0.289379 0.358829
O O8 0.820276 0.223906 0.179172
O O9 0.882842 0.500000 0.536817
O O10 0.000000 0.757194 0.500000
O O11 0.500000 0.262920 0.500000
O O12 0.643838 0.253087 0.592059
O O13 0.610343 0.000000 0.449772
O O14 0.502831 0.724347 0.781452
O O15 0.603023 0.000000 0.739721
O O16 0.767552 0.500000 0.088659
O O17 0.669537 0.220875 0.078728
O O18 0.422728 0.500000 0.939962
O O19 0.500000 0.781908 0.000000
#
# Coordination Sequence:
#
# PCOD9144614 Si02
#       7
#     4   4   4   4   4   4   4
#     4  11  22  37  59  86 114 149 191 234 286 346
#     4  10  21  37  59  86 115 149 192 242 292 343
#     4  10  22  42  67  91 113 144 189 242 302 359
#     4  10  20  34  52  77 115 157 193 233 283 337
#     4  10  20  32  48  75 109 147 192 235 274 327
#     4  10  21  37  55  81 118 155 192 236 285 337
#     4  10  19  30  47  73 108 153 197 234 273 322
#
# _framework density 22.849948000000001
#
# number of rings (size 3 to 8) (size 9 to 14) (size 15 to 20)
#    0.000    1.857    2.857    1.286    0.000    3.143 
#    0.000    0.714    0.000    4.286    0.000    0.000 
#    0.000    0.000    0.000    0.000    0.000    0.000 
#
# Total GULP energy -156287.249363 kJ/mol
# GULP energy per Si atom -5581.687477 kJ/mol
# Density = 2.279794 g / cm^3
# Si number density = 22.849948 Si / 1000 Ang^3
#
#
#
# Elastic Constant Matrix: (Units=GPa)
#
#
# Indices 1 2 3 4 5 6 
#
# 1 55.4411 -1.2087 47.7501 0.0000 9.3672 0.0000
# 2 -1.2087 38.7346 4.9651 0.0000 6.5968 0.0000
# 3 47.7501 4.9651 178.5375 0.0000 29.0867 0.0000
# 4 0.0000 0.0000 0.0000 32.8399 0.0000 -7.2416
# 5 9.3672 6.5968 29.0867 0.0000 28.2618 0.0000
# 6 0.0000 0.0000 0.0000 -7.2416 0.0000 8.9034
#
#
#
# Elastic Compliance Matrix: (Units=1/GPa)
#
#
# Indices 1 2 3 4 5 6 
#
# 1 0.023622 0.001860 -0.006035 0.000000 -0.002052 0.000000
# 2 0.001860 0.027048 -0.000145 0.000000 -0.006781 0.000000
# 3 -0.006035 -0.000145 0.008275 0.000000 -0.006483 0.000000
# 4 0.000000 0.000000 0.000000 0.037106 0.000000 0.030180
# 5 -0.002052 -0.006781 -0.006483 0.000000 0.044318 0.000000
# 6 0.000000 0.000000 0.000000 0.030180 0.000000 0.136864
#
#
# Mechanical properties :
#
#
# Convention : Reuss Voigt Hill
#
# Bulk Modulus (GPa) = 19.87831 41.74735 30.81283
# Shear Modulus (GPa) = 16.52113 28.74814 22.63464
#
# Velocity S-wave (km/s) = 2.69183 3.55086 3.15076
# Velocity P-wave (km/s) = 4.28715 5.92632 5.17209
#
# Compressibility (1/GPa) = 0.05030610
#
# Stress axis : x y z
#
# Youngs Moduli (GPa) = 42.33260 36.97105 120.84067
#
# Poissons Ratio (x) = -0.06878 0.72930
# Poissons Ratio (y) = -0.07875 0.01753
# Poissons Ratio (z) = 0.25549 0.00536
#
# Static dielectric constant tensor:
#      x y z
#    x 1.858610 0.000000 0.064270 
#    y 0.000000 1.821740 0.000000 
#    z 0.064270 0.000000 1.948170 
# 
# From -- ./inp_files/49123.got.cif
#   From: 2010.05.17/outbox.cif.g08.bks.cpg/sg10_25_cif.got.tgz:49123.got - 2010.06.03 11:33:40.
