data_PCOD9144714
_publ_section_title
;
Structure prediction by ZEFSAII (Michael W. Deem and Ramdas Pophale) SiO2 
 PCOD9144714
Probable space group: P 2/M
;
_chemical_formula_sum "Si O2"
_cell_formula_units_Z 32
_cell_length_a 10.563425
_cell_length_b 10.021414
_cell_length_c 14.882456
_cell_angle_alpha 90.000000
_cell_angle_beta 96.676497
_cell_angle_gamma 90.000000
_cell_volume 1564.779442
_symmetry_space_group_name_H-M "P 2/M"
_symmetry_group_IT_number 10
_symmetry_cell_setting 'monoclinic'
loop_
_space_group_symop_operation_xyz
x,y,z
-x,y,-z
-x,-y,-z
x,-y,z
loop_
_atom_site_type_symbol
_atom_site_label
_atom_site_fract_x
_atom_site_fract_y
_atom_site_fract_z
Si Si1 0.281870 0.353189 0.424775
Si Si2 0.704734 0.849554 0.725006
Si Si3 0.446253 0.848846 0.776723
Si Si4 0.986832 0.350223 0.395350
Si Si5 0.096948 0.653031 0.925648
Si Si6 0.010708 0.155811 0.760783
Si Si7 0.619562 0.148813 0.439664
Si Si8 0.616924 0.343488 0.072732
O O1 0.339671 0.500000 0.437448
O O2 0.333910 0.262054 0.349622
O O3 0.135588 0.367148 0.384714
O O4 0.294539 0.269379 0.517113
O O5 0.600962 0.836472 0.794859
O O6 0.855187 0.839844 0.756379
O O7 0.684207 0.000000 0.685621
O O8 0.412116 0.834873 0.668128
O O9 0.383511 0.742407 0.836625
O O10 0.411187 0.000000 0.800086
O O11 0.926889 0.500000 0.384777
O O12 0.942287 0.235789 0.324087
O O13 0.000000 0.309401 0.500000
O O14 0.081771 0.500000 0.889081
O O15 0.245404 0.668462 0.963081
O O16 0.064511 0.761931 0.848514
O O17 0.000000 0.667383 0.000000
O O18 0.046796 0.000000 0.761005
O O19 0.500000 0.152124 0.500000
O O20 0.676896 0.000000 0.454631
O O21 0.597850 0.500000 0.092524
O O22 0.500000 0.300569 0.000000
#
# Coordination Sequence:
#
# PCOD9144714 Si02
#       8
#     4   4   4   4   4   4   4   4
#     4  10  19  30  49  79 112 149 201 253 292 342
#     4   9  18  35  55  81 119 159 197 241 300 357
#     4  10  21  37  60  87 118 161 204 244 305 368
#     4   9  19  36  55  78 114 161 203 244 300 359
#     4  10  23  44  68  92 122 162 201 243 306 376
#     4  10  21  36  60  91 121 153 200 257 302 355
#     4  10  19  34  53  75 114 163 201 240 292 357
#     4  10  24  45  66  93 125 155 195 252 310 363
#
# _framework density 20.450167
#
# number of rings (size 3 to 8) (size 9 to 14) (size 15 to 20)
#    0.000    2.250    1.250    0.750    1.750    4.500 
#    0.000    3.750    0.000    0.000    0.000    0.000 
#    0.000    0.000    0.000    0.000    0.000    0.000 
#
# Total GULP energy -178333.162816 kJ/mol
# GULP energy per Si atom -5572.911338 kJ/mol
# Density = 2.040362 g / cm^3
# Si number density = 20.450167 Si / 1000 Ang^3
#
#
#
# Elastic Constant Matrix: (Units=GPa)
#
#
# Indices 1 2 3 4 5 6 
#
# 1 54.7719 38.7674 23.9326 0.0000 -2.7506 0.0000
# 2 38.7674 135.9811 67.8237 0.0000 11.7949 0.0000
# 3 23.9326 67.8237 80.1268 0.0000 -0.2394 0.0000
# 4 0.0000 0.0000 0.0000 30.7097 0.0000 7.1481
# 5 -2.7506 11.7949 -0.2394 0.0000 24.2241 0.0000
# 6 0.0000 0.0000 0.0000 7.1481 0.0000 21.5655
#
#
#
# Elastic Compliance Matrix: (Units=1/GPa)
#
#
# Indices 1 2 3 4 5 6 
#
# 1 0.023861 -0.006517 -0.001593 0.000000 0.005867 0.000000
# 2 -0.006517 0.015548 -0.011240 0.000000 -0.008422 0.000000
# 3 -0.001593 -0.011240 0.022486 0.000000 0.005514 0.000000
# 4 0.000000 0.000000 0.000000 0.035285 0.000000 -0.011696
# 5 0.005867 -0.008422 0.005514 0.000000 0.046103 0.000000
# 6 0.000000 0.000000 0.000000 -0.011696 0.000000 0.050247
#
#
# Mechanical properties :
#
#
# Convention : Reuss Voigt Hill
#
# Bulk Modulus (GPa) = 43.11021 59.10304 51.10662
# Shear Modulus (GPa) = 20.83661 24.65693 22.74677
#
# Velocity S-wave (km/s) = 3.19548 3.47610 3.33874
# Velocity P-wave (km/s) = 5.89416 6.71377 6.31727
#
# Compressibility (1/GPa) = 0.02319636
#
# Stress axis : x y z
#
# Youngs Moduli (GPa) = 41.90961 64.31497 44.47117
#
# Poissons Ratio (x) = 0.41913 0.07085
# Poissons Ratio (y) = 0.27312 0.49985
# Poissons Ratio (z) = 0.06677 0.72289
#
# Static dielectric constant tensor:
#      x y z
#    x 1.809530 0.000000 0.002750 
#    y 0.000000 1.758360 0.000000 
#    z 0.002750 0.000000 1.702970 
# 
# From -- ./inp_files/63827.got.cif
#   From: 2010.05.17/outbox.cif.g08.bks.cpg/sg10_32_cif.got.tgz:63827.got - 2010.06.03 11:33:40.
