data_PCOD9144006
_publ_section_title
;
Structure prediction by ZEFSAII (Michael W. Deem and Ramdas Pophale) SiO2 
 PCOD9144006
Probable space group: P 2/M
;
_chemical_formula_sum "Si O2"
_cell_formula_units_Z 28
_cell_length_a 11.640125
_cell_length_b 7.549003
_cell_length_c 14.889200
_cell_angle_alpha 90.000000
_cell_angle_beta 68.131028
_cell_angle_gamma 90.000000
_cell_volume 1214.183746
_symmetry_space_group_name_H-M "P 2/M"
_symmetry_group_IT_number 10
_symmetry_cell_setting 'monoclinic'
loop_
_space_group_symop_operation_xyz
x,y,z
-x,y,-z
-x,-y,-z
x,-y,z
loop_
_atom_site_type_symbol
_atom_site_label
_atom_site_fract_x
_atom_site_fract_y
_atom_site_fract_z
Si Si1 0.383334 0.699291 0.976840
Si Si2 0.096616 0.716594 0.049402
Si Si3 0.383280 0.713207 0.591370
Si Si4 0.069924 0.284509 0.255926
Si Si5 0.456757 0.802026 0.765123
Si Si6 0.143446 0.284056 0.550755
Si Si7 0.737474 0.714238 0.666909
O O1 0.367066 0.500000 0.020241
O O2 0.427896 0.688896 0.860808
O O3 0.500000 0.778420 0.000000
O O4 0.242226 0.773725 0.009973
O O5 0.100150 0.500000 0.042093
O O6 0.044905 0.770218 0.162077
O O7 0.000000 0.774983 0.000000
O O8 0.500000 0.780192 0.500000
O O9 0.388769 0.500000 0.587236
O O10 0.384160 0.763089 0.695043
O O11 0.261021 0.767398 0.575556
O O12 0.065254 0.500000 0.257095
O O13 0.204153 0.234087 0.254926
O O14 0.973702 0.222270 0.358912
O O15 0.599946 0.782830 0.696524
O O16 0.430200 0.000000 0.802453
O O17 0.134454 0.500000 0.549476
O O18 0.173760 0.228245 0.440715
O O19 0.730553 0.500000 0.664784
#
# Coordination Sequence:
#
# PCOD9144006 Si02
#       7
#     4   4   4   4   4   4   4
#     4  10  21  39  63  88 112 146 193 244 294 343
#     4   9  18  31  50  83 118 143 176 230 291 342
#     4  10  19  35  57  83 113 148 190 234 282 334
#     4   9  17  29  52  84 114 141 175 230 289 338
#     4  12  25  37  55  83 116 154 193 233 285 338
#     4   9  17  29  52  85 114 141 178 229 285 335
#     4  10  18  34  56  82 113 145 187 232 279 334
#
# _framework density 23.060762
#
# number of rings (size 3 to 8) (size 9 to 14) (size 15 to 20)
#    0.000    2.143    1.429    2.571    2.000    4.571 
#    0.000    0.000    0.000    3.000    0.000    0.000 
#    0.000    0.000    0.000    0.000    0.000    0.000 
#
# Total GULP energy -156296.179544 kJ/mol
# GULP energy per Si atom -5582.006412 kJ/mol
# Density = 2.300827 g / cm^3
# Si number density = 23.060762 Si / 1000 Ang^3
#
#
#
# Elastic Constant Matrix: (Units=GPa)
#
#
# Indices 1 2 3 4 5 6 
#
# 1 142.3042 12.9491 53.0329 0.0000 20.9091 0.0000
# 2 12.9491 52.4356 -1.5965 0.0000 7.6047 0.0000
# 3 53.0329 -1.5965 116.1893 0.0000 20.4954 0.0000
# 4 0.0000 0.0000 0.0000 -29.4888 0.0000 36.6961
# 5 20.9091 7.6047 20.4954 0.0000 44.9471 0.0000
# 6 0.0000 0.0000 0.0000 36.6961 0.0000 -7.3942
#
#
#
# Elastic Compliance Matrix: (Units=1/GPa)
#
#
# Indices 1 2 3 4 5 6 
#
# 1 0.008906 -0.002007 -0.003721 0.000000 -0.002107 0.000000
# 2 -0.002007 0.020095 0.001770 0.000000 -0.003273 0.000000
# 3 -0.003721 0.001770 0.010958 0.000000 -0.003565 0.000000
# 4 0.000000 0.000000 0.000000 0.006552 0.000000 0.032516
# 5 -0.002107 -0.003273 -0.003565 0.000000 0.025408 0.000000
# 6 0.000000 0.000000 0.000000 0.032516 0.000000 0.026130
#
#
# Mechanical properties :
#
#
# Convention : Reuss Voigt Hill
#
# Bulk Modulus (GPa) = 31.20849 48.85557 40.03203
# Shear Modulus (GPa) = 42.86434 18.04905 30.45670
#
# Velocity S-wave (km/s) = 4.31601 2.80067 3.63811
# Velocity P-wave (km/s) = 6.19675 5.62938 5.91987
#
# Compressibility (1/GPa) = 0.03204256
#
# Stress axis : x y z
#
# Youngs Moduli (GPa) = 112.28242 49.76299 91.25529
#
# Poissons Ratio (x) = 0.09988 0.33956
# Poissons Ratio (y) = 0.22537 -0.16149
# Poissons Ratio (z) = 0.41781 -0.08806
#
# Static dielectric constant tensor:
#      x y z
#    x 1.844960 0.000000 -0.011660 
#    y 0.000000 1.918220 0.000000 
#    z -0.011660 0.000000 1.838710 
# 
# From -- ./inp_files/63393.got.cif
#   From: 2010.05.17/outbox.cif.g08.bks.cpg/sg10_32_cif.got.tgz:63393.got - 2010.06.03 11:33:40.
