data_PCOD9144555
_publ_section_title
;
Structure prediction by ZEFSAII (Michael W. Deem and Ramdas Pophale) SiO2 
 PCOD9144555
Probable space group: P 2/M
;
_chemical_formula_sum "Si O2"
_cell_formula_units_Z 30
_cell_length_a 5.067995
_cell_length_b 23.457239
_cell_length_c 13.488987
_cell_angle_alpha 90.000000
_cell_angle_beta 89.207252
_cell_angle_gamma 90.000000
_cell_volume 1603.433066
_symmetry_space_group_name_H-M "P 2/M"
_symmetry_group_IT_number 10
_symmetry_cell_setting 'monoclinic'
loop_
_space_group_symop_operation_xyz
x,y,z
-x,y,-z
-x,-y,-z
x,-y,z
loop_
_atom_site_type_symbol
_atom_site_label
_atom_site_fract_x
_atom_site_fract_y
_atom_site_fract_z
Si Si1 0.184737 0.433703 0.912953
Si Si2 0.245378 0.862195 0.571152
Si Si3 0.588648 0.381560 0.384307
Si Si4 0.888402 0.065388 0.897567
Si Si5 0.686565 0.433128 0.785045
Si Si6 0.240975 0.266082 0.569835
Si Si7 0.242129 0.500000 0.570923
Si Si8 0.590518 0.934705 0.238034
O O1 0.228470 0.500000 0.942833
O O2 0.979338 0.431429 0.824402
O O3 0.469865 0.414892 0.870348
O O4 0.000000 0.406897 0.000000
O O5 0.500000 0.861074 0.500000
O O6 0.188633 0.797515 0.609836
O O7 0.328525 0.900867 0.663560
O O8 0.000000 0.879087 0.500000
O O9 0.500000 0.378793 0.500000
O O10 0.353598 0.394376 0.310316
O O11 0.715583 0.320454 0.360491
O O12 0.757699 0.439520 0.374153
O O13 0.143763 0.063452 0.827207
O O14 0.645281 0.088800 0.832128
O O15 0.803468 0.000000 0.923532
O O16 0.000000 0.091572 0.000000
O O17 0.629259 0.500000 0.761554
O O18 0.500000 0.260703 0.500000
O O19 0.000000 0.281459 0.500000
O O20 0.500000 0.500000 0.500000
O O21 0.000000 0.500000 0.500000
O O22 0.513273 0.000000 0.265009
#
# Coordination Sequence:
#
# PCOD9144555 Si02
#       8
#     4   4   4   4   4   4   2   4
#     4   9  18  32  48  65  89 117 151 191 228 269
#     4  10  20  34  50  70  98 132 170 211 245 285
#     4  10  20  34  48  72 101 130 154 189 232 292
#     4   9  17  30  48  73 105 135 165 204 248 296
#     4  10  19  30  46  71  93 118 148 181 229 282
#     4   9  19  34  50  66  90 129 171 201 230 277
#     4  10  20  30  44  64  93 128 149 176 226 274
#     4  10  19  30  48  75 103 134 169 205 250 297
#
# _framework density 18.709857
#
# number of rings (size 3 to 8) (size 9 to 14) (size 15 to 20)
#    0.000    2.400    0.667    2.000    0.000    8.000 
#    0.000    0.000    0.000    0.000    0.000    5.600 
#    0.000    0.000    0.000    0.000    0.000    0.000 
#
# Total GULP energy -167008.167660 kJ/mol
# GULP energy per Si atom -5566.938922 kJ/mol
# Density = 1.866727 g / cm^3
# Si number density = 18.709857 Si / 1000 Ang^3
#
#
#
# Elastic Constant Matrix: (Units=GPa)
#
#
# Indices 1 2 3 4 5 6 
#
# 1 113.4674 5.7248 28.6807 0.0000 21.3910 0.0000
# 2 5.7248 71.3238 42.5160 0.0000 19.0474 0.0000
# 3 28.6807 42.5160 98.4847 0.0000 15.0176 0.0000
# 4 0.0000 0.0000 0.0000 -0.1725 0.0000 6.0527
# 5 21.3910 19.0474 15.0176 0.0000 42.8251 0.0000
# 6 0.0000 0.0000 0.0000 6.0527 0.0000 11.5640
#
#
#
# Elastic Compliance Matrix: (Units=1/GPa)
#
#
# Indices 1 2 3 4 5 6 
#
# 1 0.010519 0.002557 -0.003373 0.000000 -0.005209 0.000000
# 2 0.002557 0.020999 -0.008654 0.000000 -0.007582 0.000000
# 3 -0.003373 -0.008654 0.014821 0.000000 0.000337 0.000000
# 4 0.000000 0.000000 0.000000 -0.299347 0.000000 0.156682
# 5 -0.005209 -0.007582 0.000337 0.000000 0.029207 0.000000
# 6 0.000000 0.000000 0.000000 0.156682 0.000000 0.004466
#
#
# Mechanical properties :
#
#
# Convention : Reuss Voigt Hill
#
# Bulk Modulus (GPa) = 36.49738 48.56877 42.53308
# Shear Modulus (GPa) = -26.14182 24.60026 -0.77078
#
# Velocity S-wave (km/s) = -3.74200 3.62999 -0.64254
# Velocity P-wave (km/s) = 0.93772 6.60185 4.71507
#
# Compressibility (1/GPa) = 0.02739922
#
# Stress axis : x y z
#
# Youngs Moduli (GPa) = 95.06985 47.62208 67.47347
#
# Poissons Ratio (x) = -0.12179 0.22759
# Poissons Ratio (y) = -0.24313 0.58389
# Poissons Ratio (z) = 0.32067 0.41211
#
# Static dielectric constant tensor:
#      x y z
#    x 1.685710 0.000000 0.008020 
#    y 0.000000 1.684640 0.000000 
#    z 0.008020 0.000000 1.708520 
# 
# From -- ./inp_files/39968.got.cif
#   From: 2010.05.17/outbox.cif.g08.bks.cpg/sg10_20_cif.got.tgz:39968.got - 2010.06.03 11:33:40.
