data_PCOD9144591
_publ_section_title
;
Structure prediction by ZEFSAII (Michael W. Deem and Ramdas Pophale) SiO2 
 PCOD9144591
Probable space group: P 2/M
;
_chemical_formula_sum "Si O2"
_cell_formula_units_Z 28
_cell_length_a 10.253785
_cell_length_b 8.696061
_cell_length_c 31.590414
_cell_angle_alpha 90.000000
_cell_angle_beta 144.504634
_cell_angle_gamma 90.000000
_cell_volume 1635.561544
_symmetry_space_group_name_H-M "P 2/M"
_symmetry_group_IT_number 10
_symmetry_cell_setting 'monoclinic'
loop_
_space_group_symop_operation_xyz
x,y,z
-x,y,-z
-x,-y,-z
x,-y,z
loop_
_atom_site_type_symbol
_atom_site_label
_atom_site_fract_x
_atom_site_fract_y
_atom_site_fract_z
Si Si1 0.036812 0.314396 0.057684
Si Si2 0.828016 0.814377 0.774960
Si Si3 0.329315 0.176534 0.494967
Si Si4 0.034851 0.316706 0.657667
Si Si5 0.542483 0.685648 0.775038
Si Si6 0.261177 0.813537 0.344508
Si Si7 0.247246 0.814352 0.942061
O O1 0.025897 0.500000 0.055455
O O2 0.277382 0.269046 0.141225
O O3 0.849662 0.249468 0.039770
O O4 0.000000 0.262099 0.000000
O O5 0.639115 0.750426 0.756655
O O6 0.796411 0.764391 0.718220
O O7 0.068177 0.768113 0.858515
O O8 0.817304 0.000000 0.772835
O O9 0.500000 0.174788 0.500000
O O10 0.116166 0.270462 0.422733
O O11 0.488025 0.235690 0.574628
O O12 0.262529 0.000000 0.485703
O O13 0.033749 0.500000 0.661894
O O14 0.915837 0.245916 0.667615
O O15 0.290649 0.263144 0.719091
O O16 0.542046 0.500000 0.772486
O O17 0.260015 0.000000 0.346255
O O18 0.247511 0.000000 0.943926
O O19 0.500000 0.761874 0.000000
#
# Coordination Sequence:
#
# PCOD9144591 Si02
#       7
#     4   4   4   4   4   4   4
#     4   9  18  33  51  69  92 124 159 192 226 269
#     4   9  18  33  51  69  92 125 159 188 227 278
#     4   8  15  29  47  66  91 121 153 192 232 268
#     4  10  19  30  47  71  96 122 153 190 233 278
#     4   9  19  34  48  67  97 126 153 190 232 272
#     4   9  18  32  49  70  94 120 155 196 231 269
#     4   9  18  32  49  71  98 123 150 190 235 275
#
# _framework density 17.119501
#
# number of rings (size 3 to 8) (size 9 to 14) (size 15 to 20)
#    0.000    3.000    0.000    1.286    0.000    6.000 
#    0.000    0.714    0.000    4.286    0.000    0.000 
#    0.000    0.000    0.000    0.000    0.000    0.000 
#
# Total GULP energy -155992.658023 kJ/mol
# GULP energy per Si atom -5571.166358 kJ/mol
# Density = 1.708054 g / cm^3
# Si number density = 17.119501 Si / 1000 Ang^3
#
#
#
# Elastic Constant Matrix: (Units=GPa)
#
#
# Indices 1 2 3 4 5 6 
#
# 1 118.0270 21.9614 117.2464 0.0000 -2.9744 0.0000
# 2 21.9614 7.2556 26.9023 0.0000 1.0166 0.0000
# 3 117.2464 26.9023 151.0531 0.0000 -3.2697 0.0000
# 4 0.0000 0.0000 0.0000 21.0736 0.0000 1.2494
# 5 -2.9744 1.0166 -3.2697 0.0000 35.1811 0.0000
# 6 0.0000 0.0000 0.0000 1.2494 0.0000 25.8388
#
#
#
# Elastic Compliance Matrix: (Units=1/GPa)
#
#
# Indices 1 2 3 4 5 6 
#
# 1 0.037722 -0.017349 -0.026162 0.000000 0.001259 0.000000
# 2 -0.017349 0.426132 -0.062852 0.000000 -0.019622 0.000000
# 3 -0.026162 -0.062852 0.038189 0.000000 0.003154 0.000000
# 4 0.000000 0.000000 0.000000 0.047589 0.000000 -0.002301
# 5 0.001259 -0.019622 0.003154 0.000000 0.029391 0.000000
# 6 0.000000 0.000000 0.000000 -0.002301 0.000000 0.038813
#
#
# Mechanical properties :
#
#
# Convention : Reuss Voigt Hill
#
# Bulk Modulus (GPa) = 3.45642 67.61733 35.53688
# Shear Modulus (GPa) = 5.39373 23.76707 14.58040
#
# Velocity S-wave (km/s) = 1.77693 3.73004 2.92153
# Velocity P-wave (km/s) = 2.49667 7.62456 5.67306
#
# Compressibility (1/GPa) = 0.28931637
#
# Stress axis : x y z
#
# Youngs Moduli (GPa) = 26.50987 2.34669 26.18530
#
# Poissons Ratio (x) = 0.04071 0.68507
# Poissons Ratio (y) = 0.45992 1.64580
# Poissons Ratio (z) = 0.69356 0.14749
#
# Static dielectric constant tensor:
#      x y z
#    x 1.541890 0.000000 -0.005750 
#    y 0.000000 1.584510 0.000000 
#    z -0.005750 0.000000 1.606230 
# 
# From -- ./inp_files/37901.got.cif
#   From: 2010.05.17/outbox.cif.g08.bks.cpg/sg10_19_cif.got.tgz:37901.got - 2010.06.03 11:33:40.
