data_PCOD9144825
_publ_section_title
;
Structure prediction by ZEFSAII (Michael W. Deem and Ramdas Pophale) SiO2 
 PCOD9144825
Probable space group: P 2/M
;
_chemical_formula_sum "Si O2"
_cell_formula_units_Z 26
_cell_length_a 27.417736
_cell_length_b 9.395829
_cell_length_c 11.878935
_cell_angle_alpha 90.000000
_cell_angle_beta 31.872168
_cell_angle_gamma 90.000000
_cell_volume 1615.843911
_symmetry_space_group_name_H-M "P 2/M"
_symmetry_group_IT_number 10
_symmetry_cell_setting 'monoclinic'
loop_
_space_group_symop_operation_xyz
x,y,z
-x,y,-z
-x,-y,-z
x,-y,z
loop_
_atom_site_type_symbol
_atom_site_label
_atom_site_fract_x
_atom_site_fract_y
_atom_site_fract_z
Si Si1 0.807746 0.670223 0.006795
Si Si2 0.358205 0.343409 0.966469
Si Si3 0.635354 0.163194 0.433416
Si Si4 0.012723 0.662458 0.611495
Si Si5 0.500000 0.751140 0.500000
Si Si6 0.515799 0.336240 0.838584
Si Si7 0.188124 0.169023 0.240502
O O1 0.797877 0.500000 0.009344
O O2 0.722760 0.735793 0.240515
O O3 0.909999 0.694273 0.857779
O O4 0.806101 0.753257 0.891722
O O5 0.313804 0.500000 0.047391
O O6 0.281325 0.222299 0.116718
O O7 0.428038 0.330152 0.722877
O O8 0.420809 0.333810 0.954380
O O9 0.566296 0.170313 0.460137
O O10 0.581371 0.226718 0.645679
O O11 0.663223 0.000000 0.394025
O O12 0.038207 0.500000 0.590492
O O13 0.000000 0.666177 0.500000
O O14 0.094665 0.769897 0.479448
O O15 0.551203 0.500000 0.760035
O O16 0.500000 0.304129 0.000000
O O17 0.184730 0.000000 0.235344
#
# Coordination Sequence:
#
# PCOD9144825 Si02
#       7
#     4   4   4   4   2   4   4
#     4  10  19  31  47  67  95 130 167 199 234 283
#     4  10  19  31  50  71  95 128 164 199 241 286
#     4  11  21  31  48  73 102 130 159 198 244 290
#     4   8  16  30  45  62  90 129 165 197 231 278
#     4  10  20  30  46  68 100 130 160 196 236 284
#     4   9  20  38  55  71  93 125 168 209 242 283
#     4  11  20  28  43  69 100 130 160 196 239 288
#
# _framework density 16.090662999999999
#
# number of rings (size 3 to 8) (size 9 to 14) (size 15 to 20)
#    0.000    2.154    1.538    3.692    0.000    7.385 
#    0.000    0.000    0.000    0.000    0.000    1.077 
#    0.000    8.615    0.000    0.000    0.000    0.000 
#
# Total GULP energy -144846.837866 kJ/mol
# GULP energy per Si atom -5571.032226 kJ/mol
# Density = 1.605404 g / cm^3
# Si number density = 16.090663 Si / 1000 Ang^3
#
#
#
# Elastic Constant Matrix: (Units=GPa)
#
#
# Indices 1 2 3 4 5 6 
#
# 1 54.6728 36.3823 43.3187 0.0000 5.9686 0.0000
# 2 36.3823 125.8610 59.5059 0.0000 -13.8393 0.0000
# 3 43.3187 59.5059 82.6023 0.0000 -14.9515 0.0000
# 4 0.0000 0.0000 0.0000 8.4308 0.0000 1.2334
# 5 5.9686 -13.8393 -14.9515 0.0000 26.1901 0.0000
# 6 0.0000 0.0000 0.0000 1.2334 0.0000 8.5847
#
#
#
# Elastic Compliance Matrix: (Units=1/GPa)
#
#
# Indices 1 2 3 4 5 6 
#
# 1 0.043020 -0.003636 -0.024607 0.000000 -0.025773 0.000000
# 2 -0.003636 0.012415 -0.006356 0.000000 0.003760 0.000000
# 3 -0.024607 -0.006356 0.033453 0.000000 0.021347 0.000000
# 4 0.000000 0.000000 0.000000 0.121159 0.000000 -0.017408
# 5 -0.025773 0.003760 0.021347 0.000000 0.058230 0.000000
# 6 0.000000 0.000000 0.000000 -0.017408 0.000000 0.118988
#
#
# Mechanical properties :
#
#
# Convention : Reuss Voigt Hill
#
# Bulk Modulus (GPa) = 50.78444 60.17222 55.47833
# Shear Modulus (GPa) = 10.79852 16.90305 13.85079
#
# Velocity S-wave (km/s) = 2.59338 3.24464 2.93712
# Velocity P-wave (km/s) = 6.37161 7.17731 6.78643
#
# Compressibility (1/GPa) = 0.01969107
#
# Stress axis : x y z
#
# Youngs Moduli (GPa) = 23.24479 80.54826 29.89226
#
# Poissons Ratio (x) = 0.29286 0.73555
# Poissons Ratio (y) = 0.08452 0.19000
# Poissons Ratio (z) = 0.57198 0.51198
#
# Static dielectric constant tensor:
#      x y z
#    x 1.529150 0.000000 -0.031700 
#    y 0.000000 1.548090 0.000000 
#    z -0.031700 0.000000 1.556550 
# 
# From -- ./inp_files/48726.got.cif
#   From: 2010.05.17/outbox.cif.g08.bks.cpg/sg10_25_cif.got.tgz:48726.got - 2010.06.03 11:33:40.
