data_PCOD9144208
_publ_section_title
;
Structure prediction by ZEFSAII (Michael W. Deem and Ramdas Pophale) SiO2 
 PCOD9144208
Probable space group: P 2/M
;
_chemical_formula_sum "Si O2"
_cell_formula_units_Z 32
_cell_length_a 15.304128
_cell_length_b 7.598096
_cell_length_c 14.602016
_cell_angle_alpha 90.000000
_cell_angle_beta 89.797788
_cell_angle_gamma 90.000000
_cell_volume 1697.944463
_symmetry_space_group_name_H-M "P 2/M"
_symmetry_group_IT_number 10
_symmetry_cell_setting 'monoclinic'
loop_
_space_group_symop_operation_xyz
x,y,z
-x,y,-z
-x,-y,-z
x,-y,z
loop_
_atom_site_type_symbol
_atom_site_label
_atom_site_fract_x
_atom_site_fract_y
_atom_site_fract_z
Si Si1 0.254377 0.783813 0.887403
Si Si2 0.902629 0.215179 0.978081
Si Si3 0.620233 0.788536 0.958872
Si Si4 0.327728 0.199538 0.708136
Si Si5 0.595884 0.795866 0.476402
Si Si6 0.496015 0.292474 0.200902
Si Si7 0.220131 0.788845 0.176654
Si Si8 0.337540 0.706157 0.332898
O O1 0.261461 0.721254 0.782925
O O2 0.255960 0.000000 0.886419
O O3 0.168457 0.732916 0.944678
O O4 0.339677 0.724803 0.945405
O O5 0.864953 0.271156 0.878954
O O6 0.903204 0.000000 0.977828
O O7 0.000000 0.275196 0.000000
O O8 0.534116 0.732573 0.904092
O O9 0.698626 0.737053 0.888772
O O10 0.615337 0.000000 0.964378
O O11 0.354095 0.283429 0.611133
O O12 0.418120 0.196393 0.765075
O O13 0.297159 0.000000 0.689669
O O14 0.500000 0.718654 0.500000
O O15 0.652635 0.790175 0.568038
O O16 0.579229 0.000000 0.450540
O O17 0.351687 0.500000 0.346039
O O18 0.416245 0.228854 0.266584
O O19 0.247751 0.730036 0.277431
O O20 0.218163 0.000000 0.178594
O O21 0.491591 0.500000 0.784048
#
# Coordination Sequence:
#
# PCOD9144208 Si02
#       8
#     4   4   4   4   4   4   4   4
#     4   8  15  27  42  62  86 113 142 171 207 256
#     4   8  13  24  46  75  99 114 133 168 214 261
#     4   8  14  26  42  57  79 112 146 173 201 246
#     4  10  19  30  43  58  81 113 148 182 215 253
#     4  10  19  30  44  61  80 110 153 194 226 255
#     4  10  19  28  39  58  82 111 147 183 218 249
#     4   8  14  25  43  66  90 114 140 171 208 256
#     4  10  19  29  43  61  85 115 147 188 226 254
#
# _framework density 18.846316000000002
#
# number of rings (size 3 to 8) (size 9 to 14) (size 15 to 20)
#    0.000    3.000    1.250    2.250    0.000    2.250 
#    0.000    3.125    0.000    1.125    0.000    0.875 
#    0.000    7.000    0.000    0.000    0.000    0.000 
#
# Total GULP energy -178284.273901 kJ/mol
# GULP energy per Si atom -5571.383559 kJ/mol
# Density = 1.880342 g / cm^3
# Si number density = 18.846316 Si / 1000 Ang^3
#
#
#
# Elastic Constant Matrix: (Units=GPa)
#
#
# Indices 1 2 3 4 5 6 
#
# 1 85.5628 -0.1475 39.2002 0.0000 8.8210 0.0000
# 2 -0.1475 37.3408 2.7890 0.0000 -0.7966 0.0000
# 3 39.2002 2.7890 148.0884 0.0000 -1.1624 0.0000
# 4 0.0000 0.0000 0.0000 81.8586 0.0000 65.5003
# 5 8.8210 -0.7966 -1.1624 0.0000 20.1941 0.0000
# 6 0.0000 0.0000 0.0000 65.5003 0.0000 49.9515
#
#
#
# Elastic Compliance Matrix: (Units=1/GPa)
#
#
# Indices 1 2 3 4 5 6 
#
# 1 0.014075 0.000202 -0.003779 0.000000 -0.006358 0.000000
# 2 0.000202 0.026842 -0.000552 0.000000 0.000939 0.000000
# 3 -0.003779 -0.000552 0.007780 0.000000 0.002077 0.000000
# 4 0.000000 0.000000 0.000000 -0.248105 0.000000 0.325334
# 5 -0.006358 0.000939 0.002077 0.000000 0.052453 0.000000
# 6 0.000000 0.000000 0.000000 0.325334 0.000000 -0.406584
#
#
# Mechanical properties :
#
#
# Convention : Reuss Voigt Hill
#
# Bulk Modulus (GPa) = 24.72851 39.40838 32.06845
# Shear Modulus (GPa) = -9.40200 45.67752 18.13776
#
# Velocity S-wave (km/s) = -2.23598 4.92843 3.10563
# Velocity P-wave (km/s) = 2.54627 7.30354 5.46924
#
# Compressibility (1/GPa) = 0.04043915
#
# Stress axis : x y z
#
# Youngs Moduli (GPa) = 71.04997 37.25454 128.53724
#
# Poissons Ratio (x) = -0.00753 0.48579
# Poissons Ratio (y) = -0.01437 0.07091
# Poissons Ratio (z) = 0.26852 0.02055
#
# Static dielectric constant tensor:
#      x y z
#    x 1.652300 0.000000 -0.016830 
#    y 0.000000 1.701710 0.000000 
#    z -0.016830 0.000000 1.710250 
# 
# From -- ./inp_files/66072.got.cif
#   From: 2010.05.17/outbox.cif.g08.bks.cpg/sg10_34_cif.got.tgz:66072.got - 2010.06.03 11:33:40.
