data_PCOD9144791
_publ_section_title
;
Structure prediction by ZEFSAII (Michael W. Deem and Ramdas Pophale) SiO2 
 PCOD9144791
Probable space group: P 2/M
;
_chemical_formula_sum "Si O2"
_cell_formula_units_Z 28
_cell_length_a 6.984234
_cell_length_b 34.669601
_cell_length_c 5.307225
_cell_angle_alpha 90.000000
_cell_angle_beta 102.093435
_cell_angle_gamma 90.000000
_cell_volume 1256.574891
_symmetry_space_group_name_H-M "P 2/M"
_symmetry_group_IT_number 10
_symmetry_cell_setting 'monoclinic'
loop_
_space_group_symop_operation_xyz
x,y,z
-x,y,-z
-x,-y,-z
x,-y,z
loop_
_atom_site_type_symbol
_atom_site_label
_atom_site_fract_x
_atom_site_fract_y
_atom_site_fract_z
Si Si1 0.866545 0.166450 0.213263
Si Si2 0.129770 0.500000 0.785857
Si Si3 0.729740 0.416027 0.078627
Si Si4 0.739541 0.376657 0.581266
Si Si5 0.260371 0.289006 0.418899
Si Si6 0.136394 0.916979 0.787384
Si Si7 0.863174 0.000000 0.212248
Si Si8 0.728199 0.249991 0.077282
O O1 0.759184 0.124697 0.189098
O O2 0.744844 0.205425 0.158578
O O3 0.000000 0.168817 0.500000
O O4 0.000000 0.166188 0.000000
O O5 0.247718 0.460244 0.833391
O O6 0.000000 0.500000 0.500000
O O7 0.000000 0.500000 0.000000
O O8 0.808789 0.389349 0.324320
O O9 0.500000 0.407505 0.000000
O O10 0.803699 0.405849 0.819682
O O11 0.500000 0.377813 0.500000
O O12 0.793590 0.332833 0.658647
O O13 0.500000 0.287867 0.500000
O O14 0.190500 0.276002 0.674696
O O15 0.196188 0.259906 0.180361
O O16 0.000000 0.916941 0.500000
O O17 0.244308 0.958470 0.816415
O O18 0.000000 0.917006 0.000000
O O19 0.000000 0.000000 0.500000
O O20 0.000000 0.000000 0.000000
O O21 0.500000 0.259850 0.000000
#
# Coordination Sequence:
#
# PCOD9144791 Si02
#       8
#     4   2   4   4   4   4   2   4
#     4  10  19  31  46  65  93 125 157 194 239 285
#     4  12  25  40  57  78 110 144 166 192 239 288
#     4  10  20  36  59  83 103 128 167 206 237 277
#     4   9  17  31  55  82 102 123 159 208 247 274
#     4   9  17  30  50  76 100 123 158 202 243 279
#     4   8  14  23  37  57  81 111 144 185 233 278
#     4   8  12  20  34  54  79 104 139 184 230 276
#     4  10  19  31  49  71  96 127 162 197 233 282
#
# _framework density 22.282796999999999
#
# number of rings (size 3 to 8) (size 9 to 14) (size 15 to 20)
#    0.000    2.571    0.000    2.786    0.000    3.429 
#    0.000    2.857    0.000   17.143    0.000    0.500 
#    0.000    0.000    0.000   38.429    0.000    1.429 
#
# Total GULP energy -156263.758068 kJ/mol
# GULP energy per Si atom -5580.848502 kJ/mol
# Density = 2.223208 g / cm^3
# Si number density = 22.282797 Si / 1000 Ang^3
#
#
#
# Elastic Constant Matrix: (Units=GPa)
#
#
# Indices 1 2 3 4 5 6 
#
# 1 34.7440 -25.2293 25.1304 0.0000 -5.3995 0.0000
# 2 -25.2293 151.5947 54.7286 0.0000 5.7491 0.0000
# 3 25.1304 54.7286 165.1113 0.0000 -19.3179 0.0000
# 4 0.0000 0.0000 0.0000 20.6466 0.0000 -12.0614
# 5 -5.3995 5.7491 -19.3179 0.0000 34.3907 0.0000
# 6 0.0000 0.0000 0.0000 -12.0614 0.0000 -15.2505
#
#
#
# Elastic Compliance Matrix: (Units=1/GPa)
#
#
# Indices 1 2 3 4 5 6 
#
# 1 0.044506 0.011270 -0.010610 0.000000 -0.000856 0.000000
# 2 0.011270 0.010614 -0.005602 0.000000 -0.003152 0.000000
# 3 -0.010610 -0.005602 0.010107 0.000000 0.004948 0.000000
# 4 0.000000 0.000000 0.000000 0.033128 0.000000 -0.026201
# 5 -0.000856 -0.003152 0.004948 0.000000 0.032250 0.000000
# 6 0.000000 0.000000 0.000000 -0.026201 0.000000 -0.044850
#
#
# Mechanical properties :
#
#
# Convention : Reuss Voigt Hill
#
# Bulk Modulus (GPa) = 18.06897 51.18993 34.62945
# Shear Modulus (GPa) = 43.82593 27.74540 35.78566
#
# Velocity S-wave (km/s) = 4.43968 3.53249 4.01181
# Velocity P-wave (km/s) = 5.86579 6.29768 6.08557
#
# Compressibility (1/GPa) = 0.05534349
#
# Stress axis : x y z
#
# Youngs Moduli (GPa) = 22.46867 94.21356 98.93907
#
# Poissons Ratio (x) = -1.06177 1.04971
# Poissons Ratio (y) = -0.25322 0.55428
# Poissons Ratio (z) = 0.23839 0.52781
#
# Static dielectric constant tensor:
#      x y z
#    x 1.843280 0.000000 0.022080 
#    y 0.000000 1.884600 0.000000 
#    z 0.022080 0.000000 1.798050 
# 
# From -- ./inp_files/5555.got.cif
#   From: 2010.05.17/outbox.cif.g08.bks.cpg/sg10_3_cif.got.tgz:5555.got - 2010.06.03 11:33:40.
