data_PCOD9144743
_publ_section_title
;
Structure prediction by ZEFSAII (Michael W. Deem and Ramdas Pophale) SiO2 
 PCOD9144743
Probable space group: P 2/M
;
_chemical_formula_sum "Si O2"
_cell_formula_units_Z 28
_cell_length_a 12.205190
_cell_length_b 7.763932
_cell_length_c 15.397869
_cell_angle_alpha 90.000000
_cell_angle_beta 62.600753
_cell_angle_gamma 90.000000
_cell_volume 1295.425713
_symmetry_space_group_name_H-M "P 2/M"
_symmetry_group_IT_number 10
_symmetry_cell_setting 'monoclinic'
loop_
_space_group_symop_operation_xyz
x,y,z
-x,y,-z
-x,-y,-z
x,-y,z
loop_
_atom_site_type_symbol
_atom_site_label
_atom_site_fract_x
_atom_site_fract_y
_atom_site_fract_z
Si Si1 0.594013 0.298811 0.892336
Si Si2 0.466393 0.205140 0.277635
Si Si3 0.120227 0.796970 0.016017
Si Si4 0.865605 0.300215 0.327590
Si Si5 0.868303 0.302664 0.795604
Si Si6 0.746263 0.205164 0.195658
Si Si7 0.616276 0.204077 0.514254
O O1 0.611450 0.500000 0.910190
O O2 0.543095 0.287171 0.813400
O O3 0.732542 0.221291 0.835346
O O4 0.500000 0.226347 0.000000
O O5 0.603343 0.231041 0.265728
O O6 0.381043 0.270487 0.387416
O O7 0.448802 0.000000 0.269904
O O8 0.112790 0.697651 0.107654
O O9 0.135572 0.000000 0.031643
O O10 0.227327 0.737416 0.912067
O O11 0.000000 0.780701 0.000000
O O12 0.871185 0.500000 0.349529
O O13 0.829850 0.286416 0.238994
O O14 0.747942 0.223852 0.420051
O O15 0.003959 0.225218 0.288672
O O16 0.861393 0.500000 0.765645
O O17 0.772714 0.000000 0.188224
O O18 0.500000 0.274164 0.500000
O O19 0.591944 0.000000 0.531727
#
# Coordination Sequence:
#
# PCOD9144743 Si02
#       7
#     4   4   4   4   4   4   4
#     4  10  22  41  62  83 113 154 196 237 283 335
#     4  10  21  37  60  86 111 146 191 236 288 339
#     4  10  19  30  51  81 110 144 187 230 279 342
#     4  11  22  34  53  83 115 148 188 230 279 342
#     4  10  22  38  54  78 116 155 189 234 291 340
#     4  10  19  34  53  79 116 149 181 229 289 343
#     4  10  20  38  61  84 116 153 185 233 294 342
#
# _framework density 21.614515999999998
#
# number of rings (size 3 to 8) (size 9 to 14) (size 15 to 20)
#    0.000    1.857    2.857    1.286    0.000    3.714 
#    0.000    0.714    0.000    4.286    0.000    0.000 
#    0.000    0.000    0.000    0.000    0.000    0.000 
#
# Total GULP energy -156154.458313 kJ/mol
# GULP energy per Si atom -5576.944940 kJ/mol
# Density = 2.156532 g / cm^3
# Si number density = 21.614516 Si / 1000 Ang^3
#
#
#
# Elastic Constant Matrix: (Units=GPa)
#
#
# Indices 1 2 3 4 5 6 
#
# 1 88.4895 8.0315 39.8366 0.0000 -18.6639 0.0000
# 2 8.0315 25.9183 -0.2280 0.0000 -3.1094 0.0000
# 3 39.8366 -0.2280 125.8427 0.0000 -19.2296 0.0000
# 4 0.0000 0.0000 0.0000 14.8535 0.0000 4.1879
# 5 -18.6639 -3.1094 -19.2296 0.0000 33.6487 0.0000
# 6 0.0000 0.0000 0.0000 4.1879 0.0000 5.6938
#
#
#
# Elastic Compliance Matrix: (Units=1/GPa)
#
#
# Indices 1 2 3 4 5 6 
#
# 1 0.014511 -0.003864 -0.003753 0.000000 0.005547 0.000000
# 2 -0.003864 0.040098 0.001681 0.000000 0.002523 0.000000
# 3 -0.003753 0.001681 0.009689 0.000000 0.003611 0.000000
# 4 0.000000 0.000000 0.000000 0.084938 0.000000 -0.062474
# 5 0.005547 0.002523 0.003611 0.000000 0.035092 0.000000
# 6 0.000000 0.000000 0.000000 -0.062474 0.000000 0.221580
#
#
# Mechanical properties :
#
#
# Convention : Reuss Voigt Hill
#
# Bulk Modulus (GPa) = 19.07431 37.28118 28.17775
# Shear Modulus (GPa) = 11.48751 23.67990 17.58370
#
# Velocity S-wave (km/s) = 2.30787 3.31351 2.85531
# Velocity P-wave (km/s) = 3.99320 5.65020 4.89236
#
# Compressibility (1/GPa) = 0.05242653
#
# Stress axis : x y z
#
# Youngs Moduli (GPa) = 68.91335 24.93907 103.20674
#
# Poissons Ratio (x) = 0.09637 0.38733
# Poissons Ratio (y) = 0.26629 -0.17353
# Poissons Ratio (z) = 0.25863 -0.04193
#
# Static dielectric constant tensor:
#      x y z
#    x 1.801120 0.000000 -0.059360 
#    y 0.000000 1.810880 0.000000 
#    z -0.059360 0.000000 1.831720 
# 
# From -- ./inp_files/55425.got.cif
#   From: 2010.05.17/outbox.cif.g08.bks.cpg/sg10_28_cif.got.tgz:55425.got - 2010.06.03 11:33:40.
