data_PCOD9144142
_publ_section_title
;
Structure prediction by ZEFSAII (Michael W. Deem and Ramdas Pophale) SiO2 
 PCOD9144142
Probable space group: P 2/M
;
_chemical_formula_sum "Si O2"
_cell_formula_units_Z 30
_cell_length_a 12.030950
_cell_length_b 14.357073
_cell_length_c 9.026311
_cell_angle_alpha 90.000000
_cell_angle_beta 93.603293
_cell_angle_gamma 90.000000
_cell_volume 1556.025553
_symmetry_space_group_name_H-M "P 2/M"
_symmetry_group_IT_number 10
_symmetry_cell_setting 'monoclinic'
loop_
_space_group_symop_operation_xyz
x,y,z
-x,y,-z
-x,-y,-z
x,-y,z
loop_
_atom_site_type_symbol
_atom_site_label
_atom_site_fract_x
_atom_site_fract_y
_atom_site_fract_z
Si Si1 0.338696 0.102171 0.828151
Si Si2 0.921810 0.891614 0.731250
Si Si3 0.081208 0.270746 0.632701
Si Si4 0.500000 0.747324 0.500000
Si Si5 0.732963 0.157809 0.484979
Si Si6 0.115388 0.395124 0.921682
Si Si7 0.226789 0.221314 0.061432
Si Si8 0.473989 0.745563 0.166739
O O1 0.289388 0.096863 0.660741
O O2 0.452398 0.160457 0.829745
O O3 0.353781 0.000000 0.894635
O O4 0.255105 0.163873 0.917088
O O5 0.817734 0.888087 0.607506
O O6 0.870483 0.834840 0.864804
O O7 0.022152 0.826888 0.678863
O O8 0.951549 0.000000 0.760356
O O9 0.198943 0.247371 0.568907
O O10 0.093795 0.341841 0.766821
O O11 0.000000 0.309675 0.500000
O O12 0.388823 0.809544 0.475729
O O13 0.504949 0.700772 0.332454
O O14 0.158451 0.500000 0.905603
O O15 0.192692 0.325959 0.020852
O O16 0.000000 0.399988 0.000000
O O17 0.343777 0.229371 0.156073
O O18 0.500000 0.703628 0.000000
#
# Coordination Sequence:
#
# PCOD9144142 Si02
#       8
#     4   4   4   2   4   4   4   4
#     4  10  20  33  55  86 122 163 205 245 290 352
#     4  11  22  35  55  84 125 167 201 238 288 363
#     4  10  22  40  61  87 121 156 199 247 306 368
#     4  10  18  36  57  90 115 168 204 252 289 348
#     4  10  20  36  55  83 121 164 201 243 288 348
#     4  11  23  42  66  88 113 147 199 264 322 372
#     4  11  20  38  57  85 119 156 200 248 306 363
#     4   9  20  34  55  83 120 162 203 247 296 351
#
# _framework density 19.279890000000002
#
# number of rings (size 3 to 8) (size 9 to 14) (size 15 to 20)
#    0.000    1.733    4.000    0.800    0.000    6.133 
#    0.000    2.333    0.000    3.600    0.000    0.933 
#    0.000    0.000    0.000    0.000    0.000    0.000 
#
# Total GULP energy -167094.783799 kJ/mol
# GULP energy per Si atom -5569.826127 kJ/mol
# Density = 1.923601 g / cm^3
# Si number density = 19.279890 Si / 1000 Ang^3
#
#
#
# Elastic Constant Matrix: (Units=GPa)
#
#
# Indices 1 2 3 4 5 6 
#
# 1 77.5464 27.2754 5.3376 0.0000 -6.9214 0.0000
# 2 27.2754 105.8139 35.5961 0.0000 -0.9038 0.0000
# 3 5.3376 35.5961 91.5253 0.0000 4.7294 0.0000
# 4 0.0000 0.0000 0.0000 473.2645 0.0000 27.8315
# 5 -6.9214 -0.9038 4.7294 0.0000 25.5879 0.0000
# 6 0.0000 0.0000 0.0000 27.8315 0.0000 12.1647
#
#
#
# Elastic Compliance Matrix: (Units=1/GPa)
#
#
# Indices 1 2 3 4 5 6 
#
# 1 0.014559 -0.003878 0.000467 0.000000 0.003715 0.000000
# 2 -0.003878 0.011941 -0.004428 0.000000 0.000191 0.000000
# 3 0.000467 -0.004428 0.012744 0.000000 -0.002385 0.000000
# 4 0.000000 0.000000 0.000000 0.002441 0.000000 -0.005586
# 5 0.003715 0.000191 -0.002385 0.000000 0.040533 0.000000
# 6 0.000000 0.000000 0.000000 -0.005586 0.000000 0.094985
#
#
# Mechanical properties :
#
#
# Convention : Reuss Voigt Hill
#
# Bulk Modulus (GPa) = 42.43285 45.70043 44.06664
# Shear Modulus (GPa) = 24.90808 115.98186 70.44497
#
# Velocity S-wave (km/s) = 3.59823 7.76450 6.05123
# Velocity P-wave (km/s) = 6.27054 10.20483 8.46930
#
# Compressibility (1/GPa) = 0.02356665
#
# Stress axis : x y z
#
# Youngs Moduli (GPa) = 68.68593 83.74172 78.46774
#
# Poissons Ratio (x) = 0.32478 -0.03667
# Poissons Ratio (y) = 0.26639 0.34745
# Poissons Ratio (z) = -0.03210 0.37081
#
# Static dielectric constant tensor:
#      x y z
#    x 1.680120 0.000000 0.003370 
#    y 0.000000 1.626540 0.000000 
#    z 0.003370 0.000000 1.789280 
# 
# From -- ./inp_files/24994.got.cif
#   From: 2010.05.17/outbox.cif.g08.bks.cpg/sg10_13_cif.got.tgz:24994.got - 2010.06.03 11:33:40.
