data_PCOD9144254
_publ_section_title
;
Structure prediction by ZEFSAII (Michael W. Deem and Ramdas Pophale) SiO2 
 PCOD9144254
Probable space group: P 2/M
;
_chemical_formula_sum "Si O2"
_cell_formula_units_Z 28
_cell_length_a 23.635396
_cell_length_b 13.233748
_cell_length_c 5.082558
_cell_angle_alpha 90.000000
_cell_angle_beta 108.528712
_cell_angle_gamma 90.000000
_cell_volume 1507.341968
_symmetry_space_group_name_H-M "P 2/M"
_symmetry_group_IT_number 10
_symmetry_cell_setting 'monoclinic'
loop_
_space_group_symop_operation_xyz
x,y,z
-x,y,-z
-x,-y,-z
x,-y,z
loop_
_atom_site_type_symbol
_atom_site_label
_atom_site_fract_x
_atom_site_fract_y
_atom_site_fract_z
Si Si1 0.840988 0.250172 0.456868
Si Si2 0.285346 0.810066 0.629935
Si Si3 0.565218 0.248497 0.541130
Si Si4 0.591493 0.886516 0.079751
Si Si5 0.041519 0.117687 0.305780
Si Si6 0.689730 0.311748 0.833054
Si Si7 0.814702 0.385935 0.917975
O O1 0.783735 0.175623 0.403891
O O2 0.901301 0.188471 0.581476
O O3 0.831772 0.334760 0.667973
O O4 0.837250 0.309609 0.176604
O O5 0.336651 0.887991 0.779001
O O6 0.292733 0.782319 0.334211
O O7 0.303519 0.716262 0.850056
O O8 0.500000 0.292042 0.500000
O O9 0.568508 0.191902 0.266222
O O10 0.620417 0.325852 0.659935
O O11 0.576349 0.161157 0.775755
O O12 0.568747 0.000000 0.077280
O O13 0.000000 0.123737 0.500000
O O14 0.059655 0.000000 0.296702
O O15 0.000000 0.147091 0.000000
O O16 0.742473 0.387649 0.839563
O O17 0.837436 0.500000 0.977722
#
# Coordination Sequence:
#
# PCOD9144254 Si02
#       7
#     4   4   4   4   4   4   4
#     4  10  19  34  56  80 107 137 172 214 258 303
#     4   8  16  29  45  65  89 120 155 195 247 293
#     4  10  19  30  43  59  85 124 163 198 245 302
#     4  10  19  29  41  61  89 118 156 206 252 298
#     4  10  21  37  57  81 109 144 182 214 248 293
#     4   8  16  30  45  65  91 119 154 197 243 291
#     4  10  19  33  56  82 106 133 169 214 264 317
#
# _framework density 18.575747
#
# number of rings (size 3 to 8) (size 9 to 14) (size 15 to 20)
#    0.000    2.571    0.000    2.143    0.000    2.286 
#    0.000    0.000    0.000   17.571    0.000    0.000 
#    0.000   13.714    0.000    0.000    0.000    2.286 
#
# Total GULP energy -155960.204098 kJ/mol
# GULP energy per Si atom -5570.007289 kJ/mol
# Density = 1.853347 g / cm^3
# Si number density = 18.575747 Si / 1000 Ang^3
#
#
#
# Elastic Constant Matrix: (Units=GPa)
#
#
# Indices 1 2 3 4 5 6 
#
# 1 86.5771 21.3265 13.9188 0.0000 27.9902 0.0000
# 2 21.3265 36.7401 4.3039 0.0000 15.9525 0.0000
# 3 13.9188 4.3039 84.6391 0.0000 -3.6828 0.0000
# 4 0.0000 0.0000 0.0000 7.5739 0.0000 -3.0653
# 5 27.9902 15.9525 -3.6828 0.0000 37.3409 0.0000
# 6 0.0000 0.0000 0.0000 -3.0653 0.0000 1.4791
#
#
#
# Elastic Compliance Matrix: (Units=1/GPa)
#
#
# Indices 1 2 3 4 5 6 
#
# 1 0.016663 -0.004632 -0.002975 0.000000 -0.010805 0.000000
# 2 -0.004632 0.035169 -0.001536 0.000000 -0.011704 0.000000
# 3 -0.002975 -0.001536 0.012562 0.000000 0.004125 0.000000
# 4 0.000000 0.000000 0.000000 0.818897 0.000000 1.697125
# 5 -0.010805 -0.011704 0.004125 0.000000 0.040286 0.000000
# 6 0.000000 0.000000 0.000000 1.697125 0.000000 4.193306
#
#
# Mechanical properties :
#
#
# Convention : Reuss Voigt Hill
#
# Bulk Modulus (GPa) = 21.68854 31.89496 26.79175
# Shear Modulus (GPa) = 0.97077 20.50592 10.73834
#
# Velocity S-wave (km/s) = 0.72370 3.32612 2.40695
# Velocity P-wave (km/s) = 3.52128 5.65316 4.70944
#
# Compressibility (1/GPa) = 0.04610731
#
# Stress axis : x y z
#
# Youngs Moduli (GPa) = 60.01378 28.43428 79.60743
#
# Poissons Ratio (x) = 0.13172 0.23681
# Poissons Ratio (y) = 0.27801 0.12226
# Poissons Ratio (z) = 0.17853 0.04367
#
# Static dielectric constant tensor:
#      x y z
#    x 1.670700 0.000000 0.018510 
#    y 0.000000 1.588820 0.000000 
#    z 0.018510 0.000000 1.636330 
# 
# From -- ./inp_files/12391.got.cif
#   From: 2010.05.17/outbox.cif.g08.bks.cpg/sg10_7_cif.got.tgz:12391.got - 2010.06.03 11:33:40.
