data_PCOD9144573
_publ_section_title
;
Structure prediction by ZEFSAII (Michael W. Deem and Ramdas Pophale) SiO2 
 PCOD9144573
Probable space group: P 2/M
;
_chemical_formula_sum "Si O2"
_cell_formula_units_Z 30
_cell_length_a 25.976100
_cell_length_b 15.652141
_cell_length_c 23.330866
_cell_angle_alpha 90.000000
_cell_angle_beta 10.234471
_cell_angle_gamma 90.000000
_cell_volume 1685.424726
_symmetry_space_group_name_H-M "P 2/M"
_symmetry_group_IT_number 10
_symmetry_cell_setting 'monoclinic'
loop_
_space_group_symop_operation_xyz
x,y,z
-x,y,-z
-x,-y,-z
x,-y,z
loop_
_atom_site_type_symbol
_atom_site_label
_atom_site_fract_x
_atom_site_fract_y
_atom_site_fract_z
Si Si1 0.260952 0.405662 0.525664
Si Si2 0.814767 0.406375 0.525334
Si Si3 0.318603 0.683048 0.854053
Si Si4 0.670356 0.328977 0.871460
Si Si5 0.338298 0.401783 0.616913
Si Si6 0.339850 0.000000 0.114053
Si Si7 0.082111 0.774155 0.215270
Si Si8 0.563817 0.167208 0.067569
O O1 0.160521 0.500000 0.651417
O O2 0.296443 0.401408 0.418433
O O3 0.547434 0.384016 0.246696
O O4 0.993337 0.342501 0.829735
O O5 0.952442 0.500000 0.383002
O O6 0.014009 0.322230 0.314201
O O7 0.536556 0.396361 0.870381
O O8 0.543535 0.669878 0.556120
O O9 0.256635 0.762449 0.964403
O O10 0.000000 0.357191 0.500000
O O11 0.500000 0.306858 0.000000
O O12 0.672639 0.245057 0.908540
O O13 0.500000 0.395037 0.500000
O O14 0.389473 0.500000 0.538908
O O15 0.000000 0.393096 0.000000
O O16 0.000000 0.000000 0.500000
O O17 0.500000 0.000000 0.000000
O O18 0.413926 0.082491 0.994532
O O19 0.765765 0.813485 0.553526
O O20 0.248050 0.828278 0.081005
#
# Coordination Sequence:
#
# PCOD9144573 Si02
#       8
#     4   4   4   4   4   2   4   4
#     4  10  19  30  47  67  88 119 171 233 270 298
#     4   9  20  35  49  69  95 128 177 226 262 298
#     4  11  19  32  50  70  95 136 181 214 265 329
#     4  11  21  34  49  66  94 131 164 204 258 311
#     4  10  20  31  44  67 102 141 182 233 279 309
#     4  12  24  40  66  96 116 140 174 206 260 354
#     4  10  21  37  56  76 104 139 173 222 271 304
#     4  11  22  40  58  80 108 132 165 213 266 319
#
# _framework density 17.799666999999999
#
# number of rings (size 3 to 8) (size 9 to 14) (size 15 to 20)
#    0.000    1.600    0.000    7.600    0.000    3.733 
#    0.000    8.000    0.000    0.000    0.000    0.000 
#    0.000    0.000    0.000   12.000    0.000    0.000 
#
# Total GULP energy -167390.479195 kJ/mol
# GULP energy per Si atom -5579.682640 kJ/mol
# Density = 1.775915 g / cm^3
# Si number density = 17.799667 Si / 1000 Ang^3
#
#
#
# Elastic Constant Matrix: (Units=GPa)
#
#
# Indices 1 2 3 4 5 6 
#
# 1 72.9819 13.1805 33.3503 0.0000 3.7209 0.0000
# 2 13.1805 57.9912 5.8907 0.0000 5.5860 0.0000
# 3 33.3503 5.8907 91.9219 0.0000 4.7312 0.0000
# 4 0.0000 0.0000 0.0000 10.0185 0.0000 -5.0238
# 5 3.7209 5.5860 4.7312 0.0000 34.3745 0.0000
# 6 0.0000 0.0000 0.0000 -5.0238 0.0000 12.7202
#
#
#
# Elastic Compliance Matrix: (Units=1/GPa)
#
#
# Indices 1 2 3 4 5 6 
#
# 1 0.017025 -0.003217 -0.005945 0.000000 -0.000502 0.000000
# 2 -0.003217 0.018215 0.000135 0.000000 -0.002630 0.000000
# 3 -0.005945 0.000135 0.013088 0.000000 -0.001180 0.000000
# 4 0.000000 0.000000 0.000000 0.124465 0.000000 0.049157
# 5 -0.000502 -0.002630 -0.001180 0.000000 0.029735 0.000000
# 6 0.000000 0.000000 0.000000 0.049157 0.000000 0.098029
#
#
# Mechanical properties :
#
#
# Convention : Reuss Voigt Hill
#
# Bulk Modulus (GPa) = 33.03154 36.41533 34.72344
# Shear Modulus (GPa) = 15.21128 22.78753 18.99941
#
# Velocity S-wave (km/s) = 2.92650 3.58190 3.27066
# Velocity P-wave (km/s) = 5.47876 6.13266 5.81491
#
# Compressibility (1/GPa) = 0.03027409
#
# Stress axis : x y z
#
# Youngs Moduli (GPa) = 58.73614 54.90020 76.40735
#
# Poissons Ratio (x) = 0.17663 0.45424
# Poissons Ratio (y) = 0.18897 -0.01034
# Poissons Ratio (z) = 0.34918 -0.00743
#
# Static dielectric constant tensor:
#      x y z
#    x 1.636510 0.000000 0.018550 
#    y 0.000000 1.611600 0.000000 
#    z 0.018550 0.000000 1.633080 
# 
# From -- ./inp_files/91293.got.cif
#   From: 2010.05.17/outbox.cif.g08.bks.cpg/sg10_46_cif.got.tgz:91293.got - 2010.06.03 11:33:40.
