data_PCOD9144564
_publ_section_title
;
Structure prediction by ZEFSAII (Michael W. Deem and Ramdas Pophale) SiO2 
 PCOD9144564
Probable space group: P 2/M
;
_chemical_formula_sum "Si O2"
_cell_formula_units_Z 32
_cell_length_a 22.123385
_cell_length_b 7.642799
_cell_length_c 15.903073
_cell_angle_alpha 90.000000
_cell_angle_beta 33.330700
_cell_angle_gamma 90.000000
_cell_volume 1477.506876
_symmetry_space_group_name_H-M "P 2/M"
_symmetry_group_IT_number 10
_symmetry_cell_setting 'monoclinic'
loop_
_space_group_symop_operation_xyz
x,y,z
-x,y,-z
-x,-y,-z
x,-y,z
loop_
_atom_site_type_symbol
_atom_site_label
_atom_site_fract_x
_atom_site_fract_y
_atom_site_fract_z
Si Si1 0.572536 0.711435 0.121625
Si Si2 0.675412 0.794313 0.823834
Si Si3 0.903670 0.800525 0.352026
Si Si4 0.927043 0.786215 0.507128
Si Si5 0.896734 0.296177 0.171136
Si Si6 0.415241 0.713108 0.711882
Si Si7 0.662651 0.713525 0.376408
Si Si8 0.342849 0.700032 0.334009
O O1 0.569202 0.500000 0.124821
O O2 0.623451 0.769469 0.150827
O O3 0.445819 0.771717 0.264966
O O4 0.630096 0.765454 0.969016
O O5 0.802141 0.737360 0.673029
O O6 0.621903 0.703584 0.805061
O O7 0.668053 0.000000 0.814009
O O8 0.953045 0.725546 0.381795
O O9 0.920711 0.713235 0.242511
O O10 0.771864 0.797167 0.521697
O O11 0.940924 0.000000 0.300452
O O12 0.000000 0.725942 0.500000
O O13 0.932105 0.000000 0.498675
O O14 0.890287 0.500000 0.153882
O O15 0.774554 0.224166 0.291268
O O16 0.000000 0.218501 0.000000
O O17 0.415367 0.500000 0.710389
O O18 0.543040 0.767489 0.551054
O O19 0.343783 0.766138 0.714453
O O20 0.661543 0.500000 0.382852
O O21 0.321767 0.500000 0.384941
#
# Coordination Sequence:
#
# PCOD9144564 Si02
#       8
#     4   4   4   4   4   4   4   4
#     4  10  19  30  46  73 104 134 165 202 252 303
#     4  10  20  32  48  72 101 133 169 207 249 298
#     4  10  20  34  55  80 101 130 173 215 255 303
#     4   8  16  34  55  71  92 129 174 211 248 301
#     4  10  20  34  52  76 107 138 169 211 263 312
#     4   8  14  26  47  71  93 125 171 211 245 296
#     4   8  14  28  49  70  94 128 169 210 251 296
#     4  10  19  32  52  74 101 134 167 204 250 303
#
# _framework density 21.658107000000001
#
# number of rings (size 3 to 8) (size 9 to 14) (size 15 to 20)
#    0.000    2.750    0.000    3.750    0.000    4.750 
#    2.250    0.000    0.000   13.500    0.000    2.625 
#    0.000    0.000    0.000    0.000    0.000    0.000 
#
# Total GULP energy -178455.175084 kJ/mol
# GULP energy per Si atom -5576.724221 kJ/mol
# Density = 2.160881 g / cm^3
# Si number density = 21.658107 Si / 1000 Ang^3
#
#
#
# Elastic Constant Matrix: (Units=GPa)
#
#
# Indices 1 2 3 4 5 6 
#
# 1 135.4770 -2.2055 33.3449 0.0000 19.1860 0.0000
# 2 -2.2055 38.1428 -5.6607 0.0000 -4.6659 0.0000
# 3 33.3449 -5.6607 59.3380 0.0000 23.1606 0.0000
# 4 0.0000 0.0000 0.0000 -715.6064 0.0000 -616.6317
# 5 19.1860 -4.6659 23.1606 0.0000 30.5004 0.0000
# 6 0.0000 0.0000 0.0000 -616.6317 0.0000 -517.5133
#
#
#
# Elastic Compliance Matrix: (Units=1/GPa)
#
#
# Indices 1 2 3 4 5 6 
#
# 1 0.008704 -0.000392 -0.003934 0.000000 -0.002548 0.000000
# 2 -0.000392 0.026812 0.001536 0.000000 0.003182 0.000000
# 3 -0.003934 0.001536 0.025799 0.000000 -0.016881 0.000000
# 4 0.000000 0.000000 0.000000 0.052280 0.000000 -0.062293
# 5 -0.002548 0.003182 -0.016881 0.000000 0.047694 0.000000
# 6 0.000000 0.000000 0.000000 -0.062293 0.000000 0.072292
#
#
# Mechanical properties :
#
#
# Convention : Reuss Voigt Hill
#
# Bulk Modulus (GPa) = 17.94228 31.54615 24.74421
# Shear Modulus (GPa) = 19.39948 -226.69191 -103.64622
#
# Velocity S-wave (km/s) = 2.99610 -10.24186 -6.92528
# Velocity P-wave (km/s) = 4.50234 11.19213 7.24543
#
# Compressibility (1/GPa) = 0.05573429
#
# Stress axis : x y z
#
# Youngs Moduli (GPa) = 114.88866 37.29705 38.76146
#
# Poissons Ratio (x) = 0.01463 0.15250
# Poissons Ratio (y) = 0.04506 -0.05955
# Poissons Ratio (z) = 0.45200 -0.05730
#
# Static dielectric constant tensor:
#      x y z
#    x 1.815260 0.000000 0.019630 
#    y 0.000000 1.827440 0.000000 
#    z 0.019630 0.000000 1.781840 
# 
# From -- ./inp_files/69956.got.cif
#   From: 2010.05.17/outbox.cif.g08.bks.cpg/sg10_35_cif.got.tgz:69956.got - 2010.06.03 11:33:40.
