data_PCOD9144694
_publ_section_title
;
Structure prediction by ZEFSAII (Michael W. Deem and Ramdas Pophale) SiO2 
 PCOD9144694
Probable space group: P 2/M
;
_chemical_formula_sum "Si O2"
_cell_formula_units_Z 28
_cell_length_a 8.899039
_cell_length_b 34.302094
_cell_length_c 5.127023
_cell_angle_alpha 90.000000
_cell_angle_beta 119.325687
_cell_angle_gamma 90.000000
_cell_volume 1364.490991
_symmetry_space_group_name_H-M "P 2/M"
_symmetry_group_IT_number 10
_symmetry_cell_setting 'monoclinic'
loop_
_space_group_symop_operation_xyz
x,y,z
-x,y,-z
-x,-y,-z
x,-y,z
loop_
_atom_site_type_symbol
_atom_site_label
_atom_site_fract_x
_atom_site_fract_y
_atom_site_fract_z
Si Si1 0.706460 0.752555 0.142200
Si Si2 0.697547 0.456007 0.581812
Si Si3 0.293782 0.205613 0.356858
Si Si4 0.123038 0.673541 0.853399
Si Si5 0.874751 0.958201 0.643159
Si Si6 0.816314 0.412907 0.192544
Si Si7 0.123836 0.126529 0.355439
O O1 0.773282 0.763227 0.486824
O O2 0.754318 0.710695 0.067391
O O3 0.500000 0.754898 0.000000
O O4 0.773354 0.783981 0.987884
O O5 0.500000 0.458023 0.500000
O O6 0.761491 0.500000 0.583120
O O7 0.699527 0.431048 0.319183
O O8 0.800968 0.437066 0.911831
O O9 0.500000 0.208553 0.500000
O O10 0.246987 0.163262 0.424257
O O11 0.217774 0.631925 0.913279
O O12 0.000000 0.675996 0.500000
O O13 0.000000 0.673965 0.000000
O O14 0.784309 0.916029 0.558434
O O15 0.000000 0.958333 0.500000
O O16 0.778334 0.000000 0.562375
O O17 0.000000 0.958144 0.000000
O O18 0.000000 0.414271 0.500000
O O19 0.000000 0.130443 0.500000
O O20 0.000000 0.126550 0.000000
#
# Coordination Sequence:
#
# PCOD9144694 Si02
#       7
#     4   4   4   4   4   4   4
#     4  10  22  38  56  78 104 140 180 213 259 322
#     4  11  24  41  62  90 121 153 192 235 275 319
#     4  10  21  36  51  73 107 138 168 213 265 314
#     4  11  23  40  60  84 113 142 178 227 273 314
#     4   8  14  25  41  64  94 124 158 206 256 299
#     4  11  23  41  62  88 120 152 188 229 280 337
#     4  10  19  30  49  75  98 128 173 214 253 309
#
# _framework density 20.520472000000002
#
# number of rings (size 3 to 8) (size 9 to 14) (size 15 to 20)
#    0.000    1.857    0.000    4.714    0.000    7.429 
#    0.000    1.429    0.000    0.429    0.000    0.000 
#    0.000   14.857    0.000    0.000    0.000    2.286 
#
# Total GULP energy -156179.151739 kJ/mol
# GULP energy per Si atom -5577.826848 kJ/mol
# Density = 2.047377 g / cm^3
# Si number density = 20.520472 Si / 1000 Ang^3
#
#
#
# Elastic Constant Matrix: (Units=GPa)
#
#
# Indices 1 2 3 4 5 6 
#
# 1 58.4532 51.6692 30.0188 0.0000 -38.2641 0.0000
# 2 51.6692 172.0225 21.7258 0.0000 -31.4143 0.0000
# 3 30.0188 21.7258 99.7674 0.0000 -42.0577 0.0000
# 4 0.0000 0.0000 0.0000 32.8906 0.0000 -2.4807
# 5 -38.2641 -31.4143 -42.0577 0.0000 38.4301 0.0000
# 6 0.0000 0.0000 0.0000 -2.4807 0.0000 29.8949
#
#
#
# Elastic Compliance Matrix: (Units=1/GPa)
#
#
# Indices 1 2 3 4 5 6 
#
# 1 0.064194 -0.007880 0.012308 0.000000 0.070945 0.000000
# 2 -0.007880 0.007943 0.000132 0.000000 -0.001210 0.000000
# 3 0.012308 0.000132 0.021355 0.000000 0.035733 0.000000
# 4 0.000000 0.000000 0.000000 0.030595 0.000000 0.002539
# 5 0.070945 -0.001210 0.035733 0.000000 0.134778 0.000000
# 6 0.000000 0.000000 0.000000 0.002539 0.000000 0.033661
#
#
# Mechanical properties :
#
#
# Convention : Reuss Voigt Hill
#
# Bulk Modulus (GPa) = 9.74556 59.67453 34.71004
# Shear Modulus (GPa) = 15.74259 35.36507 25.55383
#
# Velocity S-wave (km/s) = 2.77278 4.15589 3.53269
# Velocity P-wave (km/s) = 3.87435 7.22303 5.79581
#
# Compressibility (1/GPa) = 0.10261085
#
# Stress axis : x y z
#
# Youngs Moduli (GPa) = 15.57783 125.90345 46.82760
#
# Poissons Ratio (x) = 0.99213 -0.57637
# Poissons Ratio (y) = 0.12276 -0.00616
# Poissons Ratio (z) = -0.19174 -0.01656
#
# Static dielectric constant tensor:
#      x y z
#    x 1.739280 0.000000 -0.022770 
#    y 0.000000 1.798910 0.000000 
#    z -0.022770 0.000000 1.735600 
# 
# From -- ./inp_files/5474.got.cif
#   From: 2010.05.17/outbox.cif.g08.bks.cpg/sg10_3_cif.got.tgz:5474.got - 2010.06.03 11:33:40.
