data_PCOD9144929
_publ_section_title
;
Structure prediction by ZEFSAII (Michael W. Deem and Ramdas Pophale) SiO2 
 PCOD9144929
Probable space group: P 2/M
;
_chemical_formula_sum "Si O2"
_cell_formula_units_Z 28
_cell_length_a 18.951794
_cell_length_b 8.190713
_cell_length_c 9.854246
_cell_angle_alpha 90.000000
_cell_angle_beta 95.266945
_cell_angle_gamma 90.000000
_cell_volume 1523.203347
_symmetry_space_group_name_H-M "P 2/M"
_symmetry_group_IT_number 10
_symmetry_cell_setting 'monoclinic'
loop_
_space_group_symop_operation_xyz
x,y,z
-x,y,-z
-x,-y,-z
x,-y,z
loop_
_atom_site_type_symbol
_atom_site_label
_atom_site_fract_x
_atom_site_fract_y
_atom_site_fract_z
Si Si1 0.445038 0.802699 0.800909
Si Si2 0.399110 0.803488 0.090478
Si Si3 0.701265 0.304002 0.707344
Si Si4 0.854771 0.302426 0.643379
Si Si5 0.010823 0.806017 0.156748
Si Si6 0.928820 0.310006 0.394879
Si Si7 0.578869 0.305848 0.488818
O O1 0.527756 0.749255 0.822873
O O2 0.407137 0.726984 0.665782
O O3 0.444604 0.000000 0.791728
O O4 0.409097 0.755865 0.936143
O O5 0.330015 0.737233 0.151372
O O6 0.398190 0.000000 0.095940
O O7 0.703983 0.500000 0.694529
O O8 0.779379 0.242779 0.685529
O O9 0.641114 0.238653 0.593753
O O10 0.853848 0.500000 0.634101
O O11 0.918154 0.259649 0.757774
O O12 0.871650 0.242035 0.492657
O O13 0.947792 0.767923 0.253432
O O14 0.017839 0.000000 0.149657
O O15 0.000000 0.743556 0.000000
O O16 0.913249 0.500000 0.365559
O O17 0.000000 0.302649 0.500000
O O18 0.500000 0.235809 0.500000
O O19 0.575426 0.500000 0.513499
#
# Coordination Sequence:
#
# PCOD9144929 Si02
#       7
#     4   4   4   4   4   4   4
#     4   9  18  32  49  69  94 126 167 211 252 300
#     4   9  18  32  49  70  96 128 166 208 253 299
#     4  10  20  34  51  73 102 132 166 208 255 301
#     4   9  19  35  53  74 101 134 169 205 245 295
#     4  10  20  33  52  80 108 132 161 201 245 290
#     4   8  15  30  52  75  99 130 167 201 236 285
#     4  10  19  31  48  73 100 127 163 211 258 296
#
# _framework density 18.382311000000001
#
# number of rings (size 3 to 8) (size 9 to 14) (size 15 to 20)
#    0.000    2.714    1.429    2.143    0.000    5.714 
#    0.000    2.857    0.000    5.143    0.000    0.000 
#    0.000    0.000    0.000    0.000    0.000    0.000 
#
# Total GULP energy -155965.722650 kJ/mol
# GULP energy per Si atom -5570.204380 kJ/mol
# Density = 1.834047 g / cm^3
# Si number density = 18.382311 Si / 1000 Ang^3
#
#
#
# Elastic Constant Matrix: (Units=GPa)
#
#
# Indices 1 2 3 4 5 6 
#
# 1 115.3694 10.8820 59.1059 0.0000 -31.0931 0.0000
# 2 10.8820 6.6462 3.5441 0.0000 -1.8490 0.0000
# 3 59.1059 3.5441 120.8827 0.0000 -19.3777 0.0000
# 4 0.0000 0.0000 0.0000 27.7590 0.0000 -7.2114
# 5 -31.0931 -1.8490 -19.3777 0.0000 27.0595 0.0000
# 6 0.0000 0.0000 0.0000 -7.2114 0.0000 16.1477
#
#
#
# Elastic Compliance Matrix: (Units=1/GPa)
#
#
# Indices 1 2 3 4 5 6 
#
# 1 0.017516 -0.021627 -0.005582 0.000000 0.014652 0.000000
# 2 -0.021627 0.181171 0.003687 0.000000 -0.009831 0.000000
# 3 -0.005582 0.003687 0.011190 0.000000 0.001852 0.000000
# 4 0.000000 0.000000 0.000000 0.040752 0.000000 0.018200
# 5 0.014652 -0.009831 0.001852 0.000000 0.054446 0.000000
# 6 0.000000 0.000000 0.000000 0.018200 0.000000 0.070056
#
#
# Mechanical properties :
#
#
# Convention : Reuss Voigt Hill
#
# Bulk Modulus (GPa) = 6.14124 43.32916 24.73520
# Shear Modulus (GPa) = 10.49419 25.48432 17.98926
#
# Velocity S-wave (km/s) = 2.39191 3.72741 3.13168
# Velocity P-wave (km/s) = 3.31307 6.49208 5.15381
#
# Compressibility (1/GPa) = 0.16283352
#
# Stress axis : x y z
#
# Youngs Moduli (GPa) = 57.08953 5.51966 89.36196
#
# Poissons Ratio (x) = 0.11937 0.49880
# Poissons Ratio (y) = 1.23468 -0.32947
# Poissons Ratio (z) = 0.31866 -0.02035
#
# Static dielectric constant tensor:
#      x y z
#    x 1.647440 0.000000 -0.026510 
#    y 0.000000 1.646670 0.000000 
#    z -0.026510 0.000000 1.658230 
# 
# From -- ./inp_files/33478.got.cif
#   From: 2010.05.17/outbox.cif.g08.bks.cpg/sg10_17_cif.got.tgz:33478.got - 2010.06.03 11:33:40.
