data_PCOD9144622
_publ_section_title
;
Structure prediction by ZEFSAII (Michael W. Deem and Ramdas Pophale) SiO2 
 PCOD9144622
Probable space group: P 2/M
;
_chemical_formula_sum "Si O2"
_cell_formula_units_Z 32
_cell_length_a 12.575959
_cell_length_b 9.071311
_cell_length_c 24.092198
_cell_angle_alpha 90.000000
_cell_angle_beta 133.723285
_cell_angle_gamma 90.000000
_cell_volume 1986.266061
_symmetry_space_group_name_H-M "P 2/M"
_symmetry_group_IT_number 10
_symmetry_cell_setting 'monoclinic'
loop_
_space_group_symop_operation_xyz
x,y,z
-x,y,-z
-x,-y,-z
x,-y,z
loop_
_atom_site_type_symbol
_atom_site_label
_atom_site_fract_x
_atom_site_fract_y
_atom_site_fract_z
Si Si1 0.454694 0.324793 0.419892
Si Si2 0.114133 0.324131 0.308741
Si Si3 0.314831 0.824395 0.578108
Si Si4 0.373743 0.330074 0.002210
Si Si5 0.941285 0.675015 0.582035
Si Si6 0.588503 0.824741 0.160370
Si Si7 0.836673 0.825306 0.155651
Si Si8 0.287661 0.324465 0.685925
O O1 0.500000 0.296058 0.500000
O O2 0.479085 0.500000 0.418951
O O3 0.281540 0.293394 0.351901
O O4 0.555679 0.232511 0.415252
O O5 0.088446 0.500000 0.294563
O O6 0.094265 0.287568 0.366808
O O7 0.993312 0.239179 0.229625
O O8 0.163392 0.765718 0.496228
O O9 0.331087 0.751862 0.644254
O O10 0.313735 0.000000 0.581428
O O11 0.344941 0.500000 0.006147
O O12 0.234267 0.253684 0.923241
O O13 0.500000 0.328314 0.000000
O O14 0.444713 0.241790 0.078753
O O15 0.910923 0.500000 0.563430
O O16 0.112989 0.700403 0.632516
O O17 0.724485 0.798339 0.166741
O O18 0.626737 0.744876 0.231335
O O19 0.574432 0.000000 0.162656
O O20 0.842828 0.000000 0.148936
O O21 0.311275 0.500000 0.691949
#
# Coordination Sequence:
#
# PCOD9144622 Si02
#       8
#     4   4   4   4   4   4   4   4
#     4  10  20  38  59  75  97 133 177 221 262 308
#     4  10  19  33  55  78 101 134 177 217 257 308
#     4  12  25  37  52  75 105 136 174 221 267 311
#     4   9  17  29  47  70 100 139 179 210 245 303
#     4  10  20  36  55  75 101 137 178 215 256 309
#     4  10  19  31  48  74 108 139 169 209 262 310
#     4  10  19  30  47  74 109 139 167 210 263 312
#     4  11  22  36  55  75 102 140 181 215 252 310
#
# _framework density 16.110631000000001
#
# number of rings (size 3 to 8) (size 9 to 14) (size 15 to 20)
#    0.000    1.750    2.500    3.000    0.000    6.250 
#    0.000    0.000    0.000    0.000    0.000    0.875 
#    0.000    7.000    0.000    0.000    0.000    0.000 
#
# Total GULP energy -178698.285964 kJ/mol
# GULP energy per Si atom -5584.321436 kJ/mol
# Density = 1.607396 g / cm^3
# Si number density = 16.110631 Si / 1000 Ang^3
#
#
#
# Elastic Constant Matrix: (Units=GPa)
#
#
# Indices 1 2 3 4 5 6 
#
# 1 52.9571 49.9483 53.0703 0.0000 -13.0673 0.0000
# 2 49.9483 97.4747 92.9292 0.0000 -6.7281 0.0000
# 3 53.0703 92.9292 159.2393 0.0000 -0.6918 0.0000
# 4 0.0000 0.0000 0.0000 -11.8071 0.0000 -26.0200
# 5 -13.0673 -6.7281 -0.6918 0.0000 17.2355 0.0000
# 6 0.0000 0.0000 0.0000 -26.0200 0.0000 2.4591
#
#
#
# Elastic Compliance Matrix: (Units=1/GPa)
#
#
# Indices 1 2 3 4 5 6 
#
# 1 0.048229 -0.016814 -0.006132 0.000000 0.029756 0.000000
# 2 -0.016814 0.030299 -0.012084 0.000000 -0.001405 0.000000
# 3 -0.006132 -0.012084 0.015338 0.000000 -0.008751 0.000000
# 4 0.000000 0.000000 0.000000 -0.003483 0.000000 -0.036852
# 5 0.029756 -0.001405 -0.008751 0.000000 0.079680 0.000000
# 6 0.000000 0.000000 0.000000 -0.036852 0.000000 0.016722
#
#
# Mechanical properties :
#
#
# Convention : Reuss Voigt Hill
#
# Bulk Modulus (GPa) = 42.00757 77.95186 59.97971
# Shear Modulus (GPa) = 18.88364 9.15905 14.02134
#
# Velocity S-wave (km/s) = 3.42734 2.38693 2.95331
# Velocity P-wave (km/s) = 6.46477 7.48912 6.99572
#
# Compressibility (1/GPa) = 0.02380523
#
# Stress axis : x y z
#
# Youngs Moduli (GPa) = 20.73436 33.00487 65.19939
#
# Poissons Ratio (x) = 0.55494 0.39980
# Poissons Ratio (y) = 0.34862 0.78788
# Poissons Ratio (z) = 0.12714 0.39884
#
# Static dielectric constant tensor:
#      x y z
#    x 1.518650 0.000000 0.002380 
#    y 0.000000 1.533780 0.000000 
#    z 0.002380 0.000000 1.520630 
# 
# From -- ./inp_files/55245.got.cif
#   From: 2010.05.17/outbox.cif.g08.bks.cpg/sg10_28_cif.got.tgz:55245.got - 2010.06.03 11:33:40.
