data_PCOD9144836
_publ_section_title
;
Structure prediction by ZEFSAII (Michael W. Deem and Ramdas Pophale) SiO2 
 PCOD9144836
Probable space group: P 2/M
;
_chemical_formula_sum "Si O2"
_cell_formula_units_Z 32
_cell_length_a 12.973085
_cell_length_b 8.911238
_cell_length_c 21.762484
_cell_angle_alpha 90.000000
_cell_angle_beta 126.592583
_cell_angle_gamma 90.000000
_cell_volume 2019.985889
_symmetry_space_group_name_H-M "P 2/M"
_symmetry_group_IT_number 10
_symmetry_cell_setting 'monoclinic'
loop_
_space_group_symop_operation_xyz
x,y,z
-x,y,-z
-x,-y,-z
x,-y,z
loop_
_atom_site_type_symbol
_atom_site_label
_atom_site_fract_x
_atom_site_fract_y
_atom_site_fract_z
Si Si1 0.625180 0.826826 0.500000
Si Si2 0.614404 0.180077 0.814092
Si Si3 0.217840 0.679144 0.340176
Si Si4 0.986222 0.819923 0.185908
Si Si5 0.537488 0.679144 0.659824
Si Si6 0.708795 0.319783 0.088592
Si Si7 0.912335 0.817568 0.912336
Si Si8 0.468389 0.319783 0.088592
O O1 0.500000 0.823881 0.500000
O O2 0.734712 0.744650 0.578018
O O3 0.578675 0.744650 0.421982
O O4 0.657825 0.000000 0.500000
O O5 0.548210 0.248322 0.730390
O O6 0.764390 0.228432 0.866555
O O7 0.552113 0.238200 0.854642
O O8 0.610171 0.000000 0.809695
O O9 0.207051 0.500000 0.339836
O O10 0.087430 0.751678 0.269610
O O11 0.330781 0.714916 0.330781
O O12 0.031282 0.771568 0.133446
O O13 0.842829 0.761800 0.145357
O O14 0.990781 0.000000 0.190305
O O15 0.527379 0.500000 0.660164
O O16 0.727005 0.500000 0.095540
O O17 0.602623 0.283807 0.102622
O O18 0.643611 0.279821 1.000000
O O19 0.914074 0.000000 0.914075
O O20 0.000000 0.764421 0.000000
O O21 0.464076 0.500000 0.095540
#
# Coordination Sequence:
#
# PCOD9144836 Si02
#       8
#     4   4   4   4   4   4   4   4
#     4   9  17  29  47  69  96 129 166 203 245 290
#     4  11  20  31  49  72 101 132 166 206 249 295
#     4  10  19  31  47  69 100 134 168 202 242 294
#     4  11  20  31  49  72 101 132 166 206 249 295
#     4  10  19  31  47  69 100 134 168 202 242 294
#     4   9  19  36  54  71  95 128 167 212 258 300
#     4   9  18  30  43  64  97 132 161 195 244 295
#     4   9  19  36  54  71  95 128 167 212 258 300
#
# _framework density 15.841694
#
# number of rings (size 3 to 8) (size 9 to 14) (size 15 to 20)
#    0.000    2.250    1.250    3.375    0.000    4.500 
#    0.000    1.250    0.000    3.000    0.000    0.875 
#    0.000    7.000    0.000    0.000    0.000    0.000 
#
# Total GULP energy -178537.252362 kJ/mol
# GULP energy per Si atom -5579.289136 kJ/mol
# Density = 1.580564 g / cm^3
# Si number density = 15.841694 Si / 1000 Ang^3
#
#
#
# Elastic Constant Matrix: (Units=GPa)
#
#
# Indices 1 2 3 4 5 6 
#
# 1 70.8850 43.1218 73.7717 0.0000 -1.9028 0.0000
# 2 43.1218 58.9336 65.2501 0.0000 -1.0310 0.0000
# 3 73.7717 65.2501 175.3744 0.0000 -2.9647 0.0000
# 4 0.0000 0.0000 0.0000 28.3788 0.0000 -0.2633
# 5 -1.9028 -1.0310 -2.9647 0.0000 19.0301 0.0000
# 6 0.0000 0.0000 0.0000 -0.2633 0.0000 22.7229
#
#
#
# Elastic Compliance Matrix: (Units=1/GPa)
#
#
# Indices 1 2 3 4 5 6 
#
# 1 0.030545 -0.013817 -0.007689 0.000000 0.001108 0.000000
# 2 -0.013817 0.035105 -0.007259 0.000000 -0.000611 0.000000
# 3 -0.007689 -0.007259 0.011649 0.000000 0.000653 0.000000
# 4 0.000000 0.000000 0.000000 0.035241 0.000000 0.000408
# 5 0.001108 -0.000611 0.000653 0.000000 0.052728 0.000000
# 6 0.000000 0.000000 0.000000 0.000408 0.000000 0.044013
#
#
# Mechanical properties :
#
#
# Convention : Reuss Voigt Hill
#
# Bulk Modulus (GPa) = 50.58902 74.38668 62.48785
# Shear Modulus (GPa) = 18.28819 22.22966 20.25892
#
# Velocity S-wave (km/s) = 3.40138 3.75004 3.57996
# Velocity P-wave (km/s) = 6.88689 8.11225 7.52456
#
# Compressibility (1/GPa) = 0.01976713
#
# Stress axis : x y z
#
# Youngs Moduli (GPa) = 32.73884 28.48609 85.84731
#
# Poissons Ratio (x) = 0.39359 0.66010
# Poissons Ratio (y) = 0.45235 0.62320
# Poissons Ratio (z) = 0.25174 0.20679
#
# Static dielectric constant tensor:
#      x y z
#    x 1.505760 0.000000 -0.000480 
#    y 0.000000 1.525000 0.000000 
#    z -0.000480 0.000000 1.516180 
# 
# From -- ./inp_files/49968.got.cif
#   From: 2010.05.17/outbox.cif.g08.bks.cpg/sg10_25_cif.got.tgz:49968.got - 2010.06.03 11:33:40.
