data_PCOD9144257
_publ_section_title
;
Structure prediction by ZEFSAII (Michael W. Deem and Ramdas Pophale) SiO2 
 PCOD9144257
Probable space group: P 2/M
;
_chemical_formula_sum "Si O2"
_cell_formula_units_Z 24
_cell_length_a 4.925692
_cell_length_b 20.640000
_cell_length_c 11.933691
_cell_angle_alpha 90.000000
_cell_angle_beta 54.114961
_cell_angle_gamma 90.000000
_cell_volume 982.971996
_symmetry_space_group_name_H-M "P 2/M"
_symmetry_group_IT_number 10
_symmetry_cell_setting 'monoclinic'
loop_
_space_group_symop_operation_xyz
x,y,z
-x,y,-z
-x,-y,-z
x,-y,z
loop_
_atom_site_type_symbol
_atom_site_label
_atom_site_fract_x
_atom_site_fract_y
_atom_site_fract_z
Si Si1 0.569065 0.291432 0.184299
Si Si2 0.086427 0.074112 0.847218
Si Si3 0.651546 0.844336 0.792427
Si Si4 0.298032 0.572007 0.649358
Si Si5 0.853089 0.741120 0.356201
Si Si6 0.544486 0.426149 0.834485
O O1 0.552476 0.221894 0.124699
O O2 0.789430 0.278916 0.241601
O O3 0.639669 0.357258 0.099253
O O4 0.177896 0.298883 0.319085
O O5 0.421923 0.117198 0.761276
O O6 0.785048 0.107663 0.854280
O O7 0.132510 0.000000 0.799914
O O8 0.000000 0.074420 0.000000
O O9 0.994106 0.812657 0.665065
O O10 0.500000 0.605924 0.500000
O O11 0.230725 0.500000 0.621050
O O12 0.525013 0.571497 0.704028
O O13 0.923377 0.586361 0.781731
O O14 0.500000 0.737966 0.500000
O O15 0.433419 0.500000 0.896290
#
# Coordination Sequence:
#
# PCOD9144257 Si02
#       6
#     4   4   4   4   4   4
#     4  10  20  32  50  72 103 150 194 234 273 307
#     4  11  22  38  64  94 118 137 159 201 276 351
#     4  10  20  38  55  83 117 150 177 220 256 323
#     4   9  17  26  35  51  81 120 162 221 283 319
#     4  10  20  34  54  74 103 155 203 233 256 300
#     4  10  19  29  41  62  93 131 183 234 278 316
#
# _framework density 24.415749999999999
#
# number of rings (size 3 to 8) (size 9 to 14) (size 15 to 20)
#    1.000    1.000    1.667    3.000    0.000    7.333 
#    0.000    0.000    0.000    3.000    0.000    0.000 
#    0.000    4.000    0.000    0.000    0.000    0.000 
#
# Total GULP energy -133636.896557 kJ/mol
# GULP energy per Si atom -5568.204023 kJ/mol
# Density = 2.436018 g / cm^3
# Si number density = 24.415750 Si / 1000 Ang^3
#
#
#
# Elastic Constant Matrix: (Units=GPa)
#
#
# Indices 1 2 3 4 5 6 
#
# 1 156.5193 48.7957 26.0644 0.0000 -8.9272 0.0000
# 2 48.7957 226.8434 13.8762 0.0000 -9.2100 0.0000
# 3 26.0644 13.8762 45.9861 0.0000 -13.7517 0.0000
# 4 0.0000 0.0000 0.0000 -5.9296 0.0000 5.6244
# 5 -8.9272 -9.2100 -13.7517 0.0000 38.5975 0.0000
# 6 0.0000 0.0000 0.0000 5.6244 0.0000 30.6120
#
#
#
# Elastic Compliance Matrix: (Units=1/GPa)
#
#
# Indices 1 2 3 4 5 6 
#
# 1 0.007450 -0.001369 -0.003797 0.000000 0.000044 0.000000
# 2 -0.001369 0.004758 -0.000465 0.000000 0.000653 0.000000
# 3 -0.003797 -0.000465 0.026573 0.000000 0.008479 0.000000
# 4 0.000000 0.000000 0.000000 -0.143617 0.000000 0.026387
# 5 0.000044 0.000653 0.008479 0.000000 0.029095 0.000000
# 6 0.000000 0.000000 0.000000 0.026387 0.000000 0.027819
#
#
# Mechanical properties :
#
#
# Convention : Reuss Voigt Hill
#
# Bulk Modulus (GPa) = 36.33511 67.42462 51.87987
# Shear Modulus (GPa) = -181.89945 35.36347 -73.26799
#
# Velocity S-wave (km/s) = -8.64075 3.80990 -5.48394
# Velocity P-wave (km/s) = 9.19978 6.85776 4.33630
#
# Compressibility (1/GPa) = 0.02752159
#
# Stress axis : x y z
#
# Youngs Moduli (GPa) = 134.22076 210.18720 37.63177
#
# Poissons Ratio (x) = 0.28766 0.14288
# Poissons Ratio (y) = 0.18370 0.01748
# Poissons Ratio (z) = 0.50960 0.09765
#
# Static dielectric constant tensor:
#      x y z
#    x 1.886720 0.000000 -0.032050 
#    y 0.000000 2.076300 0.000000 
#    z -0.032050 0.000000 2.010280 
# 
# From -- ./inp_files/73609.got.cif
#   From: 2010.05.17/outbox.cif.g08.bks.cpg/sg10_37_cif.got.tgz:73609.got - 2010.06.03 11:33:40.
