data_PCOD9144821
_publ_section_title
;
Structure prediction by ZEFSAII (Michael W. Deem and Ramdas Pophale) SiO2 
 PCOD9144821
Probable space group: P 2/M
;
_chemical_formula_sum "Si O2"
_cell_formula_units_Z 20
_cell_length_a 13.094765
_cell_length_b 7.508176
_cell_length_c 14.828690
_cell_angle_alpha 90.000000
_cell_angle_beta 45.442916
_cell_angle_gamma 90.000000
_cell_volume 1038.846466
_symmetry_space_group_name_H-M "P 2/M"
_symmetry_group_IT_number 10
_symmetry_cell_setting 'monoclinic'
loop_
_space_group_symop_operation_xyz
x,y,z
-x,y,-z
-x,-y,-z
x,-y,z
loop_
_atom_site_type_symbol
_atom_site_label
_atom_site_fract_x
_atom_site_fract_y
_atom_site_fract_z
Si Si1 0.040630 0.784004 0.696014
Si Si2 0.103800 0.290327 0.859176
Si Si3 0.143511 0.206976 0.348878
Si Si4 0.422263 0.710331 0.637314
Si Si5 0.687017 0.784502 0.591237
O O1 0.037005 0.727229 0.801220
O O2 0.190616 0.726424 0.556334
O O3 0.910947 0.718354 0.712461
O O4 0.039387 0.000000 0.693715
O O5 0.120206 0.500000 0.869998
O O6 0.264869 0.213942 0.753619
O O7 0.000000 0.213716 0.000000
O O8 0.265184 0.282140 0.339427
O O9 0.000000 0.208956 0.500000
O O10 0.180720 0.000000 0.309588
O O11 0.500000 0.786476 0.500000
O O12 0.402156 0.500000 0.632273
O O13 0.532685 0.731162 0.650787
O O14 0.693167 0.000000 0.589874
#
# Coordination Sequence:
#
# PCOD9144821 Si02
#       5
#     4   4   4   4   4
#     4   9  16  28  48  71  95 121 152 190 227 269
#     4  10  21  35  48  64  92 128 158 187 230 277
#     4   7  12  24  42  67  96 121 144 180 231 273
#     4  10  19  31  47  67  93 122 153 193 233 267
#     4   9  16  27  47  73  97 120 149 186 230 277
#
# _framework density 19.252123999999998
#
# number of rings (size 3 to 8) (size 9 to 14) (size 15 to 20)
#    0.000    3.000    2.000    2.400    0.000    1.600 
#    0.000    1.000    0.000    4.800    0.000    8.400 
#    0.000    0.000    0.000    0.000    0.000    0.000 
#
# Total GULP energy -111424.614593 kJ/mol
# GULP energy per Si atom -5571.230730 kJ/mol
# Density = 1.920831 g / cm^3
# Si number density = 19.252124 Si / 1000 Ang^3
#
#
#
# Elastic Constant Matrix: (Units=GPa)
#
#
# Indices 1 2 3 4 5 6 
#
# 1 166.6951 -14.6376 86.3302 0.0000 3.6035 0.0000
# 2 -14.6376 48.8059 10.1372 0.0000 -8.6607 0.0000
# 3 86.3302 10.1372 120.1576 0.0000 2.7281 0.0000
# 4 0.0000 0.0000 0.0000 10.0040 0.0000 5.9810
# 5 3.6035 -8.6607 2.7281 0.0000 15.1229 0.0000
# 6 0.0000 0.0000 0.0000 5.9810 0.0000 26.4059
#
#
#
# Elastic Compliance Matrix: (Units=1/GPa)
#
#
# Indices 1 2 3 4 5 6 
#
# 1 0.010615 0.005208 -0.008109 0.000000 0.001916 0.000000
# 2 0.005208 0.025973 -0.006268 0.000000 0.014764 0.000000
# 3 -0.008109 -0.006268 0.014776 0.000000 -0.004323 0.000000
# 4 0.000000 0.000000 0.000000 0.115616 0.000000 -0.026187
# 5 0.001916 0.014764 -0.004323 0.000000 0.074903 0.000000
# 6 0.000000 0.000000 0.000000 -0.026187 0.000000 0.043802
#
#
# Mechanical properties :
#
#
# Convention : Reuss Voigt Hill
#
# Bulk Modulus (GPa) = 30.28083 55.47980 42.88031
# Shear Modulus (GPa) = 15.87142 27.22848 21.54995
#
# Velocity S-wave (km/s) = 2.87435 3.76481 3.34931
# Velocity P-wave (km/s) = 5.17480 6.91220 6.10561
#
# Compressibility (1/GPa) = 0.03302420
#
# Stress axis : x y z
#
# Youngs Moduli (GPa) = 94.21067 38.50148 67.67934
#
# Poissons Ratio (x) = -0.20051 0.54882
# Poissons Ratio (y) = -0.49063 0.42422
# Poissons Ratio (z) = 0.76397 0.24133
#
# Static dielectric constant tensor:
#      x y z
#    x 1.707480 0.000000 0.005320 
#    y 0.000000 1.721680 0.000000 
#    z 0.005320 0.000000 1.651730 
# 
# From -- ./inp_files/23084.got.cif
#   From: 2010.05.17/outbox.cif.g08.bks.cpg/sg10_12_cif.got.tgz:23084.got - 2010.06.03 11:33:40.
