data_PCOD9144489
_publ_section_title
;
Structure prediction by ZEFSAII (Michael W. Deem and Ramdas Pophale) SiO2 
 PCOD9144489
Probable space group: P 2/M
;
_chemical_formula_sum "Si O2"
_cell_formula_units_Z 32
_cell_length_a 12.570783
_cell_length_b 8.282193
_cell_length_c 32.280881
_cell_angle_alpha 90.000000
_cell_angle_beta 149.505515
_cell_angle_gamma 90.000000
_cell_volume 1705.496979
_symmetry_space_group_name_H-M "P 2/M"
_symmetry_group_IT_number 10
_symmetry_cell_setting 'monoclinic'
loop_
_space_group_symop_operation_xyz
x,y,z
-x,y,-z
-x,-y,-z
x,-y,z
loop_
_atom_site_type_symbol
_atom_site_label
_atom_site_fract_x
_atom_site_fract_y
_atom_site_fract_z
Si Si1 0.801173 0.304405 0.355097
Si Si2 0.000606 0.192224 0.727096
Si Si3 0.248885 0.313657 0.523078
Si Si4 0.294163 0.308479 0.298967
Si Si5 0.652086 0.193199 0.771291
Si Si6 0.214762 0.804625 0.093276
Si Si7 0.731443 0.813812 0.559630
Si Si8 0.664788 0.692092 0.217558
O O1 0.809772 0.500000 0.357512
O O2 0.588814 0.251302 0.306153
O O3 0.775472 0.249173 0.298148
O O4 0.012685 0.245546 0.449092
O O5 0.231482 0.242377 0.789751
O O6 0.883738 0.251100 0.728914
O O7 0.868129 0.251923 0.643100
O O8 0.987948 0.000000 0.723424
O O9 0.243242 0.500000 0.535551
O O10 0.469433 0.240226 0.612601
O O11 0.265210 0.299439 0.478859
O O12 0.309366 0.500000 0.308974
O O13 0.246158 0.263386 0.235775
O O14 0.763520 0.245010 0.851341
O O15 0.654645 0.000000 0.770160
O O16 0.423294 0.741748 0.140920
O O17 0.220086 0.000000 0.093890
O O18 0.000000 0.750006 0.000000
O O19 0.500000 0.823037 0.500000
O O20 0.793257 0.000000 0.569298
O O21 0.683375 0.500000 0.223771
#
# Coordination Sequence:
#
# PCOD9144489 Si02
#       8
#     4   4   4   4   4   4   4   4
#     4   9  18  33  51  72 102 139 180 226 269 310
#     4  11  21  33  51  75 107 145 184 225 269 314
#     4  10  20  32  48  70  99 141 188 229 268 310
#     4  11  23  36  51  72 104 148 190 225 264 312
#     4  10  21  37  56  78 105 137 174 216 265 320
#     4   9  19  38  64  90 112 135 166 207 261 325
#     4  10  19  30  45  69 100 136 181 235 277 304
#     4  10  19  32  54  84 114 140 173 218 267 315
#
# _framework density 18.762858999999999
#
# number of rings (size 3 to 8) (size 9 to 14) (size 15 to 20)
#    0.000    2.000    2.500    1.500    0.000    3.500 
#    0.000    2.500    0.000    0.750    0.000    5.250 
#    0.000    0.000    0.000    0.000    0.000    0.000 
#
# Total GULP energy -178422.875270 kJ/mol
# GULP energy per Si atom -5575.714852 kJ/mol
# Density = 1.872015 g / cm^3
# Si number density = 18.762859 Si / 1000 Ang^3
#
#
#
# Elastic Constant Matrix: (Units=GPa)
#
#
# Indices 1 2 3 4 5 6 
#
# 1 125.5063 11.4777 58.9852 0.0000 -3.7782 0.0000
# 2 11.4777 14.8492 14.4341 0.0000 -0.7402 0.0000
# 3 58.9852 14.4341 90.6346 0.0000 8.2129 0.0000
# 4 0.0000 0.0000 0.0000 19.3672 0.0000 -1.8089
# 5 -3.7782 -0.7402 8.2129 0.0000 13.8018 0.0000
# 6 0.0000 0.0000 0.0000 -1.8089 0.0000 30.2873
#
#
#
# Elastic Compliance Matrix: (Units=1/GPa)
#
#
# Indices 1 2 3 4 5 6 
#
# 1 0.012390 -0.000661 -0.008733 0.000000 0.008553 0.000000
# 2 -0.000661 0.081807 -0.013719 0.000000 0.012370 0.000000
# 3 -0.008733 -0.013719 0.020278 0.000000 -0.015193 0.000000
# 4 0.000000 0.000000 0.000000 0.051923 0.000000 0.003101
# 5 0.008553 0.012370 -0.015193 0.000000 0.084500 0.000000
# 6 0.000000 0.000000 0.000000 0.003101 0.000000 0.033202
#
#
# Mechanical properties :
#
#
# Convention : Reuss Voigt Hill
#
# Bulk Modulus (GPa) = 14.65231 44.53157 29.59194
# Shear Modulus (GPa) = 14.16122 22.43082 18.29602
#
# Velocity S-wave (km/s) = 2.75025 3.46134 3.12608
# Velocity P-wave (km/s) = 4.23218 6.30554 5.36988
#
# Compressibility (1/GPa) = 0.06824864
#
# Stress axis : x y z
#
# Youngs Moduli (GPa) = 80.70957 12.22393 49.31348
#
# Poissons Ratio (x) = 0.00809 0.43066
# Poissons Ratio (y) = 0.05339 0.67652
# Poissons Ratio (z) = 0.70485 0.16770
#
# Static dielectric constant tensor:
#      x y z
#    x 1.671980 0.000000 0.023910 
#    y 0.000000 1.665430 0.000000 
#    z 0.023910 0.000000 1.674570 
# 
# From -- ./inp_files/83600.got.cif
#   From: 2010.05.17/outbox.cif.g08.bks.cpg/sg10_42_cif.got.tgz:83600.got - 2010.06.03 11:33:40.
