data_PCOD9144982
_publ_section_title
;
Structure prediction by ZEFSAII (Michael W. Deem and Ramdas Pophale) SiO2 
 PCOD9144982
Probable space group: P 2/M
;
_chemical_formula_sum "Si O2"
_cell_formula_units_Z 32
_cell_length_a 20.657735
_cell_length_b 7.521618
_cell_length_c 21.002284
_cell_angle_alpha 90.000000
_cell_angle_beta 150.547877
_cell_angle_gamma 90.000000
_cell_volume 1604.564848
_symmetry_space_group_name_H-M "P 2/M"
_symmetry_group_IT_number 10
_symmetry_cell_setting 'monoclinic'
loop_
_space_group_symop_operation_xyz
x,y,z
-x,y,-z
-x,-y,-z
x,-y,z
loop_
_atom_site_type_symbol
_atom_site_label
_atom_site_fract_x
_atom_site_fract_y
_atom_site_fract_z
Si Si1 0.333304 0.283089 0.161296
Si Si2 0.625344 0.705436 0.943344
Si Si3 0.669049 0.788945 0.342082
Si Si4 0.147695 0.286085 0.616642
Si Si5 0.144752 0.289094 0.109598
Si Si6 0.644607 0.717977 0.100095
Si Si7 0.644602 0.784837 0.600821
Si Si8 0.366847 0.792370 0.549331
O O1 0.336460 0.500000 0.163508
O O2 0.324175 0.219176 0.080485
O O3 0.218788 0.220330 0.110067
O O4 0.474793 0.223353 0.309307
O O5 0.667140 0.500000 0.979750
O O6 0.466047 0.710767 0.802235
O O7 0.665815 0.781841 0.046038
O O8 0.788435 0.756613 0.396729
O O9 0.686286 0.718815 0.428994
O O10 0.645941 0.000000 0.326597
O O11 0.144362 0.500000 0.618488
O O12 0.246154 0.222582 0.756222
O O13 0.000000 0.219346 0.500000
O O14 0.129437 0.500000 0.085914
O O15 0.243684 0.264452 0.253280
O O16 0.000000 0.215193 0.000000
O O17 0.644872 0.500000 0.099240
O O18 0.500000 0.771564 0.000000
O O19 0.500000 0.723496 0.500000
O O20 0.671868 0.717601 0.552546
O O21 0.638893 0.000000 0.593543
O O22 0.330157 0.000000 0.516757
#
# Coordination Sequence:
#
# PCOD9144982 Si02
#       8
#     4   4   4   4   4   4   4   4
#     4   9  17  29  48  72  96 127 164 201 244 296
#     4   9  16  29  50  72  94 123 164 205 243 289
#     4  10  19  31  49  73 102 131 158 198 254 299
#     4  10  20  34  51  72  99 130 166 203 239 288
#     4  10  21  35  49  72 108 140 165 202 256 310
#     4   9  15  27  49  72  93 120 156 201 242 274
#     4  10  19  33  54  77  99 129 174 218 251 295
#     4   9  18  32  50  74 101 126 160 209 254 292
#
# _framework density 19.943102
#
# number of rings (size 3 to 8) (size 9 to 14) (size 15 to 20)
#    0.000    2.500    2.500    0.375    0.000    1.750 
#    0.000    2.500    0.000    3.000    0.000    0.000 
#    0.000    0.000    0.000    0.000    0.000    0.000 
#
# Total GULP energy -178516.608266 kJ/mol
# GULP energy per Si atom -5578.644008 kJ/mol
# Density = 1.989771 g / cm^3
# Si number density = 19.943102 Si / 1000 Ang^3
#
#
#
# Elastic Constant Matrix: (Units=GPa)
#
#
# Indices 1 2 3 4 5 6 
#
# 1 202.3927 -5.0481 92.1196 0.0000 -9.8910 0.0000
# 2 -5.0481 50.3965 -5.1063 0.0000 -2.9016 0.0000
# 3 92.1196 -5.1063 107.1796 0.0000 2.3666 0.0000
# 4 0.0000 0.0000 0.0000 9.6279 0.0000 -1.8322
# 5 -9.8910 -2.9016 2.3666 0.0000 25.8638 0.0000
# 6 0.0000 0.0000 0.0000 -1.8322 0.0000 5.5718
#
#
#
# Elastic Compliance Matrix: (Units=1/GPa)
#
#
# Indices 1 2 3 4 5 6 
#
# 1 0.008501 0.000332 -0.007378 0.000000 0.003963 0.000000
# 2 0.000332 0.020072 0.000620 0.000000 0.002322 0.000000
# 3 -0.007378 0.000620 0.015794 0.000000 -0.004197 0.000000
# 4 0.000000 0.000000 0.000000 0.110798 0.000000 0.036433
# 5 0.003963 0.002322 -0.004197 0.000000 0.040824 0.000000
# 6 0.000000 0.000000 0.000000 0.036433 0.000000 0.191456
#
#
# Mechanical properties :
#
#
# Convention : Reuss Voigt Hill
#
# Bulk Modulus (GPa) = 31.73173 58.21103 44.97138
# Shear Modulus (GPa) = 12.17128 26.74628 19.45878
#
# Velocity S-wave (km/s) = 2.47311 3.66612 3.12703
# Velocity P-wave (km/s) = 4.90924 6.86822 5.96964
#
# Compressibility (1/GPa) = 0.03151420
#
# Stress axis : x y z
#
# Youngs Moduli (GPa) = 117.63139 49.81964 63.31557
#
# Poissons Ratio (x) = -0.01655 0.46716
# Poissons Ratio (y) = -0.03907 -0.03923
# Poissons Ratio (z) = 0.86792 -0.03087
#
# Static dielectric constant tensor:
#      x y z
#    x 1.730640 0.000000 -0.026560 
#    y 0.000000 1.738180 0.000000 
#    z -0.026560 0.000000 1.659150 
# 
# From -- ./inp_files/86143.got.cif
#   From: 2010.05.17/outbox.cif.g08.bks.cpg/sg10_44_cif.got.tgz:86143.got - 2010.06.03 11:33:40.
