data_PCOD9144964
_publ_section_title
;
Structure prediction by ZEFSAII (Michael W. Deem and Ramdas Pophale) SiO2 
 PCOD9144964
Probable space group: P 2/M
;
_chemical_formula_sum "Si O2"
_cell_formula_units_Z 28
_cell_length_a 19.690287
_cell_length_b 7.374162
_cell_length_c 9.869996
_cell_angle_alpha 90.000000
_cell_angle_beta 56.479825
_cell_angle_gamma 90.000000
_cell_volume 1194.777486
_symmetry_space_group_name_H-M "P 2/M"
_symmetry_group_IT_number 10
_symmetry_cell_setting 'monoclinic'
loop_
_space_group_symop_operation_xyz
x,y,z
-x,y,-z
-x,-y,-z
x,-y,z
loop_
_atom_site_type_symbol
_atom_site_label
_atom_site_fract_x
_atom_site_fract_y
_atom_site_fract_z
Si Si1 0.301085 0.278511 0.194278
Si Si2 0.999842 0.718895 0.656073
Si Si3 0.081604 0.790337 0.835653
Si Si4 0.462478 0.707287 0.888771
Si Si5 0.744969 0.292611 0.237585
Si Si6 0.371341 0.276864 0.404013
Si Si7 0.819432 0.721551 0.886918
O O1 0.304393 0.500000 0.192017
O O2 0.373599 0.214582 0.014308
O O3 0.216532 0.226012 0.218865
O O4 0.321704 0.221708 0.323570
O O5 0.004063 0.500000 0.649005
O O6 0.000000 0.779359 0.500000
O O7 0.066429 0.778170 0.691359
O O8 0.911722 0.777802 0.808342
O O9 0.167063 0.705112 0.784950
O O10 0.087719 0.000000 0.868439
O O11 0.000000 0.714803 0.000000
O O12 0.449976 0.500000 0.856258
O O13 0.535126 0.784195 0.717581
O O14 0.500000 0.701645 0.000000
O O15 0.719242 0.500000 0.242345
O O16 0.677047 0.213582 0.411248
O O17 0.762941 0.212687 0.070950
O O18 0.372642 0.500000 0.401683
O O19 0.820042 0.500000 0.889939
#
# Coordination Sequence:
#
# PCOD9144964 Si02
#       7
#     4   4   4   4   4   4   4
#     4   8  13  22  38  60  92 128 157 189 233 285
#     4  10  21  35  54  77 100 127 163 203 247 295
#     4  11  23  38  54  71  96 132 169 201 246 298
#     4   7  10  19  34  56  89 126 156 184 227 282
#     4  10  19  31  49  71  97 124 159 205 245 284
#     4   8  14  23  40  65  91 123 160 193 231 284
#     4   9  17  28  41  65  96 124 154 195 242 283
#
# _framework density 23.435324999999999
#
# number of rings (size 3 to 8) (size 9 to 14) (size 15 to 20)
#    0.000    3.000    1.429    2.143    2.000    0.857 
#    0.000    0.714    0.000    4.286    0.000    0.000 
#    0.000    8.571    0.000    0.000    0.000    0.000 
#
# Total GULP energy -156230.586261 kJ/mol
# GULP energy per Si atom -5579.663795 kJ/mol
# Density = 2.338199 g / cm^3
# Si number density = 23.435325 Si / 1000 Ang^3
#
#
#
# Elastic Constant Matrix: (Units=GPa)
#
#
# Indices 1 2 3 4 5 6 
#
# 1 26.1962 -6.9929 -27.7849 0.0000 13.4271 0.0000
# 2 -6.9929 85.1471 2.1029 0.0000 -1.4643 0.0000
# 3 -27.7849 2.1029 97.8867 0.0000 -0.6909 0.0000
# 4 0.0000 0.0000 0.0000 -0.8489 0.0000 16.6280
# 5 13.4271 -1.4643 -0.6909 0.0000 29.9785 0.0000
# 6 0.0000 0.0000 0.0000 16.6280 0.0000 -14.4961
#
#
#
# Elastic Compliance Matrix: (Units=1/GPa)
#
#
# Indices 1 2 3 4 5 6 
#
# 1 0.082786 0.005604 0.023122 0.000000 -0.036273 0.000000
# 2 0.005604 0.012140 0.001317 0.000000 -0.001887 0.000000
# 3 0.023122 0.001317 0.016681 0.000000 -0.009908 0.000000
# 4 0.000000 0.000000 0.000000 0.054871 0.000000 0.062941
# 5 -0.036273 -0.001887 -0.009908 0.000000 0.049283 0.000000
# 6 0.000000 0.000000 0.000000 0.062941 0.000000 0.003213
#
#
# Mechanical properties :
#
#
# Convention : Reuss Voigt Hill
#
# Bulk Modulus (GPa) = 5.82437 15.98668 10.90552
# Shear Modulus (GPa) = 23.13540 19.05368 21.09454
#
# Velocity S-wave (km/s) = 3.14539 2.85447 3.00345
# Velocity P-wave (km/s) = 3.96005 4.20718 4.08548
#
# Compressibility (1/GPa) = 0.17169236
#
# Stress axis : x y z
#
# Youngs Moduli (GPa) = 12.07934 82.37454 59.94894
#
# Poissons Ratio (x) = -0.46164 -1.38615
# Poissons Ratio (y) = -0.06769 -0.07893
# Poissons Ratio (z) = -0.27930 -0.10845
#
# Static dielectric constant tensor:
#      x y z
#    x 1.836090 0.000000 -0.025340 
#    y 0.000000 1.947060 0.000000 
#    z -0.025340 0.000000 1.897680 
# 
# From -- ./inp_files/34419.got.cif
#   From: 2010.05.17/outbox.cif.g08.bks.cpg/sg10_18_cif.got.tgz:34419.got - 2010.06.03 11:33:40.
