data_PCOD9144204
_publ_section_title
;
Structure prediction by ZEFSAII (Michael W. Deem and Ramdas Pophale) SiO2 
 PCOD9144204
Probable space group: P 2/M
;
_chemical_formula_sum "Si O2"
_cell_formula_units_Z 22
_cell_length_a 22.519445
_cell_length_b 11.045092
_cell_length_c 5.229546
_cell_angle_alpha 90.000000
_cell_angle_beta 110.576104
_cell_angle_gamma 90.000000
_cell_volume 1217.762282
_symmetry_space_group_name_H-M "P 2/M"
_symmetry_group_IT_number 10
_symmetry_cell_setting 'monoclinic'
loop_
_space_group_symop_operation_xyz
x,y,z
-x,y,-z
-x,-y,-z
x,-y,z
loop_
_atom_site_type_symbol
_atom_site_label
_atom_site_fract_x
_atom_site_fract_y
_atom_site_fract_z
Si Si1 0.141195 0.357593 0.152946
Si Si2 0.072104 0.351870 0.548941
Si Si3 0.277894 0.737328 0.393536
Si Si4 0.365555 0.731570 0.026925
Si Si5 0.286757 0.000000 0.490318
Si Si6 0.456564 0.500000 0.184400
Si Si7 0.631946 0.000000 0.886783
O O1 0.127305 0.500000 0.123912
O O2 0.099571 0.307089 0.322101
O O3 0.215800 0.343356 0.312160
O O4 0.118350 0.309659 0.845557
O O5 0.072978 0.500000 0.541706
O O6 0.000000 0.317046 0.500000
O O7 0.315979 0.722406 0.187039
O O8 0.252996 0.875212 0.378656
O O9 0.326777 0.721728 0.702536
O O10 0.413832 0.620884 0.118056
O O11 0.396991 0.866678 0.100343
O O12 0.345626 0.000000 0.374990
O O13 0.310138 0.000000 0.819166
O O14 0.500000 0.500000 0.500000
O O15 0.500000 0.500000 0.000000
#
# Coordination Sequence:
#
# PCOD9144204 Si02
#       7
#     4   4   4   4   2   2   2
#     4  10  19  27  44  73 101 122 165 211 246 312
#     4   9  17  30  43  61  95 139 170 202 247 294
#     4  10  19  33  53  80 103 131 167 209 268 300
#     4  10  21  36  58  75 107 138 168 213 260 305
#     4   8  16  30  50  73 103 130 162 206 251 318
#     4  12  26  42  56  80 110 144 177 202 247 312
#     4   8  16  34  54  79  96 132 175 206 249 302
#
# _framework density 18.065923999999999
#
# number of rings (size 3 to 8) (size 9 to 14) (size 15 to 20)
#    0.000    2.364    0.000    2.727    2.545    2.182 
#    0.000    0.909    0.000    0.000    0.000    3.818 
#    0.000    0.000    0.000    0.000    0.000    0.000 
#
# Total GULP energy -122525.848193 kJ/mol
# GULP energy per Si atom -5569.356736 kJ/mol
# Density = 1.802480 g / cm^3
# Si number density = 18.065924 Si / 1000 Ang^3
#
#
#
# Elastic Constant Matrix: (Units=GPa)
#
#
# Indices 1 2 3 4 5 6 
#
# 1 43.4469 7.6708 -0.1151 0.0000 -9.2192 0.0000
# 2 7.6708 43.5120 -1.0454 0.0000 5.5052 0.0000
# 3 -0.1151 -1.0454 69.3675 0.0000 -8.6334 0.0000
# 4 0.0000 0.0000 0.0000 10.7202 0.0000 -8.2549
# 5 -9.2192 5.5052 -8.6334 0.0000 28.7868 0.0000
# 6 0.0000 0.0000 0.0000 -8.2549 0.0000 -2.7707
#
#
#
# Elastic Compliance Matrix: (Units=1/GPa)
#
#
# Indices 1 2 3 4 5 6 
#
# 1 0.026135 -0.005824 0.001180 0.000000 0.009838 0.000000
# 2 -0.005824 0.024853 -0.000477 0.000000 -0.006761 0.000000
# 3 0.001180 -0.000477 0.015030 0.000000 0.004977 0.000000
# 4 0.000000 0.000000 0.000000 0.028317 0.000000 -0.084367
# 5 0.009838 -0.006761 0.004977 0.000000 0.040674 0.000000
# 6 0.000000 0.000000 0.000000 -0.084367 0.000000 -0.109562
#
#
# Mechanical properties :
#
#
# Convention : Reuss Voigt Hill
#
# Bulk Modulus (GPa) = 17.92833 18.81633 18.37233
# Shear Modulus (GPa) = 92.11350 17.33500 54.72425
#
# Velocity S-wave (km/s) = 7.14829 3.10101 5.50974
# Velocity P-wave (km/s) = 8.83607 4.82282 7.11814
#
# Compressibility (1/GPa) = 0.05577764
#
# Stress axis : x y z
#
# Youngs Moduli (GPa) = 38.26220 40.23690 66.53303
#
# Poissons Ratio (x) = 0.23433 -0.07851
# Poissons Ratio (y) = 0.22283 0.03171
# Poissons Ratio (z) = -0.04515 0.01918
#
# Static dielectric constant tensor:
#      x y z
#    x 1.584170 0.000000 -0.025990 
#    y 0.000000 1.655720 0.000000 
#    z -0.025990 0.000000 1.623500 
# 
# From -- ./inp_files/11024.got.cif
#   From: 2010.05.17/outbox.cif.g08.bks.cpg/sg10_6_cif.got.tgz:11024.got - 2010.06.03 11:33:40.
