data_PCOD9144296
_publ_section_title
;
Structure prediction by ZEFSAII (Michael W. Deem and Ramdas Pophale) SiO2 
 PCOD9144296
Probable space group: P 2/M
;
_chemical_formula_sum "Si O2"
_cell_formula_units_Z 32
_cell_length_a 8.906371
_cell_length_b 14.213755
_cell_length_c 30.072287
_cell_angle_alpha 90.000000
_cell_angle_beta 151.811999
_cell_angle_gamma 90.000000
_cell_volume 1798.269879
_symmetry_space_group_name_H-M "P 2/M"
_symmetry_group_IT_number 10
_symmetry_cell_setting 'monoclinic'
loop_
_space_group_symop_operation_xyz
x,y,z
-x,y,-z
-x,-y,-z
x,-y,z
loop_
_atom_site_type_symbol
_atom_site_label
_atom_site_fract_x
_atom_site_fract_y
_atom_site_fract_z
Si Si1 0.372590 0.612019 0.599705
Si Si2 0.728267 0.242111 0.275391
Si Si3 0.190151 0.892200 0.450761
Si Si4 0.747396 0.107048 0.202765
Si Si5 0.752475 0.107791 0.105169
Si Si6 0.648849 0.242154 0.737946
Si Si7 0.500211 0.889601 0.623026
Si Si8 0.731455 0.388163 0.600927
O O1 0.372716 0.500000 0.608052
O O2 0.580576 0.665518 0.690830
O O3 0.542130 0.630090 0.596896
O O4 0.000000 0.641236 0.500000
O O5 0.625945 0.183108 0.205696
O O6 0.458017 0.265101 0.240176
O O7 0.947876 0.172902 0.361955
O O8 0.946609 0.329261 0.318178
O O9 0.500000 0.894039 0.500000
O O10 0.293772 0.858874 0.526844
O O11 0.075973 0.000000 0.424505
O O12 0.605989 0.114685 0.116397
O O13 0.129079 0.121381 0.295158
O O14 0.704941 0.000000 0.208111
O O15 0.012767 0.189905 0.170460
O O16 0.892293 0.000000 0.139781
O O17 0.500000 0.115202 0.000000
O O18 0.454552 0.166306 0.656682
O O19 0.444079 0.000000 0.615210
O O20 0.500000 0.360717 0.500000
O O21 0.792028 0.500000 0.613319
#
# Coordination Sequence:
#
# PCOD9144296 Si02
#       8
#     4   4   4   4   4   4   4   4
#     4  10  22  39  57  79 111 149 191 233 271 318
#     4  12  22  30  48  75 109 142 175 222 272 327
#     4  10  19  29  43  65  98 144 184 211 252 315
#     4   9  17  31  51  74 100 134 174 215 261 316
#     4   9  19  39  63  82 106 144 187 233 283 334
#     4  11  23  33  53  80 108 139 185 233 276 325
#     4   9  18  32  46  65  99 141 185 221 252 306
#     4  10  21  35  51  71  99 142 190 228 266 318
#
# _framework density 17.794881
#
# number of rings (size 3 to 8) (size 9 to 14) (size 15 to 20)
#    0.000    2.000    1.250    4.125    3.500    3.500 
#    0.000    1.875    0.000    2.625    0.000    0.000 
#    0.000    4.000    0.000    0.000    0.000    0.000 
#
# Total GULP energy -178566.082294 kJ/mol
# GULP energy per Si atom -5580.190072 kJ/mol
# Density = 1.775438 g / cm^3
# Si number density = 17.794881 Si / 1000 Ang^3
#
#
#
# Elastic Constant Matrix: (Units=GPa)
#
#
# Indices 1 2 3 4 5 6 
#
# 1 106.7348 46.5376 29.4244 0.0000 -18.0529 0.0000
# 2 46.5376 75.5581 26.3093 0.0000 -5.6399 0.0000
# 3 29.4244 26.3093 62.7022 0.0000 -23.4361 0.0000
# 4 0.0000 0.0000 0.0000 20.2834 0.0000 -6.2772
# 5 -18.0529 -5.6399 -23.4361 0.0000 22.9209 0.0000
# 6 0.0000 0.0000 0.0000 -6.2772 0.0000 11.2230
#
#
#
# Elastic Compliance Matrix: (Units=1/GPa)
#
#
# Indices 1 2 3 4 5 6 
#
# 1 0.014575 -0.008357 0.000306 0.000000 0.009736 0.000000
# 2 -0.008357 0.020595 -0.008556 0.000000 -0.010262 0.000000
# 3 0.000306 -0.008556 0.030264 0.000000 0.029080 0.000000
# 4 0.000000 0.000000 0.000000 0.059622 0.000000 0.033348
# 5 0.009736 -0.010262 0.029080 0.000000 0.078505 0.000000
# 6 0.000000 0.000000 0.000000 0.033348 0.000000 0.107755
#
#
# Mechanical properties :
#
#
# Convention : Reuss Voigt Hill
#
# Bulk Modulus (GPa) = 31.03590 49.94862 40.49226
# Shear Modulus (GPa) = 14.07383 20.40037 17.23710
#
# Velocity S-wave (km/s) = 2.81533 3.38955 3.11570
# Velocity P-wave (km/s) = 5.29593 6.59157 5.97895
#
# Compressibility (1/GPa) = 0.03222075
#
# Stress axis : x y z
#
# Youngs Moduli (GPa) = 68.61006 48.55545 33.04265
#
# Poissons Ratio (x) = 0.40577 -0.01010
# Poissons Ratio (y) = 0.57336 0.28270
# Poissons Ratio (z) = -0.02098 0.41542
#
# Static dielectric constant tensor:
#      x y z
#    x 1.654010 0.000000 0.010280 
#    y 0.000000 1.631790 0.000000 
#    z 0.010280 0.000000 1.598530 
# 
# From -- ./inp_files/94686.got.cif
#   From: 2010.05.17/outbox.cif.g08.bks.cpg/sg10_48_cif.got.tgz:94686.got - 2010.06.03 11:33:40.
