data_PCOD9144599
_publ_section_title
;
Structure prediction by ZEFSAII (Michael W. Deem and Ramdas Pophale) SiO2 
 PCOD9144599
Probable space group: P 2/M
;
_chemical_formula_sum "Si O2"
_cell_formula_units_Z 28
_cell_length_a 15.846580
_cell_length_b 10.075044
_cell_length_c 17.423881
_cell_angle_alpha 90.000000
_cell_angle_beta 35.660992
_cell_angle_gamma 90.000000
_cell_volume 1621.762134
_symmetry_space_group_name_H-M "P 2/M"
_symmetry_group_IT_number 10
_symmetry_cell_setting 'monoclinic'
loop_
_space_group_symop_operation_xyz
x,y,z
-x,y,-z
-x,-y,-z
x,-y,z
loop_
_atom_site_type_symbol
_atom_site_label
_atom_site_fract_x
_atom_site_fract_y
_atom_site_fract_z
Si Si1 0.197546 0.157859 0.078520
Si Si2 0.880941 0.154455 0.344125
Si Si3 0.356609 0.649767 0.263188
Si Si4 0.745002 0.651176 0.828613
Si Si5 0.447605 0.156581 0.782016
Si Si6 0.565792 0.838231 0.531769
Si Si7 0.948320 0.743690 0.458236
O O1 0.271142 0.242778 0.091894
O O2 0.031180 0.205494 0.197483
O O3 0.197896 0.000000 0.097972
O O4 0.287506 0.173837 0.934420
O O5 0.728850 0.212062 0.428046
O O6 0.898679 0.168252 0.422947
O O7 0.875476 0.000000 0.328424
O O8 0.410806 0.500000 0.234392
O O9 0.349905 0.678018 0.177060
O O10 0.447547 0.756267 0.242704
O O11 0.190973 0.658183 0.415577
O O12 0.718577 0.500000 0.873432
O O13 0.911942 0.664569 0.675978
O O14 0.470099 0.194838 0.677008
O O15 0.485159 0.000000 0.761541
O O16 0.500000 0.791764 0.500000
O O17 0.570292 0.000000 0.525336
O O18 0.000000 0.811379 0.500000
#
# Coordination Sequence:
#
# PCOD9144599 Si02
#       7
#     4   4   4   4   4   4   4
#     4   9  19  33  48  69 101 134 164 201 243 288
#     4   9  16  29  48  72 100 129 163 202 243 292
#     4  10  19  30  47  72 100 132 169 209 246 285
#     4   9  18  31  47  69 100 135 171 204 240 290
#     4  10  20  34  50  71  99 130 163 203 250 296
#     4   9  17  31  53  77  98 124 161 206 253 297
#     4   9  16  27  45  70  99 130 165 205 244 285
#
# _framework density 17.265170000000001
#
# number of rings (size 3 to 8) (size 9 to 14) (size 15 to 20)
#    0.000    2.714    1.429    0.429    0.000    3.714 
#    0.000    6.429    0.000    4.714    0.000    0.000 
#    0.000    3.714    0.000    0.000    0.000    0.000 
#
# Total GULP energy -155904.813301 kJ/mol
# GULP energy per Si atom -5568.029046 kJ/mol
# Density = 1.722587 g / cm^3
# Si number density = 17.265170 Si / 1000 Ang^3
#
#
#
# Elastic Constant Matrix: (Units=GPa)
#
#
# Indices 1 2 3 4 5 6 
#
# 1 114.7013 25.6729 67.0159 0.0000 10.6860 0.0000
# 2 25.6729 28.4142 34.1291 0.0000 8.0660 0.0000
# 3 67.0159 34.1291 112.5085 0.0000 12.0822 0.0000
# 4 0.0000 0.0000 0.0000 3.6909 0.0000 -5.7642
# 5 10.6860 8.0660 12.0822 0.0000 14.8675 0.0000
# 6 0.0000 0.0000 0.0000 -5.7642 0.0000 2.2996
#
#
#
# Elastic Compliance Matrix: (Units=1/GPa)
#
#
# Indices 1 2 3 4 5 6 
#
# 1 0.013733 -0.003477 -0.006867 0.000000 -0.002403 0.000000
# 2 -0.003477 0.060999 -0.014404 0.000000 -0.018889 0.000000
# 3 -0.006867 -0.014404 0.017506 0.000000 -0.001477 0.000000
# 4 0.000000 0.000000 0.000000 -0.092957 0.000000 -0.233005
# 5 -0.002403 -0.018889 -0.001477 0.000000 0.080436 0.000000
# 6 0.000000 0.000000 0.000000 -0.233005 0.000000 -0.149194
#
#
# Mechanical properties :
#
#
# Convention : Reuss Voigt Hill
#
# Bulk Modulus (GPa) = 23.39674 56.58443 39.99058
# Shear Modulus (GPa) = -872.01898 12.75867 -429.63016
#
# Velocity S-wave (km/s) = -22.49823 2.72137 -15.79184
# Velocity P-wave (km/s) = 25.71601 6.53601 17.58684
#
# Compressibility (1/GPa) = 0.04274100
#
# Stress axis : x y z
#
# Youngs Moduli (GPa) = 72.81940 16.39383 57.12181
#
# Poissons Ratio (x) = 0.05701 0.39225
# Poissons Ratio (y) = 0.25323 0.82278
# Poissons Ratio (z) = 0.50004 0.23614
#
# Static dielectric constant tensor:
#      x y z
#    x 1.580820 0.000000 -0.026020 
#    y 0.000000 1.571340 0.000000 
#    z -0.026020 0.000000 1.635960 
# 
# From -- ./inp_files/67102.got.cif
#   From: 2010.05.17/outbox.cif.g08.bks.cpg/sg10_34_cif.got.tgz:67102.got - 2010.06.03 11:33:40.
