data_PCOD9144022
_publ_section_title
;
Structure prediction by ZEFSAII (Michael W. Deem and Ramdas Pophale) SiO2 
 PCOD9144022
Probable space group: P 2/M
;
_chemical_formula_sum "Si O2"
_cell_formula_units_Z 24
_cell_length_a 21.012690
_cell_length_b 13.290779
_cell_length_c 11.660802
_cell_angle_alpha 90.000000
_cell_angle_beta 21.152283
_cell_angle_gamma 90.000000
_cell_volume 1175.126985
_symmetry_space_group_name_H-M "P 2/M"
_symmetry_group_IT_number 10
_symmetry_cell_setting 'monoclinic'
loop_
_space_group_symop_operation_xyz
x,y,z
-x,y,-z
-x,-y,-z
x,-y,z
loop_
_atom_site_type_symbol
_atom_site_label
_atom_site_fract_x
_atom_site_fract_y
_atom_site_fract_z
Si Si1 0.588475 0.391542 0.975260
Si Si2 0.318783 0.251008 0.758922
Si Si3 0.537532 0.822092 0.717393
Si Si4 0.184647 0.848607 0.212259
Si Si5 0.063297 0.291263 0.612820
Si Si6 0.147964 0.114280 0.651805
O O1 0.552148 0.500000 0.092237
O O2 0.796646 0.378205 0.603412
O O3 0.500000 0.390102 0.000000
O O4 0.517000 0.292882 0.159886
O O5 0.500000 0.300913 0.500000
O O6 0.358581 0.188569 0.577048
O O7 0.263939 0.178060 0.955348
O O8 0.143136 0.316076 0.033653
O O9 0.663946 0.864837 0.603132
O O10 0.355192 0.881522 0.999703
O O11 0.115363 0.752514 0.401112
O O12 0.000000 0.902995 0.500000
O O13 0.105613 0.199721 0.629754
O O14 0.143123 0.000000 0.613678
O O15 0.000000 0.121211 0.000000
#
# Coordination Sequence:
#
# PCOD9144022 Si02
#       6
#     4   4   4   4   4   4
#     4  10  20  34  54  83 118 148 178 222 277 332
#     4   9  17  32  58  81 104 149 193 222 269 326
#     4  10  18  34  58  80 113 147 182 227 274 329
#     4   8  17  31  54  80 103 146 190 222 269 323
#     4  10  18  35  58  79 114 147 182 225 280 328
#     4  11  22  35  56  87 115 143 179 227 287 332
#
# _framework density 20.423324999999998
#
# number of rings (size 3 to 8) (size 9 to 14) (size 15 to 20)
#    0.000    2.333    3.333    0.000    0.000    0.000 
#    0.000    7.500    0.000   86.000    0.000    0.000 
#    0.000    0.000    0.000    0.000    0.000    0.000 
#
# Total GULP energy -133606.444103 kJ/mol
# GULP energy per Si atom -5566.935171 kJ/mol
# Density = 2.037684 g / cm^3
# Si number density = 20.423325 Si / 1000 Ang^3
#
#
#
# Elastic Constant Matrix: (Units=GPa)
#
#
# Indices 1 2 3 4 5 6 
#
# 1 92.3119 23.0490 37.4446 0.0000 -16.8562 0.0000
# 2 23.0490 90.1046 17.2382 0.0000 -0.6136 0.0000
# 3 37.4446 17.2382 126.5618 0.0000 -30.0582 0.0000
# 4 0.0000 0.0000 0.0000 3.1283 0.0000 19.3851
# 5 -16.8562 -0.6136 -30.0582 0.0000 54.5452 0.0000
# 6 0.0000 0.0000 0.0000 19.3851 0.0000 18.3227
#
#
#
# Elastic Compliance Matrix: (Units=1/GPa)
#
#
# Indices 1 2 3 4 5 6 
#
# 1 0.013163 -0.002788 -0.002941 0.000000 0.002416 0.000000
# 2 -0.002788 0.012019 -0.001133 0.000000 -0.001351 0.000000
# 3 -0.002941 -0.001133 0.010018 0.000000 0.004599 0.000000
# 4 0.000000 0.000000 0.000000 -0.057534 0.000000 0.060871
# 5 0.002416 -0.001351 0.004599 0.000000 0.021599 0.000000
# 6 0.000000 0.000000 0.000000 0.060871 0.000000 -0.009823
#
#
# Mechanical properties :
#
#
# Convention : Reuss Voigt Hill
#
# Bulk Modulus (GPa) = 46.56344 51.60466 49.08405
# Shear Modulus (GPa) = 484.29099 30.61565 257.45332
#
# Velocity S-wave (km/s) = 15.41562 3.87596 11.23976
# Velocity P-wave (km/s) = 18.43105 6.73447 13.87546
#
# Compressibility (1/GPa) = 0.02147607
#
# Stress axis : x y z
#
# Youngs Moduli (GPa) = 75.97024 83.20185 99.82081
#
# Poissons Ratio (x) = 0.23197 0.29357
# Poissons Ratio (y) = 0.21181 0.11309
# Poissons Ratio (z) = 0.22342 0.09426
#
# Static dielectric constant tensor:
#      x y z
#    x 1.756200 0.000000 -0.047570 
#    y 0.000000 1.701090 0.000000 
#    z -0.047570 0.000000 1.782890 
# 
# From -- ./inp_files/56024.got.cif
#   From: 2010.05.17/outbox.cif.g08.bks.cpg/sg10_29_cif.got.tgz:56024.got - 2010.06.03 11:33:40.
