data_PCOD9144406
_publ_section_title
;
Structure prediction by ZEFSAII (Michael W. Deem and Ramdas Pophale) SiO2 
 PCOD9144406
Probable space group: P 2/M
;
_chemical_formula_sum "Si O2"
_cell_formula_units_Z 32
_cell_length_a 26.859005
_cell_length_b 17.947655
_cell_length_c 27.365118
_cell_angle_alpha 90.000000
_cell_angle_beta 11.112302
_cell_angle_gamma 90.000000
_cell_volume 2542.437373
_symmetry_space_group_name_H-M "P 2/M"
_symmetry_group_IT_number 10
_symmetry_cell_setting 'monoclinic'
loop_
_space_group_symop_operation_xyz
x,y,z
-x,y,-z
-x,-y,-z
x,-y,z
loop_
_atom_site_type_symbol
_atom_site_label
_atom_site_fract_x
_atom_site_fract_y
_atom_site_fract_z
Si Si1 0.842741 0.842279 0.056355
Si Si2 0.616933 0.913975 0.441569
Si Si3 0.175271 0.909679 0.033619
Si Si4 0.737042 0.910026 0.533166
Si Si5 0.058164 0.677418 0.002246
Si Si6 0.915111 0.090918 0.468563
Si Si7 0.557896 0.584915 0.502334
Si Si8 0.473886 0.909239 0.968993
O O1 0.575051 0.868015 0.338890
O O2 0.838606 0.866911 0.004069
O O3 0.888101 0.755713 0.023769
O O4 0.091368 0.884467 0.839538
O O5 0.500000 0.909717 0.500000
O O6 0.616109 0.000000 0.458589
O O7 0.444487 0.890995 0.801065
O O8 0.169063 0.000000 0.031153
O O9 0.937236 0.889049 0.297912
O O10 0.827393 0.883312 0.499439
O O11 0.745717 0.000000 0.527070
O O12 0.812642 0.635028 0.261246
O O13 0.309159 0.625167 0.764222
O O14 0.000000 0.690049 0.000000
O O15 0.711227 0.113942 0.706306
O O16 0.914728 0.000000 0.468137
O O17 0.202755 0.114013 0.206439
O O18 0.500000 0.581082 0.500000
O O19 0.592946 0.500000 0.485848
O O20 0.474946 0.000000 0.968625
O O21 0.500000 0.884935 0.000000
#
# Coordination Sequence:
#
# PCOD9144406 Si02
#       8
#     4   4   4   4   4   4   4   4
#     4  12  22  33  46  61  80  99 122 156 194 227
#     4  11  22  34  46  58  74  99 128 154 184 227
#     4  10  19  30  42  54  69  91 122 158 191 221
#     4   9  17  28  40  52  64  84 118 155 187 217
#     4  10  19  30  45  64  83 101 119 142 176 219
#     4   9  15  23  34  46  62  83 107 138 173 211
#     4   9  17  30  47  65  83 101 119 137 161 204
#     4   9  15  21  30  46  66  85 103 126 165 219
#
# _framework density 12.586347
#
# number of rings (size 3 to 8) (size 9 to 14) (size 15 to 20)
#    0.000    2.125    0.000    5.250    0.000    9.000 
#    0.000    0.000    0.000    0.000    0.000    0.000 
#    0.000    0.000    0.000    0.000    0.000    0.000 
#
# Total GULP energy -178447.663632 kJ/mol
# GULP energy per Si atom -5576.489488 kJ/mol
# Density = 1.255770 g / cm^3
# Si number density = 12.586347 Si / 1000 Ang^3
#
#
#
# Elastic Constant Matrix: (Units=GPa)
#
#
# Indices 1 2 3 4 5 6 
#
# 1 27.6355 6.9678 -14.3770 0.0000 -0.5112 0.0000
# 2 6.9678 49.4880 4.6495 0.0000 -0.4316 0.0000
# 3 -14.3770 4.6495 43.5881 0.0000 -1.2304 0.0000
# 4 0.0000 0.0000 0.0000 15.2154 0.0000 0.1090
# 5 -0.5112 -0.4316 -1.2304 0.0000 18.8403 0.0000
# 6 0.0000 0.0000 0.0000 0.1090 0.0000 3.1446
#
#
#
# Elastic Compliance Matrix: (Units=1/GPa)
#
#
# Indices 1 2 3 4 5 6 
#
# 1 0.046776 -0.008104 0.016354 0.000000 0.002152 0.000000
# 2 -0.008104 0.021817 -0.005001 0.000000 -0.000047 0.000000
# 3 0.016354 -0.005001 0.028932 0.000000 0.002219 0.000000
# 4 0.000000 0.000000 0.000000 0.065739 0.000000 -0.002279
# 5 0.002152 -0.000047 0.002219 0.000000 0.053280 0.000000
# 6 0.000000 0.000000 0.000000 -0.002279 0.000000 0.318080
#
#
# Mechanical properties :
#
#
# Convention : Reuss Voigt Hill
#
# Bulk Modulus (GPa) = 9.61328 12.79913 11.20620
# Shear Modulus (GPa) = 8.88412 15.67149 12.27781
#
# Velocity S-wave (km/s) = 2.65967 3.53245 3.12667
# Velocity P-wave (km/s) = 4.13355 5.17965 4.68588
#
# Compressibility (1/GPa) = 0.10402278
#
# Stress axis : x y z
#
# Youngs Moduli (GPa) = 21.37845 45.83503 34.56358
#
# Poissons Ratio (x) = 0.37143 -0.56524
# Poissons Ratio (y) = 0.17324 0.17287
# Poissons Ratio (z) = -0.34962 0.22924
#
# Static dielectric constant tensor:
#      x y z
#    x 1.406230 0.000000 -0.003780 
#    y 0.000000 1.380140 0.000000 
#    z -0.003780 0.000000 1.424610 
# 
# From -- ./inp_files/59711.got.cif
#   From: 2010.05.17/outbox.cif.g08.bks.cpg/sg10_30_cif.got.tgz:59711.got - 2010.06.03 11:33:40.
