data_PCOD9144956
_publ_section_title
;
Structure prediction by ZEFSAII (Michael W. Deem and Ramdas Pophale) SiO2 
 PCOD9144956
Probable space group: P 2/M
;
_chemical_formula_sum "Si O2"
_cell_formula_units_Z 32
_cell_length_a 10.579531
_cell_length_b 7.406446
_cell_length_c 22.169885
_cell_angle_alpha 90.000000
_cell_angle_beta 50.943052
_cell_angle_gamma 90.000000
_cell_volume 1348.939294
_symmetry_space_group_name_H-M "P 2/M"
_symmetry_group_IT_number 10
_symmetry_cell_setting 'monoclinic'
loop_
_space_group_symop_operation_xyz
x,y,z
-x,y,-z
-x,-y,-z
x,-y,z
loop_
_atom_site_type_symbol
_atom_site_label
_atom_site_fract_x
_atom_site_fract_y
_atom_site_fract_z
Si Si1 0.412722 0.795256 0.607195
Si Si2 0.729234 0.281580 0.225596
Si Si3 0.381354 0.720205 0.281513
Si Si4 0.826380 0.279690 0.769186
Si Si5 0.134871 0.286192 0.601287
Si Si6 0.037441 0.279515 0.056133
Si Si7 0.313363 0.720649 0.060389
Si Si8 0.243340 0.295698 0.445564
O O1 0.289715 0.782818 0.700592
O O2 0.310078 0.735013 0.580525
O O3 0.573406 0.694808 0.581694
O O4 0.464917 0.000000 0.582607
O O5 0.730735 0.500000 0.227261
O O6 0.566344 0.224969 0.239009
O O7 0.891543 0.222731 0.143791
O O8 0.378573 0.500000 0.284701
O O9 0.310812 0.771465 0.238358
O O10 0.270877 0.784973 0.371077
O O11 0.834252 0.500000 0.769550
O O12 0.776796 0.220859 0.850933
O O13 0.995519 0.217127 0.688121
O O14 0.105734 0.500000 0.603537
O O15 0.140402 0.212425 0.531290
O O16 0.037291 0.500000 0.055045
O O17 0.207172 0.224057 0.034691
O O18 0.000000 0.218507 0.000000
O O19 0.314895 0.500000 0.061042
O O20 0.500000 0.779459 0.000000
O O21 0.185099 0.500000 0.453481
#
# Coordination Sequence:
#
# PCOD9144956 Si02
#       8
#     4   4   4   4   4   4   4   4
#     4  11  21  32  49  72  98 130 169 210 252 299
#     4   9  17  31  51  72 101 132 167 211 255 303
#     4   8  15  27  45  69  95 128 165 203 246 296
#     4   9  17  28  45  69  98 132 167 202 248 300
#     4  10  19  31  49  70  98 132 164 204 253 305
#     4   9  17  27  44  72 102 134 169 207 256 308
#     4   9  17  26  38  62 102 139 165 200 251 305
#     4   9  18  32  49  72  98 127 164 205 253 304
#
# _framework density 23.722342999999999
#
# number of rings (size 3 to 8) (size 9 to 14) (size 15 to 20)
#    0.000    2.750    0.000    3.000    1.750    4.500 
#    0.000    2.500    0.000    3.375    0.000    4.375 
#    0.000    2.500    0.000    0.000    0.000    0.000 
#
# Total GULP energy -178807.340823 kJ/mol
# GULP energy per Si atom -5587.729401 kJ/mol
# Density = 2.366835 g / cm^3
# Si number density = 23.722343 Si / 1000 Ang^3
#
#
#
# Elastic Constant Matrix: (Units=GPa)
#
#
# Indices 1 2 3 4 5 6 
#
# 1 128.5745 -3.0482 60.4294 0.0000 6.9822 0.0000
# 2 -3.0482 79.8786 7.4096 0.0000 -2.3637 0.0000
# 3 60.4294 7.4096 133.5590 0.0000 5.0177 0.0000
# 4 0.0000 0.0000 0.0000 997.6645 0.0000 1403.6512
# 5 6.9822 -2.3637 5.0177 0.0000 40.9778 0.0000
# 6 0.0000 0.0000 0.0000 1403.6512 0.0000 1908.2077
#
#
#
# Elastic Compliance Matrix: (Units=1/GPa)
#
#
# Indices 1 2 3 4 5 6 
#
# 1 0.009978 0.000767 -0.004516 0.000000 -0.001103 0.000000
# 2 0.000767 0.012670 -0.001077 0.000000 0.000732 0.000000
# 3 -0.004516 -0.001077 0.009608 0.000000 -0.000469 0.000000
# 4 0.000000 0.000000 0.000000 -0.028701 0.000000 0.021112
# 5 -0.001103 0.000732 -0.000469 0.000000 0.024691 0.000000
# 6 0.000000 0.000000 0.000000 0.021112 0.000000 -0.015006
#
#
# Mechanical properties :
#
#
# Convention : Reuss Voigt Hill
#
# Bulk Modulus (GPa) = 44.24093 52.39929 48.32011
# Shear Modulus (GPa) = 164.32891 607.85143 386.09017
#
# Velocity S-wave (km/s) = 8.33200 16.02473 12.77134
# Velocity P-wave (km/s) = 10.54765 19.09256 15.42366
#
# Compressibility (1/GPa) = 0.02260350
#
# Stress axis : x y z
#
# Youngs Moduli (GPa) = 100.22005 78.92734 104.08109
#
# Poissons Ratio (x) = -0.06054 0.47000
# Poissons Ratio (y) = -0.07687 0.11214
# Poissons Ratio (z) = 0.45257 0.08504
#
# Static dielectric constant tensor:
#      x y z
#    x 1.871590 0.000000 -0.015400 
#    y 0.000000 1.909600 0.000000 
#    z -0.015400 0.000000 1.883560 
# 
# From -- ./inp_files/83581.got.cif
#   From: 2010.05.17/outbox.cif.g08.bks.cpg/sg10_42_cif.got.tgz:83581.got - 2010.06.03 11:33:40.
