data_PCOD9144656
_publ_section_title
;
Structure prediction by ZEFSAII (Michael W. Deem and Ramdas Pophale) SiO2 
 PCOD9144656
Probable space group: P 2/M
;
_chemical_formula_sum "Si O2"
_cell_formula_units_Z 28
_cell_length_a 9.488255
_cell_length_b 16.840655
_cell_length_c 14.953418
_cell_angle_alpha 90.000000
_cell_angle_beta 135.754021
_cell_angle_gamma 90.000000
_cell_volume 1667.168663
_symmetry_space_group_name_H-M "P 2/M"
_symmetry_group_IT_number 10
_symmetry_cell_setting 'monoclinic'
loop_
_space_group_symop_operation_xyz
x,y,z
-x,y,-z
-x,-y,-z
x,-y,z
loop_
_atom_site_type_symbol
_atom_site_label
_atom_site_fract_x
_atom_site_fract_y
_atom_site_fract_z
Si Si1 0.681023 0.788909 0.013837
Si Si2 0.491827 0.712562 0.243286
Si Si3 0.018573 0.329486 0.245106
Si Si4 0.828201 0.416668 0.848101
Si Si5 0.020901 0.093670 0.116080
Si Si6 0.849147 0.592898 0.347822
Si Si7 0.634505 0.202868 0.643392
O O1 0.583694 0.764426 0.874735
O O2 0.500000 0.801307 0.000000
O O3 0.828955 0.719403 0.118130
O O4 0.824197 0.865030 0.068776
O O5 0.309902 0.655239 0.187498
O O6 0.671048 0.654008 0.294472
O O7 0.510143 0.763810 0.342718
O O8 0.071736 0.399808 0.201246
O O9 0.213782 0.270912 0.328067
O O10 0.960225 0.366989 0.313331
O O11 0.713226 0.500000 0.794428
O O12 0.000000 0.420128 0.000000
O O13 0.216289 0.138829 0.243788
O O14 0.030880 0.000000 0.137483
O O15 0.000000 0.106941 0.000000
O O16 0.787858 0.500000 0.301266
O O17 0.000000 0.590106 0.500000
O O18 0.500000 0.173072 0.500000
#
# Coordination Sequence:
#
# PCOD9144656 Si02
#       7
#     4   4   4   4   4   4   4
#     4  11  20  35  57  84 108 146 174 221 277 332
#     4  11  20  35  54  79 109 141 188 231 270 330
#     4  10  20  34  53  77 108 140 192 227 273 328
#     4  10  19  30  48  74 106 139 177 231 288 323
#     4  10  21  38  62  89 115 142 177 223 274 331
#     4  11  23  37  51  72 108 152 193 235 280 323
#     4  10  21  36  60  85 111 148 185 224 272 328
#
# _framework density 16.794941999999999
#
# number of rings (size 3 to 8) (size 9 to 14) (size 15 to 20)
#    0.000    1.571    4.286    1.714    0.000    0.571 
#    0.000    0.714    0.000    6.857    0.000    1.000 
#    0.000    0.000    0.000    0.000    0.000    0.000 
#
# Total GULP energy -156055.720825 kJ/mol
# GULP energy per Si atom -5573.418601 kJ/mol
# Density = 1.675672 g / cm^3
# Si number density = 16.794942 Si / 1000 Ang^3
#
#
#
# Elastic Constant Matrix: (Units=GPa)
#
#
# Indices 1 2 3 4 5 6 
#
# 1 126.0782 38.4662 34.7259 0.0000 -16.6191 0.0000
# 2 38.4662 86.9552 38.3047 0.0000 -11.6243 0.0000
# 3 34.7259 38.3047 87.6555 0.0000 -18.1462 0.0000
# 4 0.0000 0.0000 0.0000 17.9727 0.0000 -2.9361
# 5 -16.6191 -11.6243 -18.1462 0.0000 27.4738 0.0000
# 6 0.0000 0.0000 0.0000 -2.9361 0.0000 24.7082
#
#
#
# Elastic Compliance Matrix: (Units=1/GPa)
#
#
# Indices 1 2 3 4 5 6 
#
# 1 0.009830 -0.003080 -0.001838 0.000000 0.003429 0.000000
# 2 -0.003080 0.015325 -0.005236 0.000000 0.001162 0.000000
# 3 -0.001838 -0.005236 0.015911 0.000000 0.007182 0.000000
# 4 0.000000 0.000000 0.000000 0.056742 0.000000 0.006743
# 5 0.003429 0.001162 0.007182 0.000000 0.043708 0.000000
# 6 0.000000 0.000000 0.000000 0.006743 0.000000 0.041274
#
#
# Mechanical properties :
#
#
# Convention : Reuss Voigt Hill
#
# Bulk Modulus (GPa) = 48.17668 58.18696 53.18182
# Shear Modulus (GPa) = 23.80767 26.64372 25.22570
#
# Velocity S-wave (km/s) = 3.76912 3.98730 3.87975
# Velocity P-wave (km/s) = 6.90574 7.47789 7.19750
#
# Compressibility (1/GPa) = 0.02075693
#
# Stress axis : x y z
#
# Youngs Moduli (GPa) = 101.73336 65.25468 62.84801
#
# Poissons Ratio (x) = 0.20099 0.11554
# Poissons Ratio (y) = 0.31335 0.32906
# Poissons Ratio (z) = 0.18702 0.34166
#
# Static dielectric constant tensor:
#      x y z
#    x 1.557230 0.000000 -0.001860 
#    y 0.000000 1.570050 0.000000 
#    z -0.001860 0.000000 1.551000 
# 
# From -- ./inp_files/30075.got.cif
#   From: 2010.05.17/outbox.cif.g08.bks.cpg/sg10_16_cif.got.tgz:30075.got - 2010.06.03 11:33:40.
