data_PCOD9144432
_publ_section_title
;
Structure prediction by ZEFSAII (Michael W. Deem and Ramdas Pophale) SiO2 
 PCOD9144432
Probable space group: P 2/M
;
_chemical_formula_sum "Si O2"
_cell_formula_units_Z 32
_cell_length_a 21.295684
_cell_length_b 9.200072
_cell_length_c 31.949898
_cell_angle_alpha 90.000000
_cell_angle_beta 19.954261
_cell_angle_gamma 90.000000
_cell_volume 2136.241057
_symmetry_space_group_name_H-M "P 2/M"
_symmetry_group_IT_number 10
_symmetry_cell_setting 'monoclinic'
loop_
_space_group_symop_operation_xyz
x,y,z
-x,y,-z
-x,-y,-z
x,-y,z
loop_
_atom_site_type_symbol
_atom_site_label
_atom_site_fract_x
_atom_site_fract_y
_atom_site_fract_z
Si Si1 0.052297 0.326109 0.716620
Si Si2 0.220887 0.167034 0.869361
Si Si3 0.722529 0.327185 0.250458
Si Si4 0.560083 0.827769 0.510460
Si Si5 0.843049 0.326624 0.006887
Si Si6 0.527104 0.169133 0.914577
Si Si7 0.802161 0.170164 0.810570
Si Si8 0.269679 0.674018 0.015328
O O1 0.073958 0.500000 0.701786
O O2 0.243840 0.247572 0.605093
O O3 0.961635 0.266694 0.730593
O O4 0.907328 0.290019 0.844715
O O5 0.302055 0.259804 0.780333
O O6 0.283676 0.000000 0.829187
O O7 0.245799 0.241315 0.898761
O O8 0.000000 0.166815 0.000000
O O9 0.689742 0.500000 0.270740
O O10 0.589387 0.247290 0.366081
O O11 0.936093 0.303471 0.129653
O O12 0.500000 0.808253 0.500000
O O13 0.571042 0.000000 0.512177
O O14 0.814075 0.500000 0.030235
O O15 0.767686 0.280526 0.008876
O O16 0.710521 0.218678 0.824180
O O17 0.448784 0.256900 0.924572
O O18 0.550997 0.000000 0.888746
O O19 0.364118 0.176226 0.051385
O O20 0.855677 0.000000 0.773720
O O21 0.286630 0.500000 0.005458
#
# Coordination Sequence:
#
# PCOD9144432 Si02
#       8
#     4   4   4   4   4   4   4   4
#     4  10  19  30  44  62  84 114 151 185 217 254
#     4   9  17  29  45  65  86 108 139 178 217 259
#     4  10  19  32  49  64  83 113 147 183 219 256
#     4  11  23  35  46  62  86 116 149 184 219 253
#     4   9  17  29  44  63  87 115 144 175 217 262
#     4   8  14  24  39  58  81 111 143 173 211 258
#     4   8  14  26  41  57  80 110 143 178 214 253
#     4   9  17  27  40  61  89 116 144 179 215 255
#
# _framework density 14.979583
#
# number of rings (size 3 to 8) (size 9 to 14) (size 15 to 20)
#    0.000    2.750    0.000    3.000    0.000    5.500 
#    0.000    2.500    0.000    0.000    0.000    0.000 
#    0.000    1.000    0.000   10.500    0.000    6.250 
#
# Total GULP energy -178269.357239 kJ/mol
# GULP energy per Si atom -5570.917414 kJ/mol
# Density = 1.494549 g / cm^3
# Si number density = 14.979583 Si / 1000 Ang^3
#
#
#
# Elastic Constant Matrix: (Units=GPa)
#
#
# Indices 1 2 3 4 5 6 
#
# 1 147.4595 70.7493 45.4917 0.0000 2.7709 0.0000
# 2 70.7493 77.7248 43.1281 0.0000 1.4417 0.0000
# 3 45.4917 43.1281 44.7561 0.0000 5.0344 0.0000
# 4 0.0000 0.0000 0.0000 20.0091 0.0000 -0.6073
# 5 2.7709 1.4417 5.0344 0.0000 22.4038 0.0000
# 6 0.0000 0.0000 0.0000 -0.6073 0.0000 27.7202
#
#
#
# Elastic Compliance Matrix: (Units=1/GPa)
#
#
# Indices 1 2 3 4 5 6 
#
# 1 0.012317 -0.009176 -0.003665 0.000000 -0.000109 0.000000
# 2 -0.009176 0.034900 -0.024806 0.000000 0.004463 0.000000
# 3 -0.003665 -0.024806 0.051031 0.000000 -0.009418 0.000000
# 4 0.000000 0.000000 0.000000 0.050011 0.000000 0.001096
# 5 -0.000109 0.004463 -0.009418 0.000000 0.046478 0.000000
# 6 0.000000 0.000000 0.000000 0.001096 0.000000 0.036099
#
#
# Mechanical properties :
#
#
# Convention : Reuss Voigt Hill
#
# Bulk Modulus (GPa) = 43.56360 65.40875 54.48618
# Shear Modulus (GPa) = 15.93482 21.39804 18.66643
#
# Velocity S-wave (km/s) = 3.26509 3.78362 3.53388
# Velocity P-wave (km/s) = 6.58479 7.92766 7.28723
#
# Compressibility (1/GPa) = 0.02295494
#
# Stress axis : x y z
#
# Youngs Moduli (GPa) = 81.19170 28.65367 19.59588
#
# Poissons Ratio (x) = 0.26292 0.07182
# Poissons Ratio (y) = 0.74498 0.48609
# Poissons Ratio (z) = 0.29755 0.71077
#
# Static dielectric constant tensor:
#      x y z
#    x 1.504270 0.000000 -0.003900 
#    y 0.000000 1.499240 0.000000 
#    z -0.003900 0.000000 1.471240 
# 
# From -- ./inp_files/49917.got.cif
#   From: 2010.05.17/outbox.cif.g08.bks.cpg/sg10_25_cif.got.tgz:49917.got - 2010.06.03 11:33:40.
