data_PCOD9144048
_publ_section_title
;
Structure prediction by ZEFSAII (Michael W. Deem and Ramdas Pophale) SiO2 
 PCOD9144048
Probable space group: P 2/M
;
_chemical_formula_sum "Si O2"
_cell_formula_units_Z 16
_cell_length_a 8.217798
_cell_length_b 8.331907
_cell_length_c 19.755236
_cell_angle_alpha 90.000000
_cell_angle_beta 145.667884
_cell_angle_gamma 90.000000
_cell_volume 762.873873
_symmetry_space_group_name_H-M "P 2/M"
_symmetry_group_IT_number 10
_symmetry_cell_setting 'monoclinic'
loop_
_space_group_symop_operation_xyz
x,y,z
-x,y,-z
-x,-y,-z
x,-y,z
loop_
_atom_site_type_symbol
_atom_site_label
_atom_site_fract_x
_atom_site_fract_y
_atom_site_fract_z
Si Si1 0.000585 0.000000 0.081211
Si Si2 0.505136 0.000000 0.342669
Si Si3 0.236521 0.325599 0.021537
Si Si4 0.128461 0.674659 0.696352
Si Si5 0.000000 0.252894 0.500000
Si Si6 0.177632 0.000000 0.360469
O O1 0.842828 0.834078 0.047778
O O2 0.338943 0.000000 0.215188
O O3 0.000000 0.000000 0.000000
O O4 0.720358 0.148006 0.424116
O O5 0.236758 0.000000 0.301130
O O6 0.225889 0.500000 0.981763
O O7 0.545338 0.312248 0.164217
O O8 0.000000 0.332642 0.000000
O O9 0.013852 0.500000 0.681751
O O10 0.098572 0.669577 0.604445
O O11 0.974010 0.836750 0.668002
O O12 0.500000 0.000000 0.500000
#
# Coordination Sequence:
#
# PCOD9144048 Si02
#       6
#     2   2   4   4   2   2
#     4  10  18  34  59  86 113 153 194 249 306 350
#     4  11  23  37  64  92 121 168 211 248 314 371
#     4   9  18  34  57  87 119 150 192 250 307 355
#     4  11  23  39  65  94 123 164 208 256 313 369
#     4  11  19  38  62  93 123 152 211 273 306 359
#     4  12  23  46  59  83 135 175 201 249 304 377
#
# _framework density 20.973320999999999
#
# number of rings (size 3 to 8) (size 9 to 14) (size 15 to 20)
#    0.000    1.500    2.500    4.875    0.000    0.500 
#    0.000    5.000    0.000    3.000    0.000    0.000 
#    0.000    0.000    0.000    0.000    0.000    0.000 
#
# Total GULP energy -89153.428304 kJ/mol
# GULP energy per Si atom -5572.089269 kJ/mol
# Density = 2.092559 g / cm^3
# Si number density = 20.973321 Si / 1000 Ang^3
#
#
#
# Elastic Constant Matrix: (Units=GPa)
#
#
# Indices 1 2 3 4 5 6 
#
# 1 57.8291 38.1959 -3.9900 0.0000 12.7567 0.0000
# 2 38.1959 225.6871 48.3789 0.0000 28.9805 0.0000
# 3 -3.9900 48.3789 105.9869 0.0000 21.9163 0.0000
# 4 0.0000 0.0000 0.0000 32.8307 0.0000 12.8662
# 5 12.7567 28.9805 21.9163 0.0000 22.5600 0.0000
# 6 0.0000 0.0000 0.0000 12.8662 0.0000 3.9106
#
#
#
# Elastic Compliance Matrix: (Units=1/GPa)
#
#
# Indices 1 2 3 4 5 6 
#
# 1 0.022808 -0.003195 0.005175 0.000000 -0.013820 0.000000
# 2 -0.003195 0.005893 -0.002025 0.000000 -0.003796 0.000000
# 3 0.005175 -0.002025 0.013291 0.000000 -0.013237 0.000000
# 4 0.000000 0.000000 0.000000 -0.105265 0.000000 0.346327
# 5 -0.013820 -0.003796 -0.013237 0.000000 0.069876 0.000000
# 6 0.000000 0.000000 0.000000 0.346327 0.000000 -0.883721
#
#
# Mechanical properties :
#
#
# Convention : Reuss Voigt Hill
#
# Bulk Modulus (GPa) = 23.86517 61.63030 42.74774
# Shear Modulus (GPa) = -5.79335 32.32151 13.26408
#
# Velocity S-wave (km/s) = -1.66380 3.92991 2.51754
# Velocity P-wave (km/s) = 2.77715 7.07398 5.37372
#
# Compressibility (1/GPa) = 0.04190206
#
# Stress axis : x y z
#
# Youngs Moduli (GPa) = 43.84418 169.68595 75.23622
#
# Poissons Ratio (x) = 0.54210 -0.38932
# Poissons Ratio (y) = 0.14007 0.15237
# Poissons Ratio (z) = -0.22688 0.34366
#
# Static dielectric constant tensor:
#      x y z
#    x 1.876450 0.000000 -0.132960 
#    y 0.000000 1.871020 0.000000 
#    z -0.132960 0.000000 1.709730 
# 
# From -- ./inp_files/81849.got.cif
#   From: 2010.05.17/outbox.cif.g08.bks.cpg/sg10_41_cif.got.tgz:81849.got - 2010.06.03 11:33:40.
