data_PCOD9144685
_publ_section_title
;
Structure prediction by ZEFSAII (Michael W. Deem and Ramdas Pophale) SiO2 
 PCOD9144685
Probable space group: P 2/M
;
_chemical_formula_sum "Si O2"
_cell_formula_units_Z 24
_cell_length_a 8.839847
_cell_length_b 30.272452
_cell_length_c 7.995039
_cell_angle_alpha 90.000000
_cell_angle_beta 35.421132
_cell_angle_gamma 90.000000
_cell_volume 1240.017035
_symmetry_space_group_name_H-M "P 2/M"
_symmetry_group_IT_number 10
_symmetry_cell_setting 'monoclinic'
loop_
_space_group_symop_operation_xyz
x,y,z
-x,y,-z
-x,-y,-z
x,-y,z
loop_
_atom_site_type_symbol
_atom_site_label
_atom_site_fract_x
_atom_site_fract_y
_atom_site_fract_z
Si Si1 0.778682 0.143449 0.840858
Si Si2 0.724913 0.375655 0.662887
Si Si3 0.551270 0.285076 0.653673
Si Si4 0.778110 0.952576 0.843152
Si Si5 0.782641 0.550987 0.331823
Si Si6 0.053489 0.766341 0.149888
O O1 0.789744 0.095248 0.920347
O O2 0.846796 0.185412 0.890968
O O3 0.000000 0.142603 0.500000
O O4 0.500000 0.148230 0.000000
O O5 0.629705 0.333034 0.646160
O O6 0.775375 0.416518 0.494264
O O7 0.000000 0.364796 0.500000
O O8 0.500000 0.386330 0.000000
O O9 0.500000 0.286686 0.500000
O O10 0.786270 0.250456 0.474140
O O11 0.286389 0.267873 0.976183
O O12 0.000000 0.952562 0.500000
O O13 0.801566 0.000000 0.914048
O O14 0.500000 0.952746 0.000000
O O15 0.500000 0.552446 0.500000
O O16 0.838065 0.500000 0.329690
O O17 0.000000 0.564595 0.000000
O O18 0.000000 0.765774 0.000000
#
# Coordination Sequence:
#
# PCOD9144685 Si02
#       6
#     4   4   4   4   4   4
#     4  10  19  30  49  74  98 129 167 212 262 309
#     4  12  25  38  59  91 120 145 180 235 289 319
#     4  10  22  39  56  74 104 147 185 214 258 327
#     4   8  14  25  41  64  93 123 159 202 249 305
#     4  10  22  42  66  88 115 156 196 224 263 330
#     4  10  21  36  53  74 102 138 177 218 263 314
#
# _framework density 19.354572999999998
#
# number of rings (size 3 to 8) (size 9 to 14) (size 15 to 20)
#    0.000    2.000    0.000    3.500    0.000    6.667 
#    0.000    0.000    0.000    0.500    0.000    0.000 
#    0.000   17.333    0.000    0.000    0.000    2.667 
#
# Total GULP energy -133932.325731 kJ/mol
# GULP energy per Si atom -5580.513572 kJ/mol
# Density = 1.931052 g / cm^3
# Si number density = 19.354573 Si / 1000 Ang^3
#
#
#
# Elastic Constant Matrix: (Units=GPa)
#
#
# Indices 1 2 3 4 5 6 
#
# 1 41.0609 47.9797 36.7206 0.0000 -17.8134 0.0000
# 2 47.9797 139.6505 32.7957 0.0000 -0.2118 0.0000
# 3 36.7206 32.7957 131.2780 0.0000 -25.6483 0.0000
# 4 0.0000 0.0000 0.0000 31.4398 0.0000 -12.7419
# 5 -17.8134 -0.2118 -25.6483 0.0000 22.1996 0.0000
# 6 0.0000 0.0000 0.0000 -12.7419 0.0000 44.7306
#
#
#
# Elastic Compliance Matrix: (Units=1/GPa)
#
#
# Indices 1 2 3 4 5 6 
#
# 1 0.098681 -0.032563 -0.005241 0.000000 0.072817 0.000000
# 2 -0.032563 0.018483 -0.000749 0.000000 -0.026817 0.000000
# 3 -0.005241 -0.000749 0.010910 0.000000 0.008392 0.000000
# 4 0.000000 0.000000 0.000000 0.035958 0.000000 0.010243
# 5 0.072817 -0.026817 0.008392 0.000000 0.112916 0.000000
# 6 0.000000 0.000000 0.000000 0.010243 0.000000 0.025274
#
#
# Mechanical properties :
#
#
# Convention : Reuss Voigt Hill
#
# Bulk Modulus (GPa) = 19.61958 60.77572 40.19765
# Shear Modulus (GPa) = 12.61617 32.64024 22.62820
#
# Velocity S-wave (km/s) = 2.55589 4.11108 3.42298
# Velocity P-wave (km/s) = 4.34385 7.34874 6.03627
#
# Compressibility (1/GPa) = 0.05096949
#
# Stress axis : x y z
#
# Youngs Moduli (GPa) = 10.13366 54.10265 91.65790
#
# Poissons Ratio (x) = 1.76172 0.48041
# Poissons Ratio (y) = 0.32998 0.06862
# Poissons Ratio (z) = 0.05311 0.04050
#
# Static dielectric constant tensor:
#      x y z
#    x 1.653300 0.000000 -0.009860 
#    y 0.000000 1.713310 0.000000 
#    z -0.009860 0.000000 1.661570 
# 
# From -- ./inp_files/20886.got.cif
#   From: 2010.05.17/outbox.cif.g08.bks.cpg/sg10_11_cif.got.tgz:20886.got - 2010.06.03 11:33:40.
