data_PCOD9144384
_publ_section_title
;
Structure prediction by ZEFSAII (Michael W. Deem and Ramdas Pophale) SiO2 
 PCOD9144384
Probable space group: P 2/M
;
_chemical_formula_sum "Si O2"
_cell_formula_units_Z 26
_cell_length_a 31.147400
_cell_length_b 7.327188
_cell_length_c 31.142839
_cell_angle_alpha 90.000000
_cell_angle_beta 9.838841
_cell_angle_gamma 90.000000
_cell_volume 1214.512934
_symmetry_space_group_name_H-M "P 2/M"
_symmetry_group_IT_number 10
_symmetry_cell_setting 'monoclinic'
loop_
_space_group_symop_operation_xyz
x,y,z
-x,y,-z
-x,-y,-z
x,-y,z
loop_
_atom_site_type_symbol
_atom_site_label
_atom_site_fract_x
_atom_site_fract_y
_atom_site_fract_z
Si Si1 0.366048 0.723539 0.936258
Si Si2 0.157132 0.713884 0.585883
Si Si3 0.519407 0.722329 0.079247
Si Si4 0.162101 0.781453 0.681870
Si Si5 0.312365 0.779095 0.792786
Si Si6 0.995163 0.277352 0.554308
Si Si7 0.264109 0.500000 0.764491
O O1 0.360366 0.500000 0.941113
O O2 0.587289 0.786539 0.686633
O O3 0.425722 0.778018 0.926092
O O4 0.096391 0.788518 0.185368
O O5 0.157905 0.500000 0.574440
O O6 0.151143 0.729334 0.642963
O O7 0.517860 0.500000 0.080513
O O8 0.247917 0.780534 0.329611
O O9 0.744651 0.780404 0.826028
O O10 0.422465 0.723433 0.447294
O O11 0.162474 0.000000 0.682636
O O12 0.917348 0.723589 0.949707
O O13 0.280495 0.675770 0.779415
O O14 0.308995 0.000000 0.791202
O O15 0.994113 0.500000 0.555428
O O16 0.000000 0.220036 0.500000
O O17 0.500000 0.500000 0.500000
O O18 0.000000 0.500000 0.000000
#
# Coordination Sequence:
#
# PCOD9144384 Si02
#       7
#     4   4   4   4   4   4   2
#     4   9  17  28  39  62  91 121 164 205 259 314
#     4  10  19  29  48  73  98 129 170 218 252 306
#     4   9  15  23  34  45  72 110 143 197 251 298
#     4  10  21  38  58  83 113 149 185 224 278 326
#     4  10  23  41  62  88 121 155 192 237 283 338
#     4   9  15  21  30  46  65  98 152 201 243 296
#     4  12  26  42  66  96 122 158 200 238 286 340
#
# _framework density 21.407758000000001
#
# number of rings (size 3 to 8) (size 9 to 14) (size 15 to 20)
#    0.000    2.308    0.000    3.231    2.154    6.154 
#    0.000    0.000    0.000    0.000    0.000    0.000 
#    0.000    0.000    0.000    0.000    0.000   53.846 
#
# Total GULP energy -145367.706265 kJ/mol
# GULP energy per Si atom -5591.065626 kJ/mol
# Density = 2.135903 g / cm^3
# Si number density = 21.407758 Si / 1000 Ang^3
#
#
#
# Elastic Constant Matrix: (Units=GPa)
#
#
# Indices 1 2 3 4 5 6 
#
# 1 51.2550 -2.8725 -27.0954 0.0000 -6.1832 0.0000
# 2 -2.8725 83.6052 -0.6129 0.0000 -1.3623 0.0000
# 3 -27.0954 -0.6129 71.7198 0.0000 -2.8698 0.0000
# 4 0.0000 0.0000 0.0000 -20.1026 0.0000 -28.4819
# 5 -6.1832 -1.3623 -2.8698 0.0000 52.6714 0.0000
# 6 0.0000 0.0000 0.0000 -28.4819 0.0000 -290.4046
#
#
#
# Elastic Compliance Matrix: (Units=1/GPa)
#
#
# Indices 1 2 3 4 5 6 
#
# 1 0.025073 0.000989 0.009621 0.000000 0.003493 0.000000
# 2 0.000989 0.012006 0.000494 0.000000 0.000454 0.000000
# 3 0.009621 0.000494 0.017666 0.000000 0.002105 0.000000
# 4 0.000000 0.000000 0.000000 -0.057773 0.000000 0.005666
# 5 0.003493 0.000454 0.002105 0.000000 0.019522 0.000000
# 6 0.000000 0.000000 0.000000 0.005666 0.000000 -0.003999
#
#
# Mechanical properties :
#
#
# Convention : Reuss Voigt Hill
#
# Bulk Modulus (GPa) = 12.99493 16.15760 14.57627
# Shear Modulus (GPa) = 313.70671 -35.75643 138.97514
#
# Velocity S-wave (km/s) = 12.11845 -4.09131 8.06592
# Velocity P-wave (km/s) = 14.20889 3.84116 9.67311
#
# Compressibility (1/GPa) = 0.07695308
#
# Stress axis : x y z
#
# Youngs Moduli (GPa) = 39.88354 83.29195 56.60514
#
# Poissons Ratio (x) = -0.08237 -0.54458
# Poissons Ratio (y) = -0.03944 -0.02798
# Poissons Ratio (z) = -0.38371 -0.04118
#
# Static dielectric constant tensor:
#      x y z
#    x 1.703700 0.000000 0.000820 
#    y 0.000000 1.304540 0.000000 
#    z 0.000820 0.000000 1.750680 
# 
# From -- ./inp_files/13429.got.cif
#   From: 2010.05.17/outbox.cif.g08.bks.cpg/sg10_7_cif.got.tgz:13429.got - 2010.06.03 11:33:40.
