data_PCOD9144038
_publ_section_title
;
Structure prediction by ZEFSAII (Michael W. Deem and Ramdas Pophale) SiO2 
 PCOD9144038
Probable space group: P 2/M
;
_chemical_formula_sum "Si O2"
_cell_formula_units_Z 28
_cell_length_a 14.730428
_cell_length_b 14.126096
_cell_length_c 11.302426
_cell_angle_alpha 90.000000
_cell_angle_beta 40.737945
_cell_angle_gamma 90.000000
_cell_volume 1534.816613
_symmetry_space_group_name_H-M "P 2/M"
_symmetry_group_IT_number 10
_symmetry_cell_setting 'monoclinic'
loop_
_space_group_symop_operation_xyz
x,y,z
-x,y,-z
-x,-y,-z
x,-y,z
loop_
_atom_site_type_symbol
_atom_site_label
_atom_site_fract_x
_atom_site_fract_y
_atom_site_fract_z
Si Si1 0.493304 0.607711 0.826762
Si Si2 0.366701 0.606911 0.565391
Si Si3 0.434113 0.804039 0.186215
Si Si4 0.801995 0.109568 0.427683
Si Si5 0.300070 0.767423 0.955143
Si Si6 0.166515 0.234908 0.829325
Si Si7 0.920978 0.109278 0.701605
O O1 0.478048 0.500000 0.885164
O O2 0.584966 0.603450 0.617174
O O3 0.572898 0.689395 0.821935
O O4 0.345946 0.658835 0.939234
O O5 0.500000 0.651729 0.500000
O O6 0.349970 0.500000 0.627874
O O7 0.229596 0.666099 0.722105
O O8 0.292890 0.845204 0.375728
O O9 0.550348 0.817244 0.173911
O O10 0.500000 0.843039 0.000000
O O11 0.786952 0.160654 0.316908
O O12 0.961405 0.116314 0.313347
O O13 0.765019 0.000000 0.454353
O O14 0.233664 0.780192 0.892278
O O15 0.197279 0.814931 0.151699
O O16 0.000000 0.234913 0.000000
O O17 0.000000 0.125554 0.500000
O O18 0.868173 0.000000 0.751998
#
# Coordination Sequence:
#
# PCOD9144038 Si02
#       7
#     4   4   4   4   4   4   4
#     4   9  19  35  59  85 115 148 189 236 289 345
#     4  10  18  34  59  82 110 150 195 237 284 342
#     4  10  21  38  63  89 114 150 194 248 286 340
#     4  11  24  39  57  86 120 153 193 241 294 341
#     4  10  21  36  58  87 114 150 194 236 286 346
#     4  12  22  37  57  82 121 154 191 238 286 348
#     4  10  21  39  61  82 111 155 199 237 286 345
#
# _framework density 18.243221999999999
#
# number of rings (size 3 to 8) (size 9 to 14) (size 15 to 20)
#    0.857    0.857    4.286    0.857    0.000    2.286 
#    0.000    0.714    0.000    1.286    0.000    0.000 
#    0.000    0.000    0.000    0.000    0.000    0.000 
#
# Total GULP energy -155891.546841 kJ/mol
# GULP energy per Si atom -5567.555244 kJ/mol
# Density = 1.820170 g / cm^3
# Si number density = 18.243222 Si / 1000 Ang^3
#
#
#
# Elastic Constant Matrix: (Units=GPa)
#
#
# Indices 1 2 3 4 5 6 
#
# 1 43.2632 14.1912 6.9750 0.0000 1.9716 0.0000
# 2 14.1912 95.5788 54.5090 0.0000 -0.5227 0.0000
# 3 6.9750 54.5090 94.9961 0.0000 0.5122 0.0000
# 4 0.0000 0.0000 0.0000 -21.5132 0.0000 -1.9482
# 5 1.9716 -0.5227 0.5122 0.0000 26.4042 0.0000
# 6 0.0000 0.0000 0.0000 -1.9482 0.0000 14.3733
#
#
#
# Elastic Compliance Matrix: (Units=1/GPa)
#
#
# Indices 1 2 3 4 5 6 
#
# 1 0.024405 -0.003891 0.000451 0.000000 -0.001908 0.000000
# 2 -0.003891 0.016178 -0.009002 0.000000 0.000785 0.000000
# 3 0.000451 -0.009002 0.015662 0.000000 -0.000516 0.000000
# 4 0.000000 0.000000 0.000000 -0.045919 0.000000 -0.006224
# 5 -0.001908 0.000785 -0.000516 0.000000 0.038041 0.000000
# 6 0.000000 0.000000 0.000000 -0.006224 0.000000 0.068730
#
#
# Mechanical properties :
#
#
# Convention : Reuss Voigt Hill
#
# Bulk Modulus (GPa) = 31.88642 42.79873 37.34257
# Shear Modulus (GPa) = 32.80121 14.39706 23.59914
#
# Velocity S-wave (km/s) = 4.24488 2.81227 3.60054
# Velocity P-wave (km/s) = 6.44529 5.83576 6.14809
#
# Compressibility (1/GPa) = 0.03136132
#
# Stress axis : x y z
#
# Youngs Moduli (GPa) = 40.97524 61.81095 63.85037
#
# Poissons Ratio (x) = 0.24053 -0.02881
# Poissons Ratio (y) = 0.15945 0.57476
# Poissons Ratio (z) = -0.01849 0.55640
#
# Static dielectric constant tensor:
#      x y z
#    x 1.679750 0.000000 0.027590 
#    y 0.000000 1.647990 0.000000 
#    z 0.027590 0.000000 1.619080 
# 
# From -- ./inp_files/51387.got.cif
#   From: 2010.05.17/outbox.cif.g08.bks.cpg/sg10_26_cif.got.tgz:51387.got - 2010.06.03 11:33:40.
