data_PCOD9144919
_publ_section_title
;
Structure prediction by ZEFSAII (Michael W. Deem and Ramdas Pophale) SiO2 
 PCOD9144919
Probable space group: P 2/M
;
_chemical_formula_sum "Si O2"
_cell_formula_units_Z 32
_cell_length_a 31.393281
_cell_length_b 8.394038
_cell_length_c 21.961278
_cell_angle_alpha 90.000000
_cell_angle_beta 18.324022
_cell_angle_gamma 90.000000
_cell_volume 1819.427040
_symmetry_space_group_name_H-M "P 2/M"
_symmetry_group_IT_number 10
_symmetry_cell_setting 'monoclinic'
loop_
_space_group_symop_operation_xyz
x,y,z
-x,y,-z
-x,-y,-z
x,-y,z
loop_
_atom_site_type_symbol
_atom_site_label
_atom_site_fract_x
_atom_site_fract_y
_atom_site_fract_z
Si Si1 0.030739 0.811323 0.173628
Si Si2 0.639740 0.692899 0.092155
Si Si3 0.530767 0.814206 0.365869
Si Si4 0.735419 0.692759 0.591054
Si Si5 0.546133 0.694958 0.086012
Si Si6 0.767201 0.306183 0.688109
Si Si7 0.067211 0.307332 0.261669
Si Si8 0.294630 0.314549 0.760535
O O1 0.068131 0.756149 0.191496
O O2 0.876265 0.757194 0.373653
O O3 0.041392 0.000000 0.155701
O O4 0.140033 0.735105 0.980161
O O5 0.635109 0.500000 0.100510
O O6 0.557922 0.758605 0.260757
O O7 0.581682 0.745397 0.106077
O O8 0.796949 0.741258 0.887910
O O9 0.628554 0.720078 0.279726
O O10 0.379365 0.781385 0.595255
O O11 0.562899 0.000000 0.328749
O O12 0.741656 0.500000 0.581706
O O13 0.601730 0.744454 0.736671
O O14 0.727780 0.741008 0.672716
O O15 0.547394 0.500000 0.083642
O O16 0.661146 0.749162 0.882355
O O17 0.764306 0.500000 0.693310
O O18 0.923594 0.257605 0.485606
O O19 0.066525 0.500000 0.259101
O O20 0.305626 0.500000 0.731591
#
# Coordination Sequence:
#
# PCOD9144919 Si02
#       8
#     4   4   4   4   4   4   4   4
#     4  11  20  31  50  76 104 133 167 209 257 308
#     4  10  19  31  48  72 105 142 175 210 251 302
#     4  11  21  33  50  76 107 139 168 200 244 300
#     4   9  17  31  51  74 100 133 174 221 265 301
#     4   9  17  29  49  75 101 134 179 221 257 300
#     4   8  14  26  47  75 101 129 170 224 268 297
#     4   9  17  29  47  71 102 136 170 209 259 307
#     4  11  20  33  54  79 105 131 163 206 252 298
#
# _framework density 17.587954
#
# number of rings (size 3 to 8) (size 9 to 14) (size 15 to 20)
#    0.000    2.250    1.250    5.250    0.000    2.000 
#    0.000    3.125    0.000    9.750    0.000    9.625 
#    0.000    0.000    0.000    0.000    0.000    0.000 
#
# Total GULP energy -178536.816875 kJ/mol
# GULP energy per Si atom -5579.275527 kJ/mol
# Density = 1.754792 g / cm^3
# Si number density = 17.587954 Si / 1000 Ang^3
#
#
#
# Elastic Constant Matrix: (Units=GPa)
#
#
# Indices 1 2 3 4 5 6 
#
# 1 96.4389 6.7826 69.3209 0.0000 -8.2438 0.0000
# 2 6.7826 17.8383 4.0157 0.0000 -1.7755 0.0000
# 3 69.3209 4.0157 132.9497 0.0000 -1.1359 0.0000
# 4 0.0000 0.0000 0.0000 -12.9087 0.0000 -10.2093
# 5 -8.2438 -1.7755 -1.1359 0.0000 8.3326 0.0000
# 6 0.0000 0.0000 0.0000 -10.2093 0.0000 -12.9769
#
#
#
# Elastic Compliance Matrix: (Units=1/GPa)
#
#
# Indices 1 2 3 4 5 6 
#
# 1 0.018971 -0.003376 -0.009647 0.000000 0.016735 0.000000
# 2 -0.003376 0.058229 0.000079 0.000000 0.009078 0.000000
# 3 -0.009647 0.000079 0.012482 0.000000 -0.007825 0.000000
# 4 0.000000 0.000000 0.000000 -0.205054 0.000000 0.161322
# 5 0.016735 0.009078 -0.007825 0.000000 0.137434 0.000000
# 6 0.000000 0.000000 0.000000 0.161322 0.000000 -0.203977
#
#
# Mechanical properties :
#
#
# Convention : Reuss Voigt Hill
#
# Bulk Modulus (GPa) = 15.67532 45.27393 30.47463
# Shear Modulus (GPa) = -37.10249 7.62992 -14.73628
#
# Velocity S-wave (km/s) = -4.59796 2.08508 -2.89773
# Velocity P-wave (km/s) = 4.38821 5.62086 2.48372
#
# Compressibility (1/GPa) = 0.06379453
#
# Stress axis : x y z
#
# Youngs Moduli (GPa) = 52.71070 17.17369 80.11315
#
# Poissons Ratio (x) = 0.05798 0.77284
# Poissons Ratio (y) = 0.17796 -0.00634
# Poissons Ratio (z) = 0.50849 -0.00136
#
# Static dielectric constant tensor:
#      x y z
#    x 1.569790 0.000000 -0.008040 
#    y 0.000000 1.592400 0.000000 
#    z -0.008040 0.000000 1.614690 
# 
# From -- ./inp_files/87169.got.cif
#   From: 2010.05.17/outbox.cif.g08.bks.cpg/sg10_44_cif.got.tgz:87169.got - 2010.06.03 11:33:40.
