data_PCOD9144955
_publ_section_title
;
Structure prediction by ZEFSAII (Michael W. Deem and Ramdas Pophale) SiO2 
 PCOD9144955
Probable space group: P 2/M
;
_chemical_formula_sum "Si O2"
_cell_formula_units_Z 30
_cell_length_a 12.033948
_cell_length_b 9.561185
_cell_length_c 25.601916
_cell_angle_alpha 90.000000
_cell_angle_beta 142.684519
_cell_angle_gamma 90.000000
_cell_volume 1785.708740
_symmetry_space_group_name_H-M "P 2/M"
_symmetry_group_IT_number 10
_symmetry_cell_setting 'monoclinic'
loop_
_space_group_symop_operation_xyz
x,y,z
-x,y,-z
-x,-y,-z
x,-y,z
loop_
_atom_site_type_symbol
_atom_site_label
_atom_site_fract_x
_atom_site_fract_y
_atom_site_fract_z
Si Si1 0.825204 0.165505 0.901678
Si Si2 0.455691 0.336435 0.777395
Si Si3 0.907385 0.661146 0.306347
Si Si4 0.500000 0.749234 0.500000
Si Si5 0.208182 0.161698 0.476993
Si Si6 0.619843 0.334447 0.368466
Si Si7 0.754148 0.164176 0.757335
Si Si8 0.841216 0.654461 0.696687
O O1 0.638161 0.244813 0.846030
O O2 0.855039 0.181697 0.850490
O O3 0.799918 0.000000 0.902010
O O4 0.000000 0.214230 0.000000
O O5 0.507686 0.500000 0.798893
O O6 0.305829 0.306417 0.765579
O O7 0.351794 0.315774 0.682884
O O8 0.934816 0.500000 0.335941
O O9 0.032605 0.769757 0.384166
O O10 0.987204 0.662944 0.278021
O O11 0.622054 0.826589 0.501256
O O12 0.656528 0.669429 0.592089
O O13 0.247879 0.253585 0.542995
O O14 0.182973 0.000000 0.480578
O O15 0.617098 0.500000 0.378891
O O16 0.425235 0.260815 0.306075
O O17 0.852770 0.223842 0.743388
O O18 0.707294 0.000000 0.734020
O O19 0.835959 0.500000 0.719400
#
# Coordination Sequence:
#
# PCOD9144955 Si02
#       8
#     4   4   4   2   4   4   4   4
#     4   9  19  36  58  83 107 130 157 198 256 315
#     4   9  19  36  55  75 100 130 166 208 249 299
#     4   9  20  36  50  68  98 137 175 208 249 295
#     4  10  20  30  46  66 100 136 176 220 254 284
#     4  11  21  31  45  68  98 133 177 218 252 290
#     4  10  19  31  49  70  96 131 169 210 258 300
#     4  10  19  31  50  76 105 131 162 209 258 300
#     4  10  19  31  50  72  99 136 176 212 251 298
#
# _framework density 16.800052000000001
#
# number of rings (size 3 to 8) (size 9 to 14) (size 15 to 20)
#    0.000    2.267    1.333    1.600    0.000    5.600 
#    0.000    2.667    0.000    0.800    0.000    5.600 
#    0.000    0.000    0.000    0.000    0.000    0.000 
#
# Total GULP energy -167163.208181 kJ/mol
# GULP energy per Si atom -5572.106939 kJ/mol
# Density = 1.676181 g / cm^3
# Si number density = 16.800052 Si / 1000 Ang^3
#
#
#
# Elastic Constant Matrix: (Units=GPa)
#
#
# Indices 1 2 3 4 5 6 
#
# 1 83.4401 37.0150 31.2723 0.0000 8.5270 0.0000
# 2 37.0150 91.0499 32.9256 0.0000 -0.0067 0.0000
# 3 31.2723 32.9256 55.4727 0.0000 1.2236 0.0000
# 4 0.0000 0.0000 0.0000 17.2905 0.0000 2.0877
# 5 8.5270 -0.0067 1.2236 0.0000 12.2660 0.0000
# 6 0.0000 0.0000 0.0000 2.0877 0.0000 12.6797
#
#
#
# Elastic Compliance Matrix: (Units=1/GPa)
#
#
# Indices 1 2 3 4 5 6 
#
# 1 0.017927 -0.004747 -0.007029 0.000000 -0.011764 0.000000
# 2 -0.004747 0.015250 -0.006463 0.000000 0.003953 0.000000
# 3 -0.007029 -0.006463 0.025775 0.000000 0.002312 0.000000
# 4 0.000000 0.000000 0.000000 0.059008 0.000000 -0.009716
# 5 -0.011764 0.003953 0.002312 0.000000 0.089475 0.000000
# 6 0.000000 0.000000 0.000000 -0.009716 0.000000 0.080466
#
#
# Mechanical properties :
#
#
# Convention : Reuss Voigt Hill
#
# Bulk Modulus (GPa) = 44.49624 48.04315 46.26969
# Shear Modulus (GPa) = 15.06612 17.03058 16.04835
#
# Velocity S-wave (km/s) = 2.99789 3.18735 3.09407
# Velocity P-wave (km/s) = 6.20697 6.49652 6.35339
#
# Compressibility (1/GPa) = 0.02247381
#
# Stress axis : x y z
#
# Youngs Moduli (GPa) = 55.78149 65.57310 38.79797
#
# Poissons Ratio (x) = 0.31127 0.27272
# Poissons Ratio (y) = 0.26479 0.25074
# Poissons Ratio (z) = 0.39210 0.42379
#
# Static dielectric constant tensor:
#      x y z
#    x 1.597780 0.000000 -0.023580 
#    y 0.000000 1.568840 0.000000 
#    z -0.023580 0.000000 1.549210 
# 
# From -- ./inp_files/53037.got.cif
#   From: 2010.05.17/outbox.cif.g08.bks.cpg/sg10_27_cif.got.tgz:53037.got - 2010.06.03 11:33:40.
