data_PCOD9144679
_publ_section_title
;
Structure prediction by ZEFSAII (Michael W. Deem and Ramdas Pophale) SiO2 
 PCOD9144679
Probable space group: P 2/M
;
_chemical_formula_sum "Si O2"
_cell_formula_units_Z 32
_cell_length_a 18.906230
_cell_length_b 13.076498
_cell_length_c 21.907167
_cell_angle_alpha 90.000000
_cell_angle_beta 159.543673
_cell_angle_gamma 90.000000
_cell_volume 1892.873006
_symmetry_space_group_name_H-M "P 2/M"
_symmetry_group_IT_number 10
_symmetry_cell_setting 'monoclinic'
loop_
_space_group_symop_operation_xyz
x,y,z
-x,y,-z
-x,-y,-z
x,-y,z
loop_
_atom_site_type_symbol
_atom_site_label
_atom_site_fract_x
_atom_site_fract_y
_atom_site_fract_z
Si Si1 0.399471 0.120249 0.765530
Si Si2 0.227581 0.757638 0.447535
Si Si3 0.387377 0.242390 0.167433
Si Si4 0.002466 0.120250 0.368546
Si Si5 0.668148 0.117948 0.586419
Si Si6 0.157351 0.378820 0.885762
Si Si7 0.077025 0.882053 0.995293
Si Si8 0.379839 0.260048 0.959902
O O1 0.541963 0.156651 0.824590
O O2 0.470097 0.188239 0.879251
O O3 0.169322 0.137413 0.556493
O O4 0.425863 0.000000 0.798723
O O5 0.409279 0.717408 0.636439
O O6 0.319107 0.810754 0.461892
O O7 0.110243 0.843375 0.392884
O O8 0.063496 0.672420 0.298287
O O9 0.247409 0.189272 0.104633
O O10 0.267827 0.327620 0.033042
O O11 0.955622 0.000000 0.328525
O O12 0.802602 0.188276 0.211770
O O13 0.500000 0.148748 0.500000
O O14 0.623849 0.000000 0.532867
O O15 0.885124 0.120111 0.795034
O O16 0.148826 0.500000 0.882897
O O17 0.282596 0.341540 0.927509
O O18 0.149109 0.000000 0.058104
O O19 0.000000 0.851280 0.000000
O O20 0.500000 0.304971 0.000000
#
# Coordination Sequence:
#
# PCOD9144679 Si02
#       8
#     4   4   4   4   4   4   4   4
#     4   9  18  31  49  75 108 144 177 206 247 309
#     4  10  19  34  55  78 104 140 177 223 268 311
#     4  10  19  34  55  78 104 140 177 223 268 311
#     4   9  18  31  49  75 108 144 177 206 247 309
#     4  10  19  30  48  80 118 151 179 208 249 305
#     4  10  22  40  59  78  98 129 179 231 279 326
#     4  10  19  30  48  80 118 151 179 208 249 305
#     4  10  21  35  52  77 105 134 171 217 268 319
#
# _framework density 16.905519000000002
#
# number of rings (size 3 to 8) (size 9 to 14) (size 15 to 20)
#    0.000    2.250    1.250    1.875    0.000    4.750 
#    0.000    1.250    0.000    0.750    0.000    7.000 
#    0.000    0.000    0.000    0.000    0.000    0.000 
#
# Total GULP energy -178575.266093 kJ/mol
# GULP energy per Si atom -5580.477065 kJ/mol
# Density = 1.686704 g / cm^3
# Si number density = 16.905519 Si / 1000 Ang^3
#
#
#
# Elastic Constant Matrix: (Units=GPa)
#
#
# Indices 1 2 3 4 5 6 
#
# 1 101.1387 35.1930 36.5181 0.0000 7.1560 0.0000
# 2 35.1930 74.2263 36.3320 0.0000 -0.2617 0.0000
# 3 36.5181 36.3320 84.3113 0.0000 -3.1184 0.0000
# 4 0.0000 0.0000 0.0000 11.1052 0.0000 -1.3992
# 5 7.1560 -0.2617 -3.1184 0.0000 19.7714 0.0000
# 6 0.0000 0.0000 0.0000 -1.3992 0.0000 5.2078
#
#
#
# Elastic Compliance Matrix: (Units=1/GPa)
#
#
# Indices 1 2 3 4 5 6 
#
# 1 0.013249 -0.004300 -0.004089 0.000000 -0.005497 0.000000
# 2 -0.004300 0.018486 -0.006073 0.000000 0.000843 0.000000
# 3 -0.004089 -0.006073 0.016396 0.000000 0.003986 0.000000
# 4 0.000000 0.000000 0.000000 0.093203 0.000000 0.025041
# 5 -0.005497 0.000843 0.003986 0.000000 0.053207 0.000000
# 6 0.000000 0.000000 0.000000 0.025041 0.000000 0.198749
#
#
# Mechanical properties :
#
#
# Convention : Reuss Voigt Hill
#
# Bulk Modulus (GPa) = 52.05994 52.86251 52.46122
# Shear Modulus (GPa) = 11.66543 17.32576 14.49559
#
# Velocity S-wave (km/s) = 2.62970 3.20481 2.93140
# Velocity P-wave (km/s) = 6.33103 6.71057 6.52356
#
# Compressibility (1/GPa) = 0.01920863
#
# Stress axis : x y z
#
# Youngs Moduli (GPa) = 75.47788 54.09396 60.98957
#
# Poissons Ratio (x) = 0.23258 0.24939
# Poissons Ratio (y) = 0.32453 0.37038
# Poissons Ratio (z) = 0.30863 0.32850
#
# Static dielectric constant tensor:
#      x y z
#    x 1.571120 0.000000 -0.004700 
#    y 0.000000 1.518170 0.000000 
#    z -0.004700 0.000000 1.590990 
# 
# From -- ./inp_files/34845.got.cif
#   From: 2010.05.17/outbox.cif.g08.bks.cpg/sg10_18_cif.got.tgz:34845.got - 2010.06.03 11:33:40.
