data_PCOD9144464
_publ_section_title
;
Structure prediction by ZEFSAII (Michael W. Deem and Ramdas Pophale) SiO2 
 PCOD9144464
Probable space group: P 2/M
;
_chemical_formula_sum "Si O2"
_cell_formula_units_Z 24
_cell_length_a 11.466087
_cell_length_b 13.749722
_cell_length_c 13.397481
_cell_angle_alpha 90.000000
_cell_angle_beta 37.162233
_cell_angle_gamma 90.000000
_cell_volume 1275.916940
_symmetry_space_group_name_H-M "P 2/M"
_symmetry_group_IT_number 10
_symmetry_cell_setting 'monoclinic'
loop_
_space_group_symop_operation_xyz
x,y,z
-x,y,-z
-x,-y,-z
x,-y,z
loop_
_atom_site_type_symbol
_atom_site_label
_atom_site_fract_x
_atom_site_fract_y
_atom_site_fract_z
Si Si1 0.599384 0.739709 0.665802
Si Si2 0.646585 0.613415 0.814767
Si Si3 0.039841 0.609179 0.134730
Si Si4 0.651629 0.888053 0.805520
Si Si5 0.324051 0.609723 0.750384
Si Si6 0.045423 0.258629 0.313140
O O1 0.579772 0.647758 0.753085
O O2 0.572494 0.829385 0.762283
O O3 0.461179 0.703496 0.671037
O O4 0.818345 0.750693 0.480411
O O5 0.647360 0.500000 0.821610
O O6 0.857067 0.656851 0.687826
O O7 0.500000 0.652420 0.000000
O O8 0.064323 0.500000 0.164311
O O9 0.820445 0.617136 0.245139
O O10 0.085950 0.699154 0.175237
O O11 0.180002 0.611016 0.944022
O O12 0.840524 0.834597 0.722344
O O13 0.689878 0.000000 0.753554
O O14 0.500000 0.885057 0.000000
O O15 0.413716 0.500000 0.685353
#
# Coordination Sequence:
#
# PCOD9144464 Si02
#       6
#     4   4   4   4   4   4
#     4  11  21  31  48  74 103 131 159 201 255 304
#     4  10  19  30  45  65  94 132 169 203 238 285
#     4   9  18  33  52  73 101 140 180 211 239 280
#     4  10  21  38  59  77  94 124 167 211 254 303
#     4   9  18  33  52  73 101 140 180 211 239 280
#     4  11  21  31  48  74 103 131 159 201 255 304
#
# _framework density 18.810002999999998
#
# number of rings (size 3 to 8) (size 9 to 14) (size 15 to 20)
#    0.000    2.000    0.000    8.000    0.000    8.000 
#    0.000    1.667    0.000    1.000    0.000    7.000 
#    0.000    0.000    0.000    0.000    0.000    0.000 
#
# Total GULP energy -133751.039922 kJ/mol
# GULP energy per Si atom -5572.959997 kJ/mol
# Density = 1.876719 g / cm^3
# Si number density = 18.810003 Si / 1000 Ang^3
#
#
#
# Elastic Constant Matrix: (Units=GPa)
#
#
# Indices 1 2 3 4 5 6 
#
# 1 52.7602 34.3734 -3.5745 0.0000 -12.7960 0.0000
# 2 34.3734 125.5341 19.3572 0.0000 -18.0472 0.0000
# 3 -3.5745 19.3572 50.6120 0.0000 -7.7187 0.0000
# 4 0.0000 0.0000 0.0000 -79.9095 0.0000 -46.2183
# 5 -12.7960 -18.0472 -7.7187 0.0000 25.6001 0.0000
# 6 0.0000 0.0000 0.0000 -46.2183 0.0000 -8.6221
#
#
#
# Elastic Compliance Matrix: (Units=1/GPa)
#
#
# Indices 1 2 3 4 5 6 
#
# 1 0.026129 -0.006603 0.005925 0.000000 0.010192 0.000000
# 2 -0.006603 0.010860 -0.004146 0.000000 0.003105 0.000000
# 3 0.005925 -0.004146 0.022817 0.000000 0.006918 0.000000
# 4 0.000000 0.000000 0.000000 0.005958 0.000000 -0.031938
# 5 0.010192 0.003105 0.006918 0.000000 0.048431 0.000000
# 6 0.000000 0.000000 0.000000 -0.031938 0.000000 0.055219
#
#
# Mechanical properties :
#
#
# Convention : Reuss Voigt Hill
#
# Bulk Modulus (GPa) = 19.93713 36.57983 28.25848
# Shear Modulus (GPa) = 25.53866 -0.66962 12.43452
#
# Velocity S-wave (km/s) = 3.68872 -0.59730 2.57390
# Velocity P-wave (km/s) = 5.36325 4.36045 4.88764
#
# Compressibility (1/GPa) = 0.05015767
#
# Stress axis : x y z
#
# Youngs Moduli (GPa) = 38.27210 92.08354 43.82606
#
# Poissons Ratio (x) = 0.60802 -0.25967
# Poissons Ratio (y) = 0.25271 0.18171
# Poissons Ratio (z) = -0.22676 0.38180
#
# Static dielectric constant tensor:
#      x y z
#    x 2.358040 0.000000 0.264720 
#    y 0.000000 1.645750 0.000000 
#    z 0.264720 0.000000 1.813520 
# 
# From -- ./inp_files/51514.got.cif
#   From: 2010.05.17/outbox.cif.g08.bks.cpg/sg10_26_cif.got.tgz:51514.got - 2010.06.03 11:33:40.
