data_PCOD9144886
_publ_section_title
;
Structure prediction by ZEFSAII (Michael W. Deem and Ramdas Pophale) SiO2 
 PCOD9144886
Probable space group: P 2/M
;
_chemical_formula_sum "Si O2"
_cell_formula_units_Z 28
_cell_length_a 31.532737
_cell_length_b 7.834093
_cell_length_c 31.491019
_cell_angle_alpha 90.000000
_cell_angle_beta 170.521675
_cell_angle_gamma 90.000000
_cell_volume 1281.042127
_symmetry_space_group_name_H-M "P 2/M"
_symmetry_group_IT_number 10
_symmetry_cell_setting 'monoclinic'
loop_
_space_group_symop_operation_xyz
x,y,z
-x,y,-z
-x,-y,-z
x,-y,z
loop_
_atom_site_type_symbol
_atom_site_label
_atom_site_fract_x
_atom_site_fract_y
_atom_site_fract_z
Si Si1 0.331752 0.196115 0.422648
Si Si2 0.138280 0.302654 0.094929
Si Si3 0.737231 0.791263 0.263091
Si Si4 0.243453 0.209078 0.620330
Si Si5 0.948927 0.704868 0.180497
Si Si6 0.469833 0.706177 0.654785
Si Si7 0.235674 0.205669 0.907948
O O1 0.590835 0.222394 0.650928
O O2 0.409165 0.245374 0.546778
O O3 0.255218 0.000000 0.345639
O O4 0.081922 0.295052 0.158685
O O5 0.199710 0.500000 0.164870
O O6 0.000000 0.226598 0.000000
O O7 0.725464 0.735783 0.300325
O O8 0.000000 0.738826 0.500000
O O9 0.732856 0.000000 0.259397
O O10 0.500000 0.734464 0.000000
O O11 0.977731 0.264963 0.336565
O O12 0.242513 0.000000 0.619630
O O13 0.483141 0.266395 0.828368
O O14 0.958900 0.500000 0.186614
O O15 0.850189 0.745676 0.129815
O O16 0.234361 0.768554 0.451661
O O17 0.740809 0.769795 0.940736
O O18 0.477881 0.500000 0.664537
O O19 0.240751 0.000000 0.911219
#
# Coordination Sequence:
#
# PCOD9144886 Si02
#       7
#     4   4   4   4   4   4   4
#     4  12  25  40  63  95 126 155 194 249 301 344
#     4  11  24  43  66  90 121 165 208 241 285 351
#     4   9  15  23  37  58  88 125 160 197 243 298
#     4   9  17  28  42  65  96 129 164 201 252 313
#     4  10  21  36  55  78 103 136 181 226 264 315
#     4  10  21  38  58  79 108 146 183 223 274 333
#     4  10  19  31  48  69  98 132 162 204 261 316
#
# _framework density 21.857202999999998
#
# number of rings (size 3 to 8) (size 9 to 14) (size 15 to 20)
#    0.000    1.857    0.000    4.714    0.000    8.571 
#    0.000    0.000    0.000    0.000    0.000    0.000 
#    0.000   11.429    0.000    0.000    0.000    0.000 
#
# Total GULP energy -156555.311273 kJ/mol
# GULP energy per Si atom -5591.261117 kJ/mol
# Density = 2.180746 g / cm^3
# Si number density = 21.857203 Si / 1000 Ang^3
#
#
#
# Elastic Constant Matrix: (Units=GPa)
#
#
# Indices 1 2 3 4 5 6 
#
# 1 49.0513 -9.5670 -27.3663 0.0000 0.0099 0.0000
# 2 -9.5670 26.5605 2.9265 0.0000 2.7252 0.0000
# 3 -27.3663 2.9265 66.4980 0.0000 2.7034 0.0000
# 4 0.0000 0.0000 0.0000 9.0802 0.0000 11.9746
# 5 0.0099 2.7252 2.7034 0.0000 42.7295 0.0000
# 6 0.0000 0.0000 0.0000 11.9746 0.0000 19.5899
#
#
#
# Elastic Compliance Matrix: (Units=1/GPa)
#
#
# Indices 1 2 3 4 5 6 
#
# 1 0.028528 0.009155 0.011391 0.000000 -0.001311 0.000000
# 2 0.009155 0.041001 0.002075 0.000000 -0.002748 0.000000
# 3 0.011391 0.002075 0.019690 0.000000 -0.001381 0.000000
# 4 0.000000 0.000000 0.000000 0.568002 0.000000 -0.347200
# 5 -0.001311 -0.002748 -0.001381 0.000000 0.023666 0.000000
# 6 0.000000 0.000000 0.000000 -0.347200 0.000000 0.263279
#
#
# Mechanical properties :
#
#
# Convention : Reuss Voigt Hill
#
# Bulk Modulus (GPa) = 7.43717 8.23293 7.83505
# Shear Modulus (GPa) = 5.29804 26.02103 15.65953
#
# Velocity S-wave (km/s) = 1.55859 3.45411 2.67956
# Velocity P-wave (km/s) = 2.57855 4.43652 3.62847
#
# Compressibility (1/GPa) = 0.13445968
#
# Stress axis : x y z
#
# Youngs Moduli (GPa) = 35.05382 24.38975 50.78603
#
# Poissons Ratio (x) = -0.22329 -0.57848
# Poissons Ratio (y) = -0.32092 -0.10538
# Poissons Ratio (z) = -0.39928 -0.05061
#
# Static dielectric constant tensor:
#      x y z
#    x 1.763900 0.000000 0.001630 
#    y 0.000000 1.807280 0.000000 
#    z 0.001630 0.000000 1.779720 
# 
# From -- ./inp_files/95943.got.cif
#   From: 2010.05.17/outbox.cif.g08.bks.cpg/sg10_48_cif.got.tgz:95943.got - 2010.06.03 11:33:40.
