data_PCOD9144545
_publ_section_title
;
Structure prediction by ZEFSAII (Michael W. Deem and Ramdas Pophale) SiO2 
 PCOD9144545
Probable space group: P 2/M
;
_chemical_formula_sum "Si O2"
_cell_formula_units_Z 30
_cell_length_a 10.770091
_cell_length_b 13.077438
_cell_length_c 12.644752
_cell_angle_alpha 90.000000
_cell_angle_beta 92.144060
_cell_angle_gamma 90.000000
_cell_volume 1779.705780
_symmetry_space_group_name_H-M "P 2/M"
_symmetry_group_IT_number 10
_symmetry_cell_setting 'monoclinic'
loop_
_space_group_symop_operation_xyz
x,y,z
-x,y,-z
-x,-y,-z
x,-y,z
loop_
_atom_site_type_symbol
_atom_site_label
_atom_site_fract_x
_atom_site_fract_y
_atom_site_fract_z
Si Si1 0.000000 0.274353 0.500000
Si Si2 0.211012 0.116879 0.511736
Si Si3 0.262716 0.880241 0.910720
Si Si4 0.869363 0.621200 0.298632
Si Si5 0.232713 0.118977 0.147933
Si Si6 0.577399 0.882822 0.652464
Si Si7 0.985525 0.757159 0.119723
Si Si8 0.665188 0.781467 0.295124
O O1 0.889991 0.197642 0.531856
O O2 0.946705 0.342334 0.403585
O O3 0.336497 0.127190 0.447547
O O4 0.242637 0.145375 0.633734
O O5 0.168300 0.000000 0.500395
O O6 0.119917 0.845115 0.890396
O O7 0.338775 0.818394 0.825892
O O8 0.278512 0.000000 0.891979
O O9 0.291452 0.858995 0.034484
O O10 0.864812 0.500000 0.290578
O O11 0.935048 0.673507 0.199514
O O12 0.732244 0.672188 0.303084
O O13 0.331386 0.127529 0.244464
O O14 0.114807 0.192216 0.158861
O O15 0.190417 0.000000 0.143083
O O16 0.468877 0.800512 0.659101
O O17 0.525679 0.000000 0.651599
O O18 0.000000 0.717451 0.000000
#
# Coordination Sequence:
#
# PCOD9144545 Si02
#       8
#     2   4   4   4   4   4   4   4
#     4  10  20  34  54  76 100 124 152 194 240 292
#     4  10  19  31  50  76 104 130 153 182 228 288
#     4   9  16  27  45  70 100 131 160 190 230 285
#     4  10  21  36  53  70  90 122 163 209 252 281
#     4   9  17  28  45  72 105 134 156 185 230 287
#     4  10  19  30  46  70 101 133 161 188 223 276
#     4   9  17  30  49  74  99 125 157 196 243 291
#     4  10  20  32  47  67  93 129 168 201 233 275
#
# _framework density 16.856718000000001
#
# number of rings (size 3 to 8) (size 9 to 14) (size 15 to 20)
#    0.000    2.400    0.000    3.200    0.000    3.467 
#    0.000    6.000    0.000    9.600    0.000    8.400 
#    0.000    0.000    0.000    0.000    0.000    0.000 
#
# Total GULP energy -167301.179179 kJ/mol
# GULP energy per Si atom -5576.705973 kJ/mol
# Density = 1.681835 g / cm^3
# Si number density = 16.856718 Si / 1000 Ang^3
#
#
#
# Elastic Constant Matrix: (Units=GPa)
#
#
# Indices 1 2 3 4 5 6 
#
# 1 54.3435 36.2835 16.7894 0.0000 -5.3997 0.0000
# 2 36.2835 96.8018 35.7270 0.0000 -0.5456 0.0000
# 3 16.7894 35.7270 78.2828 0.0000 -0.4783 0.0000
# 4 0.0000 0.0000 0.0000 16.3972 0.0000 -0.1563
# 5 -5.3997 -0.5456 -0.4783 0.0000 16.5728 0.0000
# 6 0.0000 0.0000 0.0000 -0.1563 0.0000 16.0768
#
#
#
# Elastic Compliance Matrix: (Units=1/GPa)
#
#
# Indices 1 2 3 4 5 6 
#
# 1 0.025676 -0.009097 -0.001306 0.000000 0.008029 0.000000
# 2 -0.009097 0.015647 -0.005206 0.000000 -0.002599 0.000000
# 3 -0.001306 -0.005206 0.015429 0.000000 -0.000152 0.000000
# 4 0.000000 0.000000 0.000000 0.060992 0.000000 0.000593
# 5 0.008029 -0.002599 -0.000152 0.000000 0.062866 0.000000
# 6 0.000000 0.000000 0.000000 0.000593 0.000000 0.062207
#
#
# Mechanical properties :
#
#
# Convention : Reuss Voigt Hill
#
# Bulk Modulus (GPa) = 39.16208 45.22531 42.19369
# Shear Modulus (GPa) = 17.69622 19.18457 18.44039
#
# Velocity S-wave (km/s) = 3.24358 3.37723 3.31108
# Velocity P-wave (km/s) = 6.10823 6.48807 6.30101
#
# Compressibility (1/GPa) = 0.02553491
#
# Stress axis : x y z
#
# Youngs Moduli (GPa) = 38.94627 63.91101 64.81190
#
# Poissons Ratio (x) = 0.58138 0.08465
# Poissons Ratio (y) = 0.35429 0.33740
# Poissons Ratio (z) = 0.05087 0.33271
#
# Static dielectric constant tensor:
#      x y z
#    x 1.578410 0.000000 -0.007870 
#    y 0.000000 1.527950 0.000000 
#    z -0.007870 0.000000 1.596100 
# 
# From -- ./inp_files/46717.got.cif
#   From: 2010.05.17/outbox.cif.g08.bks.cpg/sg10_24_cif.got.tgz:46717.got - 2010.06.03 11:33:40.
