data_PCOD9144662
_publ_section_title
;
Structure prediction by ZEFSAII (Michael W. Deem and Ramdas Pophale) SiO2 
 PCOD9144662
Probable space group: P 2/M
;
_chemical_formula_sum "Si O2"
_cell_formula_units_Z 32
_cell_length_a 19.336621
_cell_length_b 8.858797
_cell_length_c 27.080211
_cell_angle_alpha 90.000000
_cell_angle_beta 24.836212
_cell_angle_gamma 90.000000
_cell_volume 1948.423124
_symmetry_space_group_name_H-M "P 2/M"
_symmetry_group_IT_number 10
_symmetry_cell_setting 'monoclinic'
loop_
_space_group_symop_operation_xyz
x,y,z
-x,y,-z
-x,-y,-z
x,-y,z
loop_
_atom_site_type_symbol
_atom_site_label
_atom_site_fract_x
_atom_site_fract_y
_atom_site_fract_z
Si Si1 0.681696 0.819413 0.226237
Si Si2 0.658720 0.680419 0.514846
Si Si3 0.829996 0.678457 0.506361
Si Si4 0.602420 0.181470 0.738750
Si Si5 0.904326 0.320419 0.163300
Si Si6 0.886467 0.174540 0.623008
Si Si7 0.691581 0.819813 0.388974
Si Si8 0.285927 0.679433 0.903384
O O1 0.516251 0.755876 0.358796
O O2 0.833325 0.758420 0.160304
O O3 0.690439 0.756333 0.165249
O O4 0.678805 0.000000 0.228122
O O5 0.637175 0.500000 0.524252
O O6 0.777877 0.710386 0.484099
O O7 0.722665 0.749151 0.422442
O O8 0.812259 0.500000 0.526556
O O9 0.704568 0.763244 0.624527
O O10 0.013348 0.730395 0.402057
O O11 0.709562 0.226825 0.717390
O O12 0.422908 0.252423 0.850771
O O13 0.595772 0.000000 0.742128
O O14 0.876260 0.500000 0.177654
O O15 0.805285 0.253983 0.273677
O O16 0.099167 0.294027 0.041359
O O17 0.000000 0.177785 0.500000
O O18 0.876049 0.000000 0.645587
O O19 0.500000 0.790196 0.500000
O O20 0.714969 0.000000 0.374418
O O21 0.311949 0.500000 0.881207
#
# Coordination Sequence:
#
# PCOD9144662 Si02
#       8
#     4   4   4   4   4   4   4   4
#     4  12  23  35  54  78 105 139 177 216 261 309
#     4  11  22  35  54  78 106 140 176 215 263 311
#     4  10  19  30  48  75 105 137 174 213 255 309
#     4  10  19  31  49  73 104 141 174 210 257 308
#     4  11  24  40  57  75 102 139 177 220 265 311
#     4   8  16  29  45  69 102 138 172 206 253 309
#     4  11  23  38  57  80 102 131 177 223 264 312
#     4  11  23  37  53  77 106 140 179 215 259 314
#
# _framework density 16.423538000000001
#
# number of rings (size 3 to 8) (size 9 to 14) (size 15 to 20)
#    0.000    1.500    2.500    4.500    0.000    8.250 
#    0.000    0.000    0.000    0.000    0.000    0.875 
#    0.000    7.000    0.000    0.000    0.000    0.000 
#
# Total GULP energy -178705.539692 kJ/mol
# GULP energy per Si atom -5584.548115 kJ/mol
# Density = 1.638616 g / cm^3
# Si number density = 16.423538 Si / 1000 Ang^3
#
#
#
# Elastic Constant Matrix: (Units=GPa)
#
#
# Indices 1 2 3 4 5 6 
#
# 1 96.9118 52.1983 33.9260 0.0000 -31.9969 0.0000
# 2 52.1983 75.2770 35.9724 0.0000 -17.0875 0.0000
# 3 33.9260 35.9724 62.4518 0.0000 -17.1287 0.0000
# 4 0.0000 0.0000 0.0000 14.8380 0.0000 -3.7156
# 5 -31.9969 -17.0875 -17.1287 0.0000 26.9046 0.0000
# 6 0.0000 0.0000 0.0000 -3.7156 0.0000 33.8202
#
#
#
# Elastic Compliance Matrix: (Units=1/GPa)
#
#
# Indices 1 2 3 4 5 6 
#
# 1 0.023226 -0.011245 -0.000633 0.000000 0.020077 0.000000
# 2 -0.011245 0.024599 -0.009018 0.000000 -0.003492 0.000000
# 3 -0.000633 -0.009018 0.023956 0.000000 0.008771 0.000000
# 4 0.000000 0.000000 0.000000 0.069301 0.000000 0.007614
# 5 0.020077 -0.003492 0.008771 0.000000 0.064411 0.000000
# 6 0.000000 0.000000 0.000000 0.007614 0.000000 0.030405
#
#
# Mechanical properties :
#
#
# Convention : Reuss Voigt Hill
#
# Bulk Modulus (GPa) = 33.34662 53.20378 43.27520
# Shear Modulus (GPa) = 17.38003 22.61549 19.99776
#
# Velocity S-wave (km/s) = 3.25659 3.71484 3.49324
# Velocity P-wave (km/s) = 5.87271 7.13199 6.53276
#
# Compressibility (1/GPa) = 0.02998805
#
# Stress axis : x y z
#
# Youngs Moduli (GPa) = 43.05533 40.65282 41.74264
#
# Poissons Ratio (x) = 0.45715 0.02644
# Poissons Ratio (y) = 0.48417 0.37642
# Poissons Ratio (z) = 0.02727 0.36660
#
# Static dielectric constant tensor:
#      x y z
#    x 1.559370 0.000000 -0.028410 
#    y 0.000000 1.548120 0.000000 
#    z -0.028410 0.000000 1.532000 
# 
# From -- ./inp_files/93677.got.cif
#   From: 2010.05.17/outbox.cif.g08.bks.cpg/sg10_47_cif.got.tgz:93677.got - 2010.06.03 11:33:40.
