data_PCOD9144634
_publ_section_title
;
Structure prediction by ZEFSAII (Michael W. Deem and Ramdas Pophale) SiO2 
 PCOD9144634
Probable space group: P 2/M
;
_chemical_formula_sum "Si O2"
_cell_formula_units_Z 32
_cell_length_a 14.639155
_cell_length_b 8.913513
_cell_length_c 15.955500
_cell_angle_alpha 90.000000
_cell_angle_beta 89.796562
_cell_angle_gamma 90.000000
_cell_volume 2081.961010
_symmetry_space_group_name_H-M "P 2/M"
_symmetry_group_IT_number 10
_symmetry_cell_setting 'monoclinic'
loop_
_space_group_symop_operation_xyz
x,y,z
-x,y,-z
-x,-y,-z
x,-y,z
loop_
_atom_site_type_symbol
_atom_site_label
_atom_site_fract_x
_atom_site_fract_y
_atom_site_fract_z
Si Si1 0.289236 0.680455 0.159665
Si Si2 0.289073 0.819845 0.832065
Si Si3 0.391841 0.679237 0.675499
Si Si4 0.610878 0.172630 0.499271
Si Si5 0.605738 0.319304 0.673861
Si Si6 0.606267 0.180786 0.998225
Si Si7 0.094556 0.319785 0.092735
Si Si8 0.904025 0.819799 0.092071
O O1 0.297601 0.500000 0.155059
O O2 0.334356 0.729254 0.246887
O O3 0.343260 0.749628 0.081419
O O4 0.182386 0.716976 0.148752
O O5 0.331898 0.743575 0.750906
O O6 0.183055 0.784715 0.850184
O O7 0.297534 0.000000 0.823641
O O8 0.344765 0.774388 0.915417
O O9 0.387514 0.500000 0.674335
O O10 0.361378 0.742955 0.585524
O O11 0.498955 0.722371 0.687777
O O12 0.500000 0.176681 0.500000
O O13 0.638438 0.249792 0.586134
O O14 0.639912 0.000000 0.496579
O O15 0.609252 0.500000 0.667281
O O16 0.611921 0.000000 0.992169
O O17 0.500000 0.223933 0.000000
O O18 0.085565 0.500000 0.086578
O O19 0.999635 0.247790 0.123064
O O20 0.111288 0.252016 0.999860
O O21 0.910591 0.000000 0.083143
#
# Coordination Sequence:
#
# PCOD9144634 Si02
#       8
#     4   4   4   4   4   4   4   4
#     4  10  20  32  47  68  95 126 157 194 236 277
#     4  10  20  32  45  66  94 124 158 195 234 277
#     4  10  19  30  48  70  94 126 159 193 231 275
#     4   9  17  30  48  69  93 122 156 195 235 272
#     4   9  18  32  47  68  97 126 158 192 230 277
#     4  10  20  32  45  63  92 129 164 195 227 269
#     4  10  19  31  48  69  91 118 156 200 240 279
#     4  10  19  32  49  66  89 122 156 197 244 280
#
# _framework density 15.370124000000001
#
# number of rings (size 3 to 8) (size 9 to 14) (size 15 to 20)
#    0.000    2.250    1.250    3.000    0.000    4.750 
#    0.000    0.000    0.000    0.000    0.000    0.875 
#    0.000    7.000    0.000    0.000    0.000    0.000 
#
# Total GULP energy -178475.710483 kJ/mol
# GULP energy per Si atom -5577.365953 kJ/mol
# Density = 1.533514 g / cm^3
# Si number density = 15.370124 Si / 1000 Ang^3
#
#
#
# Elastic Constant Matrix: (Units=GPa)
#
#
# Indices 1 2 3 4 5 6 
#
# 1 115.2523 45.5035 80.2123 0.0000 -4.1049 0.0000
# 2 45.5035 43.4310 49.7166 0.0000 -2.6903 0.0000
# 3 80.2123 49.7166 148.5712 0.0000 0.5776 0.0000
# 4 0.0000 0.0000 0.0000 29.2841 0.0000 -2.7085
# 5 -4.1049 -2.6903 0.5776 0.0000 8.1478 0.0000
# 6 0.0000 0.0000 0.0000 -2.7085 0.0000 62.5246
#
#
#
# Elastic Compliance Matrix: (Units=1/GPa)
#
#
# Indices 1 2 3 4 5 6 
#
# 1 0.017180 -0.011397 -0.005482 0.000000 0.005281 0.000000
# 2 -0.011397 0.046361 -0.009400 0.000000 0.010232 0.000000
# 3 -0.005482 -0.009400 0.012862 0.000000 -0.006777 0.000000
# 4 0.000000 0.000000 0.000000 0.034286 0.000000 0.001485
# 5 0.005281 0.010232 -0.006777 0.000000 0.129252 0.000000
# 6 0.000000 0.000000 0.000000 0.001485 0.000000 0.016058
#
#
# Mechanical properties :
#
#
# Convention : Reuss Voigt Hill
#
# Bulk Modulus (GPa) = 41.93912 73.12437 57.53174
# Shear Modulus (GPa) = 15.79753 28.77944 22.28849
#
# Velocity S-wave (km/s) = 3.20942 4.33185 3.81217
# Velocity P-wave (km/s) = 6.40931 8.52636 7.54248
#
# Compressibility (1/GPa) = 0.02384409
#
# Stress axis : x y z
#
# Youngs Moduli (GPa) = 58.20825 21.57002 77.74627
#
# Poissons Ratio (x) = 0.24584 0.42619
# Poissons Ratio (y) = 0.66341 0.73084
# Poissons Ratio (z) = 0.31909 0.20276
#
# Static dielectric constant tensor:
#      x y z
#    x 1.513000 0.000000 0.010600 
#    y 0.000000 1.516940 0.000000 
#    z 0.010600 0.000000 1.483180 
# 
# From -- ./inp_files/65990.got.cif
#   From: 2010.05.17/outbox.cif.g08.bks.cpg/sg10_33_cif.got.tgz:65990.got - 2010.06.03 11:33:40.
