data_PCOD9144794
_publ_section_title
;
Structure prediction by ZEFSAII (Michael W. Deem and Ramdas Pophale) SiO2 
 PCOD9144794
Probable space group: P 2/M
;
_chemical_formula_sum "Si O2"
_cell_formula_units_Z 32
_cell_length_a 15.570532
_cell_length_b 8.494487
_cell_length_c 15.381377
_cell_angle_alpha 90.000000
_cell_angle_beta 78.961309
_cell_angle_gamma 90.000000
_cell_volume 1996.757349
_symmetry_space_group_name_H-M "P 2/M"
_symmetry_group_IT_number 10
_symmetry_cell_setting 'monoclinic'
loop_
_space_group_symop_operation_xyz
x,y,z
-x,y,-z
-x,-y,-z
x,-y,z
loop_
_atom_site_type_symbol
_atom_site_label
_atom_site_fract_x
_atom_site_fract_y
_atom_site_fract_z
Si Si1 0.584440 0.691492 0.372368
Si Si2 0.754800 0.311670 0.242870
Si Si3 0.126424 0.184815 0.926774
Si Si4 0.075620 0.190137 0.295754
Si Si5 0.947107 0.315282 0.887591
Si Si6 0.875110 0.809650 0.375922
Si Si7 0.389459 0.690046 0.432598
Si Si8 0.204403 0.810364 0.423256
O O1 0.584645 0.500000 0.372309
O O2 0.658057 0.743075 0.290419
O O3 0.484103 0.740868 0.377572
O O4 0.611404 0.738810 0.465294
O O5 0.754716 0.500000 0.233605
O O6 0.793051 0.236593 0.148321
O O7 0.819054 0.265824 0.309661
O O8 0.037880 0.225049 0.890210
O O9 0.128512 0.000000 0.943351
O O10 0.116201 0.274643 0.019862
O O11 0.088781 0.262076 0.198178
O O12 0.145839 0.243516 0.353585
O O13 0.977217 0.230277 0.345684
O O14 0.079865 0.000000 0.288399
O O15 0.966568 0.500000 0.883703
O O16 0.838112 0.759098 0.476740
O O17 0.867356 0.000000 0.370890
O O18 0.386586 0.500000 0.431371
O O19 0.304316 0.755165 0.402254
O O20 0.202228 0.000000 0.423602
#
# Coordination Sequence:
#
# PCOD9144794 Si02
#       8
#     4   4   4   4   4   4   4   4
#     4   8  16  29  48  69  95 127 161 200 248 293
#     4  11  19  30  49  74  99 127 162 204 242 284
#     4  11  21  34  51  71  98 130 158 192 246 301
#     4  10  20  34  49  66  97 137 169 200 243 290
#     4  11  21  34  51  73  96 123 164 208 239 277
#     4  10  19  31  46  66  97 135 170 199 235 285
#     4   9  16  31  49  67  92 129 167 201 243 290
#     4  10  20  32  47  70  98 132 171 206 240 282
#
# _framework density 16.025983
#
# number of rings (size 3 to 8) (size 9 to 14) (size 15 to 20)
#    0.000    2.000    2.500    4.500    0.000    2.000 
#    0.000    2.500    0.000    2.250    0.000    0.875 
#    0.000    7.000    0.000    0.000    0.000    0.000 
#
# Total GULP energy -178560.684418 kJ/mol
# GULP energy per Si atom -5580.021388 kJ/mol
# Density = 1.598951 g / cm^3
# Si number density = 16.025983 Si / 1000 Ang^3
#
#
#
# Elastic Constant Matrix: (Units=GPa)
#
#
# Indices 1 2 3 4 5 6 
#
# 1 95.4417 3.5590 46.5314 0.0000 -10.9554 0.0000
# 2 3.5590 13.4657 -0.2498 0.0000 0.8603 0.0000
# 3 46.5314 -0.2498 78.7555 0.0000 -10.2863 0.0000
# 4 0.0000 0.0000 0.0000 23.6195 0.0000 -0.9565
# 5 -10.9554 0.8603 -10.2863 0.0000 25.6157 0.0000
# 6 0.0000 0.0000 0.0000 -0.9565 0.0000 21.2281
#
#
#
# Elastic Compliance Matrix: (Units=1/GPa)
#
#
# Indices 1 2 3 4 5 6 
#
# 1 0.015185 -0.004377 -0.008568 0.000000 0.003201 0.000000
# 2 -0.004377 0.075685 0.002374 0.000000 -0.003460 0.000000
# 3 -0.008568 0.002374 0.018235 0.000000 0.003578 0.000000
# 4 0.000000 0.000000 0.000000 0.042415 0.000000 0.001911
# 5 0.003201 -0.003460 0.003578 0.000000 0.041961 0.000000
# 6 0.000000 0.000000 0.000000 0.001911 0.000000 0.047193
#
#
# Mechanical properties :
#
#
# Convention : Reuss Voigt Hill
#
# Bulk Modulus (GPa) = 11.36837 31.92711 21.64774
# Shear Modulus (GPa) = 17.17408 23.28082 20.22745
#
# Velocity S-wave (km/s) = 3.27714 3.81555 3.55655
# Velocity P-wave (km/s) = 4.62911 6.27508 5.51386
#
# Compressibility (1/GPa) = 0.08796339
#
# Stress axis : x y z
#
# Youngs Moduli (GPa) = 65.85285 13.21272 54.84090
#
# Poissons Ratio (x) = 0.05783 0.46987
# Poissons Ratio (y) = 0.28823 -0.13020
# Poissons Ratio (z) = 0.56422 -0.03137
#
# Static dielectric constant tensor:
#      x y z
#    x 1.529350 0.000000 -0.020070 
#    y 0.000000 1.546390 0.000000 
#    z -0.020070 0.000000 1.531200 
# 
# From -- ./inp_files/66091.got.cif
#   From: 2010.05.17/outbox.cif.g08.bks.cpg/sg10_34_cif.got.tgz:66091.got - 2010.06.03 11:33:40.
