data_PCOD9144043
_publ_section_title
;
Structure prediction by ZEFSAII (Michael W. Deem and Ramdas Pophale) SiO2 
 PCOD9144043
Probable space group: P 2/M
;
_chemical_formula_sum "Si O2"
_cell_formula_units_Z 32
_cell_length_a 12.674333
_cell_length_b 8.834621
_cell_length_c 29.397025
_cell_angle_alpha 90.000000
_cell_angle_beta 29.934379
_cell_angle_gamma 90.000000
_cell_volume 1642.569530
_symmetry_space_group_name_H-M "P 2/M"
_symmetry_group_IT_number 10
_symmetry_cell_setting 'monoclinic'
loop_
_space_group_symop_operation_xyz
x,y,z
-x,y,-z
-x,-y,-z
x,-y,z
loop_
_atom_site_type_symbol
_atom_site_label
_atom_site_fract_x
_atom_site_fract_y
_atom_site_fract_z
Si Si1 0.032957 0.180014 0.173938
Si Si2 0.520543 0.175259 0.222060
Si Si3 0.194770 0.817361 0.461531
Si Si4 0.356555 0.320602 0.735353
Si Si5 0.074658 0.184166 0.355412
Si Si6 0.173725 0.825912 0.972774
Si Si7 0.194680 0.181962 0.209647
Si Si8 0.357992 0.677507 0.987291
O O1 0.832292 0.250623 0.223602
O O2 0.039837 0.213020 0.225159
O O3 0.029994 0.000000 0.168703
O O4 0.248813 0.244031 0.071193
O O5 0.655810 0.267634 0.207517
O O6 0.613675 0.176496 0.136612
O O7 0.282695 0.232347 0.305754
O O8 0.519890 0.000000 0.237648
O O9 0.414535 0.741206 0.365952
O O10 0.123169 0.773032 0.539434
O O11 0.000000 0.781239 0.500000
O O12 0.220505 0.000000 0.450004
O O13 0.348358 0.500000 0.735315
O O14 0.102375 0.233673 0.292851
O O15 0.079643 0.000000 0.352915
O O16 0.198127 0.715586 0.005571
O O17 0.136034 0.000000 0.002513
O O18 0.000000 0.788824 0.000000
O O19 0.418937 0.254500 0.112223
O O20 0.226549 0.000000 0.200247
O O21 0.377236 0.500000 0.987834
#
# Coordination Sequence:
#
# PCOD9144043 Si02
#       8
#     4   4   4   4   4   4   4   4
#     4  11  24  42  64  85 113 158 211 254 293 347
#     4  10  18  34  59  84 117 156 196 241 290 349
#     4  10  19  36  63  91 119 157 199 238 292 360
#     4  12  25  39  58  88 127 158 193 247 305 364
#     4   9  17  34  62  91 116 145 193 250 292 339
#     4  10  20  34  55  82 115 158 202 243 289 346
#     4  10  21  41  66  90 115 154 208 256 292 340
#     4  12  24  37  58  89 125 159 195 243 300 359
#
# _framework density 19.481672
#
# number of rings (size 3 to 8) (size 9 to 14) (size 15 to 20)
#    0.000    1.500    2.500    3.750    0.000    4.500 
#    0.000    1.250    0.000    3.750    0.000    0.000 
#    0.000    0.000    0.000    0.000    0.000    0.000 
#
# Total GULP energy -178738.680249 kJ/mol
# GULP energy per Si atom -5585.583758 kJ/mol
# Density = 1.943733 g / cm^3
# Si number density = 19.481672 Si / 1000 Ang^3
#
#
#
# Elastic Constant Matrix: (Units=GPa)
#
#
# Indices 1 2 3 4 5 6 
#
# 1 117.3949 49.5010 41.6386 0.0000 15.0746 0.0000
# 2 49.5010 63.9154 23.2630 0.0000 3.5291 0.0000
# 3 41.6386 23.2630 75.9836 0.0000 15.1247 0.0000
# 4 0.0000 0.0000 0.0000 1.5974 0.0000 -2.3155
# 5 15.0746 3.5291 15.1247 0.0000 28.9008 0.0000
# 6 0.0000 0.0000 0.0000 -2.3155 0.0000 -9.0257
#
#
#
# Elastic Compliance Matrix: (Units=1/GPa)
#
#
# Indices 1 2 3 4 5 6 
#
# 1 0.014573 -0.009513 -0.004233 0.000000 -0.004225 0.000000
# 2 -0.009513 0.023832 -0.002781 0.000000 0.003507 0.000000
# 3 -0.004233 -0.002781 0.017665 0.000000 -0.006697 0.000000
# 4 0.000000 0.000000 0.000000 0.456320 0.000000 -0.117067
# 5 -0.004225 0.003507 -0.006697 0.000000 0.039881 0.000000
# 6 0.000000 0.000000 0.000000 -0.117067 0.000000 -0.080762
#
#
# Mechanical properties :
#
#
# Convention : Reuss Voigt Hill
#
# Bulk Modulus (GPa) = 43.44811 54.01100 48.72956
# Shear Modulus (GPa) = 9.76113 13.82059 11.79086
#
# Velocity S-wave (km/s) = 2.24082 2.66637 2.46281
# Velocity P-wave (km/s) = 5.38939 6.10439 5.75800
#
# Compressibility (1/GPa) = 0.02301596
#
# Stress axis : x y z
#
# Youngs Moduli (GPa) = 68.61898 41.96066 56.60947
#
# Poissons Ratio (x) = 0.39916 0.23961
# Poissons Ratio (y) = 0.65276 0.15746
# Poissons Ratio (z) = 0.29044 0.11671
#
# Static dielectric constant tensor:
#      x y z
#    x 1.701470 0.000000 0.011030 
#    y 0.000000 1.651270 0.000000 
#    z 0.011030 0.000000 1.714070 
# 
# From -- ./inp_files/94916.got.cif
#   From: 2010.05.17/outbox.cif.g08.bks.cpg/sg10_48_cif.got.tgz:94916.got - 2010.06.03 11:33:40.
