data_PCOD9144875
_publ_section_title
;
Structure prediction by ZEFSAII (Michael W. Deem and Ramdas Pophale) SiO2 
 PCOD9144875
Probable space group: P 2/M
;
_chemical_formula_sum "Si O2"
_cell_formula_units_Z 32
_cell_length_a 11.581859
_cell_length_b 7.456348
_cell_length_c 30.230619
_cell_angle_alpha 90.000000
_cell_angle_beta 152.820842
_cell_angle_gamma 90.000000
_cell_volume 1192.485759
_symmetry_space_group_name_H-M "P 2/M"
_symmetry_group_IT_number 10
_symmetry_cell_setting 'monoclinic'
loop_
_space_group_symop_operation_xyz
x,y,z
-x,y,-z
-x,-y,-z
x,-y,z
loop_
_atom_site_type_symbol
_atom_site_label
_atom_site_fract_x
_atom_site_fract_y
_atom_site_fract_z
Si Si1 0.778231 0.779789 0.818284
Si Si2 0.296419 0.203713 0.108864
Si Si3 0.259659 0.205179 0.605339
Si Si4 0.369967 0.213278 0.359620
Si Si5 0.131014 0.781143 0.864331
Si Si6 0.070875 0.291707 0.336353
Si Si7 0.573445 0.202490 0.117440
Si Si8 0.076179 0.289564 0.437022
O O1 0.705599 0.714466 0.842523
O O2 0.542589 0.725440 0.706743
O O3 0.044899 0.729307 0.885252
O O4 0.779903 0.000000 0.820270
O O5 0.413576 0.285528 0.103698
O O6 0.404380 0.000000 0.148409
O O7 0.000000 0.188587 0.000000
O O8 0.000000 0.297654 0.500000
O O9 0.162313 0.195158 0.623038
O O10 0.269413 0.000000 0.592209
O O11 0.124494 0.276175 0.249028
O O12 0.321118 0.279261 0.392517
O O13 0.656799 0.265639 0.445997
O O14 0.357556 0.000000 0.354377
O O15 0.360925 0.723142 0.909711
O O16 0.148339 0.000000 0.870095
O O17 0.995296 0.500000 0.312619
O O18 0.106754 0.222268 0.397673
O O19 0.850184 0.194175 0.234412
O O20 0.471768 0.000000 0.075820
O O21 0.025060 0.500000 0.418119
#
# Coordination Sequence:
#
# PCOD9144875 Si02
#       8
#     4   4   4   4   4   4   4   4
#     4   9  16  28  47  70  98 131 166 209 259 305
#     4   9  17  29  47  74 106 135 163 201 253 310
#     4  10  20  33  50  70  92 126 176 223 260 306
#     4  10  19  31  48  68  94 130 173 216 254 300
#     4   8  15  28  46  68  92 121 161 208 252 294
#     4  10  20  32  46  68  98 130 167 212 261 310
#     4   9  17  31  51  73  97 127 166 208 249 302
#     4  11  22  32  43  64  97 133 168 212 264 313
#
# _framework density 26.834700999999999
#
# number of rings (size 3 to 8) (size 9 to 14) (size 15 to 20)
#    0.000    2.500    0.000    3.750    0.000    6.750 
#    0.000    0.625    0.000    4.875    0.000    0.000 
#    0.000    4.000    0.000    0.000    0.000    0.000 
#
# Total GULP energy -178512.688801 kJ/mol
# GULP energy per Si atom -5578.521525 kJ/mol
# Density = 2.677362 g / cm^3
# Si number density = 26.834701 Si / 1000 Ang^3
#
#
#
# Elastic Constant Matrix: (Units=GPa)
#
#
# Indices 1 2 3 4 5 6 
#
# 1 233.4779 10.3111 34.8299 0.0000 21.0769 0.0000
# 2 10.3111 92.8375 -4.0709 0.0000 -0.5482 0.0000
# 3 34.8299 -4.0709 70.8723 0.0000 -0.4121 0.0000
# 4 0.0000 0.0000 0.0000 118.3469 0.0000 29.8343
# 5 21.0769 -0.5482 -0.4121 0.0000 51.2258 0.0000
# 6 0.0000 0.0000 0.0000 29.8343 0.0000 31.1450
#
#
#
# Elastic Compliance Matrix: (Units=1/GPa)
#
#
# Indices 1 2 3 4 5 6 
#
# 1 0.004859 -0.000658 -0.002437 0.000000 -0.002026 0.000000
# 2 -0.000658 0.010889 0.000951 0.000000 0.000395 0.000000
# 3 -0.002437 0.000951 0.015369 0.000000 0.001137 0.000000
# 4 0.000000 0.000000 0.000000 0.011140 0.000000 -0.010671
# 5 -0.002026 0.000395 0.001137 0.000000 0.020368 0.000000
# 6 0.000000 0.000000 0.000000 -0.010671 0.000000 0.042330
#
#
# Mechanical properties :
#
#
# Convention : Reuss Voigt Hill
#
# Bulk Modulus (GPa) = 37.27540 53.25864 45.26702
# Shear Modulus (GPa) = 42.30638 63.88472 53.09555
#
# Velocity S-wave (km/s) = 3.97489 4.88451 4.45299
# Velocity P-wave (km/s) = 5.91500 7.19036 6.58364
#
# Compressibility (1/GPa) = 0.02682734
#
# Stress axis : x y z
#
# Youngs Moduli (GPa) = 205.82019 91.83834 65.06620
#
# Poissons Ratio (x) = 0.06047 0.15859
# Poissons Ratio (y) = 0.13553 -0.06190
# Poissons Ratio (z) = 0.50165 -0.08737
#
# Static dielectric constant tensor:
#      x y z
#    x 2.322850 0.000000 -0.153180 
#    y 0.000000 1.998170 0.000000 
#    z -0.153180 0.000000 2.121810 
# 
# From -- ./inp_files/95072.got.cif
#   From: 2010.05.17/outbox.cif.g08.bks.cpg/sg10_48_cif.got.tgz:95072.got - 2010.06.03 11:33:40.
