data_PCOD9144601
_publ_section_title
;
Structure prediction by ZEFSAII (Michael W. Deem and Ramdas Pophale) SiO2 
 PCOD9144601
Probable space group: P 2/M
;
_chemical_formula_sum "Si O2"
_cell_formula_units_Z 32
_cell_length_a 5.084459
_cell_length_b 14.369507
_cell_length_c 24.053555
_cell_angle_alpha 90.000000
_cell_angle_beta 78.359721
_cell_angle_gamma 90.000000
_cell_volume 1721.237941
_symmetry_space_group_name_H-M "P 2/M"
_symmetry_group_IT_number 10
_symmetry_cell_setting 'monoclinic'
loop_
_space_group_symop_operation_xyz
x,y,z
-x,y,-z
-x,-y,-z
x,-y,z
loop_
_atom_site_type_symbol
_atom_site_label
_atom_site_fract_x
_atom_site_fract_y
_atom_site_fract_z
Si Si1 0.320907 0.400199 0.715970
Si Si2 0.139137 0.152115 0.326037
Si Si3 0.688081 0.814040 0.253946
Si Si4 0.775625 0.692820 0.462638
Si Si5 0.038176 0.112290 0.868562
Si Si6 0.874869 0.365450 0.647736
Si Si7 0.863912 0.900884 0.444793
Si Si8 0.472938 0.887065 0.937857
O O1 0.329508 0.500000 0.746751
O O2 0.345198 0.299171 0.744458
O O3 0.041320 0.395489 0.694683
O O4 0.574745 0.403484 0.662812
O O5 0.406229 0.135083 0.278948
O O6 0.075306 0.097566 0.384875
O O7 0.886056 0.156151 0.295577
O O8 0.175737 0.255878 0.347308
O O9 0.820792 0.844871 0.190963
O O10 0.500000 0.656839 0.500000
O O11 0.916760 0.626517 0.411575
O O12 0.000000 0.702692 0.500000
O O13 0.719858 0.799929 0.443769
O O14 0.203812 0.138373 0.916872
O O15 0.730794 0.141079 0.890584
O O16 0.046722 0.000000 0.862880
O O17 0.000000 0.900098 0.500000
O O18 0.711014 0.000000 0.446490
O O19 0.476873 0.000000 0.940220
O O20 0.500000 0.853640 0.000000
#
# Coordination Sequence:
#
# PCOD9144601 Si02
#       8
#     4   4   4   4   4   4   4   4
#     4  10  19  33  53  71  91 119 152 193 237 283
#     4   9  19  33  48  65  91 125 156 195 244 291
#     4  10  20  34  50  73 100 126 161 197 240 295
#     4  10  19  32  50  67  87 116 145 182 237 290
#     4  10  19  30  47  72 104 138 166 198 237 276
#     4   9  18  32  49  69  88 113 148 182 229 292
#     4   9  19  33  48  68  91 118 160 207 244 286
#     4   9  17  30  48  71 101 138 176 206 231 263
#
# _framework density 18.591272
#
# number of rings (size 3 to 8) (size 9 to 14) (size 15 to 20)
#    0.000    2.500    0.000    2.250    0.000    8.750 
#    0.000    2.500    0.000    7.500    0.000    0.000 
#    0.000    3.000    0.000    0.000    0.000    0.000 
#
# Total GULP energy -178189.318837 kJ/mol
# GULP energy per Si atom -5568.416214 kJ/mol
# Density = 1.854896 g / cm^3
# Si number density = 18.591272 Si / 1000 Ang^3
#
#
#
# Elastic Constant Matrix: (Units=GPa)
#
#
# Indices 1 2 3 4 5 6 
#
# 1 55.0929 4.8260 -13.5183 0.0000 -11.9098 0.0000
# 2 4.8260 52.6228 11.2516 0.0000 2.9538 0.0000
# 3 -13.5183 11.2516 54.4230 0.0000 -6.8680 0.0000
# 4 0.0000 0.0000 0.0000 30.2124 0.0000 -33.2080
# 5 -11.9098 2.9538 -6.8680 0.0000 25.8907 0.0000
# 6 0.0000 0.0000 0.0000 -33.2080 0.0000 37.1802
#
#
#
# Elastic Compliance Matrix: (Units=1/GPa)
#
#
# Indices 1 2 3 4 5 6 
#
# 1 0.023636 -0.004772 0.008586 0.000000 0.013695 0.000000
# 2 -0.004772 0.021152 -0.006353 0.000000 -0.006294 0.000000
# 3 0.008586 -0.006353 0.023187 0.000000 0.010825 0.000000
# 4 0.000000 0.000000 0.000000 1.810910 0.000000 1.617438
# 5 0.013695 -0.006294 0.010825 0.000000 0.048513 0.000000
# 6 0.000000 0.000000 0.000000 1.617438 0.000000 1.471532
#
#
# Mechanical properties :
#
#
# Convention : Reuss Voigt Hill
#
# Bulk Modulus (GPa) = 15.89885 18.58416 17.24150
# Shear Modulus (GPa) = 1.45986 29.29529 15.37758
#
# Velocity S-wave (km/s) = 0.88710 3.97388 2.87912
# Velocity P-wave (km/s) = 3.10155 5.57437 4.51072
#
# Compressibility (1/GPa) = 0.06289762
#
# Stress axis : x y z
#
# Youngs Moduli (GPa) = 42.30759 47.27592 43.12814
#
# Poissons Ratio (x) = 0.22561 -0.37030
# Poissons Ratio (y) = 0.20190 0.27398
# Poissons Ratio (z) = -0.36325 0.30033
#
# Static dielectric constant tensor:
#      x y z
#    x 1.659200 0.000000 -0.021220 
#    y 0.000000 1.800890 0.000000 
#    z -0.021220 0.000000 1.645730 
# 
# From -- ./inp_files/81357.got.cif
#   From: 2010.05.17/outbox.cif.g08.bks.cpg/sg10_41_cif.got.tgz:81357.got - 2010.06.03 11:33:40.
