data_PCOD9144140
_publ_section_title
;
Structure prediction by ZEFSAII (Michael W. Deem and Ramdas Pophale) SiO2 
 PCOD9144140
Probable space group: P 2/M
;
_chemical_formula_sum "Si O2"
_cell_formula_units_Z 24
_cell_length_a 15.660189
_cell_length_b 13.969486
_cell_length_c 4.775644
_cell_angle_alpha 90.000000
_cell_angle_beta 72.590745
_cell_angle_gamma 90.000000
_cell_volume 996.885198
_symmetry_space_group_name_H-M "P 2/M"
_symmetry_group_IT_number 10
_symmetry_cell_setting 'monoclinic'
loop_
_space_group_symop_operation_xyz
x,y,z
-x,y,-z
-x,-y,-z
x,-y,z
loop_
_atom_site_type_symbol
_atom_site_label
_atom_site_fract_x
_atom_site_fract_y
_atom_site_fract_z
Si Si1 0.846536 0.708627 0.174148
Si Si2 0.728443 0.500000 0.928040
Si Si3 0.085092 0.106713 0.614298
Si Si4 0.720021 0.295944 0.799631
Si Si5 0.647728 0.000000 0.426929
Si Si6 0.233573 0.000000 0.183697
Si Si7 0.147682 0.500000 0.690691
Si Si8 0.559207 0.822726 0.211233
O O1 0.900987 0.803144 0.200606
O O2 0.810932 0.707863 0.894775
O O3 0.891271 0.605248 0.201407
O O4 0.755298 0.715338 0.450923
O O5 0.682123 0.402497 0.887304
O O6 0.760145 0.500000 0.216829
O O7 0.822037 0.500000 0.660113
O O8 0.000000 0.120736 0.500000
O O9 0.076332 0.000000 0.756238
O O10 0.173576 0.089873 0.335905
O O11 0.646083 0.225486 0.989282
O O12 0.675976 0.000000 0.721332
O O13 0.595294 0.908700 0.368177
O O14 0.740966 0.000000 0.162901
O O15 0.500000 0.764508 0.500000
O O16 0.500000 0.850683 0.000000
#
# Coordination Sequence:
#
# PCOD9144140 Si02
#       8
#     4   2   4   4   2   2   2   4
#     4  10  18  36  57  83 108 146 189 228 267 322
#     4   8  16  32  54  81 105 134 181 228 273 310
#     4   9  20  38  56  84 120 148 178 224 278 326
#     4  10  20  36  59  81 107 144 185 229 267 326
#     4  12  22  39  59  76 101 142 187 226 263 321
#     4  10  21  37  58  80  99 140 189 222 260 325
#     4   8  16  28  55  81 106 136 185 234 267 304
#     4  12  24  37  52  78 110 141 175 225 280 325
#
# _framework density 24.07499
#
# number of rings (size 3 to 8) (size 9 to 14) (size 15 to 20)
#    0.500    1.500    0.000    4.500    0.000    0.000 
#    0.000    5.417    0.000    0.000    0.000    7.000 
#    0.000    0.000    0.000    0.000    0.000    0.000 
#
# Total GULP energy -134163.541858 kJ/mol
# GULP energy per Si atom -5590.147577 kJ/mol
# Density = 2.402019 g / cm^3
# Si number density = 24.074990 Si / 1000 Ang^3
#
#
#
# Elastic Constant Matrix: (Units=GPa)
#
#
# Indices 1 2 3 4 5 6 
#
# 1 88.2999 31.1648 14.7630 0.0000 9.8706 0.0000
# 2 31.1648 160.7509 1.6613 0.0000 13.5163 0.0000
# 3 14.7630 1.6613 85.5789 0.0000 1.7524 0.0000
# 4 0.0000 0.0000 0.0000 376.5754 0.0000 96.0166
# 5 9.8706 13.5163 1.7524 0.0000 41.3569 0.0000
# 6 0.0000 0.0000 0.0000 96.0166 0.0000 0.7335
#
#
#
# Elastic Compliance Matrix: (Units=1/GPa)
#
#
# Indices 1 2 3 4 5 6 
#
# 1 0.012721 -0.002259 -0.002105 0.000000 -0.002209 0.000000
# 2 -0.002259 0.006798 0.000292 0.000000 -0.001695 0.000000
# 3 -0.002105 0.000292 0.012045 0.000000 -0.000103 0.000000
# 4 0.000000 0.000000 0.000000 -0.000082 0.000000 0.010737
# 5 -0.002209 -0.001695 -0.000103 0.000000 0.025265 0.000000
# 6 0.000000 0.000000 0.000000 0.010737 0.000000 -0.042109
#
#
# Mechanical properties :
#
#
# Convention : Reuss Voigt Hill
#
# Bulk Modulus (GPa) = 42.69756 47.75645 45.22700
# Shear Modulus (GPa) = 163.45581 102.86920 133.16250
#
# Velocity S-wave (km/s) = 8.24875 6.54381 7.44524
# Velocity P-wave (km/s) = 10.41615 8.77353 9.62993
#
# Compressibility (1/GPa) = 0.02342054
#
# Stress axis : x y z
#
# Youngs Moduli (GPa) = 78.60912 147.09728 83.02361
#
# Poissons Ratio (x) = 0.33226 0.17480
# Poissons Ratio (y) = 0.17756 -0.02428
# Poissons Ratio (z) = 0.16551 -0.04301
#
# Static dielectric constant tensor:
#      x y z
#    x 1.885610 0.000000 -0.044680 
#    y 0.000000 2.006020 0.000000 
#    z -0.044680 0.000000 1.881030 
# 
# From -- ./inp_files/9282.got.cif
#   From: 2010.05.17/outbox.cif.g08.bks.cpg/sg10_5_cif.got.tgz:9282.got - 2010.06.03 11:33:40.
