data_PCOD9144918
_publ_section_title
;
Structure prediction by ZEFSAII (Michael W. Deem and Ramdas Pophale) SiO2 
 PCOD9144918
Probable space group: P 2/M
;
_chemical_formula_sum "Si O2"
_cell_formula_units_Z 24
_cell_length_a 23.815202
_cell_length_b 8.728073
_cell_length_c 12.103668
_cell_angle_alpha 90.000000
_cell_angle_beta 33.933527
_cell_angle_gamma 90.000000
_cell_volume 1404.440548
_symmetry_space_group_name_H-M "P 2/M"
_symmetry_group_IT_number 10
_symmetry_cell_setting 'monoclinic'
loop_
_space_group_symop_operation_xyz
x,y,z
-x,y,-z
-x,-y,-z
x,-y,z
loop_
_atom_site_type_symbol
_atom_site_label
_atom_site_fract_x
_atom_site_fract_y
_atom_site_fract_z
Si Si1 0.117753 0.317051 0.302642
Si Si2 0.253346 0.180443 0.893594
Si Si3 0.714358 0.818044 0.821423
Si Si4 0.645604 0.318078 0.471115
Si Si5 0.580318 0.680820 0.224824
Si Si6 0.608328 0.182795 0.771980
O O1 0.131027 0.500000 0.290886
O O2 0.180548 0.235815 0.297981
O O3 0.000000 0.280850 0.500000
O O4 0.167462 0.262546 0.106370
O O5 0.270187 0.239133 0.741980
O O6 0.355599 0.223536 0.792450
O O7 0.237048 0.000000 0.922593
O O8 0.692322 0.791190 0.728931
O O9 0.700965 0.000000 0.864040
O O10 0.631049 0.723888 0.025601
O O11 0.659761 0.500000 0.444931
O O12 0.536796 0.284185 0.593770
O O13 0.636578 0.262043 0.611446
O O14 0.592670 0.500000 0.228661
O O15 0.600109 0.000000 0.765366
O O16 0.500000 0.231683 0.000000
#
# Coordination Sequence:
#
# PCOD9144918 Si02
#       6
#     4   4   4   4   4   4
#     4  10  21  38  60  82 105 133 168 218 273 320
#     4  11  22  34  52  76 104 137 174 218 267 316
#     4  10  19  32  53  79 107 140 177 219 260 304
#     4  11  22  33  49  73 106 146 182 216 256 307
#     4  10  19  31  48  72 105 141 178 217 256 306
#     4  10  20  34  51  74 109 147 183 217 252 304
#
# _framework density 17.088654999999999
#
# number of rings (size 3 to 8) (size 9 to 14) (size 15 to 20)
#    0.000    1.667    1.667    6.000    0.000    7.000 
#    0.000    0.000    0.000    1.000    0.000    7.000 
#    0.000    0.000    0.000    0.000    0.000    0.000 
#
# Total GULP energy -133967.458126 kJ/mol
# GULP energy per Si atom -5581.977422 kJ/mol
# Density = 1.704976 g / cm^3
# Si number density = 17.088655 Si / 1000 Ang^3
#
#
#
# Elastic Constant Matrix: (Units=GPa)
#
#
# Indices 1 2 3 4 5 6 
#
# 1 50.9486 20.8643 58.1878 0.0000 4.7615 0.0000
# 2 20.8643 37.7943 34.9553 0.0000 -2.8210 0.0000
# 3 58.1878 34.9553 95.9017 0.0000 6.8765 0.0000
# 4 0.0000 0.0000 0.0000 6.0832 0.0000 27.2522
# 5 4.7615 -2.8210 6.8765 0.0000 27.7055 0.0000
# 6 0.0000 0.0000 0.0000 27.2522 0.0000 80.9901
#
#
#
# Elastic Compliance Matrix: (Units=1/GPa)
#
#
# Indices 1 2 3 4 5 6 
#
# 1 0.063986 0.000611 -0.038955 0.000000 -0.001266 0.000000
# 2 0.000611 0.041654 -0.016137 0.000000 0.008141 0.000000
# 3 -0.038955 -0.016137 0.040300 0.000000 -0.004951 0.000000
# 4 0.000000 0.000000 0.000000 -0.323962 0.000000 0.109009
# 5 -0.001266 0.008141 -0.004951 0.000000 0.038369 0.000000
# 6 0.000000 0.000000 0.000000 0.109009 0.000000 -0.024333
#
#
# Mechanical properties :
#
#
# Convention : Reuss Voigt Hill
#
# Bulk Modulus (GPa) = 27.04323 45.85104 36.44714
# Shear Modulus (GPa) = -117.10018 27.66491 -44.71763
#
# Velocity S-wave (km/s) = -8.28697 4.02793 -5.12102
# Velocity P-wave (km/s) = 8.70089 6.96576 3.68672
#
# Compressibility (1/GPa) = 0.03697783
#
# Stress axis : x y z
#
# Youngs Moduli (GPa) = 15.62853 24.00707 24.81403
#
# Poissons Ratio (x) = -0.01467 0.96663
# Poissons Ratio (y) = -0.00955 0.40043
# Poissons Ratio (z) = 0.60881 0.38741
#
# Static dielectric constant tensor:
#      x y z
#    x 1.585270 0.000000 0.015430 
#    y 0.000000 1.574070 0.000000 
#    z 0.015430 0.000000 1.576580 
# 
# From -- ./inp_files/48658.got.cif
#   From: 2010.05.17/outbox.cif.g08.bks.cpg/sg10_25_cif.got.tgz:48658.got - 2010.06.03 11:33:40.
