data_PCOD9144623
_publ_section_title
;
Structure prediction by ZEFSAII (Michael W. Deem and Ramdas Pophale) SiO2 
 PCOD9144623
Probable space group: P 2/M
;
_chemical_formula_sum "Si O2"
_cell_formula_units_Z 32
_cell_length_a 21.977547
_cell_length_b 7.817174
_cell_length_c 12.899182
_cell_angle_alpha 90.000000
_cell_angle_beta 144.380445
_cell_angle_gamma 90.000000
_cell_volume 1290.663018
_symmetry_space_group_name_H-M "P 2/M"
_symmetry_group_IT_number 10
_symmetry_cell_setting 'monoclinic'
loop_
_space_group_symop_operation_xyz
x,y,z
-x,y,-z
-x,-y,-z
x,-y,z
loop_
_atom_site_type_symbol
_atom_site_label
_atom_site_fract_x
_atom_site_fract_y
_atom_site_fract_z
Si Si1 0.734600 0.289690 0.522589
Si Si2 0.494874 0.807107 0.379768
Si Si3 0.719879 0.695039 0.166907
Si Si4 0.054564 0.800342 0.469553
Si Si5 0.750095 0.188324 0.985787
Si Si6 0.962544 0.699342 0.779037
Si Si7 0.821486 0.705047 0.858162
Si Si8 0.516069 0.696115 0.182599
O O1 0.729161 0.500000 0.509682
O O2 0.846299 0.230682 0.633295
O O3 0.747601 0.237079 0.661939
O O4 0.630849 0.227434 0.317444
O O5 0.500000 0.724581 0.500000
O O6 0.372979 0.831027 0.194936
O O7 0.525814 0.702166 0.321579
O O8 0.542732 0.000000 0.448503
O O9 0.714901 0.500000 0.197423
O O10 0.819719 0.780339 0.357373
O O11 0.756976 0.698360 0.097772
O O12 0.599929 0.767127 0.006142
O O13 0.011230 0.712187 0.306391
O O14 0.000000 0.736002 0.500000
O O15 0.031442 0.000000 0.429962
O O16 0.783816 0.252611 0.920821
O O17 0.796374 0.000000 0.071950
O O18 0.954944 0.500000 0.797883
O O19 0.059423 0.772252 0.978204
O O20 0.825377 0.500000 0.854097
O O21 0.513739 0.500000 0.143986
#
# Coordination Sequence:
#
# PCOD9144623 Si02
#       8
#     4   4   4   4   4   4   4   4
#     4   9  18  35  57  81 111 146 184 225 267 313
#     4   9  17  28  42  65 100 140 179 217 259 310
#     4  10  20  35  56  82 110 142 183 228 273 323
#     4  11  24  41  61  84 110 140 174 219 277 332
#     4  10  19  30  47  74 109 145 178 217 268 320
#     4  10  21  37  58  83 110 142 182 226 270 320
#     4  10  19  32  54  82 111 146 186 225 266 316
#     4   9  18  32  52  77 105 140 181 223 266 313
#
# _framework density 24.793458999999999
#
# number of rings (size 3 to 8) (size 9 to 14) (size 15 to 20)
#    0.000    2.250    0.000    3.000    0.000    6.250 
#    0.000    1.875    0.000    5.250    0.000    0.000 
#    0.000    0.000    0.000    0.000    0.000    0.000 
#
# Total GULP energy -178457.073988 kJ/mol
# GULP energy per Si atom -5576.783562 kJ/mol
# Density = 2.473703 g / cm^3
# Si number density = 24.793459 Si / 1000 Ang^3
#
#
#
# Elastic Constant Matrix: (Units=GPa)
#
#
# Indices 1 2 3 4 5 6 
#
# 1 55.4198 1.2298 33.9871 0.0000 16.3099 0.0000
# 2 1.2298 40.8904 10.9967 0.0000 2.5404 0.0000
# 3 33.9871 10.9967 165.6607 0.0000 35.2056 0.0000
# 4 0.0000 0.0000 0.0000 45.9716 0.0000 -37.4900
# 5 16.3099 2.5404 35.2056 0.0000 36.7447 0.0000
# 6 0.0000 0.0000 0.0000 -37.4900 0.0000 6.9440
#
#
#
# Elastic Compliance Matrix: (Units=1/GPa)
#
#
# Indices 1 2 3 4 5 6 
#
# 1 0.021932 0.000595 -0.003091 0.000000 -0.006815 0.000000
# 2 0.000595 0.024917 -0.001700 0.000000 -0.000358 0.000000
# 3 -0.003091 -0.001700 0.008120 0.000000 -0.006291 0.000000
# 4 0.000000 0.000000 0.000000 -0.006393 0.000000 -0.034513
# 5 -0.006815 -0.000358 -0.006291 0.000000 0.036292 0.000000
# 6 0.000000 0.000000 0.000000 -0.034513 0.000000 -0.042320
#
#
# Mechanical properties :
#
#
# Convention : Reuss Voigt Hill
#
# Bulk Modulus (GPa) = 21.46949 39.37754 30.42352
# Shear Modulus (GPa) = 75.22682 32.31588 53.77135
#
# Velocity S-wave (km/s) = 5.51428 3.61418 4.66206
# Velocity P-wave (km/s) = 7.01578 5.77349 6.42473
#
# Compressibility (1/GPa) = 0.04657772
#
# Stress axis : x y z
#
# Youngs Moduli (GPa) = 45.59554 40.13296 123.14865
#
# Poissons Ratio (x) = -0.02388 0.38063
# Poissons Ratio (y) = -0.02713 0.20935
# Poissons Ratio (z) = 0.14093 0.06823
#
# Static dielectric constant tensor:
#      x y z
#    x 2.070810 0.000000 0.006520 
#    y 0.000000 1.936510 0.000000 
#    z 0.006520 0.000000 2.027430 
# 
# From -- ./inp_files/71699.got.cif
#   From: 2010.05.17/outbox.cif.g08.bks.cpg/sg10_36_cif.got.tgz:71699.got - 2010.06.03 11:33:40.
