data_PCOD9144767
_publ_section_title
;
Structure prediction by ZEFSAII (Michael W. Deem and Ramdas Pophale) SiO2 
 PCOD9144767
Probable space group: P 2/M
;
_chemical_formula_sum "Si O2"
_cell_formula_units_Z 32
_cell_length_a 18.800845
_cell_length_b 8.808161
_cell_length_c 16.667047
_cell_angle_alpha 90.000000
_cell_angle_beta 124.951651
_cell_angle_gamma 90.000000
_cell_volume 2262.258214
_symmetry_space_group_name_H-M "P 2/M"
_symmetry_group_IT_number 10
_symmetry_cell_setting 'monoclinic'
loop_
_space_group_symop_operation_xyz
x,y,z
-x,y,-z
-x,-y,-z
x,-y,z
loop_
_atom_site_type_symbol
_atom_site_label
_atom_site_fract_x
_atom_site_fract_y
_atom_site_fract_z
Si Si1 0.512180 0.674557 0.604608
Si Si2 0.140439 0.683779 0.114426
Si Si3 0.901082 0.325089 0.402364
Si Si4 0.163251 0.819782 0.483786
Si Si5 0.690429 0.820151 0.699499
Si Si6 0.680084 0.682952 0.514539
Si Si7 0.027656 0.315948 0.892210
Si Si8 0.014387 0.315421 0.701665
O O1 0.500000 0.674234 0.500000
O O2 0.527677 0.500000 0.639120
O O3 0.597204 0.772441 0.675527
O O4 0.418129 0.726689 0.574681
O O5 0.148377 0.500000 0.121017
O O6 0.230623 0.757402 0.196888
O O7 0.065499 0.726769 0.130255
O O8 0.101929 0.730697 0.003007
O O9 0.870932 0.500000 0.385018
O O10 0.846407 0.226787 0.429129
O O11 0.914005 0.273282 0.319061
O O12 0.000000 0.324385 0.500000
O O13 0.247273 0.746504 0.497378
O O14 0.077859 0.753049 0.384410
O O15 0.164787 0.000000 0.476178
O O16 0.696294 0.745601 0.614683
O O17 0.695561 0.000000 0.694624
O O18 0.683171 0.500000 0.519843
O O19 0.028786 0.500000 0.893011
O O20 0.036436 0.266942 0.806158
O O21 0.006843 0.500000 0.693942
#
# Coordination Sequence:
#
# PCOD9144767 Si02
#       8
#     4   4   4   4   4   4   4   4
#     4   8  16  30  45  59  76 104 138 168 199 236
#     4   9  16  28  44  60  81 109 141 173 205 239
#     4   8  15  27  41  56  77 108 141 171 202 238
#     4  11  20  27  39  61  86 109 135 168 207 247
#     4  11  20  28  41  62  86 110 136 166 203 242
#     4  10  19  31  45  59  79 108 141 171 200 239
#     4   8  15  27  44  62  77 103 144 182 206 229
#     4   9  16  28  44  59  79 110 146 176 204 239
#
# _framework density 14.145158
#
# number of rings (size 3 to 8) (size 9 to 14) (size 15 to 20)
#    0.000    2.750    0.000    5.625    0.000    6.000 
#    0.000    1.875    0.000    0.000    0.000    0.000 
#    0.000    1.000    0.000   11.500    0.000    3.250 
#
# Total GULP energy -178240.040830 kJ/mol
# GULP energy per Si atom -5570.001276 kJ/mol
# Density = 1.411296 g / cm^3
# Si number density = 14.145158 Si / 1000 Ang^3
#
#
#
# Elastic Constant Matrix: (Units=GPa)
#
#
# Indices 1 2 3 4 5 6 
#
# 1 108.7426 41.4224 60.6308 0.0000 0.2735 0.0000
# 2 41.4224 52.3865 33.1043 0.0000 6.4805 0.0000
# 3 60.6308 33.1043 90.6265 0.0000 -0.3221 0.0000
# 4 0.0000 0.0000 0.0000 -2.1240 0.0000 -5.5666
# 5 0.2735 6.4805 -0.3221 0.0000 26.4993 0.0000
# 6 0.0000 0.0000 0.0000 -5.5666 0.0000 6.3433
#
#
#
# Elastic Compliance Matrix: (Units=1/GPa)
#
#
# Indices 1 2 3 4 5 6 
#
# 1 0.017042 -0.008445 -0.008310 0.000000 0.001788 0.000000
# 2 -0.008445 0.030057 -0.005356 0.000000 -0.007329 0.000000
# 3 -0.008310 -0.005356 0.018556 0.000000 0.001621 0.000000
# 4 0.000000 0.000000 0.000000 -0.142672 0.000000 -0.125203
# 5 0.001788 -0.007329 0.001621 0.000000 0.039530 0.000000
# 6 0.000000 0.000000 0.000000 -0.125203 0.000000 0.047773
#
#
# Mechanical properties :
#
#
# Convention : Reuss Voigt Hill
#
# Bulk Modulus (GPa) = 46.65552 58.00784 52.33168
# Shear Modulus (GPa) = 81.09969 13.91693 47.50831
#
# Velocity S-wave (km/s) = 7.58013 3.14007 5.80165
# Velocity P-wave (km/s) = 10.47216 7.36510 9.05292
#
# Compressibility (1/GPa) = 0.02143369
#
# Stress axis : x y z
#
# Youngs Moduli (GPa) = 58.67919 33.26977 53.89088
#
# Poissons Ratio (x) = 0.28096 0.44784
# Poissons Ratio (y) = 0.49554 0.28862
# Poissons Ratio (z) = 0.48763 0.17818
#
# Static dielectric constant tensor:
#      x y z
#    x 1.475790 0.000000 -0.009590 
#    y 0.000000 1.467910 0.000000 
#    z -0.009590 0.000000 1.457290 
# 
# From -- ./inp_files/78527.got.cif
#   From: 2010.05.17/outbox.cif.g08.bks.cpg/sg10_40_cif.got.tgz:78527.got - 2010.06.03 11:33:40.
