data_PCOD9144482
_publ_section_title
;
Structure prediction by ZEFSAII (Michael W. Deem and Ramdas Pophale) SiO2 
 PCOD9144482
Probable space group: P 2/M
;
_chemical_formula_sum "Si O2"
_cell_formula_units_Z 30
_cell_length_a 31.540046
_cell_length_b 8.562063
_cell_length_c 12.314693
_cell_angle_alpha 90.000000
_cell_angle_beta 150.476355
_cell_angle_gamma 90.000000
_cell_volume 1638.776710
_symmetry_space_group_name_H-M "P 2/M"
_symmetry_group_IT_number 10
_symmetry_cell_setting 'monoclinic'
loop_
_space_group_symop_operation_xyz
x,y,z
-x,y,-z
-x,-y,-z
x,-y,z
loop_
_atom_site_type_symbol
_atom_site_label
_atom_site_fract_x
_atom_site_fract_y
_atom_site_fract_z
Si Si1 0.901598 0.186941 0.762717
Si Si2 0.222940 0.679955 0.688701
Si Si3 0.314481 0.818039 0.092282
Si Si4 0.623728 0.681368 0.146879
Si Si5 0.236053 0.310768 0.375367
Si Si6 0.465929 0.173214 0.674815
Si Si7 0.500000 0.764411 0.500000
Si Si8 0.712873 0.318194 0.744457
O O1 0.858976 0.259872 0.560259
O O2 0.841599 0.240722 0.728738
O O3 0.898193 0.000000 0.746606
O O4 0.000000 0.235698 0.000000
O O5 0.211571 0.500000 0.695572
O O6 0.302809 0.687331 0.782366
O O7 0.250089 0.781254 0.852102
O O8 0.400000 0.707778 0.272898
O O9 0.273447 0.782144 0.117202
O O10 0.343309 0.000000 0.151930
O O11 0.597643 0.500000 0.102142
O O12 0.673862 0.736418 0.366150
O O13 0.543771 0.779339 0.925950
O O14 0.232824 0.500000 0.377501
O O15 0.236203 0.268874 0.249519
O O16 0.495782 0.170220 0.614612
O O17 0.387941 0.294034 0.508270
O O18 0.433840 0.000000 0.629537
O O19 0.729795 0.500000 0.804203
#
# Coordination Sequence:
#
# PCOD9144482 Si02
#       8
#     4   4   4   4   4   4   2   4
#     4  10  21  37  61  91 115 136 167 214 273 330
#     4  10  20  34  54  82 112 144 181 221 272 325
#     4  11  20  33  52  77 109 145 187 232 274 316
#     4   9  18  32  49  72  99 134 178 225 271 313
#     4   9  20  38  57  76 105 141 177 217 266 325
#     4  11  20  31  46  69 100 140 186 228 271 315
#     4  10  19  30  45  68 103 142 185 230 269 310
#     4  10  21  36  51  72 103 144 187 224 265 317
#
# _framework density 18.306338
#
# number of rings (size 3 to 8) (size 9 to 14) (size 15 to 20)
#    0.000    2.000    1.333    4.800    0.000    4.800 
#    0.000    4.667    0.000    0.800    0.000    5.600 
#    0.000    0.000    0.000    0.000    0.000    0.000 
#
# Total GULP energy -167162.586203 kJ/mol
# GULP energy per Si atom -5572.086207 kJ/mol
# Density = 1.826467 g / cm^3
# Si number density = 18.306338 Si / 1000 Ang^3
#
#
#
# Elastic Constant Matrix: (Units=GPa)
#
#
# Indices 1 2 3 4 5 6 
#
# 1 75.6622 15.9304 33.4916 0.0000 -17.0538 0.0000
# 2 15.9304 33.4877 16.0266 0.0000 -6.5399 0.0000
# 3 33.4916 16.0266 88.9959 0.0000 -10.2839 0.0000
# 4 0.0000 0.0000 0.0000 20.3562 0.0000 -0.7317
# 5 -17.0538 -6.5399 -10.2839 0.0000 17.8920 0.0000
# 6 0.0000 0.0000 0.0000 -0.7317 0.0000 13.9874
#
#
#
# Elastic Compliance Matrix: (Units=1/GPa)
#
#
# Indices 1 2 3 4 5 6 
#
# 1 0.019478 -0.004123 -0.004945 0.000000 0.014216 0.000000
# 2 -0.004123 0.035019 -0.003995 0.000000 0.006574 0.000000
# 3 -0.004945 -0.003995 0.014036 0.000000 0.001894 0.000000
# 4 0.000000 0.000000 0.000000 0.049218 0.000000 0.002575
# 5 0.014216 0.006574 0.001894 0.000000 0.072932 0.000000
# 6 0.000000 0.000000 0.000000 0.002575 0.000000 0.071627
#
#
# Mechanical properties :
#
#
# Convention : Reuss Voigt Hill
#
# Bulk Modulus (GPa) = 23.58123 36.56033 30.07078
# Shear Modulus (GPa) = 16.52506 19.29361 17.90934
#
# Velocity S-wave (km/s) = 3.00775 3.24995 3.13119
# Velocity P-wave (km/s) = 4.99715 5.83932 5.43457
#
# Compressibility (1/GPa) = 0.04240661
#
# Stress axis : x y z
#
# Youngs Moduli (GPa) = 51.34074 28.55609 71.24728
#
# Poissons Ratio (x) = 0.11773 0.35230
# Poissons Ratio (y) = 0.21167 0.28463
# Poissons Ratio (z) = 0.25387 0.11408
#
# Static dielectric constant tensor:
#      x y z
#    x 1.637990 0.000000 -0.016580 
#    y 0.000000 1.640910 0.000000 
#    z -0.016580 0.000000 1.613530 
# 
# From -- ./inp_files/53105.got.cif
#   From: 2010.05.17/outbox.cif.g08.bks.cpg/sg10_27_cif.got.tgz:53105.got - 2010.06.03 11:33:40.
