data_PCOD9144658
_publ_section_title
;
Structure prediction by ZEFSAII (Michael W. Deem and Ramdas Pophale) SiO2 
 PCOD9144658
Probable space group: P 2/M
;
_chemical_formula_sum "Si O2"
_cell_formula_units_Z 26
_cell_length_a 22.638460
_cell_length_b 17.558336
_cell_length_c 19.819399
_cell_angle_alpha 90.000000
_cell_angle_beta 11.497370
_cell_angle_gamma 90.000000
_cell_volume 1570.283367
_symmetry_space_group_name_H-M "P 2/M"
_symmetry_group_IT_number 10
_symmetry_cell_setting 'monoclinic'
loop_
_space_group_symop_operation_xyz
x,y,z
-x,y,-z
-x,-y,-z
x,-y,z
loop_
_atom_site_type_symbol
_atom_site_label
_atom_site_fract_x
_atom_site_fract_y
_atom_site_fract_z
Si Si1 0.140798 0.589946 0.094801
Si Si2 0.156035 0.233618 0.711057
Si Si3 0.842095 0.914483 0.104757
Si Si4 0.459883 0.682729 0.255695
Si Si5 0.442737 0.327316 0.640063
Si Si6 0.652160 0.500000 0.901485
Si Si7 0.650717 0.669371 0.903954
O O1 0.112941 0.500000 0.137580
O O2 0.828842 0.628305 0.424920
O O3 0.270476 0.633957 0.014554
O O4 0.372073 0.608336 0.775036
O O5 0.380128 0.252241 0.399404
O O6 0.308670 0.270621 0.606959
O O7 0.043519 0.147351 0.841680
O O8 0.856862 0.279497 0.031490
O O9 0.500000 0.889582 0.500000
O O10 0.831830 0.000000 0.086115
O O11 0.000000 0.919824 0.000000
O O12 0.537731 0.715592 0.094874
O O13 0.500000 0.355879 0.500000
O O14 0.579198 0.582920 0.010752
O O15 0.000000 0.500000 0.500000
O O16 0.500000 0.500000 0.000000
O O17 0.000000 0.675962 0.500000
O O18 0.500000 0.681113 0.000000
#
# Coordination Sequence:
#
# PCOD9144658 Si02
#       7
#     4   4   4   4   4   2   4
#     4  10  21  33  46  64  87 118 154 196 240 272
#     4  10  19  32  48  68  94 122 155 184 225 276
#     4  10  19  30  48  75 102 127 152 183 221 262
#     4  10  21  34  48  66  88 121 152 190 236 282
#     4  10  19  31  48  66  86 120 160 193 228 265
#     4   8  16  26  38  58  78 100 129 168 225 268
#     4  10  19  32  46  65  87 110 147 190 231 283
#
# _framework density 16.557521999999999
#
# number of rings (size 3 to 8) (size 9 to 14) (size 15 to 20)
#    0.000    2.154    0.000    4.154    2.154    0.308 
#    2.769    0.000    0.000    5.538    0.000    0.000 
#    0.000    1.231    0.000    0.000    0.000    3.692 
#
# Total GULP energy -144827.656824 kJ/mol
# GULP energy per Si atom -5570.294493 kJ/mol
# Density = 1.651984 g / cm^3
# Si number density = 16.557522 Si / 1000 Ang^3
#
#
#
# Elastic Constant Matrix: (Units=GPa)
#
#
# Indices 1 2 3 4 5 6 
#
# 1 95.4950 16.5258 23.5918 0.0000 4.0731 0.0000
# 2 16.5258 49.0364 20.1683 0.0000 5.6672 0.0000
# 3 23.5918 20.1683 52.0087 0.0000 -11.8339 0.0000
# 4 0.0000 0.0000 0.0000 18.9855 0.0000 0.9330
# 5 4.0731 5.6672 -11.8339 0.0000 43.4541 0.0000
# 6 0.0000 0.0000 0.0000 0.9330 0.0000 11.2319
#
#
#
# Elastic Compliance Matrix: (Units=1/GPa)
#
#
# Indices 1 2 3 4 5 6 
#
# 1 0.012201 -0.001580 -0.005475 0.000000 -0.002429 0.000000
# 2 -0.001580 0.026088 -0.010810 0.000000 -0.006198 0.000000
# 3 -0.005475 -0.010810 0.028081 0.000000 0.009570 0.000000
# 4 0.000000 0.000000 0.000000 0.052888 0.000000 -0.004393
# 5 -0.002429 -0.006198 0.009570 0.000000 0.026655 0.000000
# 6 0.000000 0.000000 0.000000 -0.004393 0.000000 0.089397
#
#
# Mechanical properties :
#
#
# Convention : Reuss Voigt Hill
#
# Bulk Modulus (GPa) = 32.63652 35.23465 33.93558
# Shear Modulus (GPa) = 17.77764 23.81790 20.79777
#
# Velocity S-wave (km/s) = 3.28027 3.79686 3.54798
# Velocity P-wave (km/s) = 5.83958 6.36772 6.10936
#
# Compressibility (1/GPa) = 0.03064052
#
# Stress axis : x y z
#
# Youngs Moduli (GPa) = 81.95917 38.33187 35.61171
#
# Poissons Ratio (x) = 0.06055 0.19496
# Poissons Ratio (y) = 0.12946 0.38498
# Poissons Ratio (z) = 0.44870 0.41438
#
# Static dielectric constant tensor:
#      x y z
#    x 1.592240 0.000000 0.011040 
#    y 0.000000 1.590390 0.000000 
#    z 0.011040 0.000000 1.575940 
# 
# From -- ./inp_files/11520.got.cif
#   From: 2010.05.17/outbox.cif.g08.bks.cpg/sg10_6_cif.got.tgz:11520.got - 2010.06.03 11:33:40.
