data_PCOD9144436
_publ_section_title
;
Structure prediction by ZEFSAII (Michael W. Deem and Ramdas Pophale) SiO2 
 PCOD9144436
Probable space group: P 2/M
;
_chemical_formula_sum "Si O2"
_cell_formula_units_Z 22
_cell_length_a 10.264017
_cell_length_b 22.435726
_cell_length_c 5.145912
_cell_angle_alpha 90.000000
_cell_angle_beta 60.531426
_cell_angle_gamma 90.000000
_cell_volume 1031.694950
_symmetry_space_group_name_H-M "P 2/M"
_symmetry_group_IT_number 10
_symmetry_cell_setting 'monoclinic'
loop_
_space_group_symop_operation_xyz
x,y,z
-x,y,-z
-x,-y,-z
x,-y,z
loop_
_atom_site_type_symbol
_atom_site_label
_atom_site_fract_x
_atom_site_fract_y
_atom_site_fract_z
Si Si1 0.818721 0.631953 0.140468
Si Si2 0.894125 0.000000 0.849165
Si Si3 0.181732 0.432364 0.354336
Si Si4 0.397516 0.068785 0.343371
Si Si5 0.108493 0.753931 0.141875
Si Si6 0.826613 0.877121 0.089689
O O1 0.765001 0.614615 0.480337
O O2 0.763374 0.584012 0.986095
O O3 0.794565 0.695762 0.025201
O O4 0.000000 0.628029 0.000000
O O5 0.000000 0.000000 0.500000
O O6 0.803658 0.938420 0.952593
O O7 0.000000 0.000000 0.000000
O O8 0.216307 0.500000 0.397791
O O9 0.000000 0.428474 0.500000
O O10 0.500000 0.068340 0.500000
O O11 0.267548 0.113981 0.555375
O O12 0.343108 0.000000 0.362603
O O13 0.500000 0.085443 0.000000
O O14 0.000000 0.747165 0.500000
O O15 0.197404 0.816405 0.045528
O O16 0.000000 0.757443 0.000000
O O17 0.000000 0.877425 0.000000
#
# Coordination Sequence:
#
# PCOD9144436 Si02
#       6
#     4   2   4   4   4   4
#     4   9  15  24  35  51  80 112 147 196 241 278
#     4  10  20  32  48  74 100 120 155 212 255 282
#     4   9  15  22  34  51  73 109 156 196 229 274
#     4  10  22  39  56  77 105 135 165 207 264 316
#     4  10  19  30  44  65  92 122 158 203 253 297
#     4  10  21  37  56  80 101 134 174 217 255 306
#
# _framework density 21.324133
#
# number of rings (size 3 to 8) (size 9 to 14) (size 15 to 20)
#    0.000    2.364    0.909    3.818    0.000    8.000 
#    0.000    0.000    0.000    0.000    0.000    0.000 
#    0.000    0.000    0.000    0.000    0.000   18.182 
#
# Total GULP energy -122655.657614 kJ/mol
# GULP energy per Si atom -5575.257164 kJ/mol
# Density = 2.127560 g / cm^3
# Si number density = 21.324133 Si / 1000 Ang^3
#
#
#
# Elastic Constant Matrix: (Units=GPa)
#
#
# Indices 1 2 3 4 5 6 
#
# 1 35.0619 13.0346 37.5039 0.0000 9.5924 0.0000
# 2 13.0346 146.8416 56.2329 0.0000 16.2265 0.0000
# 3 37.5039 56.2329 147.2239 0.0000 25.2482 0.0000
# 4 0.0000 0.0000 0.0000 21.5629 0.0000 14.4302
# 5 9.5924 16.2265 25.2482 0.0000 36.4072 0.0000
# 6 0.0000 0.0000 0.0000 14.4302 0.0000 7.3367
#
#
#
# Elastic Compliance Matrix: (Units=1/GPa)
#
#
# Indices 1 2 3 4 5 6 
#
# 1 0.039736 0.000621 -0.009666 0.000000 -0.004043 0.000000
# 2 0.000621 0.008073 -0.002947 0.000000 -0.001718 0.000000
# 3 -0.009666 -0.002947 0.011030 0.000000 -0.003789 0.000000
# 4 0.000000 0.000000 0.000000 -0.146644 0.000000 0.288428
# 5 -0.004043 -0.001718 -0.003789 0.000000 0.031926 0.000000
# 6 0.000000 0.000000 0.000000 0.288428 0.000000 -0.430995
#
#
# Mechanical properties :
#
#
# Convention : Reuss Voigt Hill
#
# Bulk Modulus (GPa) = 28.69057 60.29669 44.49363
# Shear Modulus (GPa) = -11.07980 27.88510 8.40265
#
# Velocity S-wave (km/s) = -2.28192 3.62011 1.98721
# Velocity P-wave (km/s) = 2.55750 6.76840 5.11625
#
# Compressibility (1/GPa) = 0.03485466
#
# Stress axis : x y z
#
# Youngs Moduli (GPa) = 25.16640 123.86304 90.65942
#
# Poissons Ratio (x) = -0.07695 0.87633
# Poissons Ratio (y) = -0.01563 0.26720
# Poissons Ratio (z) = 0.24326 0.36506
#
# Static dielectric constant tensor:
#      x y z
#    x 1.946240 0.000000 0.199060 
#    y 0.000000 1.904500 0.000000 
#    z 0.199060 0.000000 1.991080 
# 
# From -- ./inp_files/7857.got.cif
#   From: 2010.05.17/outbox.cif.g08.bks.cpg/sg10_4_cif.got.tgz:7857.got - 2010.06.03 11:33:40.
