data_PCOD9144912
_publ_section_title
;
Structure prediction by ZEFSAII (Michael W. Deem and Ramdas Pophale) SiO2 
 PCOD9144912
Probable space group: P 2/M
;
_chemical_formula_sum "Si O2"
_cell_formula_units_Z 28
_cell_length_a 13.810884
_cell_length_b 7.508667
_cell_length_c 15.361393
_cell_angle_alpha 90.000000
_cell_angle_beta 126.363472
_cell_angle_gamma 90.000000
_cell_volume 1282.795708
_symmetry_space_group_name_H-M "P 2/M"
_symmetry_group_IT_number 10
_symmetry_cell_setting 'monoclinic'
loop_
_space_group_symop_operation_xyz
x,y,z
-x,y,-z
-x,-y,-z
x,-y,z
loop_
_atom_site_type_symbol
_atom_site_label
_atom_site_fract_x
_atom_site_fract_y
_atom_site_fract_z
Si Si1 0.989209 0.214617 0.091925
Si Si2 0.123456 0.707635 0.429323
Si Si3 0.123508 0.708954 0.792028
Si Si4 0.672726 0.293334 0.343220
Si Si5 0.388330 0.718211 0.879593
Si Si6 0.236207 0.785483 0.311358
Si Si7 0.516012 0.785877 0.609876
O O1 0.894432 0.273431 0.113691
O O2 0.114267 0.266390 0.201409
O O3 0.980184 0.000000 0.083438
O O4 0.000000 0.281907 0.000000
O O5 0.101187 0.500000 0.436661
O O6 0.200853 0.784500 0.551626
O O7 0.218858 0.717110 0.400017
O O8 0.995689 0.781969 0.323637
O O9 0.124556 0.500000 0.771553
O O10 0.255588 0.778140 0.839902
O O11 0.700472 0.500000 0.340130
O O12 0.613032 0.223838 0.222592
O O13 0.574074 0.286129 0.367016
O O14 0.392376 0.500000 0.884864
O O15 0.500000 0.777653 0.000000
O O16 0.345314 0.732198 0.307445
O O17 0.244188 0.000000 0.324258
O O18 0.500000 0.734932 0.500000
O O19 0.502856 0.000000 0.606958
#
# Coordination Sequence:
#
# PCOD9144912 Si02
#       7
#     4   4   4   4   4   4   4
#     4   9  18  32  50  73 100 129 163 203 247 294
#     4   9  17  29  47  74 100 121 157 204 247 289
#     4   9  18  33  53  73  97 130 164 204 248 292
#     4  10  20  32  50  75 101 132 168 208 251 295
#     4   9  19  36  54  73 100 133 169 207 250 298
#     4   9  17  30  47  67  97 134 162 192 241 297
#     4  10  19  31  48  72 102 135 166 198 245 301
#
# _framework density 21.827324999999998
#
# number of rings (size 3 to 8) (size 9 to 14) (size 15 to 20)
#    0.000    2.714    1.429    0.000    0.000    2.857 
#    0.000    3.571    0.000    0.857    0.000    5.000 
#    0.000    0.000    0.000    0.000    0.000    0.000 
#
# Total GULP energy -155892.446938 kJ/mol
# GULP energy per Si atom -5567.587391 kJ/mol
# Density = 2.177765 g / cm^3
# Si number density = 21.827325 Si / 1000 Ang^3
#
#
#
# Elastic Constant Matrix: (Units=GPa)
#
#
# Indices 1 2 3 4 5 6 
#
# 1 133.9973 -3.4021 85.5554 0.0000 5.6053 0.0000
# 2 -3.4021 102.0996 -27.8371 0.0000 36.4776 0.0000
# 3 85.5554 -27.8371 198.7704 0.0000 -33.0209 0.0000
# 4 0.0000 0.0000 0.0000 5.5730 0.0000 -6.3246
# 5 5.6053 36.4776 -33.0209 0.0000 47.6125 0.0000
# 6 0.0000 0.0000 0.0000 -6.3246 0.0000 16.9629
#
#
#
# Elastic Compliance Matrix: (Units=1/GPa)
#
#
# Indices 1 2 3 4 5 6 
#
# 1 0.011455 0.000990 -0.005812 0.000000 -0.006138 0.000000
# 2 0.000990 0.013578 -0.000308 0.000000 -0.010732 0.000000
# 3 -0.005812 -0.000308 0.008637 0.000000 0.006910 0.000000
# 4 0.000000 0.000000 0.000000 0.311054 0.000000 0.115976
# 5 -0.006138 -0.010732 0.006910 0.000000 0.034740 0.000000
# 6 0.000000 0.000000 0.000000 0.115976 0.000000 0.102194
#
#
# Mechanical properties :
#
#
# Convention : Reuss Voigt Hill
#
# Bulk Modulus (GPa) = 42.71261 60.38886 51.55074
# Shear Modulus (GPa) = 10.00558 39.39976 24.70267
#
# Velocity S-wave (km/s) = 2.14334 4.25322 3.36777
# Velocity P-wave (km/s) = 5.07308 7.20045 6.22827
#
# Compressibility (1/GPa) = 0.02341229
#
# Stress axis : x y z
#
# Youngs Moduli (GPa) = 87.29535 73.64910 115.77748
#
# Poissons Ratio (x) = -0.07291 0.67286
# Poissons Ratio (y) = -0.08642 0.03560
# Poissons Ratio (z) = 0.50733 0.02265
#
# Static dielectric constant tensor:
#      x y z
#    x 1.861540 0.000000 0.005160 
#    y 0.000000 1.828620 0.000000 
#    z 0.005160 0.000000 1.899300 
# 
# From -- ./inp_files/66657.got.cif
#   From: 2010.05.17/outbox.cif.g08.bks.cpg/sg10_34_cif.got.tgz:66657.got - 2010.06.03 11:33:40.
