data_PCOD9144914
_publ_section_title
;
Structure prediction by ZEFSAII (Michael W. Deem and Ramdas Pophale) SiO2 
 PCOD9144914
Probable space group: P 2/M
;
_chemical_formula_sum "Si O2"
_cell_formula_units_Z 20
_cell_length_a 19.483238
_cell_length_b 9.056743
_cell_length_c 9.899306
_cell_angle_alpha 90.000000
_cell_angle_beta 137.555672
_cell_angle_gamma 90.000000
_cell_volume 1178.854778
_symmetry_space_group_name_H-M "P 2/M"
_symmetry_group_IT_number 10
_symmetry_cell_setting 'monoclinic'
loop_
_space_group_symop_operation_xyz
x,y,z
-x,y,-z
-x,-y,-z
x,-y,z
loop_
_atom_site_type_symbol
_atom_site_label
_atom_site_fract_x
_atom_site_fract_y
_atom_site_fract_z
Si Si1 0.066643 0.176619 0.374466
Si Si2 0.829632 0.822011 0.999398
Si Si3 0.383890 0.322517 0.811704
Si Si4 0.233171 0.822972 0.390942
Si Si5 0.781748 0.676279 0.203573
O O1 0.134299 0.210112 0.340129
O O2 0.119907 0.258777 0.576142
O O3 0.949496 0.215880 0.182319
O O4 0.072375 0.000000 0.406741
O O5 0.775473 0.747172 0.047350
O O6 0.822052 0.000000 0.998496
O O7 0.786003 0.776651 0.790642
O O8 0.382543 0.500000 0.795179
O O9 0.328367 0.251565 0.602591
O O10 0.314174 0.285345 0.840297
O O11 0.500000 0.274530 0.000000
O O12 0.245689 0.000000 0.411121
O O13 0.789217 0.500000 0.205674
#
# Coordination Sequence:
#
# PCOD9144914 Si02
#       5
#     4   4   4   4   4
#     4   9  17  31  50  70  97 134 166 190 225 277
#     4  10  19  31  48  72 103 133 157 188 234 284
#     4   9  19  37  56  70  89 122 162 201 243 290
#     4   9  18  32  51  75  98 123 161 201 233 274
#     4  10  20  32  48  72  98 125 161 201 237 278
#
# _framework density 16.965617999999999
#
# number of rings (size 3 to 8) (size 9 to 14) (size 15 to 20)
#    0.000    2.600    0.000    1.800    0.000    7.600 
#    0.000    1.000    0.000   12.000    0.000    0.000 
#    0.000    0.000    0.000    0.000    0.000    0.000 
#
# Total GULP energy -111576.925219 kJ/mol
# GULP energy per Si atom -5578.846261 kJ/mol
# Density = 1.692700 g / cm^3
# Si number density = 16.965618 Si / 1000 Ang^3
#
#
#
# Elastic Constant Matrix: (Units=GPa)
#
#
# Indices 1 2 3 4 5 6 
#
# 1 88.7262 35.7585 94.4818 0.0000 -9.3672 0.0000
# 2 35.7585 16.3194 40.7739 0.0000 -5.1425 0.0000
# 3 94.4818 40.7739 131.0350 0.0000 -10.8767 0.0000
# 4 0.0000 0.0000 0.0000 87.9849 0.0000 -21.8037
# 5 -9.3672 -5.1425 -10.8767 0.0000 36.7911 0.0000
# 6 0.0000 0.0000 0.0000 -21.8037 0.0000 31.2539
#
#
#
# Elastic Compliance Matrix: (Units=1/GPa)
#
#
# Indices 1 2 3 4 5 6 
#
# 1 0.106398 -0.188571 -0.018432 0.000000 -0.004717 0.000000
# 2 -0.188571 0.616242 -0.053946 0.000000 0.022177 0.000000
# 3 -0.018432 -0.053946 0.037616 0.000000 -0.001113 0.000000
# 4 0.000000 0.000000 0.000000 0.013741 0.000000 0.009586
# 5 -0.004717 0.022177 -0.001113 0.000000 0.028750 0.000000
# 6 0.000000 0.000000 0.000000 0.009586 0.000000 0.038684
#
#
# Mechanical properties :
#
#
# Convention : Reuss Voigt Hill
#
# Bulk Modulus (GPa) = 4.19538 64.23434 34.21486
# Shear Modulus (GPa) = 3.46553 35.54373 19.50463
#
# Velocity S-wave (km/s) = 1.43077 4.58213 3.39434
# Velocity P-wave (km/s) = 2.28204 8.12024 5.96431
#
# Compressibility (1/GPa) = 0.23835733
#
# Stress axis : x y z
#
# Youngs Moduli (GPa) = 9.39866 1.62274 26.58471
#
# Poissons Ratio (x) = 0.30600 0.49000
# Poissons Ratio (y) = 1.77232 1.43414
# Poissons Ratio (z) = 0.17323 0.08754
#
# Static dielectric constant tensor:
#      x y z
#    x 1.575620 0.000000 -0.006010 
#    y 0.000000 1.565170 0.000000 
#    z -0.006010 0.000000 1.546060 
# 
# From -- ./inp_files/22143.got.cif
#   From: 2010.05.17/outbox.cif.g08.bks.cpg/sg10_12_cif.got.tgz:22143.got - 2010.06.03 11:33:40.
