data_PCOD9144952
_publ_section_title
;
Structure prediction by ZEFSAII (Michael W. Deem and Ramdas Pophale) SiO2 
 PCOD9144952
Probable space group: P 2/M
;
_chemical_formula_sum "Si O2"
_cell_formula_units_Z 32
_cell_length_a 30.904281
_cell_length_b 13.478451
_cell_length_c 9.814486
_cell_angle_alpha 90.000000
_cell_angle_beta 29.534086
_cell_angle_gamma 90.000000
_cell_volume 2015.214864
_symmetry_space_group_name_H-M "P 2/M"
_symmetry_group_IT_number 10
_symmetry_cell_setting 'monoclinic'
loop_
_space_group_symop_operation_xyz
x,y,z
-x,y,-z
-x,-y,-z
x,-y,z
loop_
_atom_site_type_symbol
_atom_site_label
_atom_site_fract_x
_atom_site_fract_y
_atom_site_fract_z
Si Si1 0.980576 0.386678 0.206160
Si Si2 0.202404 0.703654 0.281439
Si Si3 0.925556 0.112379 0.317185
Si Si4 0.054696 0.112827 0.219228
Si Si5 0.867931 0.308845 0.040602
Si Si6 0.750589 0.381675 0.126859
Si Si7 0.597736 0.380035 0.761092
Si Si8 0.724405 0.380504 0.650248
O O1 0.009407 0.500000 0.131644
O O2 0.877624 0.374900 0.505636
O O3 0.000000 0.349647 0.000000
O O4 0.034001 0.332610 0.177762
O O5 0.151659 0.806956 0.453703
O O6 0.264674 0.672781 0.235388
O O7 0.246715 0.687729 0.013404
O O8 0.983412 0.111239 0.294855
O O9 0.892422 0.000000 0.381376
O O10 0.000000 0.134662 0.000000
O O11 0.000000 0.146782 0.500000
O O12 0.085944 0.000000 0.155439
O O13 0.131545 0.190393 0.978078
O O14 0.834489 0.360028 0.994345
O O15 0.806644 0.348480 0.330356
O O16 0.747457 0.500000 0.102843
O O17 0.667204 0.356458 0.451489
O O18 0.594070 0.500000 0.774100
O O19 0.640077 0.351490 0.790280
O O20 0.500000 0.342401 0.000000
O O21 0.726078 0.500000 0.662422
#
# Coordination Sequence:
#
# PCOD9144952 Si02
#       8
#     4   4   4   4   4   4   4   4
#     4  11  20  28  42  62  92 134 168 190 218 276
#     4  12  20  31  45  68 101 126 157 200 245 269
#     4  10  20  34  49  64  86 127 176 211 237 268
#     4  10  20  33  45  59  82 119 167 213 249 269
#     4  11  19  31  46  62  89 126 170 198 230 274
#     4  10  21  32  46  71 101 125 153 199 241 281
#     4   8  16  34  55  71  92 126 158 183 226 291
#     4  10  19  31  49  70  96 126 154 189 231 281
#
# _framework density 15.879200000000001
#
# number of rings (size 3 to 8) (size 9 to 14) (size 15 to 20)
#    0.000    1.750    2.500    4.875    0.000    0.000 
#    0.000    1.875    0.000    3.000    0.000    0.000 
#    0.000   19.000    0.000    0.000    0.000    0.000 
#
# Total GULP energy -178332.237674 kJ/mol
# GULP energy per Si atom -5572.882427 kJ/mol
# Density = 1.584306 g / cm^3
# Si number density = 15.879200 Si / 1000 Ang^3
#
#
#
# Elastic Constant Matrix: (Units=GPa)
#
#
# Indices 1 2 3 4 5 6 
#
# 1 110.4300 21.8855 50.8810 0.0000 9.8043 0.0000
# 2 21.8855 92.6575 19.7709 0.0000 3.5161 0.0000
# 3 50.8810 19.7709 51.4392 0.0000 3.3414 0.0000
# 4 0.0000 0.0000 0.0000 11.7002 0.0000 3.1864
# 5 9.8043 3.5161 3.3414 0.0000 26.8550 0.0000
# 6 0.0000 0.0000 0.0000 3.1864 0.0000 14.3974
#
#
#
# Elastic Compliance Matrix: (Units=1/GPa)
#
#
# Indices 1 2 3 4 5 6 
#
# 1 0.017100 -0.000360 -0.016508 0.000000 -0.004142 0.000000
# 2 -0.000360 0.011790 -0.004117 0.000000 -0.000900 0.000000
# 3 -0.016508 -0.004117 0.037226 0.000000 0.001934 0.000000
# 4 0.000000 0.000000 0.000000 0.090951 0.000000 -0.020129
# 5 -0.004142 -0.000900 0.001934 0.000000 0.038626 0.000000
# 6 0.000000 0.000000 0.000000 -0.020129 0.000000 0.073912
#
#
# Mechanical properties :
#
#
# Convention : Reuss Voigt Hill
#
# Bulk Modulus (GPa) = 41.41283 48.84462 45.12873
# Shear Modulus (GPa) = 15.64341 21.38980 18.51660
#
# Velocity S-wave (km/s) = 3.14212 3.67418 3.41851
# Velocity P-wave (km/s) = 6.26900 6.98758 6.63802
#
# Compressibility (1/GPa) = 0.02414710
#
# Stress axis : x y z
#
# Youngs Moduli (GPa) = 58.47794 84.81701 26.86306
#
# Poissons Ratio (x) = 0.03050 0.44345
# Poissons Ratio (y) = 0.02103 0.11061
# Poissons Ratio (z) = 0.96533 0.34923
#
# Static dielectric constant tensor:
#      x y z
#    x 1.542630 0.000000 0.020610 
#    y 0.000000 1.561790 0.000000 
#    z 0.020610 0.000000 1.541820 
# 
# From -- ./inp_files/38285.got.cif
#   From: 2010.05.17/outbox.cif.g08.bks.cpg/sg10_20_cif.got.tgz:38285.got - 2010.06.03 11:33:40.
