data_PCOD9144873
_publ_section_title
;
Structure prediction by ZEFSAII (Michael W. Deem and Ramdas Pophale) SiO2 
 PCOD9144873
Probable space group: P 2/M
;
_chemical_formula_sum "Si O2"
_cell_formula_units_Z 24
_cell_length_a 20.370089
_cell_length_b 7.501453
_cell_length_c 8.018587
_cell_angle_alpha 90.000000
_cell_angle_beta 45.324242
_cell_angle_gamma 90.000000
_cell_volume 871.294600
_symmetry_space_group_name_H-M "P 2/M"
_symmetry_group_IT_number 10
_symmetry_cell_setting 'monoclinic'
loop_
_space_group_symop_operation_xyz
x,y,z
-x,y,-z
-x,-y,-z
x,-y,z
loop_
_atom_site_type_symbol
_atom_site_label
_atom_site_fract_x
_atom_site_fract_y
_atom_site_fract_z
Si Si1 0.232094 0.299425 0.899332
Si Si2 0.272482 0.712233 0.365886
Si Si3 0.439314 0.282496 0.270967
Si Si4 0.603370 0.714876 0.188681
Si Si5 0.886236 0.203989 0.576932
Si Si6 0.046750 0.789090 0.080364
O O1 0.254268 0.500000 0.809665
O O2 0.171879 0.302072 0.178424
O O3 0.155533 0.233694 0.906855
O O4 0.328115 0.213886 0.790016
O O5 0.257805 0.500000 0.406941
O O6 0.334950 0.774161 0.411208
O O7 0.176508 0.795887 0.479247
O O8 0.338645 0.740636 0.086213
O O9 0.438330 0.500000 0.276777
O O10 0.500516 0.224455 0.320486
O O11 0.500000 0.232850 0.000000
O O12 0.597281 0.500000 0.225843
O O13 0.985185 0.277133 0.345299
O O14 0.893660 0.000000 0.624966
O O15 0.029228 0.000000 0.111969
O O16 0.000000 0.710687 0.000000
#
# Coordination Sequence:
#
# PCOD9144873 Si02
#       6
#     4   4   4   4   4   4
#     4  10  19  31  50  74  96 118 148 189 230 268
#     4   8  13  22  39  63  89 117 149 184 219 257
#     4   7   9  16  33  57  86 118 146 172 210 260
#     4   7  11  20  36  61  90 117 144 174 215 264
#     4  10  19  31  48  68  92 123 154 186 227 273
#     4  10  22  38  51  64  87 121 157 190 229 277
#
# _framework density 27.545217000000001
#
# number of rings (size 3 to 8) (size 9 to 14) (size 15 to 20)
#    0.000    3.333    0.000    4.500    0.000    3.667 
#    0.000    0.000    0.000   13.500    0.000    1.167 
#    0.000    9.333    0.000    0.000    0.000    0.000 
#
# Total GULP energy -134149.521977 kJ/mol
# GULP energy per Si atom -5589.563416 kJ/mol
# Density = 2.748252 g / cm^3
# Si number density = 27.545217 Si / 1000 Ang^3
#
#
#
# Elastic Constant Matrix: (Units=GPa)
#
#
# Indices 1 2 3 4 5 6 
#
# 1 271.2407 1.0555 58.0089 0.0000 -14.8862 0.0000
# 2 1.0555 66.3760 1.6254 0.0000 -0.6893 0.0000
# 3 58.0089 1.6254 123.0590 0.0000 -26.4383 0.0000
# 4 0.0000 0.0000 0.0000 7.2894 0.0000 -15.3232
# 5 -14.8862 -0.6893 -26.4383 0.0000 67.5706 0.0000
# 6 0.0000 0.0000 0.0000 -15.3232 0.0000 42.5402
#
#
#
# Elastic Compliance Matrix: (Units=1/GPa)
#
#
# Indices 1 2 3 4 5 6 
#
# 1 0.004102 -0.000017 -0.001899 0.000000 0.000161 0.000000
# 2 -0.000017 0.015071 -0.000173 0.000000 0.000082 0.000000
# 3 -0.001899 -0.000173 0.009753 0.000000 0.003396 0.000000
# 4 0.000000 0.000000 0.000000 0.564997 0.000000 0.203515
# 5 0.000161 0.000082 0.003396 0.000000 0.016164 0.000000
# 6 0.000000 0.000000 0.000000 0.203515 0.000000 0.096814
#
#
# Mechanical properties :
#
#
# Convention : Reuss Voigt Hill
#
# Bulk Modulus (GPa) = 40.40817 64.67282 52.54050
# Shear Modulus (GPa) = 6.95092 50.14577 28.54835
#
# Velocity S-wave (km/s) = 1.59026 4.27135 3.22284
# Velocity P-wave (km/s) = 4.25130 6.91778 5.74148
#
# Compressibility (1/GPa) = 0.02474747
#
# Stress axis : x y z
#
# Youngs Moduli (GPa) = 243.79983 66.35237 102.53081
#
# Poissons Ratio (x) = 0.00113 0.19469
# Poissons Ratio (y) = 0.00416 0.01778
# Poissons Ratio (z) = 0.46293 0.01150
#
# Static dielectric constant tensor:
#      x y z
#    x 2.206950 0.000000 0.050800 
#    y 0.000000 1.998160 0.000000 
#    z 0.050800 0.000000 2.209530 
# 
# From -- ./inp_files/33760.got.cif
#   From: 2010.05.17/outbox.cif.g08.bks.cpg/sg10_17_cif.got.tgz:33760.got - 2010.06.03 11:33:40.
