data_PCOD9144842
_publ_section_title
;
Structure prediction by ZEFSAII (Michael W. Deem and Ramdas Pophale) SiO2 
 PCOD9144842
Probable space group: P 2/M
;
_chemical_formula_sum "Si O2"
_cell_formula_units_Z 32
_cell_length_a 27.635684
_cell_length_b 11.196051
_cell_length_c 10.058859
_cell_angle_alpha 90.000000
_cell_angle_beta 26.897541
_cell_angle_gamma 90.000000
_cell_volume 1408.001056
_symmetry_space_group_name_H-M "P 2/M"
_symmetry_group_IT_number 10
_symmetry_cell_setting 'monoclinic'
loop_
_space_group_symop_operation_xyz
x,y,z
-x,y,-z
-x,-y,-z
x,-y,z
loop_
_atom_site_type_symbol
_atom_site_label
_atom_site_fract_x
_atom_site_fract_y
_atom_site_fract_z
Si Si1 0.104298 0.627184 0.341371
Si Si2 0.963338 0.627303 0.939363
Si Si3 0.159892 0.129324 0.807117
Si Si4 0.454996 0.134203 0.259753
Si Si5 0.868894 0.126033 0.815338
Si Si6 0.416989 0.367601 0.498848
Si Si7 0.313955 0.129780 0.188631
Si Si8 0.660017 0.368087 0.009419
O O1 0.158903 0.500000 0.181655
O O2 0.162951 0.750437 0.172329
O O3 0.000000 0.627671 0.500000
O O4 0.060258 0.629030 0.597945
O O5 0.904924 0.500000 0.054864
O O6 0.902676 0.749992 0.066776
O O7 0.000000 0.625221 0.000000
O O8 0.262692 0.134793 0.461310
O O9 0.106150 0.000000 0.906950
O O10 0.174197 0.127841 0.929507
O O11 0.395328 0.253118 0.458198
O O12 0.404753 0.000000 0.387496
O O13 0.500000 0.151369 0.000000
O O14 0.558916 0.127540 0.101030
O O15 0.000000 0.125552 0.500000
O O16 0.837292 0.000000 0.828516
O O17 0.391341 0.500000 0.505282
O O18 0.544522 0.369946 0.219048
O O19 0.364531 0.357215 0.773716
O O20 0.281606 0.000000 0.209908
O O21 0.283100 0.249262 0.185009
O O22 0.709704 0.500000 0.863126
#
# Coordination Sequence:
#
# PCOD9144842 Si02
#       8
#     4   4   4   4   4   4   4   4
#     4   9  15  26  45  67  88 113 149 192 227 264
#     4  10  20  32  47  70  97 122 151 192 242 287
#     4  10  19  31  47  69  95 122 154 197 241 282
#     4   9  17  29  45  67  95 126 158 191 231 280
#     4   9  15  25  44  67  88 113 152 195 229 267
#     4   8  14  25  43  66  89 114 149 192 231 268
#     4   9  18  30  45  67  95 123 153 193 237 277
#     4   8  14  26  43  65  90 115 148 189 230 274
#
# _framework density 22.727253999999999
#
# number of rings (size 3 to 8) (size 9 to 14) (size 15 to 20)
#    0.000    3.000    2.500    0.750    0.000    1.500 
#    0.000    2.500    0.000    1.500    0.000    5.250 
#    0.000    0.000    0.000    0.000    0.000    0.000 
#
# Total GULP energy -178409.666709 kJ/mol
# GULP energy per Si atom -5575.302085 kJ/mol
# Density = 2.267553 g / cm^3
# Si number density = 22.727254 Si / 1000 Ang^3
#
#
#
# Elastic Constant Matrix: (Units=GPa)
#
#
# Indices 1 2 3 4 5 6 
#
# 1 50.9329 36.9879 16.1416 0.0000 4.8803 0.0000
# 2 36.9879 297.2249 71.8313 0.0000 15.9919 0.0000
# 3 16.1416 71.8313 71.3564 0.0000 19.4881 0.0000
# 4 0.0000 0.0000 0.0000 31.6277 0.0000 14.4196
# 5 4.8803 15.9919 19.4881 0.0000 33.2532 0.0000
# 6 0.0000 0.0000 0.0000 14.4196 0.0000 15.7468
#
#
#
# Elastic Compliance Matrix: (Units=1/GPa)
#
#
# Indices 1 2 3 4 5 6 
#
# 1 0.022053 -0.002044 -0.002757 0.000000 -0.000638 0.000000
# 2 -0.002044 0.004645 -0.004388 0.000000 0.000638 0.000000
# 3 -0.002757 -0.004388 0.021868 0.000000 -0.010301 0.000000
# 4 0.000000 0.000000 0.000000 0.054279 0.000000 -0.049704
# 5 -0.000638 0.000638 -0.010301 0.000000 0.035896 0.000000
# 6 0.000000 0.000000 0.000000 -0.049704 0.000000 0.109019
#
#
# Mechanical properties :
#
#
# Convention : Reuss Voigt Hill
#
# Bulk Modulus (GPa) = 33.12481 74.38177 53.75329
# Shear Modulus (GPa) = 18.10286 35.76243 26.93264
#
# Velocity S-wave (km/s) = 2.82534 3.97110 3.44617
# Velocity P-wave (km/s) = 5.02494 7.33657 6.28789
#
# Compressibility (1/GPa) = 0.03018886
#
# Stress axis : x y z
#
# Youngs Moduli (GPa) = 45.34588 215.29281 45.72906
#
# Poissons Ratio (x) = 0.44000 0.12608
# Poissons Ratio (y) = 0.09267 0.20064
# Poissons Ratio (z) = 0.12502 0.94461
#
# Static dielectric constant tensor:
#      x y z
#    x 1.804400 0.000000 -0.064310 
#    y 0.000000 1.943240 0.000000 
#    z -0.064310 0.000000 1.829850 
# 
# From -- ./inp_files/38227.got.cif
#   From: 2010.05.17/outbox.cif.g08.bks.cpg/sg10_20_cif.got.tgz:38227.got - 2010.06.03 11:33:40.
