data_PCOD9144416
_publ_section_title
;
Structure prediction by ZEFSAII (Michael W. Deem and Ramdas Pophale) SiO2 
 PCOD9144416
Probable space group: P 2/M
;
_chemical_formula_sum "Si O2"
_cell_formula_units_Z 28
_cell_length_a 5.502884
_cell_length_b 16.813974
_cell_length_c 13.163428
_cell_angle_alpha 90.000000
_cell_angle_beta 76.514749
_cell_angle_gamma 90.000000
_cell_volume 1184.371838
_symmetry_space_group_name_H-M "P 2/M"
_symmetry_group_IT_number 10
_symmetry_cell_setting 'monoclinic'
loop_
_space_group_symop_operation_xyz
x,y,z
-x,y,-z
-x,-y,-z
x,-y,z
loop_
_atom_site_type_symbol
_atom_site_label
_atom_site_fract_x
_atom_site_fract_y
_atom_site_fract_z
Si Si1 0.647965 0.614473 0.886826
Si Si2 0.663689 0.908306 0.370134
Si Si3 0.207365 0.170945 0.851291
Si Si4 0.144761 0.824707 0.396084
Si Si5 0.290864 0.799141 0.143823
Si Si6 0.801517 0.360387 0.208823
Si Si7 0.779656 0.405050 0.438885
O O1 0.675875 0.709263 0.893781
O O2 0.456678 0.602070 0.810538
O O3 0.943331 0.594468 0.851221
O O4 0.500000 0.585563 0.000000
O O5 0.734895 0.884252 0.249653
O O6 0.410157 0.856874 0.410455
O O7 0.924816 0.889045 0.400298
O O8 0.598601 0.000000 0.386936
O O9 0.447447 0.159224 0.893842
O O10 0.209524 0.267049 0.823370
O O11 0.920715 0.159013 0.900405
O O12 0.210218 0.795272 0.273658
O O13 0.000000 0.774620 0.500000
O O14 0.822222 0.361920 0.328083
O O15 0.500000 0.381218 0.500000
O O16 0.771642 0.500000 0.418119
O O17 0.000000 0.394955 0.500000
#
# Coordination Sequence:
#
# PCOD9144416 Si02
#       7
#     4   4   4   4   4   4   4
#     4  10  19  33  55  81 110 144 180 223 274 327
#     4  10  19  30  43  61  90 129 169 206 248 305
#     4   8  16  30  45  65  94 127 165 207 255 302
#     4  10  19  30  43  59  86 124 165 210 259 311
#     4   8  16  30  45  65  93 123 164 212 256 304
#     4  10  19  35  56  81 114 143 178 228 273 319
#     4  10  21  38  61  87 114 149 189 223 263 314
#
# _framework density 23.641224000000001
#
# number of rings (size 3 to 8) (size 9 to 14) (size 15 to 20)
#    0.000    2.571    0.000    2.143    0.000    1.714 
#    0.000   19.286    0.000    2.571    0.000    0.000 
#    0.000  277.714    0.000    0.000    0.000    0.000 
#
# Total GULP energy -155943.450721 kJ/mol
# GULP energy per Si atom -5569.408954 kJ/mol
# Density = 2.358742 g / cm^3
# Si number density = 23.641224 Si / 1000 Ang^3
#
#
#
# Elastic Constant Matrix: (Units=GPa)
#
#
# Indices 1 2 3 4 5 6 
#
# 1 222.7238 5.3284 47.7006 0.0000 -0.0060 0.0000
# 2 5.3284 46.5026 9.1987 0.0000 -6.9688 0.0000
# 3 47.7006 9.1987 114.6445 0.0000 -10.2566 0.0000
# 4 0.0000 0.0000 0.0000 206.2244 0.0000 125.9502
# 5 -0.0060 -6.9688 -10.2566 0.0000 52.3478 0.0000
# 6 0.0000 0.0000 0.0000 125.9502 0.0000 147.7163
#
#
#
# Elastic Compliance Matrix: (Units=1/GPa)
#
#
# Indices 1 2 3 4 5 6 
#
# 1 0.004940 -0.000221 -0.002077 0.000000 -0.000436 0.000000
# 2 -0.000221 0.022217 -0.001452 0.000000 0.002673 0.000000
# 3 -0.002077 -0.001452 0.009859 0.000000 0.001738 0.000000
# 4 0.000000 0.000000 0.000000 0.010118 0.000000 -0.008627
# 5 -0.000436 0.002673 0.001738 0.000000 0.019799 0.000000
# 6 0.000000 0.000000 0.000000 -0.008627 0.000000 0.014126
#
#
# Mechanical properties :
#
#
# Convention : Reuss Voigt Hill
#
# Bulk Modulus (GPa) = 33.87768 56.48069 45.17918
# Shear Modulus (GPa) = 50.81508 102.70058 76.75783
#
# Velocity S-wave (km/s) = 4.64122 6.59815 5.70423
# Velocity P-wave (km/s) = 6.56371 9.05484 7.90798
#
# Compressibility (1/GPa) = 0.02951796
#
# Stress axis : x y z
#
# Youngs Moduli (GPa) = 202.43397 45.01012 101.43389
#
# Poissons Ratio (x) = 0.00993 0.21064
# Poissons Ratio (y) = 0.04464 0.14725
# Poissons Ratio (z) = 0.42038 0.06534
#
# Static dielectric constant tensor:
#      x y z
#    x 1.967990 0.000000 0.030000 
#    y 0.000000 1.857520 0.000000 
#    z 0.030000 0.000000 2.075740 
# 
# From -- ./inp_files/39711.got.cif
#   From: 2010.05.17/outbox.cif.g08.bks.cpg/sg10_20_cif.got.tgz:39711.got - 2010.06.03 11:33:40.
