data_PCOD9144285
_publ_section_title
;
Structure prediction by ZEFSAII (Michael W. Deem and Ramdas Pophale) SiO2 
 PCOD9144285
Probable space group: P 2/M
;
_chemical_formula_sum "Si O2"
_cell_formula_units_Z 32
_cell_length_a 23.570159
_cell_length_b 16.401082
_cell_length_c 26.542106
_cell_angle_alpha 90.000000
_cell_angle_beta 169.814800
_cell_angle_gamma 90.000000
_cell_volume 1814.377227
_symmetry_space_group_name_H-M "P 2/M"
_symmetry_group_IT_number 10
_symmetry_cell_setting 'monoclinic'
loop_
_space_group_symop_operation_xyz
x,y,z
-x,y,-z
-x,-y,-z
x,-y,z
loop_
_atom_site_type_symbol
_atom_site_label
_atom_site_fract_x
_atom_site_fract_y
_atom_site_fract_z
Si Si1 0.198182 0.252240 0.214923
Si Si2 0.318493 0.737490 0.599634
Si Si3 0.305736 0.646725 0.739021
Si Si4 0.347178 0.203137 0.011498
Si Si5 0.965679 0.411814 0.347475
Si Si6 0.196505 0.651901 0.052697
Si Si7 0.621902 0.097645 0.162041
Si Si8 0.506356 0.408696 0.423828
O O1 0.500000 0.206508 0.500000
O O2 0.337553 0.336457 0.309512
O O3 0.000000 0.206780 0.000000
O O4 0.969588 0.277059 0.060084
O O5 0.490103 0.795941 0.790980
O O6 0.577818 0.692739 0.791267
O O7 0.134415 0.662850 0.466426
O O8 0.036286 0.784050 0.322908
O O9 0.492528 0.716752 0.872918
O O10 0.000000 0.683993 0.500000
O O11 0.133852 0.588511 0.548678
O O12 0.583974 0.604491 0.014642
O O13 0.437602 0.134831 0.049150
O O14 0.019213 0.500000 0.369505
O O15 0.390894 0.602291 0.265320
O O16 0.889990 0.603289 0.763080
O O17 0.000000 0.114956 0.500000
O O18 0.579974 0.000000 0.125497
O O19 0.500000 0.127855 0.000000
O O20 0.419547 0.500000 0.365787
#
# Coordination Sequence:
#
# PCOD9144285 Si02
#       8
#     4   4   4   4   4   4   4   4
#     4   8  16  27  41  59  82 108 142 192 249 289
#     4  10  21  35  48  64  88 126 166 192 228 279
#     4  10  20  32  48  64  78 106 143 180 228 276
#     4  10  20  35  52  70  97 125 152 184 219 273
#     4  10  21  33  43  59  82 105 141 196 239 267
#     4  10  19  31  44  60  83 115 158 197 234 283
#     4  10  20  34  56  86 112 129 149 182 226 277
#     4  10  19  29  43  64  87 113 153 207 263 307
#
# _framework density 17.636906
#
# number of rings (size 3 to 8) (size 9 to 14) (size 15 to 20)
#    0.000    2.250    0.000    3.000    0.000    9.000 
#    0.000    0.000    0.000    0.000    0.000    0.000 
#    0.000    0.000    0.000    0.000    0.000  112.500 
#
# Total GULP energy -178165.968853 kJ/mol
# GULP energy per Si atom -5567.686527 kJ/mol
# Density = 1.759676 g / cm^3
# Si number density = 17.636906 Si / 1000 Ang^3
#
#
#
# Elastic Constant Matrix: (Units=GPa)
#
#
# Indices 1 2 3 4 5 6 
#
# 1 65.2642 5.2751 53.4402 0.0000 -8.5084 0.0000
# 2 5.2751 26.8542 13.4875 0.0000 -5.3578 0.0000
# 3 53.4402 13.4875 145.5994 0.0000 -21.9327 0.0000
# 4 0.0000 0.0000 0.0000 3.4852 0.0000 3.2842
# 5 -8.5084 -5.3578 -21.9327 0.0000 34.0143 0.0000
# 6 0.0000 0.0000 0.0000 3.2842 0.0000 16.9454
#
#
#
# Elastic Compliance Matrix: (Units=1/GPa)
#
#
# Indices 1 2 3 4 5 6 
#
# 1 0.021911 -0.000239 -0.007974 0.000000 0.000301 0.000000
# 2 -0.000239 0.039615 -0.002936 0.000000 0.004287 0.000000
# 3 -0.007974 -0.002936 0.010740 0.000000 0.004468 0.000000
# 4 0.000000 0.000000 0.000000 0.351034 0.000000 -0.068033
# 5 0.000301 0.004287 0.004468 0.000000 0.033031 0.000000
# 6 0.000000 0.000000 0.000000 -0.068033 0.000000 0.072199
#
#
# Mechanical properties :
#
#
# Convention : Reuss Voigt Hill
#
# Bulk Modulus (GPa) = 20.01330 42.45815 31.23573
# Shear Modulus (GPa) = 8.81081 21.92331 15.36706
#
# Velocity S-wave (km/s) = 2.23752 3.52950 2.95498
# Velocity P-wave (km/s) = 4.24822 6.38244 5.42139
#
# Compressibility (1/GPa) = 0.04996678
#
# Stress axis : x y z
#
# Youngs Moduli (GPa) = 45.63997 25.24288 93.10863
#
# Poissons Ratio (x) = 0.00603 0.74249
# Poissons Ratio (y) = 0.01090 0.27340
# Poissons Ratio (z) = 0.36396 0.07412
#
# Static dielectric constant tensor:
#      x y z
#    x 1.626500 0.000000 -0.044760 
#    y 0.000000 1.580160 0.000000 
#    z -0.044760 0.000000 1.653740 
# 
# From -- ./inp_files/12722.got.cif
#   From: 2010.05.17/outbox.cif.g08.bks.cpg/sg10_7_cif.got.tgz:12722.got - 2010.06.03 11:33:40.
