data_PCOD9144763
_publ_section_title
;
Structure prediction by ZEFSAII (Michael W. Deem and Ramdas Pophale) SiO2 
 PCOD9144763
Probable space group: P 2/M
;
_chemical_formula_sum "Si O2"
_cell_formula_units_Z 32
_cell_length_a 29.654233
_cell_length_b 8.977743
_cell_length_c 20.067007
_cell_angle_alpha 90.000000
_cell_angle_beta 156.493036
_cell_angle_gamma 90.000000
_cell_volume 2130.872813
_symmetry_space_group_name_H-M "P 2/M"
_symmetry_group_IT_number 10
_symmetry_cell_setting 'monoclinic'
loop_
_space_group_symop_operation_xyz
x,y,z
-x,y,-z
-x,-y,-z
x,-y,z
loop_
_atom_site_type_symbol
_atom_site_label
_atom_site_fract_x
_atom_site_fract_y
_atom_site_fract_z
Si Si1 0.842844 0.321840 0.405314
Si Si2 0.564061 0.326703 0.878486
Si Si3 0.062180 0.175894 0.747839
Si Si4 0.836789 0.671158 0.242339
Si Si5 0.417757 0.681715 0.947592
Si Si6 0.388933 0.329092 0.397087
Si Si7 0.474471 0.176176 0.309007
Si Si8 0.738785 0.679164 0.903775
O O1 0.849674 0.500000 0.425063
O O2 0.869358 0.296200 0.362711
O O3 0.935143 0.238499 0.574207
O O4 0.712916 0.274046 0.240078
O O5 0.529609 0.500000 0.825576
O O6 0.542202 0.272732 0.924219
O O7 0.513076 0.232415 0.749497
O O8 0.700542 0.323486 0.055907
O O9 0.113683 0.220263 0.745494
O O10 0.064981 0.000000 0.761119
O O11 0.143614 0.256827 0.910918
O O12 0.871022 0.500000 0.272915
O O13 0.416894 0.500000 0.947934
O O14 0.500000 0.730268 0.000000
O O15 0.500000 0.328708 0.500000
O O16 0.371499 0.500000 0.395163
O O17 0.421804 0.227941 0.503790
O O18 0.290237 0.283205 0.212439
O O19 0.362006 0.253538 0.187458
O O20 0.460016 0.000000 0.292306
O O21 0.735152 0.500000 0.905420
#
# Coordination Sequence:
#
# PCOD9144763 Si02
#       8
#     4   4   4   4   4   4   4   4
#     4   9  18  31  46  63  83 113 146 179 220 263
#     4   9  16  27  45  65  87 117 147 181 221 261
#     4  12  22  28  39  61  88 117 148 185 217 250
#     4   9  17  29  43  57  80 117 152 178 211 256
#     4   8  15  30  52  73  87 106 145 190 225 258
#     4   8  16  29  43  57  77 112 151 183 216 255
#     4  11  19  26  40  63  89 115 146 184 217 254
#     4  10  19  31  44  57  80 117 155 185 217 257
#
# _framework density 15.01732
#
# number of rings (size 3 to 8) (size 9 to 14) (size 15 to 20)
#    0.000    2.500    1.250    5.250    0.000    4.750 
#    0.000    1.875    0.000    1.500    0.000    0.000 
#    0.000    1.000    0.000   11.500    0.000    3.250 
#
# Total GULP energy -178375.850890 kJ/mol
# GULP energy per Si atom -5574.245340 kJ/mol
# Density = 1.498314 g / cm^3
# Si number density = 15.017320 Si / 1000 Ang^3
#
#
#
# Elastic Constant Matrix: (Units=GPa)
#
#
# Indices 1 2 3 4 5 6 
#
# 1 76.0533 36.9975 51.6752 0.0000 -15.0277 0.0000
# 2 36.9975 66.2647 48.1078 0.0000 -19.4283 0.0000
# 3 51.6752 48.1078 100.3985 0.0000 -29.9705 0.0000
# 4 0.0000 0.0000 0.0000 6.5143 0.0000 2.6950
# 5 -15.0277 -19.4283 -29.9705 0.0000 23.4559 0.0000
# 6 0.0000 0.0000 0.0000 2.6950 0.0000 -12.3419
#
#
#
# Elastic Compliance Matrix: (Units=1/GPa)
#
#
# Indices 1 2 3 4 5 6 
#
# 1 0.021858 -0.006527 -0.008982 0.000000 -0.002879 0.000000
# 2 -0.006527 0.026078 -0.006364 0.000000 0.009287 0.000000
# 3 -0.008982 -0.006364 0.023185 0.000000 0.018598 0.000000
# 4 0.000000 0.000000 0.000000 0.140789 0.000000 0.030743
# 5 -0.002879 0.009287 0.018598 0.000000 0.072244 0.000000
# 6 0.000000 0.000000 0.000000 0.030743 0.000000 -0.074311
#
#
# Mechanical properties :
#
#
# Convention : Reuss Voigt Hill
#
# Bulk Modulus (GPa) = 36.53078 57.36417 46.94747
# Shear Modulus (GPa) = 19.03199 10.58806 14.81003
#
# Velocity S-wave (km/s) = 3.56383 2.65817 3.14378
# Velocity P-wave (km/s) = 6.42752 6.90672 6.67143
#
# Compressibility (1/GPa) = 0.02737418
#
# Stress axis : x y z
#
# Youngs Moduli (GPa) = 45.74958 38.34582 43.13163
#
# Poissons Ratio (x) = 0.25029 0.38743
# Poissons Ratio (y) = 0.29861 0.27450
# Poissons Ratio (z) = 0.41094 0.24404
#
# Static dielectric constant tensor:
#      x y z
#    x 1.491340 0.000000 -0.022060 
#    y 0.000000 1.496820 0.000000 
#    z -0.022060 0.000000 1.520770 
# 
# From -- ./inp_files/87202.got.cif
#   From: 2010.05.17/outbox.cif.g08.bks.cpg/sg10_44_cif.got.tgz:87202.got - 2010.06.03 11:33:40.
