data_PCOD9144876
_publ_section_title
;
Structure prediction by ZEFSAII (Michael W. Deem and Ramdas Pophale) SiO2 
 PCOD9144876
Probable space group: P 2/M
;
_chemical_formula_sum "Si O2"
_cell_formula_units_Z 24
_cell_length_a 5.171537
_cell_length_b 14.434505
_cell_length_c 22.162890
_cell_angle_alpha 90.000000
_cell_angle_beta 52.370478
_cell_angle_gamma 90.000000
_cell_volume 1310.266029
_symmetry_space_group_name_H-M "P 2/M"
_symmetry_group_IT_number 10
_symmetry_cell_setting 'monoclinic'
loop_
_space_group_symop_operation_xyz
x,y,z
-x,y,-z
-x,-y,-z
x,-y,z
loop_
_atom_site_type_symbol
_atom_site_label
_atom_site_fract_x
_atom_site_fract_y
_atom_site_fract_z
Si Si1 0.860059 0.101023 0.740358
Si Si2 0.888920 0.107279 0.947209
Si Si3 0.864682 0.106676 0.425101
Si Si4 0.776863 0.191603 0.209162
Si Si5 0.356758 0.607949 0.587853
Si Si6 0.274355 0.285919 0.360516
O O1 0.514971 0.116338 0.757231
O O2 0.124535 0.108715 0.649489
O O3 0.946637 0.169814 0.781139
O O4 0.870643 0.000000 0.766552
O O5 0.053560 0.182632 0.879791
O O6 0.973861 0.000000 0.917082
O O7 0.500000 0.114751 0.000000
O O8 0.000000 0.119080 0.000000
O O9 0.500000 0.126027 0.500000
O O10 0.120324 0.187589 0.405167
O O11 0.953127 0.000000 0.429994
O O12 0.564080 0.272082 0.270452
O O13 0.500000 0.613130 0.500000
O O14 0.317430 0.500000 0.609140
O O15 0.592854 0.657332 0.601766
O O16 0.016203 0.661510 0.632067
#
# Coordination Sequence:
#
# PCOD9144876 Si02
#       6
#     4   4   4   4   4   4
#     4  10  19  31  48  68  98 144 188 228 266 304
#     4  10  20  33  51  75 106 147 191 232 271 318
#     4   9  19  35  53  77 112 155 199 233 266 318
#     4  11  21  34  51  76 107 139 182 229 278 331
#     4  11  24  42  64  87 112 145 190 246 300 344
#     4  11  22  38  60  85 114 149 189 233 288 342
#
# _framework density 18.316890999999998
#
# number of rings (size 3 to 8) (size 9 to 14) (size 15 to 20)
#    0.000    1.667    0.000    6.000    0.000    5.333 
#    0.000    3.333    0.000   25.500    0.000    0.000 
#    0.000   13.333    0.000    0.000    0.000    0.000 
#
# Total GULP energy -133890.055510 kJ/mol
# GULP energy per Si atom -5578.752313 kJ/mol
# Density = 1.827520 g / cm^3
# Si number density = 18.316891 Si / 1000 Ang^3
#
#
#
# Elastic Constant Matrix: (Units=GPa)
#
#
# Indices 1 2 3 4 5 6 
#
# 1 77.5986 30.5979 6.8620 0.0000 6.3755 0.0000
# 2 30.5979 86.6433 15.3769 0.0000 -0.6180 0.0000
# 3 6.8620 15.3769 80.0679 0.0000 -2.5905 0.0000
# 4 0.0000 0.0000 0.0000 9.3246 0.0000 5.8350
# 5 6.3755 -0.6180 -2.5905 0.0000 22.2852 0.0000
# 6 0.0000 0.0000 0.0000 5.8350 0.0000 14.2393
#
#
#
# Elastic Compliance Matrix: (Units=1/GPa)
#
#
# Indices 1 2 3 4 5 6 
#
# 1 0.015437 -0.005407 -0.000434 0.000000 -0.004617 0.000000
# 2 -0.005407 0.013843 -0.002141 0.000000 0.001682 0.000000
# 3 -0.000434 -0.002141 0.012989 0.000000 0.001575 0.000000
# 4 0.000000 0.000000 0.000000 0.144227 0.000000 -0.059102
# 5 -0.004617 0.001682 0.001575 0.000000 0.046423 0.000000
# 6 0.000000 0.000000 0.000000 -0.059102 0.000000 0.094447
#
#
# Mechanical properties :
#
#
# Convention : Reuss Voigt Hill
#
# Bulk Modulus (GPa) = 38.01619 38.88705 38.45162
# Shear Modulus (GPa) = 14.20059 21.93469 18.06764
#
# Velocity S-wave (km/s) = 2.78739 3.46426 3.14410
# Velocity P-wave (km/s) = 5.58204 6.10555 5.84965
#
# Compressibility (1/GPa) = 0.02630458
#
# Stress axis : x y z
#
# Youngs Moduli (GPa) = 64.78083 72.23826 76.99032
#
# Poissons Ratio (x) = 0.39062 0.03340
# Poissons Ratio (y) = 0.35029 0.16481
# Poissons Ratio (z) = 0.02810 0.15464
#
# Static dielectric constant tensor:
#      x y z
#    x 1.626930 0.000000 -0.014210 
#    y 0.000000 1.659820 0.000000 
#    z -0.014210 0.000000 1.661760 
# 
# From -- ./inp_files/81285.got.cif
#   From: 2010.05.17/outbox.cif.g08.bks.cpg/sg10_41_cif.got.tgz:81285.got - 2010.06.03 11:33:40.
