data_PCOD9144703
_publ_section_title
;
Structure prediction by ZEFSAII (Michael W. Deem and Ramdas Pophale) SiO2 
 PCOD9144703
Probable space group: P 2/M
;
_chemical_formula_sum "Si O2"
_cell_formula_units_Z 28
_cell_length_a 14.936037
_cell_length_b 7.507514
_cell_length_c 19.928564
_cell_angle_alpha 90.000000
_cell_angle_beta 140.731510
_cell_angle_gamma 90.000000
_cell_volume 1414.426909
_symmetry_space_group_name_H-M "P 2/M"
_symmetry_group_IT_number 10
_symmetry_cell_setting 'monoclinic'
loop_
_space_group_symop_operation_xyz
x,y,z
-x,y,-z
-x,-y,-z
x,-y,z
loop_
_atom_site_type_symbol
_atom_site_label
_atom_site_fract_x
_atom_site_fract_y
_atom_site_fract_z
Si Si1 0.127015 0.700720 0.628080
Si Si2 0.911739 0.286220 0.605785
Si Si3 0.614360 0.213577 0.011733
Si Si4 0.328320 0.281308 0.633328
Si Si5 0.385824 0.712157 0.143905
Si Si6 0.934574 0.204085 0.029037
Si Si7 0.931994 0.213154 0.175219
O O1 0.172297 0.500000 0.673382
O O2 0.251864 0.782760 0.657416
O O3 0.000000 0.686537 0.500000
O O4 0.049424 0.787408 0.645819
O O5 0.914688 0.500000 0.598034
O O6 0.768824 0.224637 0.485786
O O7 0.942252 0.248798 0.700292
O O8 0.777907 0.279692 0.111955
O O9 0.618490 0.000000 0.022580
O O10 0.500000 0.281404 0.000000
O O11 0.574729 0.250876 0.911096
O O12 0.324059 0.500000 0.632188
O O13 0.490009 0.227894 0.734199
O O14 0.369912 0.500000 0.140971
O O15 0.235283 0.796223 0.072772
O O16 0.987953 0.000000 0.062286
O O17 0.963245 0.285239 0.119003
O O18 0.000000 0.286928 0.000000
O O19 0.915880 0.000000 0.159449
#
# Coordination Sequence:
#
# PCOD9144703 Si02
#       7
#     4   4   4   4   4   4   4
#     4   7  11  21  37  57  83 122 166 192 207 245
#     4   9  16  27  46  67  93 131 167 192 226 282
#     4   9  19  34  47  62  95 140 172 198 239 288
#     4   8  15  27  42  66  99 131 160 194 234 275
#     4  10  19  30  49  77 102 121 155 206 250 287
#     4   9  19  38  59  72  89 123 161 197 246 306
#     4   9  18  31  47  70  95 117 154 205 247 281
#
# _framework density 19.796002999999999
#
# number of rings (size 3 to 8) (size 9 to 14) (size 15 to 20)
#    0.000    3.286    0.000    3.000    2.000    2.857 
#    0.000    1.429    0.000    4.714    0.000    6.000 
#    0.000    0.000    0.000    0.000    0.000    0.000 
#
# Total GULP energy -155908.855999 kJ/mol
# GULP energy per Si atom -5568.173429 kJ/mol
# Density = 1.975095 g / cm^3
# Si number density = 19.796003 Si / 1000 Ang^3
#
#
#
# Elastic Constant Matrix: (Units=GPa)
#
#
# Indices 1 2 3 4 5 6 
#
# 1 108.7782 4.2346 57.6295 0.0000 -22.7733 0.0000
# 2 4.2346 52.0895 -7.0510 0.0000 -2.3226 0.0000
# 3 57.6295 -7.0510 144.0261 0.0000 -13.2056 0.0000
# 4 0.0000 0.0000 0.0000 16.4371 0.0000 -2.0382
# 5 -22.7733 -2.3226 -13.2056 0.0000 15.7698 0.0000
# 6 0.0000 0.0000 0.0000 -2.0382 0.0000 5.6200
#
#
#
# Elastic Compliance Matrix: (Units=1/GPa)
#
#
# Indices 1 2 3 4 5 6 
#
# 1 0.015511 -0.001058 -0.004570 0.000000 0.018417 0.000000
# 2 -0.001058 0.019627 0.001635 0.000000 0.002731 0.000000
# 3 -0.004570 0.001635 0.008956 0.000000 0.001142 0.000000
# 4 0.000000 0.000000 0.000000 0.063703 0.000000 0.023103
# 5 0.018417 0.002731 0.001142 0.000000 0.091367 0.000000
# 6 0.000000 0.000000 0.000000 0.023103 0.000000 0.186315
#
#
# Mechanical properties :
#
#
# Convention : Reuss Voigt Hill
#
# Bulk Modulus (GPa) = 27.69495 46.05780 36.87638
# Shear Modulus (GPa) = 12.33046 24.23744 18.28395
#
# Velocity S-wave (km/s) = 2.49846 3.50288 3.04241
# Velocity P-wave (km/s) = 4.72690 6.29897 5.56869
#
# Compressibility (1/GPa) = 0.03610767
#
# Stress axis : x y z
#
# Youngs Moduli (GPa) = 64.47118 50.95072 111.65277
#
# Poissons Ratio (x) = 0.05392 0.51020
# Poissons Ratio (y) = 0.06823 -0.18252
# Poissons Ratio (z) = 0.29461 -0.08329
#
# Static dielectric constant tensor:
#      x y z
#    x 1.712990 0.000000 -0.011940 
#    y 0.000000 1.765370 0.000000 
#    z -0.011940 0.000000 1.712960 
# 
# From -- ./inp_files/77808.got.cif
#   From: 2010.05.17/outbox.cif.g08.bks.cpg/sg10_39_cif.got.tgz:77808.got - 2010.06.03 11:33:40.
