data_PCOD9144227
_publ_section_title
;
Structure prediction by ZEFSAII (Michael W. Deem and Ramdas Pophale) SiO2 
 PCOD9144227
Probable space group: P 2/M
;
_chemical_formula_sum "Si O2"
_cell_formula_units_Z 32
_cell_length_a 14.906774
_cell_length_b 9.215792
_cell_length_c 14.298714
_cell_angle_alpha 90.000000
_cell_angle_beta 88.233162
_cell_angle_gamma 90.000000
_cell_volume 1963.390958
_symmetry_space_group_name_H-M "P 2/M"
_symmetry_group_IT_number 10
_symmetry_cell_setting 'monoclinic'
loop_
_space_group_symop_operation_xyz
x,y,z
-x,y,-z
-x,-y,-z
x,-y,z
loop_
_atom_site_type_symbol
_atom_site_label
_atom_site_fract_x
_atom_site_fract_y
_atom_site_fract_z
Si Si1 0.196550 0.832772 0.176309
Si Si2 0.248779 0.174929 0.883082
Si Si3 0.604202 0.173536 0.473633
Si Si4 0.662492 0.669470 0.283266
Si Si5 0.895184 0.670645 0.981725
Si Si6 0.623250 0.166584 0.957467
Si Si7 0.468848 0.667984 0.193793
Si Si8 0.324215 0.826194 0.327005
O O1 0.129460 0.733417 0.119890
O O2 0.288684 0.829949 0.112721
O O3 0.230982 0.787200 0.278053
O O4 0.164978 0.000000 0.179343
O O5 0.265661 0.243517 0.781337
O O6 0.242404 0.000000 0.880654
O O7 0.164393 0.242449 0.940633
O O8 0.335307 0.213102 0.945248
O O9 0.500000 0.211895 0.500000
O O10 0.642087 0.258498 0.383733
O O11 0.663214 0.203499 0.564146
O O12 0.605358 0.000000 0.455061
O O13 0.686515 0.500000 0.291455
O O14 0.568714 0.678364 0.229711
O O15 0.872025 0.500000 0.986632
O O16 0.000000 0.687985 0.000000
O O17 0.549446 0.258509 0.905570
O O18 0.594767 0.000000 0.964382
O O19 0.443115 0.500000 0.187976
O O20 0.404362 0.747313 0.270011
O O21 0.335008 0.000000 0.313495
#
# Coordination Sequence:
#
# PCOD9144227 Si02
#       8
#     4   4   4   4   4   4   4   4
#     4   8  15  28  47  72 100 128 160 198 238 285
#     4  10  21  36  52  70  94 127 165 202 240 290
#     4  10  19  32  51  70  91 129 176 217 252 287
#     4  11  23  34  45  66  98 131 166 210 253 292
#     4  10  20  34  54  80 107 130 153 188 238 297
#     4   8  16  30  46  64  89 123 163 203 239 279
#     4  10  19  28  42  65  92 127 166 204 246 288
#     4   9  17  30  47  68  95 127 167 212 249 281
#
# _framework density 16.298333
#
# number of rings (size 3 to 8) (size 9 to 14) (size 15 to 20)
#    0.000    2.500    1.250    3.000    0.000    8.750 
#    0.000    2.500    0.000    0.000    0.000    0.875 
#    0.000    7.000    0.000    0.000    0.000    0.000 
#
# Total GULP energy -178393.607992 kJ/mol
# GULP energy per Si atom -5574.800250 kJ/mol
# Density = 1.626124 g / cm^3
# Si number density = 16.298333 Si / 1000 Ang^3
#
#
#
# Elastic Constant Matrix: (Units=GPa)
#
#
# Indices 1 2 3 4 5 6 
#
# 1 53.0823 42.0899 37.3444 0.0000 9.3328 0.0000
# 2 42.0899 68.0604 63.9404 0.0000 2.1987 0.0000
# 3 37.3444 63.9404 130.5726 0.0000 4.6528 0.0000
# 4 0.0000 0.0000 0.0000 34.2766 0.0000 -11.4633
# 5 9.3328 2.1987 4.6528 0.0000 18.8636 0.0000
# 6 0.0000 0.0000 0.0000 -11.4633 0.0000 35.6249
#
#
#
# Elastic Compliance Matrix: (Units=1/GPa)
#
#
# Indices 1 2 3 4 5 6 
#
# 1 0.042525 -0.027583 0.001998 0.000000 -0.018317 0.000000
# 2 -0.027583 0.045103 -0.014625 0.000000 0.011997 0.000000
# 3 0.001998 -0.014625 0.014350 0.000000 -0.002823 0.000000
# 4 0.000000 0.000000 0.000000 0.032693 0.000000 0.010520
# 5 -0.018317 0.011997 -0.002823 0.000000 0.061373 0.000000
# 6 0.000000 0.000000 0.000000 0.010520 0.000000 0.031455
#
#
# Mechanical properties :
#
#
# Convention : Reuss Voigt Hill
#
# Bulk Modulus (GPa) = 46.39040 59.82942 53.10991
# Shear Modulus (GPa) = 15.86771 24.97571 20.42171
#
# Velocity S-wave (km/s) = 3.12361 3.91885 3.54361
# Velocity P-wave (km/s) = 6.44471 7.56737 7.02849
#
# Compressibility (1/GPa) = 0.02155619
#
# Stress axis : x y z
#
# Youngs Moduli (GPa) = 23.51558 22.17137 69.68783
#
# Poissons Ratio (x) = 0.61156 -0.13921
# Poissons Ratio (y) = 0.64864 1.01920
# Poissons Ratio (z) = -0.04698 0.32426
#
# Static dielectric constant tensor:
#      x y z
#    x 1.537180 0.000000 0.014710 
#    y 0.000000 1.548360 0.000000 
#    z 0.014710 0.000000 1.571670 
# 
# From -- ./inp_files/66123.got.cif
#   From: 2010.05.17/outbox.cif.g08.bks.cpg/sg10_34_cif.got.tgz:66123.got - 2010.06.03 11:33:40.
