data_PCOD9144050
_publ_section_title
;
Structure prediction by ZEFSAII (Michael W. Deem and Ramdas Pophale) SiO2 
 PCOD9144050
Probable space group: P 2/M
;
_chemical_formula_sum "Si O2"
_cell_formula_units_Z 32
_cell_length_a 12.240357
_cell_length_b 7.821879
_cell_length_c 22.562814
_cell_angle_alpha 90.000000
_cell_angle_beta 143.121049
_cell_angle_gamma 90.000000
_cell_volume 1296.406423
_symmetry_space_group_name_H-M "P 2/M"
_symmetry_group_IT_number 10
_symmetry_cell_setting 'monoclinic'
loop_
_space_group_symop_operation_xyz
x,y,z
-x,y,-z
-x,-y,-z
x,-y,z
loop_
_atom_site_type_symbol
_atom_site_label
_atom_site_fract_x
_atom_site_fract_y
_atom_site_fract_z
Si Si1 0.717318 0.704426 0.089500
Si Si2 0.058747 0.190629 0.926091
Si Si3 0.259677 0.695635 0.285270
Si Si4 0.923398 0.303310 0.556911
Si Si5 0.707158 0.197646 0.576409
Si Si6 0.614156 0.294236 0.858499
Si Si7 0.260362 0.709527 0.770536
Si Si8 0.580746 0.710426 0.346030
O O1 0.752115 0.500000 0.097273
O O2 0.808309 0.793098 0.073211
O O3 0.789641 0.762178 0.184924
O O4 0.500000 0.725659 0.000000
O O5 0.884854 0.299150 0.830975
O O6 0.989915 0.000000 0.903024
O O7 0.185398 0.236171 0.036572
O O8 0.284348 0.500000 0.313535
O O9 0.198795 0.789086 0.318274
O O10 0.449482 0.764685 0.342622
O O11 0.958822 0.500000 0.555317
O O12 0.809250 0.298767 0.569135
O O13 0.785781 0.230764 0.448168
O O14 0.116997 0.227189 0.659535
O O15 0.500000 0.255855 0.500000
O O16 0.702238 0.000000 0.555720
O O17 0.619968 0.500000 0.859876
O O18 0.465403 0.242150 0.843190
O O19 0.521886 0.234907 0.757709
O O20 0.255105 0.500000 0.767876
O O21 0.584490 0.500000 0.347174
#
# Coordination Sequence:
#
# PCOD9144050 Si02
#       8
#     4   4   4   4   4   4   4   4
#     4  10  18  34  59  87 116 154 193 229 282 349
#     4  12  25  39  57  87 118 152 192 241 296 352
#     4  11  22  39  61  86 115 154 195 242 291 344
#     4  10  19  35  58  89 119 151 193 237 284 343
#     4  11  22  36  57  88 121 156 190 232 290 350
#     4  10  20  40  61  82 113 153 195 242 291 346
#     4   9  18  32  58  88 116 148 185 232 285 337
#     4   9  20  36  60  87 112 146 199 248 288 335
#
# _framework density 24.683617999999999
#
# number of rings (size 3 to 8) (size 9 to 14) (size 15 to 20)
#    0.000    1.750    2.500    2.625    0.000    2.750 
#    0.000    7.500    0.000    0.000    0.000    1.750 
#    0.000    0.000    0.000    0.000    0.000    0.000 
#
# Total GULP energy -178947.472593 kJ/mol
# GULP energy per Si atom -5592.108519 kJ/mol
# Density = 2.462744 g / cm^3
# Si number density = 24.683618 Si / 1000 Ang^3
#
#
#
# Elastic Constant Matrix: (Units=GPa)
#
#
# Indices 1 2 3 4 5 6 
#
# 1 35.2019 -2.2737 9.1931 0.0000 -1.0711 0.0000
# 2 -2.2737 48.6659 4.0236 0.0000 -0.6132 0.0000
# 3 9.1931 4.0236 164.4219 0.0000 -6.9887 0.0000
# 4 0.0000 0.0000 0.0000 4.5463 0.0000 -0.3774
# 5 -1.0711 -0.6132 -6.9887 0.0000 41.6798 0.0000
# 6 0.0000 0.0000 0.0000 -0.3774 0.0000 76.0659
#
#
#
# Elastic Compliance Matrix: (Units=1/GPa)
#
#
# Indices 1 2 3 4 5 6 
#
# 1 0.028946 0.001494 -0.001634 0.000000 0.000492 0.000000
# 2 0.001494 0.020669 -0.000579 0.000000 0.000245 0.000000
# 3 -0.001634 -0.000579 0.006230 0.000000 0.000994 0.000000
# 4 0.000000 0.000000 0.000000 0.220051 0.000000 0.001092
# 5 0.000492 0.000245 0.000994 0.000000 0.024175 0.000000
# 6 0.000000 0.000000 0.000000 0.001092 0.000000 0.013152
#
#
# Mechanical properties :
#
#
# Convention : Reuss Voigt Hill
#
# Bulk Modulus (GPa) = 18.38036 30.01952 24.19994
# Shear Modulus (GPa) = 15.02418 40.28150 27.65284
#
# Velocity S-wave (km/s) = 2.46980 4.04408 3.35071
# Velocity P-wave (km/s) = 3.94915 5.83045 4.97946
#
# Compressibility (1/GPa) = 0.05440590
#
# Stress axis : x y z
#
# Youngs Moduli (GPa) = 34.54738 48.38161 160.52149
#
# Poissons Ratio (x) = -0.07227 0.26230
# Poissons Ratio (y) = -0.05160 0.09292
# Poissons Ratio (z) = 0.05645 0.02801
#
# Static dielectric constant tensor:
#      x y z
#    x 1.942370 0.000000 -0.021210 
#    y 0.000000 1.907410 0.000000 
#    z -0.021210 0.000000 2.012130 
# 
# From -- ./inp_files/89600.got.cif
#   From: 2010.05.17/outbox.cif.g08.bks.cpg/sg10_45_cif.got.tgz:89600.got - 2010.06.03 11:33:40.
