data_PCOD9144586
_publ_section_title
;
Structure prediction by ZEFSAII (Michael W. Deem and Ramdas Pophale) SiO2 
 PCOD9144586
Probable space group: P 2/M
;
_chemical_formula_sum "Si O2"
_cell_formula_units_Z 32
_cell_length_a 14.654471
_cell_length_b 8.983820
_cell_length_c 26.420331
_cell_angle_alpha 90.000000
_cell_angle_beta 33.095808
_cell_angle_gamma 90.000000
_cell_volume 1899.303776
_symmetry_space_group_name_H-M "P 2/M"
_symmetry_group_IT_number 10
_symmetry_cell_setting 'monoclinic'
loop_
_space_group_symop_operation_xyz
x,y,z
-x,y,-z
-x,-y,-z
x,-y,z
loop_
_atom_site_type_symbol
_atom_site_label
_atom_site_fract_x
_atom_site_fract_y
_atom_site_fract_z
Si Si1 0.230658 0.180194 0.107490
Si Si2 0.433209 0.676952 0.650352
Si Si3 0.718505 0.820135 0.715883
Si Si4 0.610288 0.822950 0.653157
Si Si5 0.055681 0.668348 0.532864
Si Si6 0.548909 0.180216 0.897807
Si Si7 0.342241 0.168687 0.535140
Si Si8 0.871846 0.321805 0.281962
O O1 0.318053 0.220388 0.120397
O O2 0.052705 0.257084 0.185499
O O3 0.212119 0.000000 0.114811
O O4 0.365464 0.226017 0.002120
O O5 0.444045 0.500000 0.649087
O O6 0.457942 0.749352 0.693729
O O7 0.583562 0.738061 0.545474
O O8 0.262579 0.715079 0.699791
O O9 0.632638 0.781976 0.701925
O O10 0.609441 0.771264 0.814600
O O11 0.901328 0.745952 0.632628
O O12 0.737925 0.000000 0.707826
O O13 0.778019 0.765602 0.547490
O O14 0.599412 0.000000 0.654742
O O15 0.087158 0.500000 0.536505
O O16 0.000000 0.658917 0.500000
O O17 0.545368 0.000000 0.898858
O O18 0.500000 0.159936 0.500000
O O19 0.197121 0.248325 0.634225
O O20 0.296073 0.000000 0.541882
O O21 0.874976 0.500000 0.285894
#
# Coordination Sequence:
#
# PCOD9144586 Si02
#       8
#     4   4   4   4   4   4   4   4
#     4   9  17  32  54  75  95 122 157 196 240 292
#     4  10  20  33  48  67  97 134 166 199 239 282
#     4   9  17  31  50  71  97 127 161 202 245 289
#     4  10  19  30  47  70  96 129 167 204 240 281
#     4   9  17  29  44  64  93 127 161 195 233 281
#     4   8  16  32  53  75  96 120 153 196 246 293
#     4   9  17  30  48  69  93 123 161 199 232 273
#     4  10  20  33  49  71 100 131 161 196 241 287
#
# _framework density 16.848279000000002
#
# number of rings (size 3 to 8) (size 9 to 14) (size 15 to 20)
#    0.000    2.750    0.000    2.625    0.000    6.000 
#    0.000    6.250    0.000    0.750    0.000    5.250 
#    0.000    0.000    0.000    0.000    0.000    0.000 
#
# Total GULP energy -178354.719824 kJ/mol
# GULP energy per Si atom -5573.584994 kJ/mol
# Density = 1.680993 g / cm^3
# Si number density = 16.848279 Si / 1000 Ang^3
#
#
#
# Elastic Constant Matrix: (Units=GPa)
#
#
# Indices 1 2 3 4 5 6 
#
# 1 82.5139 35.5524 67.1646 0.0000 2.1318 0.0000
# 2 35.5524 51.4934 41.2821 0.0000 -2.6915 0.0000
# 3 67.1646 41.2821 141.3478 0.0000 2.5264 0.0000
# 4 0.0000 0.0000 0.0000 8.3853 0.0000 0.2292
# 5 2.1318 -2.6915 2.5264 0.0000 22.3738 0.0000
# 6 0.0000 0.0000 0.0000 0.2292 0.0000 20.2218
#
#
#
# Elastic Compliance Matrix: (Units=1/GPa)
#
#
# Indices 1 2 3 4 5 6 
#
# 1 0.022771 -0.009410 -0.008029 0.000000 -0.002395 0.000000
# 2 -0.009410 0.029589 -0.004259 0.000000 0.004937 0.000000
# 3 -0.008029 -0.004259 0.012154 0.000000 -0.001120 0.000000
# 4 0.000000 0.000000 0.000000 0.119293 0.000000 -0.001352
# 5 -0.002395 0.004937 -0.001120 0.000000 0.045644 0.000000
# 6 0.000000 0.000000 0.000000 -0.001352 0.000000 0.049467
#
#
# Mechanical properties :
#
#
# Convention : Reuss Voigt Hill
#
# Bulk Modulus (GPa) = 47.35218 62.59482 54.97350
# Shear Modulus (GPa) = 15.18130 18.95324 17.06727
#
# Velocity S-wave (km/s) = 3.00502 3.35765 3.18622
# Velocity P-wave (km/s) = 6.34084 7.22941 6.79966
#
# Compressibility (1/GPa) = 0.02111835
#
# Stress axis : x y z
#
# Youngs Moduli (GPa) = 43.91555 33.79622 82.27932
#
# Poissons Ratio (x) = 0.31802 0.66062
# Poissons Ratio (y) = 0.41325 0.35040
# Poissons Ratio (z) = 0.35260 0.14393
#
# Static dielectric constant tensor:
#      x y z
#    x 1.600680 0.000000 0.006150 
#    y 0.000000 1.570930 0.000000 
#    z 0.006150 0.000000 1.545990 
# 
# From -- ./inp_files/72207.got.cif
#   From: 2010.05.17/outbox.cif.g08.bks.cpg/sg10_37_cif.got.tgz:72207.got - 2010.06.03 11:33:40.
