data_PCOD9144442
_publ_section_title
;
Structure prediction by ZEFSAII (Michael W. Deem and Ramdas Pophale) SiO2 
 PCOD9144442
Probable space group: P 2/M
;
_chemical_formula_sum "Si O2"
_cell_formula_units_Z 28
_cell_length_a 13.814243
_cell_length_b 20.696293
_cell_length_c 5.304431
_cell_angle_alpha 90.000000
_cell_angle_beta 97.075476
_cell_angle_gamma 90.000000
_cell_volume 1505.007078
_symmetry_space_group_name_H-M "P 2/M"
_symmetry_group_IT_number 10
_symmetry_cell_setting 'monoclinic'
loop_
_space_group_symop_operation_xyz
x,y,z
-x,y,-z
-x,-y,-z
x,-y,z
loop_
_atom_site_type_symbol
_atom_site_label
_atom_site_fract_x
_atom_site_fract_y
_atom_site_fract_z
Si Si1 0.726286 0.754719 0.586058
Si Si2 0.271815 0.598887 0.410959
Si Si3 0.117145 0.850983 0.527706
Si Si4 0.118304 0.073353 0.030111
Si Si5 0.388125 0.245106 0.946561
Si Si6 0.612425 0.402431 0.048279
Si Si7 0.954484 0.424722 0.732121
O O1 0.732325 0.677069 0.588046
O O2 0.828973 0.786235 0.544451
O O3 0.655605 0.774703 0.334930
O O4 0.679297 0.774539 0.838443
O O5 0.325773 0.577998 0.685359
O O6 0.161327 0.576746 0.334128
O O7 0.333990 0.577963 0.189810
O O8 0.145330 0.901320 0.315486
O O9 0.000000 0.843051 0.500000
O O10 0.146910 0.879278 0.810064
O O11 0.151504 0.000000 0.994748
O O12 0.000000 0.072356 0.000000
O O13 0.389120 0.323800 0.949165
O O14 0.500000 0.223575 0.000000
O O15 0.500000 0.423522 0.000000
O O16 0.986236 0.500000 0.744221
O O17 0.000000 0.392810 0.500000
O O18 0.000000 0.395358 0.000000
#
# Coordination Sequence:
#
# PCOD9144442 Si02
#       7
#     4   4   4   4   4   4   4
#     4  10  19  30  46  72 101 126 154 189 240 297
#     4  10  19  32  51  73  98 130 162 198 245 293
#     4  10  19  30  44  67 100 129 151 187 234 278
#     4   9  17  30  47  64  87 125 166 195 223 266
#     4   9  17  30  47  67  94 126 160 197 232 274
#     4   9  17  30  50  74  98 126 158 193 242 300
#     4  10  21  37  55  73  94 127 174 217 242 269
#
# _framework density 18.604562000000001
#
# number of rings (size 3 to 8) (size 9 to 14) (size 15 to 20)
#    0.000    2.429    0.000    3.000    0.000    5.714 
#    0.000    2.143    0.000    2.571    0.000    0.000 
#    0.000   40.000    0.000    0.000    0.000    0.000 
#
# Total GULP energy -156116.782714 kJ/mol
# GULP energy per Si atom -5575.599383 kJ/mol
# Density = 1.856222 g / cm^3
# Si number density = 18.604562 Si / 1000 Ang^3
#
#
#
# Elastic Constant Matrix: (Units=GPa)
#
#
# Indices 1 2 3 4 5 6 
#
# 1 82.9693 13.0291 56.8290 0.0000 -7.7036 0.0000
# 2 13.0291 44.2297 18.1824 0.0000 -9.4593 0.0000
# 3 56.8290 18.1824 172.0906 0.0000 -7.3103 0.0000
# 4 0.0000 0.0000 0.0000 118.9052 0.0000 -74.8903
# 5 -7.7036 -9.4593 -7.3103 0.0000 32.0846 0.0000
# 6 0.0000 0.0000 0.0000 -74.8903 0.0000 75.0475
#
#
#
# Elastic Compliance Matrix: (Units=1/GPa)
#
#
# Indices 1 2 3 4 5 6 
#
# 1 0.015989 -0.002234 -0.004957 0.000000 0.002051 0.000000
# 2 -0.002234 0.025354 -0.001663 0.000000 0.006560 0.000000
# 3 -0.004957 -0.001663 0.007626 0.000000 0.000057 0.000000
# 4 0.000000 0.000000 0.000000 0.022639 0.000000 0.022591
# 5 0.002051 0.006560 0.000057 0.000000 0.033607 0.000000
# 6 0.000000 0.000000 0.000000 0.022591 0.000000 0.035869
#
#
# Mechanical properties :
#
#
# Convention : Reuss Voigt Hill
#
# Bulk Modulus (GPa) = 31.98724 52.81896 42.40310
# Shear Modulus (GPa) = 29.54902 59.29073 44.41987
#
# Velocity S-wave (km/s) = 3.98963 5.65138 4.89159
# Velocity P-wave (km/s) = 6.20108 8.42829 7.39897
#
# Compressibility (1/GPa) = 0.03126246
#
# Stress axis : x y z
#
# Youngs Moduli (GPa) = 62.54290 39.44216 131.13243
#
# Poissons Ratio (x) = 0.08810 0.65001
# Poissons Ratio (y) = 0.13970 0.21801
# Poissons Ratio (z) = 0.31002 0.06557
#
# Static dielectric constant tensor:
#      x y z
#    x 1.628620 0.000000 -0.000980 
#    y 0.000000 1.680520 0.000000 
#    z -0.000980 0.000000 1.634670 
# 
# From -- ./inp_files/7574.got.cif
#   From: 2010.05.17/outbox.cif.g08.bks.cpg/sg10_4_cif.got.tgz:7574.got - 2010.06.03 11:33:40.
