data_PCOD9144182
_publ_section_title
;
Structure prediction by ZEFSAII (Michael W. Deem and Ramdas Pophale) SiO2 
 PCOD9144182
Probable space group: P 2/M
;
_chemical_formula_sum "Si O2"
_cell_formula_units_Z 26
_cell_length_a 9.576712
_cell_length_b 21.821794
_cell_length_c 9.407258
_cell_angle_alpha 90.000000
_cell_angle_beta 44.074065
_cell_angle_gamma 90.000000
_cell_volume 1367.482589
_symmetry_space_group_name_H-M "P 2/M"
_symmetry_group_IT_number 10
_symmetry_cell_setting 'monoclinic'
loop_
_space_group_symop_operation_xyz
x,y,z
-x,y,-z
-x,-y,-z
x,-y,z
loop_
_atom_site_type_symbol
_atom_site_label
_atom_site_fract_x
_atom_site_fract_y
_atom_site_fract_z
Si Si1 0.399385 0.332106 0.421868
Si Si2 0.055418 0.649528 0.305363
Si Si3 0.903402 0.072459 0.847909
Si Si4 0.335097 0.757808 0.229869
Si Si5 0.314929 0.073228 0.724051
Si Si6 0.000000 0.147847 0.500000
Si Si7 0.388605 0.571211 0.928612
O O1 0.500000 0.323980 0.500000
O O2 0.443493 0.278144 0.277490
O O3 0.157352 0.333283 0.606973
O O4 0.483837 0.393047 0.283054
O O5 0.194888 0.707523 0.249072
O O6 0.180444 0.605894 0.111271
O O7 0.000000 0.619942 0.500000
O O8 0.926716 0.107581 0.684959
O O9 0.113634 0.078759 0.778520
O O10 0.871103 0.000000 0.846448
O O11 0.733997 0.096383 0.081672
O O12 0.186731 0.808441 0.400016
O O13 0.500000 0.781929 0.000000
O O14 0.500000 0.099563 0.500000
O O15 0.350705 0.000000 0.715758
O O16 0.363304 0.500000 0.912187
O O17 0.500000 0.575925 0.000000
#
# Coordination Sequence:
#
# PCOD9144182 Si02
#       7
#     4   4   4   4   4   2   4
#     4  11  22  39  62  88 120 157 196 252 306 347
#     4  10  18  38  63  82 113 158 199 239 287 352
#     4   9  19  35  57  88 121 153 191 245 306 362
#     4  11  21  42  62  79 114 161 208 246 294 360
#     4   8  15  33  60  82 115 159 192 225 290 368
#     4  12  23  36  60  88 117 154 204 254 304 358
#     4  11  21  36  63  95 121 155 200 240 296 371
#
# _framework density 19.013041000000001
#
# number of rings (size 3 to 8) (size 9 to 14) (size 15 to 20)
#    0.000    1.846    6.923    1.154    0.000    3.077 
#    0.000    4.615    0.000    4.615    0.000    0.000 
#    0.000    0.000    0.000    0.000    0.000    0.000 
#
# Total GULP energy -145012.153093 kJ/mol
# GULP energy per Si atom -5577.390504 kJ/mol
# Density = 1.896977 g / cm^3
# Si number density = 19.013041 Si / 1000 Ang^3
#
#
#
# Elastic Constant Matrix: (Units=GPa)
#
#
# Indices 1 2 3 4 5 6 
#
# 1 78.6776 14.2323 31.0113 0.0000 17.2708 0.0000
# 2 14.2323 52.2027 33.9919 0.0000 15.1761 0.0000
# 3 31.0113 33.9919 130.6582 0.0000 3.1030 0.0000
# 4 0.0000 0.0000 0.0000 -490.9110 0.0000 33.1972
# 5 17.2708 15.1761 3.1030 0.0000 26.8988 0.0000
# 6 0.0000 0.0000 0.0000 33.1972 0.0000 0.4438
#
#
#
# Elastic Compliance Matrix: (Units=1/GPa)
#
#
# Indices 1 2 3 4 5 6 
#
# 1 0.016414 0.001239 -0.003962 0.000000 -0.010781 0.000000
# 2 0.001239 0.028134 -0.007237 0.000000 -0.015834 0.000000
# 3 -0.003962 -0.007237 0.010348 0.000000 0.005434 0.000000
# 4 0.000000 0.000000 0.000000 -0.000336 0.000000 0.025151
# 5 -0.010781 -0.015834 0.005434 0.000000 0.052405 0.000000
# 6 0.000000 0.000000 0.000000 0.025151 0.000000 0.371926
#
#
# Mechanical properties :
#
#
# Convention : Reuss Voigt Hill
#
# Bulk Modulus (GPa) = 28.59176 46.66773 37.62974
# Shear Modulus (GPa) = 9.79488 -80.56016 -35.38264
#
# Velocity S-wave (km/s) = 2.27219 -6.51636 -4.31857
# Velocity P-wave (km/s) = 4.68555 5.65853 2.24327
#
# Compressibility (1/GPa) = 0.03497512
#
# Stress axis : x y z
#
# Youngs Moduli (GPa) = 60.92250 35.54421 96.63889
#
# Poissons Ratio (x) = -0.04404 0.38290
# Poissons Ratio (y) = -0.07549 0.69941
# Poissons Ratio (z) = 0.24139 0.25725
#
# Static dielectric constant tensor:
#      x y z
#    x 1.643810 0.000000 -0.005560 
#    y 0.000000 1.662070 0.000000 
#    z -0.005560 0.000000 1.682020 
# 
# From -- ./inp_files/20441.got.cif
#   From: 2010.05.17/outbox.cif.g08.bks.cpg/sg10_11_cif.got.tgz:20441.got - 2010.06.03 11:33:40.
