data_PCOD9144194
_publ_section_title
;
Structure prediction by ZEFSAII (Michael W. Deem and Ramdas Pophale) SiO2 
 PCOD9144194
Probable space group: P 2/M
;
_chemical_formula_sum "Si O2"
_cell_formula_units_Z 24
_cell_length_a 9.829365
_cell_length_b 8.330122
_cell_length_c 23.178187
_cell_angle_alpha 90.000000
_cell_angle_beta 144.153173
_cell_angle_gamma 90.000000
_cell_volume 1111.405257
_symmetry_space_group_name_H-M "P 2/M"
_symmetry_group_IT_number 10
_symmetry_cell_setting 'monoclinic'
loop_
_space_group_symop_operation_xyz
x,y,z
-x,y,-z
-x,-y,-z
x,-y,z
loop_
_atom_site_type_symbol
_atom_site_label
_atom_site_fract_x
_atom_site_fract_y
_atom_site_fract_z
Si Si1 0.608367 0.500000 0.184602
Si Si2 0.448590 0.500000 0.390245
Si Si3 0.347966 0.822244 0.073347
Si Si4 0.049839 0.500000 0.388973
Si Si5 0.589065 0.831085 0.596509
Si Si6 0.167963 0.176924 0.144050
Si Si7 0.428572 0.500000 0.256659
Si Si8 0.070982 0.172581 0.458559
O O1 0.502382 0.662947 0.121816
O O2 0.886062 0.500000 0.277524
O O3 0.542628 0.500000 0.231754
O O4 0.303896 0.660920 0.351791
O O5 0.559014 0.500000 0.363363
O O6 0.670287 0.500000 0.510065
O O7 0.260950 0.824804 0.110057
O O8 0.451988 0.000000 0.097524
O O9 0.110352 0.807912 0.955084
O O10 0.986903 0.331428 0.398069
O O11 0.500000 0.828962 0.500000
O O12 0.349435 0.831369 0.549961
O O13 0.716225 0.000000 0.648890
O O14 0.280702 0.335552 0.209091
O O15 0.228631 0.000000 0.189797
O O16 0.000000 0.180543 0.500000
O O17 0.986439 0.000000 0.405085
#
# Coordination Sequence:
#
# PCOD9144194 Si02
#       8
#     2   2   4   2   4   4   2   4
#     4  10  19  25  38  59  82 118 158 194 225 271
#     4  10  21  32  44  63  90 123 157 197 237 275
#     4   8  14  26  41  57  77 105 147 194 234 275
#     4  10  21  30  42  55  89 128 161 194 230 270
#     4   9  18  33  51  67  84 116 164 208 242 279
#     4   8  14  26  42  57  78 107 142 190 239 281
#     4  10  19  26  38  61  85 113 153 191 229 282
#     4   9  18  31  47  65  86 118 156 195 239 279
#
# _framework density 21.594283999999998
#
# number of rings (size 3 to 8) (size 9 to 14) (size 15 to 20)
#    0.000    3.000    0.000    2.000    4.667    3.333 
#    0.000    0.000    0.000    0.000    0.000    0.000 
#    0.000    0.000    0.000   48.000    0.000  228.000 
#
# Total GULP energy -133661.172986 kJ/mol
# GULP energy per Si atom -5569.215541 kJ/mol
# Density = 2.154513 g / cm^3
# Si number density = 21.594284 Si / 1000 Ang^3
#
#
#
# Elastic Constant Matrix: (Units=GPa)
#
#
# Indices 1 2 3 4 5 6 
#
# 1 51.8278 17.6179 11.4303 0.0000 0.6426 0.0000
# 2 17.6179 235.6594 31.7777 0.0000 13.7188 0.0000
# 3 11.4303 31.7777 40.0176 0.0000 8.8876 0.0000
# 4 0.0000 0.0000 0.0000 -24.4796 0.0000 93.4335
# 5 0.6426 13.7188 8.8876 0.0000 11.9045 0.0000
# 6 0.0000 0.0000 0.0000 93.4335 0.0000 -584.0713
#
#
#
# Elastic Compliance Matrix: (Units=1/GPa)
#
#
# Indices 1 2 3 4 5 6 
#
# 1 0.020950 -0.000998 -0.006228 0.000000 0.004669 0.000000
# 2 -0.000998 0.004903 -0.002836 0.000000 -0.003479 0.000000
# 3 -0.006228 -0.002836 0.033828 0.000000 -0.021651 0.000000
# 4 0.000000 0.000000 0.000000 -0.104897 0.000000 -0.016780
# 5 0.004669 -0.003479 -0.021651 0.000000 0.103923 0.000000
# 6 0.000000 0.000000 0.000000 -0.016780 0.000000 -0.004396
#
#
# Mechanical properties :
#
#
# Convention : Reuss Voigt Hill
#
# Bulk Modulus (GPa) = 25.28002 49.90629 37.59316
# Shear Modulus (GPa) = 57.06433 -101.55070 -22.24318
#
# Velocity S-wave (km/s) = 5.14617 -6.86504 -3.21292
# Velocity P-wave (km/s) = 6.85879 6.29899 1.91907
#
# Compressibility (1/GPa) = 0.03955693
#
# Stress axis : x y z
#
# Youngs Moduli (GPa) = 47.73348 203.95899 29.56112
#
# Poissons Ratio (x) = 0.20358 0.18411
# Poissons Ratio (y) = 0.04765 0.08382
# Poissons Ratio (z) = 0.29730 0.57834
#
# Static dielectric constant tensor:
#      x y z
#    x 2.037920 0.000000 0.006650 
#    y 0.000000 1.908120 0.000000 
#    z 0.006650 0.000000 1.760400 
# 
# From -- ./inp_files/88778.got.cif
#   From: 2010.05.17/outbox.cif.g08.bks.cpg/sg10_45_cif.got.tgz:88778.got - 2010.06.03 11:33:40.
