data_PCOD9144232
_publ_section_title
;
Structure prediction by ZEFSAII (Michael W. Deem and Ramdas Pophale) SiO2 
 PCOD9144232
Probable space group: P 2/M
;
_chemical_formula_sum "Si O2"
_cell_formula_units_Z 32
_cell_length_a 6.653342
_cell_length_b 12.742493
_cell_length_c 18.675327
_cell_angle_alpha 90.000000
_cell_angle_beta 93.370738
_cell_angle_gamma 90.000000
_cell_volume 1580.558158
_symmetry_space_group_name_H-M "P 2/M"
_symmetry_group_IT_number 10
_symmetry_cell_setting 'monoclinic'
loop_
_space_group_symop_operation_xyz
x,y,z
-x,y,-z
-x,-y,-z
x,-y,z
loop_
_atom_site_type_symbol
_atom_site_label
_atom_site_fract_x
_atom_site_fract_y
_atom_site_fract_z
Si Si1 0.850731 0.383908 0.928808
Si Si2 0.727962 0.682776 0.287787
Si Si3 0.239641 0.614337 0.864529
Si Si4 0.538393 0.878216 0.765725
Si Si5 0.155303 0.883270 0.568308
Si Si6 0.868753 0.216254 0.672031
Si Si7 0.485477 0.299659 0.579061
Si Si8 0.483323 0.793744 0.078142
O O1 0.755035 0.500000 0.926494
O O2 0.700414 0.288286 0.926270
O O3 0.999399 0.376859 0.864404
O O4 0.000000 0.379568 0.000000
O O5 0.685338 0.619702 0.214976
O O6 0.628565 0.797801 0.269135
O O7 0.623021 0.640502 0.357414
O O8 0.966864 0.696976 0.302051
O O9 0.289763 0.500000 0.897188
O O10 0.329874 0.714449 0.906260
O O11 0.745444 0.836385 0.734249
O O12 0.535946 0.864568 0.851775
O O13 0.505294 0.000000 0.746233
O O14 0.334802 0.800047 0.567182
O O15 0.000000 0.869861 0.500000
O O16 0.011503 0.865296 0.633456
O O17 0.240234 0.000000 0.569113
O O18 0.701049 0.262647 0.614250
O O19 0.500000 0.348106 0.500000
O O20 0.500000 0.844913 0.000000
#
# Coordination Sequence:
#
# PCOD9144232 Si02
#       8
#     4   4   4   4   4   4   4   4
#     4  10  19  31  53  83 109 132 161 204 267 329
#     4   9  21  35  53  77 104 139 178 217 259 309
#     4  10  20  36  57  82 109 135 167 212 266 322
#     4  10  22  37  52  72 102 145 189 220 250 297
#     4  10  19  28  43  71 103 132 168 217 267 309
#     4  10  19  34  53  69 100 138 180 218 264 303
#     4  10  19  32  49  75 103 135 174 211 261 313
#     4  11  21  35  56  80 109 139 171 216 264 310
#
# _framework density 20.246013000000001
#
# number of rings (size 3 to 8) (size 9 to 14) (size 15 to 20)
#    0.000    2.000    2.500    1.500    0.000    6.500 
#    0.000    0.000    0.000    0.750    0.000    0.875 
#    0.000    0.000    0.000    0.000    0.000    0.000 
#
# Total GULP energy -178404.893107 kJ/mol
# GULP energy per Si atom -5575.152910 kJ/mol
# Density = 2.019993 g / cm^3
# Si number density = 20.246013 Si / 1000 Ang^3
#
#
#
# Elastic Constant Matrix: (Units=GPa)
#
#
# Indices 1 2 3 4 5 6 
#
# 1 86.2964 9.3153 15.3226 0.0000 -6.5835 0.0000
# 2 9.3153 30.6455 -1.0172 0.0000 -2.0305 0.0000
# 3 15.3226 -1.0172 136.4677 0.0000 -22.8900 0.0000
# 4 0.0000 0.0000 0.0000 13.4998 0.0000 2.2879
# 5 -6.5835 -2.0305 -22.8900 0.0000 30.2088 0.0000
# 6 0.0000 0.0000 0.0000 2.2879 0.0000 5.9795
#
#
#
# Elastic Compliance Matrix: (Units=1/GPa)
#
#
# Indices 1 2 3 4 5 6 
#
# 1 0.012308 -0.003675 -0.001147 0.000000 0.001566 0.000000
# 2 -0.003675 0.033934 0.001047 0.000000 0.002273 0.000000
# 3 -0.001147 0.001047 0.008517 0.000000 0.006274 0.000000
# 4 0.000000 0.000000 0.000000 0.079212 0.000000 -0.030308
# 5 0.001566 0.002273 0.006274 0.000000 0.038351 0.000000
# 6 0.000000 0.000000 0.000000 -0.030308 0.000000 0.178835
#
#
# Mechanical properties :
#
#
# Convention : Reuss Voigt Hill
#
# Bulk Modulus (GPa) = 21.18290 33.40567 27.29428
# Shear Modulus (GPa) = 13.35320 25.25688 19.30504
#
# Velocity S-wave (km/s) = 2.57095 3.53583 3.09127
# Velocity P-wave (km/s) = 4.39301 5.76239 5.12365
#
# Compressibility (1/GPa) = 0.04720789
#
# Stress axis : x y z
#
# Youngs Moduli (GPa) = 81.24927 29.46910 117.41791
#
# Poissons Ratio (x) = 0.10831 0.13463
# Poissons Ratio (y) = 0.29863 -0.12292
# Poissons Ratio (z) = 0.09316 -0.03085
#
# Static dielectric constant tensor:
#      x y z
#    x 1.713950 0.000000 -0.014270 
#    y 0.000000 0.044300 0.000000 
#    z -0.014270 0.000000 1.796310 
# 
# From -- ./inp_files/73540.got.cif
#   From: 2010.05.17/outbox.cif.g08.bks.cpg/sg10_37_cif.got.tgz:73540.got - 2010.06.03 11:33:40.
