data_PCOD9144508
_publ_section_title
;
Structure prediction by ZEFSAII (Michael W. Deem and Ramdas Pophale) SiO2 
 PCOD9144508
Probable space group: P 2/M
;
_chemical_formula_sum "Si O2"
_cell_formula_units_Z 32
_cell_length_a 21.274207
_cell_length_b 9.616353
_cell_length_c 11.508049
_cell_angle_alpha 90.000000
_cell_angle_beta 64.636979
_cell_angle_gamma 90.000000
_cell_volume 2127.391609
_symmetry_space_group_name_H-M "P 2/M"
_symmetry_group_IT_number 10
_symmetry_cell_setting 'monoclinic'
loop_
_space_group_symop_operation_xyz
x,y,z
-x,y,-z
-x,-y,-z
x,-y,z
loop_
_atom_site_type_symbol
_atom_site_label
_atom_site_fract_x
_atom_site_fract_y
_atom_site_fract_z
Si Si1 0.110532 0.165201 0.969525
Si Si2 0.617426 0.659213 0.079615
Si Si3 0.935038 0.666667 0.466460
Si Si4 0.225964 0.667506 0.007495
Si Si5 0.965426 0.834712 0.210701
Si Si6 0.794674 0.668858 0.708476
Si Si7 0.512400 0.840107 0.849862
Si Si8 0.357039 0.339594 0.220094
O O1 0.175540 0.254499 0.959651
O O2 0.084972 0.194320 0.858788
O O3 0.124679 0.000000 0.966894
O O4 0.043779 0.195357 0.104350
O O5 0.600406 0.500000 0.125477
O O6 0.692106 0.698512 0.073596
O O7 0.553497 0.761102 0.152543
O O8 0.630118 0.658494 0.929779
O O9 0.931897 0.500000 0.449460
O O10 0.946226 0.746083 0.337630
O O11 0.863840 0.711142 0.586532
O O12 0.000000 0.693593 0.500000
O O13 0.218077 0.500000 0.006185
O O14 0.206098 0.710910 0.155502
O O15 0.961678 0.000000 0.237683
O O16 0.792565 0.500000 0.711664
O O17 0.722266 0.712022 0.705437
O O18 0.583582 0.756315 0.773157
O O19 0.516898 0.000000 0.810118
O O20 0.500000 0.838526 0.000000
O O21 0.363037 0.500000 0.254874
#
# Coordination Sequence:
#
# PCOD9144508 Si02
#       8
#     4   4   4   4   4   4   4   4
#     4   9  18  32  47  61  82 111 141 176 214 250
#     4   8  14  23  35  53  77 106 137 165 198 245
#     4  10  19  30  46  67  89 111 138 176 216 249
#     4   9  16  27  44  64  85 110 142 176 208 248
#     4   9  19  34  47  61  83 112 144 174 209 254
#     4   8  15  27  41  60  86 113 140 172 212 254
#     4   9  15  21  31  50  76 104 136 173 205 233
#     4   8  13  23  37  49  70 108 143 166 196 243
#
# _framework density 15.041893999999999
#
# number of rings (size 3 to 8) (size 9 to 14) (size 15 to 20)
#    0.000    3.250    0.000    3.375    0.000    4.250 
#    0.000    4.375    0.000    0.000    0.000    0.000 
#    0.000    1.000    0.000   11.250    0.000    8.750 
#
# Total GULP energy -178138.321339 kJ/mol
# GULP energy per Si atom -5566.822542 kJ/mol
# Density = 1.500766 g / cm^3
# Si number density = 15.041894 Si / 1000 Ang^3
#
#
#
# Elastic Constant Matrix: (Units=GPa)
#
#
# Indices 1 2 3 4 5 6 
#
# 1 147.7663 75.6761 42.9488 0.0000 -21.5423 0.0000
# 2 75.6761 59.9448 28.7554 0.0000 -10.9898 0.0000
# 3 42.9488 28.7554 46.9634 0.0000 -9.3812 0.0000
# 4 0.0000 0.0000 0.0000 15.9814 0.0000 5.7476
# 5 -21.5423 -10.9898 -9.3812 0.0000 17.3124 0.0000
# 6 0.0000 0.0000 0.0000 5.7476 0.0000 19.7515
#
#
#
# Elastic Compliance Matrix: (Units=1/GPa)
#
#
# Indices 1 2 3 4 5 6 
#
# 1 0.020951 -0.023234 -0.002997 0.000000 0.009697 0.000000
# 2 -0.023234 0.050422 -0.010100 0.000000 -0.002376 0.000000
# 3 -0.002997 -0.010100 0.031615 0.000000 0.006990 0.000000
# 4 0.000000 0.000000 0.000000 0.069887 0.000000 -0.020337
# 5 0.009697 -0.002376 0.006990 0.000000 0.072109 0.000000
# 6 0.000000 0.000000 0.000000 -0.020337 0.000000 0.056547
#
#
# Mechanical properties :
#
#
# Convention : Reuss Voigt Hill
#
# Bulk Modulus (GPa) = 32.97500 61.04833 47.01167
# Shear Modulus (GPa) = 13.01061 17.76200 15.38630
#
# Velocity S-wave (km/s) = 2.94421 3.44006 3.20175
# Velocity P-wave (km/s) = 5.79029 7.51347 6.70745
#
# Compressibility (1/GPa) = 0.03032600
#
# Stress axis : x y z
#
# Youngs Moduli (GPa) = 47.73034 19.83243 31.63072
#
# Poissons Ratio (x) = 0.46078 0.09480
# Poissons Ratio (y) = 1.10895 0.31948
# Poissons Ratio (z) = 0.14305 0.20032
#
# Static dielectric constant tensor:
#      x y z
#    x 1.504690 0.000000 -0.016420 
#    y 0.000000 1.495080 0.000000 
#    z -0.016420 0.000000 1.478190 
# 
# From -- ./inp_files/54833.got.cif
#   From: 2010.05.17/outbox.cif.g08.bks.cpg/sg10_28_cif.got.tgz:54833.got - 2010.06.03 11:33:40.
