data_PCOD9144155
_publ_section_title
;
Structure prediction by ZEFSAII (Michael W. Deem and Ramdas Pophale) SiO2 
 PCOD9144155
Probable space group: P 2/M
;
_chemical_formula_sum "Si O2"
_cell_formula_units_Z 28
_cell_length_a 12.789634
_cell_length_b 18.156312
_cell_length_c 7.712638
_cell_angle_alpha 90.000000
_cell_angle_beta 46.914839
_cell_angle_gamma 90.000000
_cell_volume 1308.016795
_symmetry_space_group_name_H-M "P 2/M"
_symmetry_group_IT_number 10
_symmetry_cell_setting 'monoclinic'
loop_
_space_group_symop_operation_xyz
x,y,z
-x,y,-z
-x,-y,-z
x,-y,z
loop_
_atom_site_type_symbol
_atom_site_label
_atom_site_fract_x
_atom_site_fract_y
_atom_site_fract_z
Si Si1 0.386952 0.576748 0.776103
Si Si2 0.809306 0.413099 0.552707
Si Si3 0.347102 0.155590 0.260783
Si Si4 0.122085 0.213164 0.237146
Si Si5 0.942781 0.915167 0.263989
Si Si6 0.119167 0.366980 0.127825
Si Si7 0.561418 0.698175 0.741541
O O1 0.500000 0.568591 0.500000
O O2 0.396031 0.500000 0.872805
O O3 0.433034 0.655656 0.796906
O O4 0.227381 0.587133 0.888416
O O5 0.781508 0.500000 0.569332
O O6 0.830007 0.391703 0.733915
O O7 0.686693 0.361478 0.614978
O O8 0.957647 0.391445 0.294866
O O9 0.257054 0.191381 0.201910
O O10 0.223399 0.105894 0.496695
O O11 0.384448 0.219825 0.359546
O O12 0.500000 0.127483 0.000000
O O13 0.142359 0.279613 0.080481
O O14 0.000000 0.247423 0.500000
O O15 0.046567 0.141122 0.246711
O O16 0.963266 0.000000 0.293708
O O17 0.000000 0.909521 0.000000
O O18 0.500000 0.710907 0.000000
#
# Coordination Sequence:
#
# PCOD9144155 Si02
#       7
#     4   4   4   4   4   4   4
#     4  11  24  38  51  74 115 160 197 237 288 343
#     4  11  19  28  52  82 105 138 186 243 286 318
#     4  10  20  37  61  91 119 150 193 247 290 337
#     4  10  18  36  62  85 117 151 188 238 289 347
#     4  10  23  42  63  89 121 155 191 229 286 364
#     4  11  18  34  52  79 109 141 186 240 281 333
#     4  11  20  36  56  81 112 146 196 240 281 341
#
# _framework density 21.406452999999999
#
# number of rings (size 3 to 8) (size 9 to 14) (size 15 to 20)
#    0.000    1.429    4.286    3.857    0.000    4.571 
#    0.000    1.429    0.000    4.286    0.000    0.000 
#    0.000    0.000    0.000    0.000    0.000    0.000 
#
# Total GULP energy -155909.220622 kJ/mol
# GULP energy per Si atom -5568.186451 kJ/mol
# Density = 2.135773 g / cm^3
# Si number density = 21.406453 Si / 1000 Ang^3
#
#
#
# Elastic Constant Matrix: (Units=GPa)
#
#
# Indices 1 2 3 4 5 6 
#
# 1 41.4255 16.5181 27.5132 0.0000 -30.0206 0.0000
# 2 16.5181 148.2193 38.0939 0.0000 -10.7595 0.0000
# 3 27.5132 38.0939 113.5658 0.0000 -43.0115 0.0000
# 4 0.0000 0.0000 0.0000 30.4270 0.0000 -16.3227
# 5 -30.0206 -10.7595 -43.0115 0.0000 38.2692 0.0000
# 6 0.0000 0.0000 0.0000 -16.3227 0.0000 4.3747
#
#
#
# Elastic Compliance Matrix: (Units=1/GPa)
#
#
# Indices 1 2 3 4 5 6 
#
# 1 0.060776 -0.004760 0.007700 0.000000 0.054992 0.000000
# 2 -0.004760 0.007790 -0.003560 0.000000 -0.005545 0.000000
# 3 0.007700 -0.003560 0.017486 0.000000 0.024693 0.000000
# 4 0.000000 0.000000 0.000000 -0.032813 0.000000 -0.122432
# 5 0.054992 -0.005545 0.024693 0.000000 0.095463 0.000000
# 6 0.000000 0.000000 0.000000 -0.122432 0.000000 -0.228224
#
#
# Mechanical properties :
#
#
# Convention : Reuss Voigt Hill
#
# Bulk Modulus (GPa) = 11.79072 51.94011 31.86541
# Shear Modulus (GPa) = -99.97565 29.35322 -35.31122
#
# Velocity S-wave (km/s) = -6.84141 3.70703 -4.06588
# Velocity P-wave (km/s) = 7.54232 6.52987 2.66902
#
# Compressibility (1/GPa) = 0.08481249
#
# Stress axis : x y z
#
# Youngs Moduli (GPa) = 16.45388 128.37584 57.18862
#
# Poissons Ratio (x) = 0.61109 -0.44038
# Poissons Ratio (y) = 0.07832 0.20358
# Poissons Ratio (z) = -0.12670 0.45699
#
# Static dielectric constant tensor:
#      x y z
#    x 1.754140 0.000000 0.044710 
#    y 0.000000 1.985380 0.000000 
#    z 0.044710 0.000000 1.867160 
# 
# From -- ./inp_files/30117.got.cif
#   From: 2010.05.17/outbox.cif.g08.bks.cpg/sg10_16_cif.got.tgz:30117.got - 2010.06.03 11:33:40.
