data_PCOD9144315
_publ_section_title
;
Structure prediction by ZEFSAII (Michael W. Deem and Ramdas Pophale) SiO2 
 PCOD9144315
Probable space group: P 2/M
;
_chemical_formula_sum "Si O2"
_cell_formula_units_Z 28
_cell_length_a 22.622744
_cell_length_b 9.275003
_cell_length_c 10.351565
_cell_angle_alpha 90.000000
_cell_angle_beta 51.772211
_cell_angle_gamma 90.000000
_cell_volume 1706.251250
_symmetry_space_group_name_H-M "P 2/M"
_symmetry_group_IT_number 10
_symmetry_cell_setting 'monoclinic'
loop_
_space_group_symop_operation_xyz
x,y,z
-x,y,-z
-x,-y,-z
x,-y,z
loop_
_atom_site_type_symbol
_atom_site_label
_atom_site_fract_x
_atom_site_fract_y
_atom_site_fract_z
Si Si1 0.040236 0.828961 0.309887
Si Si2 0.642891 0.166396 0.483910
Si Si3 0.059123 0.171595 0.805599
Si Si4 0.205214 0.330022 0.702802
Si Si5 0.191551 0.669893 0.031637
Si Si6 0.656857 0.166313 0.151315
Si Si7 0.492970 0.666679 0.666653
O O1 0.116058 0.739232 0.189280
O O2 0.000000 0.801745 0.500000
O O3 0.982680 0.796125 0.271652
O O4 0.058328 0.000000 0.276547
O O5 0.716932 0.248605 0.432339
O O6 0.648968 0.166354 0.318704
O O7 0.566212 0.250412 0.619157
O O8 0.640794 0.000000 0.528356
O O9 0.134987 0.259764 0.724930
O O10 0.075539 0.000000 0.789194
O O11 0.000000 0.204093 0.000000
O O12 0.211799 0.500000 0.668117
O O13 0.190614 0.312245 0.876777
O O14 0.196321 0.500000 0.052202
O O15 0.265629 0.751671 0.981867
O O16 0.584030 0.250302 0.197976
O O17 0.658473 0.000000 0.107343
O O18 0.500000 0.667129 0.500000
O O19 0.491120 0.500000 0.709617
#
# Coordination Sequence:
#
# PCOD9144315 Si02
#       7
#     4   4   4   4   4   4   4
#     4  10  21  36  52  70  94 124 158 198 243 288
#     4   9  16  25  38  57  85 120 156 192 233 281
#     4  10  19  32  51  71  92 121 159 198 237 285
#     4  10  19  29  44  67  93 121 156 197 239 281
#     4  10  19  30  45  66  92 121 156 197 240 284
#     4   9  16  25  39  58  83 118 158 194 231 280
#     4   9  15  23  35  54  84 119 154 191 234 281
#
# _framework density 16.410246000000001
#
# number of rings (size 3 to 8) (size 9 to 14) (size 15 to 20)
#    0.000    2.429    1.429    2.143    0.000    7.429 
#    0.000    0.000    0.000    0.000    0.000    0.000 
#    0.000    1.143    0.000   12.286    0.000    9.429 
#
# Total GULP energy -156140.941538 kJ/mol
# GULP energy per Si atom -5576.462198 kJ/mol
# Density = 1.637290 g / cm^3
# Si number density = 16.410246 Si / 1000 Ang^3
#
#
#
# Elastic Constant Matrix: (Units=GPa)
#
#
# Indices 1 2 3 4 5 6 
#
# 1 104.8552 85.7311 68.6613 0.0000 -41.5235 0.0000
# 2 85.7311 149.7749 75.4065 0.0000 -45.3661 0.0000
# 3 68.6613 75.4065 63.5504 0.0000 -31.2743 0.0000
# 4 0.0000 0.0000 0.0000 15.0876 0.0000 -4.5026
# 5 -41.5235 -45.3661 -31.2743 0.0000 39.7413 0.0000
# 6 0.0000 0.0000 0.0000 -4.5026 0.0000 7.9602
#
#
#
# Elastic Compliance Matrix: (Units=1/GPa)
#
#
# Indices 1 2 3 4 5 6 
#
# 1 0.035500 -0.001011 -0.031776 0.000000 0.010932 0.000000
# 2 -0.001011 0.017420 -0.016829 0.000000 0.005586 0.000000
# 3 -0.031776 -0.016829 0.072206 0.000000 0.004411 0.000000
# 4 0.000000 0.000000 0.000000 0.079740 0.000000 0.045105
# 5 0.010932 0.005586 0.004411 0.000000 0.046433 0.000000
# 6 0.000000 0.000000 0.000000 0.045105 0.000000 0.151138
#
#
# Mechanical properties :
#
#
# Convention : Reuss Voigt Hill
#
# Bulk Modulus (GPa) = 38.61718 86.41980 62.51849
# Shear Modulus (GPa) = 9.79817 18.44993 14.12405
#
# Velocity S-wave (km/s) = 2.44617 3.35669 2.93693
# Velocity P-wave (km/s) = 5.61798 8.23405 7.04845
#
# Compressibility (1/GPa) = 0.02589521
#
# Stress axis : x y z
#
# Youngs Moduli (GPa) = 28.16887 57.40532 13.84934
#
# Poissons Ratio (x) = 0.05804 0.44007
# Poissons Ratio (y) = 0.02848 0.23307
# Poissons Ratio (z) = 0.89508 0.96605
#
# Static dielectric constant tensor:
#      x y z
#    x 1.529800 0.000000 -0.005770 
#    y 0.000000 1.548830 0.000000 
#    z -0.005770 0.000000 1.522450 
# 
# From -- ./inp_files/54685.got.cif
#   From: 2010.05.17/outbox.cif.g08.bks.cpg/sg10_28_cif.got.tgz:54685.got - 2010.06.03 11:33:40.
