data_PCOD9144186
_publ_section_title
;
Structure prediction by ZEFSAII (Michael W. Deem and Ramdas Pophale) SiO2 
 PCOD9144186
Probable space group: P 2/M
;
_chemical_formula_sum "Si O2"
_cell_formula_units_Z 16
_cell_length_a 8.586490
_cell_length_b 10.110896
_cell_length_c 11.690132
_cell_angle_alpha 90.000000
_cell_angle_beta 138.710826
_cell_angle_gamma 90.000000
_cell_volume 669.693888
_symmetry_space_group_name_H-M "P 2/M"
_symmetry_group_IT_number 10
_symmetry_cell_setting 'monoclinic'
loop_
_space_group_symop_operation_xyz
x,y,z
-x,y,-z
-x,-y,-z
x,-y,z
loop_
_atom_site_type_symbol
_atom_site_label
_atom_site_fract_x
_atom_site_fract_y
_atom_site_fract_z
Si Si1 0.890370 0.738883 0.712863
Si Si2 0.499890 0.349836 0.342473
Si Si3 0.367878 0.000000 0.803137
Si Si4 0.881569 0.000000 0.054803
Si Si5 0.303183 0.713705 0.793910
O O1 0.765328 0.680061 0.758339
O O2 0.671061 0.750752 0.504458
O O3 0.076554 0.658072 0.736096
O O4 0.030847 0.870070 0.829048
O O5 0.555057 0.500000 0.409453
O O6 0.570106 0.343927 0.248135
O O7 0.235604 0.136778 0.718427
O O8 0.500000 0.000000 0.000000
O O9 0.607850 0.000000 0.865276
O O10 0.000000 0.000000 0.000000
O O11 0.500000 0.718291 0.000000
#
# Coordination Sequence:
#
# PCOD9144186 Si02
#       5
#     4   4   2   2   4
#     4  11  23  42  69  96 132 175 213 267 339 393
#     4  11  27  46  63  92 136 181 229 274 313 379
#     4  10  18  39  61  97 135 153 193 271 337 391
#     4  12  22  38  71 104 135 163 207 276 339 403
#     4  11  22  41  72  99 130 173 218 269 338 393
#
# _framework density 23.891513
#
# number of rings (size 3 to 8) (size 9 to 14) (size 15 to 20)
#    0.000    1.000    5.000    3.750    0.000    6.500 
#    0.000    3.750    0.000    0.000    0.000    0.000 
#    0.000    0.000    0.000    0.000    0.000    0.000 
#
# Total GULP energy -89137.766770 kJ/mol
# GULP energy per Si atom -5571.110423 kJ/mol
# Density = 2.383713 g / cm^3
# Si number density = 23.891513 Si / 1000 Ang^3
#
#
#
# Elastic Constant Matrix: (Units=GPa)
#
#
# Indices 1 2 3 4 5 6 
#
# 1 281.3052 25.9501 40.0237 0.0000 -15.1730 0.0000
# 2 25.9501 91.3732 15.1297 0.0000 -4.0200 0.0000
# 3 40.0237 15.1297 72.4102 0.0000 -9.9607 0.0000
# 4 0.0000 0.0000 0.0000 8.8523 0.0000 -14.9393
# 5 -15.1730 -4.0200 -9.9607 0.0000 51.7202 0.0000
# 6 0.0000 0.0000 0.0000 -14.9393 0.0000 -23.4452
#
#
#
# Elastic Compliance Matrix: (Units=1/GPa)
#
#
# Indices 1 2 3 4 5 6 
#
# 1 0.003938 -0.000769 -0.001916 0.000000 0.000726 0.000000
# 2 -0.000769 0.011496 -0.001936 0.000000 0.000295 0.000000
# 3 -0.001916 -0.001936 0.015589 0.000000 0.002290 0.000000
# 4 0.000000 0.000000 0.000000 0.054432 0.000000 -0.034684
# 5 0.000726 0.000295 0.002290 0.000000 0.020012 0.000000
# 6 0.000000 0.000000 0.000000 -0.034684 0.000000 -0.020552
#
#
# Mechanical properties :
#
#
# Convention : Reuss Voigt Hill
#
# Bulk Modulus (GPa) = 45.91394 67.47730 56.69562
# Shear Modulus (GPa) = 49.30163 31.69113 40.49638
#
# Velocity S-wave (km/s) = 4.54757 3.64601 4.12152
# Velocity P-wave (km/s) = 6.84349 6.78447 6.81404
#
# Compressibility (1/GPa) = 0.02177988
#
# Stress axis : x y z
#
# Youngs Moduli (GPa) = 253.96404 86.98557 64.14899
#
# Poissons Ratio (x) = 0.06690 0.12290
# Poissons Ratio (y) = 0.19532 0.12422
# Poissons Ratio (z) = 0.48655 0.16844
#
# Static dielectric constant tensor:
#      x y z
#    x 1.856290 0.000000 -0.046500 
#    y 0.000000 1.913020 0.000000 
#    z -0.046500 0.000000 1.885170 
# 
# From -- ./inp_files/41777.got.cif
#   From: 2010.05.17/outbox.cif.g08.bks.cpg/sg10_21_cif.got.tgz:41777.got - 2010.06.03 11:33:40.
