data_PCOD9144608
_publ_section_title
;
Structure prediction by ZEFSAII (Michael W. Deem and Ramdas Pophale) SiO2 
 PCOD9144608
Probable space group: P 2/M
;
_chemical_formula_sum "Si O2"
_cell_formula_units_Z 30
_cell_length_a 14.902483
_cell_length_b 26.782694
_cell_length_c 13.055120
_cell_angle_alpha 90.000000
_cell_angle_beta 160.278117
_cell_angle_gamma 90.000000
_cell_volume 1758.366437
_symmetry_space_group_name_H-M "P 2/M"
_symmetry_group_IT_number 10
_symmetry_cell_setting 'monoclinic'
loop_
_space_group_symop_operation_xyz
x,y,z
-x,y,-z
-x,-y,-z
x,-y,z
loop_
_atom_site_type_symbol
_atom_site_label
_atom_site_fract_x
_atom_site_fract_y
_atom_site_fract_z
Si Si1 0.208403 0.598491 0.909517
Si Si2 0.464386 0.939567 0.576840
Si Si3 0.786229 0.757764 0.360640
Si Si4 0.342156 0.348271 0.721716
Si Si5 0.284654 0.500000 0.859386
Si Si6 0.786895 0.868319 0.361197
Si Si7 0.208557 0.441108 0.137840
Si Si8 0.024171 0.940032 0.261541
O O1 0.297953 0.548730 0.945068
O O2 0.916401 0.616205 0.558594
O O3 0.437963 0.637828 0.126369
O O4 0.192503 0.587205 0.012980
O O5 0.500000 0.920467 0.500000
O O6 0.188902 0.927598 0.335774
O O7 0.474374 0.000000 0.581930
O O8 0.717901 0.924922 0.917537
O O9 0.769939 0.707981 0.410156
O O10 0.827624 0.812616 0.452184
O O11 0.000000 0.749923 0.500000
O O12 0.500000 0.761076 0.000000
O O13 0.500000 0.352149 0.000000
O O14 0.000000 0.500000 0.500000
O O15 0.500000 0.500000 0.000000
O O16 0.839614 0.910737 0.500306
O O17 0.000000 0.872839 0.500000
O O18 0.500000 0.872272 0.000000
O O19 0.500000 0.437200 0.500000
O O20 0.154144 0.500000 0.058534
O O21 0.000000 0.424147 0.000000
O O22 0.037709 0.000000 0.291259
#
# Coordination Sequence:
#
# PCOD9144608 Si02
#       8
#     4   4   4   4   2   4   4   4
#     4  12  22  36  53  79 104 137 169 200 251 303
#     4   9  17  30  47  68  96 128 165 210 251 291
#     4   9  18  33  51  71  97 132 173 211 244 281
#     4  11  21  34  54  77 107 133 166 206 245 303
#     4  12  24  34  46  72 112 142 156 182 237 310
#     4  10  20  33  49  71 102 136 169 206 245 294
#     4  10  21  38  57  74  99 133 176 219 244 275
#     4  10  19  30  47  73 101 132 168 205 251 309
#
# _framework density 17.06129
#
# number of rings (size 3 to 8) (size 9 to 14) (size 15 to 20)
#    0.000    1.733    0.667    6.000    0.000    2.133 
#    0.000    0.000    0.000    0.000    0.000    9.333 
#    0.000    0.000    0.000    0.000    0.000    0.000 
#
# Total GULP energy -167362.234541 kJ/mol
# GULP energy per Si atom -5578.741151 kJ/mol
# Density = 1.702246 g / cm^3
# Si number density = 17.061290 Si / 1000 Ang^3
#
#
#
# Elastic Constant Matrix: (Units=GPa)
#
#
# Indices 1 2 3 4 5 6 
#
# 1 101.9000 33.8531 29.0579 0.0000 10.4468 0.0000
# 2 33.8531 62.6291 16.9023 0.0000 -5.9593 0.0000
# 3 29.0579 16.9023 55.5798 0.0000 15.6540 0.0000
# 4 0.0000 0.0000 0.0000 9.6424 0.0000 10.3338
# 5 10.4468 -5.9593 15.6540 0.0000 34.6519 0.0000
# 6 0.0000 0.0000 0.0000 10.3338 0.0000 14.1050
#
#
#
# Elastic Compliance Matrix: (Units=1/GPa)
#
#
# Indices 1 2 3 4 5 6 
#
# 1 0.013491 -0.006488 -0.004148 0.000000 -0.003309 0.000000
# 2 -0.006488 0.021746 -0.005529 0.000000 0.008193 0.000000
# 3 -0.004148 -0.005529 0.024930 0.000000 -0.010962 0.000000
# 4 0.000000 0.000000 0.000000 0.482740 0.000000 -0.353673
# 5 -0.003309 0.008193 -0.010962 0.000000 0.036217 0.000000
# 6 0.000000 0.000000 0.000000 -0.353673 0.000000 0.330010
#
#
# Mechanical properties :
#
#
# Convention : Reuss Voigt Hill
#
# Bulk Modulus (GPa) = 35.92373 42.19283 39.05828
# Shear Modulus (GPa) = 5.25905 21.03288 13.14597
#
# Velocity S-wave (km/s) = 1.75759 3.51491 2.77883
# Velocity P-wave (km/s) = 5.02198 6.42313 5.76528
#
# Compressibility (1/GPa) = 0.02783676
#
# Stress axis : x y z
#
# Youngs Moduli (GPa) = 74.12315 45.98649 40.11259
#
# Poissons Ratio (x) = 0.29834 0.16640
# Poissons Ratio (y) = 0.48089 0.22177
# Poissons Ratio (z) = 0.30749 0.25425
#
# Static dielectric constant tensor:
#      x y z
#    x 1.563150 0.000000 0.015630 
#    y 0.000000 1.610880 0.000000 
#    z 0.015630 0.000000 1.566820 
# 
# From -- ./inp_files/52141.got.cif
#   From: 2010.05.17/outbox.cif.g08.bks.cpg/sg10_27_cif.got.tgz:52141.got - 2010.06.03 11:33:40.
