data_PCOD9144757
_publ_section_title
;
Structure prediction by ZEFSAII (Michael W. Deem and Ramdas Pophale) SiO2 
 PCOD9144757
Probable space group: P 2/M
;
_chemical_formula_sum "Si O2"
_cell_formula_units_Z 21
_cell_length_a 15.308379
_cell_length_b 8.298143
_cell_length_c 8.258507
_cell_angle_alpha 90.000000
_cell_angle_beta 131.306777
_cell_angle_gamma 90.000000
_cell_volume 788.059816
_symmetry_space_group_name_H-M "P 2/M"
_symmetry_group_IT_number 10
_symmetry_cell_setting 'monoclinic'
loop_
_space_group_symop_operation_xyz
x,y,z
-x,y,-z
-x,-y,-z
x,-y,z
loop_
_atom_site_type_symbol
_atom_site_label
_atom_site_fract_x
_atom_site_fract_y
_atom_site_fract_z
Si Si1 0.686613 0.684063 0.668903
Si Si2 0.926686 0.500000 0.187414
Si Si3 0.958732 0.835458 0.133192
Si Si4 0.219582 0.172022 0.520486
Si Si5 0.500000 0.000000 0.000000
Si Si6 0.187226 0.500000 0.601351
Si Si7 0.445861 0.309364 0.171883
O O1 0.729185 0.500000 0.702245
O O2 0.760797 0.803626 0.646829
O O3 0.653552 0.717019 0.813637
O O4 0.565002 0.686863 0.420754
O O5 0.872395 0.500000 0.298047
O O6 0.893436 0.670836 0.076062
O O7 0.068940 0.500000 0.345839
O O8 0.080783 0.834479 0.382040
O O9 0.895716 0.000000 0.101557
O O10 0.000000 0.841331 0.000000
O O11 0.256634 0.336271 0.652304
O O12 0.275715 0.000000 0.635858
O O13 0.458277 0.150593 0.075606
O O14 0.431405 0.500000 0.094634
#
# Coordination Sequence:
#
# PCOD9144757 Si02
#       7
#     4   2   4   4   1   2   4
#     4   9  18  37  60  82 109 142 191 236 264 318
#     4   9  17  30  52  68  99 134 176 211 259 331
#     4   9  18  32  50  75 103 138 177 218 265 314
#     4  10  19  30  54  79 103 133 172 229 269 305
#     4  12  22  34  60  82 116 150 172 222 280 352
#     4   9  18  32  46  77 100 131 173 216 269 310
#     4   9  21  37  58  85 110 146 187 226 270 325
#
# _framework density 26.647722000000002
#
# number of rings (size 3 to 8) (size 9 to 14) (size 15 to 20)
#    0.000    2.667    0.952    1.714    2.667    1.524 
#    0.000    3.810    4.190    0.000    0.000    0.000 
#    0.000    0.000    0.000    0.000    0.000    0.000 
#
# Total GULP energy -117090.127048 kJ/mol
# GULP energy per Si atom -5575.720336 kJ/mol
# Density = 2.658707 g / cm^3
# Si number density = 26.647722 Si / 1000 Ang^3
#
#
#
# Elastic Constant Matrix: (Units=GPa)
#
#
# Indices 1 2 3 4 5 6 
#
# 1 117.1756 79.7843 26.0517 0.0000 -10.7463 0.0000
# 2 79.7843 349.4080 71.9837 0.0000 -35.1644 0.0000
# 3 26.0517 71.9837 53.3952 0.0000 -7.2590 0.0000
# 4 0.0000 0.0000 0.0000 32.8442 0.0000 10.2628
# 5 -10.7463 -35.1644 -7.2590 0.0000 38.8682 0.0000
# 6 0.0000 0.0000 0.0000 10.2628 0.0000 18.6373
#
#
#
# Elastic Compliance Matrix: (Units=1/GPa)
#
#
# Indices 1 2 3 4 5 6 
#
# 1 0.010379 -0.001757 -0.002587 0.000000 0.000797 0.000000
# 2 -0.001757 0.004546 -0.004903 0.000000 0.002712 0.000000
# 3 -0.002587 -0.004903 0.026575 0.000000 -0.000188 0.000000
# 4 0.000000 0.000000 0.000000 0.036774 0.000000 -0.020250
# 5 0.000797 0.002712 -0.000188 0.000000 0.028366 0.000000
# 6 0.000000 0.000000 0.000000 -0.020250 0.000000 0.064807
#
#
# Mechanical properties :
#
#
# Convention : Reuss Voigt Hill
#
# Bulk Modulus (GPa) = 43.46714 97.29090 70.37902
# Shear Modulus (GPa) = 25.30247 40.88056 33.09151
#
# Velocity S-wave (km/s) = 3.08477 3.92102 3.52776
# Velocity P-wave (km/s) = 5.38840 7.55569 6.56214
#
# Compressibility (1/GPa) = 0.02300588
#
# Stress axis : x y z
#
# Youngs Moduli (GPa) = 96.35212 219.96950 37.62942
#
# Poissons Ratio (x) = 0.38641 0.09736
# Poissons Ratio (y) = 0.16926 0.18450
# Poissons Ratio (z) = 0.24928 1.07851
#
# Static dielectric constant tensor:
#      x y z
#    x 2.268710 0.000000 0.309600 
#    y 0.000000 2.117310 0.000000 
#    z 0.309600 0.000000 2.399210 
# 
# From -- ./inp_files/31299.got.cif
#   From: 2010.05.17/outbox.cif.g08.bks.cpg/sg10_16_cif.got.tgz:31299.got - 2010.06.03 11:33:40.
