data_PCOD9144644
_publ_section_title
;
Structure prediction by ZEFSAII (Michael W. Deem and Ramdas Pophale) SiO2 
 PCOD9144644
Probable space group: P 2/M
;
_chemical_formula_sum "Si O2"
_cell_formula_units_Z 32
_cell_length_a 21.816661
_cell_length_b 8.741914
_cell_length_c 16.008497
_cell_angle_alpha 90.000000
_cell_angle_beta 42.321513
_cell_angle_gamma 90.000000
_cell_volume 2055.642796
_symmetry_space_group_name_H-M "P 2/M"
_symmetry_group_IT_number 10
_symmetry_cell_setting 'monoclinic'
loop_
_space_group_symop_operation_xyz
x,y,z
-x,y,-z
-x,-y,-z
x,-y,z
loop_
_atom_site_type_symbol
_atom_site_label
_atom_site_fract_x
_atom_site_fract_y
_atom_site_fract_z
Si Si1 0.714449 0.684571 0.446081
Si Si2 0.406724 0.317546 0.274756
Si Si3 0.610225 0.176078 0.881532
Si Si4 0.103188 0.183922 0.799050
Si Si5 0.283482 0.316533 0.885594
Si Si6 0.604713 0.313687 0.391727
Si Si7 0.103591 0.815377 0.993872
Si Si8 0.609478 0.184038 0.066705
O O1 0.716703 0.500000 0.442826
O O2 0.659653 0.732564 0.583742
O O3 0.816544 0.745721 0.336015
O O4 0.659524 0.736146 0.418671
O O5 0.417481 0.500000 0.268395
O O6 0.368480 0.271032 0.222513
O O7 0.506638 0.243906 0.183935
O O8 0.639003 0.000000 0.840646
O O9 0.500000 0.175875 0.000000
O O10 0.641103 0.232731 0.941488
O O11 0.000083 0.228392 0.879358
O O12 0.107800 0.000000 0.790792
O O13 0.117293 0.227516 0.882391
O O14 0.286685 0.500000 0.887020
O O15 0.344261 0.266780 0.744277
O O16 0.326416 0.246374 0.925466
O O17 0.181470 0.260935 0.970116
O O18 0.500000 0.262550 0.500000
O O19 0.604019 0.500000 0.393150
O O20 0.110523 0.000000 0.992152
O O21 0.607414 0.000000 0.068845
#
# Coordination Sequence:
#
# PCOD9144644 Si02
#       8
#     4   4   4   4   4   4   4   4
#     4  10  19  31  46  68  97 127 157 194 237 277
#     4  10  19  30  48  72  97 126 159 197 237 277
#     4   8  16  31  48  66  91 124 158 194 238 279
#     4   9  18  32  50  68  90 123 159 197 238 279
#     4  11  20  30  48  71  93 125 162 196 235 278
#     4   9  17  29  42  59  91 129 158 185 221 267
#     4   9  18  33  49  67  93 122 155 199 243 278
#     4  10  20  33  48  67  96 130 160 196 237 279
#
# _framework density 15.566908
#
# number of rings (size 3 to 8) (size 9 to 14) (size 15 to 20)
#    0.000    2.500    1.250    3.375    0.000    6.250 
#    0.000    1.250    0.000    1.875    0.000    0.875 
#    0.000    7.000    0.000    0.000    0.000    0.000 
#
# Total GULP energy -178395.060882 kJ/mol
# GULP energy per Si atom -5574.845653 kJ/mol
# Density = 1.553148 g / cm^3
# Si number density = 15.566908 Si / 1000 Ang^3
#
#
#
# Elastic Constant Matrix: (Units=GPa)
#
#
# Indices 1 2 3 4 5 6 
#
# 1 130.1900 34.9137 83.3097 0.0000 8.6002 0.0000
# 2 34.9137 27.1557 26.2502 0.0000 2.7855 0.0000
# 3 83.3097 26.2502 81.8407 0.0000 0.0349 0.0000
# 4 0.0000 0.0000 0.0000 14.9391 0.0000 -2.9466
# 5 8.6002 2.7855 0.0349 0.0000 25.0546 0.0000
# 6 0.0000 0.0000 0.0000 -2.9466 0.0000 24.0762
#
#
#
# Elastic Compliance Matrix: (Units=1/GPa)
#
#
# Indices 1 2 3 4 5 6 
#
# 1 0.025246 -0.009924 -0.022513 0.000000 -0.007531 0.000000
# 2 -0.009924 0.058164 -0.008553 0.000000 -0.003048 0.000000
# 3 -0.022513 -0.008553 0.037876 0.000000 0.008626 0.000000
# 4 0.000000 0.000000 0.000000 0.068594 0.000000 0.008395
# 5 -0.007531 -0.003048 0.008626 0.000000 0.042825 0.000000
# 6 0.000000 0.000000 0.000000 0.008395 0.000000 0.042562
#
#
# Mechanical properties :
#
#
# Convention : Reuss Voigt Hill
#
# Bulk Modulus (GPa) = 25.44118 58.68152 42.06135
# Shear Modulus (GPa) = 13.50080 19.12817 16.31448
#
# Velocity S-wave (km/s) = 2.94815 3.50919 3.24083
# Velocity P-wave (km/s) = 5.28842 7.36188 6.40955
#
# Compressibility (1/GPa) = 0.03930635
#
# Stress axis : x y z
#
# Youngs Moduli (GPa) = 39.60978 17.19289 26.40207
#
# Poissons Ratio (x) = 0.17062 0.59440
# Poissons Ratio (y) = 0.39307 0.22581
# Poissons Ratio (z) = 0.89174 0.14705
#
# Static dielectric constant tensor:
#      x y z
#    x 1.513800 0.000000 0.012160 
#    y 0.000000 1.527440 0.000000 
#    z 0.012160 0.000000 1.509670 
# 
# From -- ./inp_files/69990.got.cif
#   From: 2010.05.17/outbox.cif.g08.bks.cpg/sg10_35_cif.got.tgz:69990.got - 2010.06.03 11:33:40.
