data_PCOD9144385
_publ_section_title
;
Structure prediction by ZEFSAII (Michael W. Deem and Ramdas Pophale) SiO2 
 PCOD9144385
Probable space group: P 2/M
;
_chemical_formula_sum "Si O2"
_cell_formula_units_Z 30
_cell_length_a 14.181771
_cell_length_b 21.476962
_cell_length_c 5.570292
_cell_angle_alpha 90.000000
_cell_angle_beta 116.869296
_cell_angle_gamma 90.000000
_cell_volume 1513.441147
_symmetry_space_group_name_H-M "P 2/M"
_symmetry_group_IT_number 10
_symmetry_cell_setting 'monoclinic'
loop_
_space_group_symop_operation_xyz
x,y,z
-x,y,-z
-x,-y,-z
x,-y,z
loop_
_atom_site_type_symbol
_atom_site_label
_atom_site_fract_x
_atom_site_fract_y
_atom_site_fract_z
Si Si1 0.794708 0.777267 0.434380
Si Si2 0.614124 0.883359 0.180673
Si Si3 0.332190 0.100426 0.261089
Si Si4 0.901832 0.068008 0.068760
Si Si5 0.619920 0.376462 0.659450
Si Si6 0.000000 0.829960 0.500000
Si Si7 0.702142 0.247141 0.824925
Si Si8 0.625319 0.573910 0.164508
O O1 0.713129 0.836410 0.330385
O O2 0.770683 0.746437 0.661635
O O3 0.918616 0.792890 0.569724
O O4 0.764721 0.744874 0.147340
O O5 0.604331 0.916510 0.427469
O O6 0.500000 0.851941 0.000000
O O7 0.639171 0.923032 0.971770
O O8 0.340378 0.175999 0.234777
O O9 0.211802 0.080278 0.175916
O O10 0.922367 0.124783 0.266947
O O11 0.900186 0.000000 0.186368
O O12 0.000000 0.068294 0.000000
O O13 0.500000 0.401080 0.500000
O O14 0.619043 0.302687 0.708690
O O15 0.667850 0.392683 0.453790
O O16 0.670343 0.406580 0.956105
O O17 0.633913 0.500000 0.206587
O O18 0.500000 0.590478 0.000000
#
# Coordination Sequence:
#
# PCOD9144385 Si02
#       8
#     4   4   4   4   4   2   4   4
#     4  10  22  33  56  78 109 145 180 225 292 340
#     4  10  19  35  57  79 104 142 186 220 263 336
#     4  10  21  38  53  82 111 146 182 229 295 333
#     4  11  23  38  62  89 113 142 186 242 294 355
#     4  10  19  29  48  74 105 150 195 236 270 319
#     4  12  21  40  60  84 114 142 187 228 294 378
#     4  10  19  34  47  75 109 142 182 225 272 330
#     4   9  17  30  46  70 106 149 194 234 279 325
#
# _framework density 19.822375999999998
#
# number of rings (size 3 to 8) (size 9 to 14) (size 15 to 20)
#    0.000    1.867    2.667    3.400    0.000    5.867 
#    0.000    1.333    0.000    2.400    0.000    0.000 
#    0.000    0.000    0.000   42.000    2.667    0.000 
#
# Total GULP energy -167061.143650 kJ/mol
# GULP energy per Si atom -5568.704788 kJ/mol
# Density = 1.977726 g / cm^3
# Si number density = 19.822376 Si / 1000 Ang^3
#
#
#
# Elastic Constant Matrix: (Units=GPa)
#
#
# Indices 1 2 3 4 5 6 
#
# 1 57.8417 -3.0116 22.7974 0.0000 -7.8675 0.0000
# 2 -3.0116 38.0175 15.3479 0.0000 -8.9630 0.0000
# 3 22.7974 15.3479 127.1128 0.0000 -39.7259 0.0000
# 4 0.0000 0.0000 0.0000 14.4726 0.0000 4.9296
# 5 -7.8675 -8.9630 -39.7259 0.0000 44.0871 0.0000
# 6 0.0000 0.0000 0.0000 4.9296 0.0000 3.4927
#
#
#
# Elastic Compliance Matrix: (Units=1/GPa)
#
#
# Indices 1 2 3 4 5 6 
#
# 1 0.018950 0.003119 -0.003508 0.000000 0.000855 0.000000
# 2 0.003119 0.028590 -0.002813 0.000000 0.003834 0.000000
# 3 -0.003508 -0.002813 0.011778 0.000000 0.009415 0.000000
# 4 0.000000 0.000000 0.000000 0.133071 0.000000 -0.187819
# 5 0.000855 0.003834 0.009415 0.000000 0.032098 0.000000
# 6 0.000000 0.000000 0.000000 -0.187819 0.000000 0.551408
#
#
# Mechanical properties :
#
#
# Convention : Reuss Voigt Hill
#
# Bulk Modulus (GPa) = 18.89866 32.58217 25.74042
# Shear Modulus (GPa) = 6.25048 24.93302 15.59175
#
# Velocity S-wave (km/s) = 1.77766 3.55043 2.80763
# Velocity P-wave (km/s) = 3.71055 5.76889 4.85017
#
# Compressibility (1/GPa) = 0.05291381
#
# Stress axis : x y z
#
# Youngs Moduli (GPa) = 52.77088 34.97681 84.90136
#
# Poissons Ratio (x) = -0.10909 0.29784
# Poissons Ratio (y) = -0.16458 0.23884
# Poissons Ratio (z) = 0.18512 0.09840
#
# Static dielectric constant tensor:
#      x y z
#    x 1.779610 0.000000 -0.061270 
#    y 0.000000 1.701300 0.000000 
#    z -0.061270 0.000000 1.793900 
# 
# From -- ./inp_files/10095.got.cif
#   From: 2010.05.17/outbox.cif.g08.bks.cpg/sg10_6_cif.got.tgz:10095.got - 2010.06.03 11:33:40.
