data_PCOD9144557
_publ_section_title
;
Structure prediction by ZEFSAII (Michael W. Deem and Ramdas Pophale) SiO2 
 PCOD9144557
Probable space group: P 2/M
;
_chemical_formula_sum "Si O2"
_cell_formula_units_Z 32
_cell_length_a 29.185311
_cell_length_b 14.724387
_cell_length_c 10.748100
_cell_angle_alpha 90.000000
_cell_angle_beta 24.811628
_cell_angle_gamma 90.000000
_cell_volume 1938.234418
_symmetry_space_group_name_H-M "P 2/M"
_symmetry_group_IT_number 10
_symmetry_cell_setting 'monoclinic'
loop_
_space_group_symop_operation_xyz
x,y,z
-x,y,-z
-x,-y,-z
x,-y,z
loop_
_atom_site_type_symbol
_atom_site_label
_atom_site_fract_x
_atom_site_fract_y
_atom_site_fract_z
Si Si1 0.082134 0.896450 0.120475
Si Si2 0.171586 0.103415 0.164659
Si Si3 0.591958 0.607622 0.167160
Si Si4 0.127422 0.608706 0.177746
Si Si5 0.985224 0.748554 0.898102
Si Si6 0.183072 0.391718 0.756227
Si Si7 0.785728 0.279458 0.806677
Si Si8 0.422410 0.389973 0.079903
O O1 0.158185 0.874407 0.051342
O O2 0.083752 0.820874 0.011583
O O3 0.955099 0.895848 0.477686
O O4 0.106137 0.000000 0.021736
O O5 0.235339 0.178858 0.085721
O O6 0.211544 0.000000 0.079971
O O7 0.500000 0.616497 0.500000
O O8 0.624719 0.500000 0.083503
O O9 0.692055 0.672424 0.957977
O O10 0.550276 0.632040 0.130820
O O11 0.132402 0.500000 0.183419
O O12 0.190872 0.658264 0.130643
O O13 0.000000 0.636870 0.500000
O O14 0.172021 0.629334 0.930520
O O15 0.101877 0.729130 0.547682
O O16 0.915542 0.656830 0.069908
O O17 0.000000 0.783901 0.000000
O O18 0.174553 0.500000 0.765286
O O19 0.298757 0.362216 0.415728
O O20 0.425823 0.500000 0.078002
O O21 0.500000 0.356123 0.000000
#
# Coordination Sequence:
#
# PCOD9144557 Si02
#       8
#     4   4   4   4   4   4   4   4
#     4   8  15  29  46  67  97 127 159 199 240 288
#     4   8  15  28  49  72  94 125 160 198 246 295
#     4  10  22  37  52  74 102 131 170 214 256 298
#     4  10  19  30  46  72 101 132 166 198 242 298
#     4  11  21  30  44  69 100 135 166 198 244 302
#     4  10  20  32  47  69  99 130 168 206 242 295
#     4  11  20  31  51  71 102 131 161 205 252 300
#     4   9  19  36  54  69  93 133 174 211 251 294
#
# _framework density 16.509869999999999
#
# number of rings (size 3 to 8) (size 9 to 14) (size 15 to 20)
#    0.000    2.375    1.250    2.625    3.500    1.000 
#    0.000    0.000    0.000    0.375    0.000    0.000 
#    0.000    1.000    0.000    0.000    0.000    0.000 
#
# Total GULP energy -178355.673200 kJ/mol
# GULP energy per Si atom -5573.614787 kJ/mol
# Density = 1.647229 g / cm^3
# Si number density = 16.509870 Si / 1000 Ang^3
#
#
#
# Elastic Constant Matrix: (Units=GPa)
#
#
# Indices 1 2 3 4 5 6 
#
# 1 98.7885 44.8506 32.1328 0.0000 4.4398 0.0000
# 2 44.8506 56.4586 21.5635 0.0000 -3.4638 0.0000
# 3 32.1328 21.5635 57.2732 0.0000 9.8140 0.0000
# 4 0.0000 0.0000 0.0000 2.6929 0.0000 -4.9647
# 5 4.4398 -3.4638 9.8140 0.0000 22.3793 0.0000
# 6 0.0000 0.0000 0.0000 -4.9647 0.0000 16.0553
#
#
#
# Elastic Compliance Matrix: (Units=1/GPa)
#
#
# Indices 1 2 3 4 5 6 
#
# 1 0.017289 -0.012208 -0.004533 0.000000 -0.003332 0.000000
# 2 -0.012208 0.030423 -0.006301 0.000000 0.009894 0.000000
# 3 -0.004533 -0.006301 0.024208 0.000000 -0.010692 0.000000
# 4 0.000000 0.000000 0.000000 0.863752 0.000000 0.267092
# 5 -0.003332 0.009894 -0.010692 0.000000 0.051565 0.000000
# 6 0.000000 0.000000 0.000000 0.267092 0.000000 0.144876
#
#
# Mechanical properties :
#
#
# Convention : Reuss Voigt Hill
#
# Bulk Modulus (GPa) = 38.70338 45.51270 42.10804
# Shear Modulus (GPa) = 4.21298 15.82373 10.01836
#
# Velocity S-wave (km/s) = 1.59917 3.09923 2.46602
# Velocity P-wave (km/s) = 5.18683 6.35875 5.80246
#
# Compressibility (1/GPa) = 0.02583754
#
# Stress axis : x y z
#
# Youngs Moduli (GPa) = 57.83997 32.86960 41.30929
#
# Poissons Ratio (x) = 0.40126 0.18725
# Poissons Ratio (y) = 0.70608 0.26028
# Poissons Ratio (z) = 0.26218 0.20710
#
# Static dielectric constant tensor:
#      x y z
#    x 1.570660 0.000000 0.014080 
#    y 0.000000 1.566320 0.000000 
#    z 0.014080 0.000000 1.549810 
# 
# From -- ./inp_files/36334.got.cif
#   From: 2010.05.17/outbox.cif.g08.bks.cpg/sg10_19_cif.got.tgz:36334.got - 2010.06.03 11:33:40.
