data_PCOD9144423
_publ_section_title
;
Structure prediction by ZEFSAII (Michael W. Deem and Ramdas Pophale) SiO2 
 PCOD9144423
Probable space group: P 2/M
;
_chemical_formula_sum "Si O2"
_cell_formula_units_Z 22
_cell_length_a 12.703570
_cell_length_b 22.442719
_cell_length_c 12.772842
_cell_angle_alpha 90.000000
_cell_angle_beta 23.163363
_cell_angle_gamma 90.000000
_cell_volume 1432.426935
_symmetry_space_group_name_H-M "P 2/M"
_symmetry_group_IT_number 10
_symmetry_cell_setting 'monoclinic'
loop_
_space_group_symop_operation_xyz
x,y,z
-x,y,-z
-x,-y,-z
x,-y,z
loop_
_atom_site_type_symbol
_atom_site_label
_atom_site_fract_x
_atom_site_fract_y
_atom_site_fract_z
Si Si1 0.541544 0.624256 0.749771
Si Si2 0.291077 0.127983 0.286428
Si Si3 0.713077 0.568188 0.211929
Si Si4 0.918987 0.429718 0.691356
Si Si5 0.708073 0.000000 0.713505
Si Si6 0.291977 0.259342 0.286407
O O1 0.372999 0.613959 0.798954
O O2 0.640675 0.689549 0.692065
O O3 0.811195 0.585005 0.491816
O O4 0.342591 0.601543 0.023401
O O5 0.314943 0.193061 0.315714
O O6 0.000000 0.127429 0.500000
O O7 0.324124 0.064107 0.313537
O O8 0.500000 0.128022 0.000000
O O9 0.500000 0.569206 0.500000
O O10 0.719369 0.500000 0.161875
O O11 0.000000 0.580521 0.000000
O O12 0.867293 0.500000 0.737166
O O13 0.000000 0.410341 0.500000
O O14 0.000000 0.000000 0.500000
O O15 0.500000 0.000000 0.000000
O O16 0.000000 0.266146 0.500000
O O17 0.500000 0.263260 0.000000
#
# Coordination Sequence:
#
# PCOD9144423 Si02
#       6
#     4   4   4   4   2   4
#     4  12  21  33  50  65  85 113 139 173 219 262
#     4   8  14  23  36  54  79 110 142 170 192 223
#     4  10  21  36  51  65  79  99 135 182 226 264
#     4  11  22  33  46  66  89 112 140 170 203 252
#     4   8  12  20  34  52  74 106 144 172 192 214
#     4  10  19  30  43  63  90 117 142 166 199 250
#
# _framework density 15.358549999999999
#
# number of rings (size 3 to 8) (size 9 to 14) (size 15 to 20)
#    0.000    2.000    0.000    6.000    0.000    2.909 
#    0.000    0.000    0.000    0.000    0.000    0.000 
#    0.000    0.000    0.000    1.636    0.000    0.545 
#
# Total GULP energy -122575.423830 kJ/mol
# GULP energy per Si atom -5571.610174 kJ/mol
# Density = 1.532359 g / cm^3
# Si number density = 15.358550 Si / 1000 Ang^3
#
#
#
# Elastic Constant Matrix: (Units=GPa)
#
#
# Indices 1 2 3 4 5 6 
#
# 1 56.4501 41.2089 11.3318 0.0000 -8.6117 0.0000
# 2 41.2089 143.1463 14.1418 0.0000 -1.4568 0.0000
# 3 11.3318 14.1418 92.1306 0.0000 -21.7804 0.0000
# 4 0.0000 0.0000 0.0000 16.4162 0.0000 -6.6684
# 5 -8.6117 -1.4568 -21.7804 0.0000 20.6550 0.0000
# 6 0.0000 0.0000 0.0000 -6.6684 0.0000 8.3345
#
#
#
# Elastic Compliance Matrix: (Units=1/GPa)
#
#
# Indices 1 2 3 4 5 6 
#
# 1 0.024208 -0.006913 0.000472 0.000000 0.010103 0.000000
# 2 -0.006913 0.009079 -0.001430 0.000000 -0.003749 0.000000
# 3 0.000472 -0.001430 0.014704 0.000000 0.015601 0.000000
# 4 0.000000 0.000000 0.000000 0.090246 0.000000 0.072206
# 5 0.010103 -0.003749 0.015601 0.000000 0.068813 0.000000
# 6 0.000000 0.000000 0.000000 0.072206 0.000000 0.177756
#
#
# Mechanical properties :
#
#
# Convention : Reuss Voigt Hill
#
# Bulk Modulus (GPa) = 31.00817 47.23244 39.12031
# Shear Modulus (GPa) = 12.15671 24.08411 18.12041
#
# Velocity S-wave (km/s) = 2.81646 3.96425 3.43859
# Velocity P-wave (km/s) = 5.55067 7.19539 6.42587
#
# Compressibility (1/GPa) = 0.03224957
#
# Stress axis : x y z
#
# Youngs Moduli (GPa) = 41.30943 110.14471 68.01000
#
# Poissons Ratio (x) = 0.76139 -0.03211
# Poissons Ratio (y) = 0.28556 0.09724
# Poissons Ratio (z) = -0.01950 0.15748
#
# Static dielectric constant tensor:
#      x y z
#    x 1.498290 0.000000 -0.020060 
#    y 0.000000 1.588710 0.000000 
#    z -0.020060 0.000000 1.517080 
# 
# From -- ./inp_files/47963.got.cif
#   From: 2010.05.17/outbox.cif.g08.bks.cpg/sg10_24_cif.got.tgz:47963.got - 2010.06.03 11:33:40.
