data_PCOD9144211
_publ_section_title
;
Structure prediction by ZEFSAII (Michael W. Deem and Ramdas Pophale) SiO2 
 PCOD9144211
Probable space group: P 2/M
;
_chemical_formula_sum "Si O2"
_cell_formula_units_Z 28
_cell_length_a 5.350208
_cell_length_b 13.166755
_cell_length_c 23.058506
_cell_angle_alpha 90.000000
_cell_angle_beta 69.632596
_cell_angle_gamma 90.000000
_cell_volume 1522.799283
_symmetry_space_group_name_H-M "P 2/M"
_symmetry_group_IT_number 10
_symmetry_cell_setting 'monoclinic'
loop_
_space_group_symop_operation_xyz
x,y,z
-x,y,-z
-x,-y,-z
x,-y,z
loop_
_atom_site_type_symbol
_atom_site_label
_atom_site_fract_x
_atom_site_fract_y
_atom_site_fract_z
Si Si1 0.334004 0.687991 0.277331
Si Si2 0.717631 0.814157 0.021579
Si Si3 0.152223 0.388655 0.065185
Si Si4 0.445661 0.323897 0.869558
Si Si5 0.210964 0.884564 0.359360
Si Si6 0.389479 0.187632 0.573678
Si Si7 0.266381 0.615538 0.655745
O O1 0.444611 0.685747 0.203594
O O2 0.293300 0.802253 0.304467
O O3 0.544481 0.635898 0.304034
O O4 0.043420 0.635898 0.304033
O O5 0.775784 0.705584 0.982811
O O6 0.500000 0.867255 0.000000
O O7 0.610446 0.783033 0.093037
O O8 0.000000 0.867255 0.000000
O O9 0.197326 0.500000 0.035116
O O10 0.337752 0.377601 0.106641
O O11 0.842329 0.377600 0.106641
O O12 0.400114 0.864139 0.399535
O O13 0.901291 0.864138 0.399536
O O14 0.244164 0.000000 0.337224
O O15 0.500000 0.185492 0.500000
O O16 0.348850 0.302190 0.600764
O O17 0.299546 0.500000 0.633634
#
# Coordination Sequence:
#
# PCOD9144211 Si02
#       7
#     4   4   4   4   4   4   4
#     4  10  21  35  50  72  99 130 173 209 240 292
#     4   8  16  27  38  54  80 112 150 192 240 281
#     4  10  19  28  39  59  87 119 158 201 242 282
#     4  10  19  29  42  59  84 118 156 196 236 280
#     4  10  21  37  56  78 106 132 155 201 259 299
#     4  10  21  36  56  82 105 129 165 200 237 295
#     4  10  21  36  51  70 102 138 168 203 239 274
#
# _framework density 18.387188999999999
#
# number of rings (size 3 to 8) (size 9 to 14) (size 15 to 20)
#    0.000    2.286    0.000    2.571    0.000   10.571 
#    0.000    0.000    0.000    5.143    0.000    0.000 
#    0.000   10.286    0.000    0.000    0.000   15.714 
#
# Total GULP energy -156247.747824 kJ/mol
# GULP energy per Si atom -5580.276708 kJ/mol
# Density = 1.834534 g / cm^3
# Si number density = 18.387189 Si / 1000 Ang^3
#
#
#
# Elastic Constant Matrix: (Units=GPa)
#
#
# Indices 1 2 3 4 5 6 
#
# 1 171.1663 21.4488 18.5086 0.0000 4.9519 0.0000
# 2 21.4488 84.5891 7.0537 0.0000 0.5955 0.0000
# 3 18.5086 7.0537 59.9750 0.0000 -0.3519 0.0000
# 4 0.0000 0.0000 0.0000 1.6891 0.0000 -0.1007
# 5 4.9519 0.5955 -0.3519 0.0000 16.7170 0.0000
# 6 0.0000 0.0000 0.0000 -0.1007 0.0000 -0.7445
#
#
#
# Elastic Compliance Matrix: (Units=1/GPa)
#
#
# Indices 1 2 3 4 5 6 
#
# 1 0.006267 -0.001428 -0.001777 0.000000 -0.001843 0.000000
# 2 -0.001428 0.012268 -0.001002 0.000000 -0.000035 0.000000
# 3 -0.001777 -0.001002 0.017345 0.000000 0.000927 0.000000
# 4 0.000000 0.000000 0.000000 0.587315 0.000000 -0.079408
# 5 -0.001843 -0.000035 0.000927 0.000000 0.060386 0.000000
# 6 0.000000 0.000000 0.000000 -0.079408 0.000000 -1.332450
#
#
# Mechanical properties :
#
#
# Convention : Reuss Voigt Hill
#
# Bulk Modulus (GPa) = 36.40919 45.52805 40.96862
# Shear Modulus (GPa) = -7.92017 21.44695 6.76339
#
# Velocity S-wave (km/s) = -2.07769 3.41898 1.91997
# Velocity P-wave (km/s) = 3.75349 6.35613 5.21963
#
# Compressibility (1/GPa) = 0.02746560
#
# Stress axis : x y z
#
# Youngs Moduli (GPa) = 159.57525 81.51462 57.65256
#
# Poissons Ratio (x) = 0.11639 0.10244
# Poissons Ratio (y) = 0.22785 0.05779
# Poissons Ratio (z) = 0.28353 0.08171
#
# Static dielectric constant tensor:
#      x y z
#    x 1.687000 0.000000 0.004100 
#    y 0.000000 1.626120 0.000000 
#    z 0.004100 0.000000 1.587910 
# 
# From -- ./inp_files/81174.got.cif
#   From: 2010.05.17/outbox.cif.g08.bks.cpg/sg10_41_cif.got.tgz:81174.got - 2010.06.03 11:33:40.
