data_PCOD9144671
_publ_section_title
;
Structure prediction by ZEFSAII (Michael W. Deem and Ramdas Pophale) SiO2 
 PCOD9144671
Probable space group: P 2/M
;
_chemical_formula_sum "Si O2"
_cell_formula_units_Z 28
_cell_length_a 22.115034
_cell_length_b 14.058332
_cell_length_c 22.705058
_cell_angle_alpha 90.000000
_cell_angle_beta 13.110436
_cell_angle_gamma 90.000000
_cell_volume 1601.186936
_symmetry_space_group_name_H-M "P 2/M"
_symmetry_group_IT_number 10
_symmetry_cell_setting 'monoclinic'
loop_
_space_group_symop_operation_xyz
x,y,z
-x,y,-z
-x,-y,-z
x,-y,z
loop_
_atom_site_type_symbol
_atom_site_label
_atom_site_fract_x
_atom_site_fract_y
_atom_site_fract_z
Si Si1 0.774827 0.614288 0.892206
Si Si2 0.352576 0.614685 0.388740
Si Si3 0.933016 0.108085 0.493728
Si Si4 0.566059 0.228867 0.006601
Si Si5 0.834084 0.695557 0.096389
Si Si6 0.712438 0.387404 0.415449
Si Si7 0.706041 0.895604 0.251153
O O1 0.751338 0.500000 0.906358
O O2 0.648440 0.672898 0.958735
O O3 0.083815 0.638921 0.608502
O O4 0.611503 0.642295 0.105988
O O5 0.361096 0.500000 0.384426
O O6 0.330710 0.647752 0.476672
O O7 0.000000 0.103329 0.500000
O O8 0.188786 0.155557 0.221584
O O9 0.880518 0.000000 0.523769
O O10 0.684221 0.178656 0.725140
O O11 0.500000 0.242541 0.000000
O O12 0.570730 0.630674 0.347676
O O13 0.722576 0.802968 0.194902
O O14 0.000000 0.690338 0.000000
O O15 0.042565 0.664485 0.848770
O O16 0.772195 0.500000 0.359005
O O17 0.500000 0.877394 0.500000
O O18 0.640937 0.000000 0.287115
O O19 0.000000 0.901898 0.000000
#
# Coordination Sequence:
#
# PCOD9144671 Si02
#       7
#     4   4   4   4   4   4   4
#     4  10  19  33  52  73  99 129 165 208 246 287
#     4   9  19  35  52  69  91 129 180 216 233 266
#     4   9  17  30  47  69 100 134 167 202 238 286
#     4  10  19  30  48  77 106 130 159 197 253 311
#     4  11  21  33  50  77 107 131 159 196 249 308
#     4  11  22  35  51  72 101 135 169 203 238 286
#     4   9  17  31  50  71  97 127 160 198 235 279
#
# _framework density 17.487027999999999
#
# number of rings (size 3 to 8) (size 9 to 14) (size 15 to 20)
#    0.000    2.143    0.000    4.714    0.000    6.000 
#    0.000    0.000    0.000    5.143    0.000   20.000 
#    0.000    0.000    0.000    0.000    0.000    0.000 
#
# Total GULP energy -156107.519713 kJ/mol
# GULP energy per Si atom -5575.268561 kJ/mol
# Density = 1.744723 g / cm^3
# Si number density = 17.487028 Si / 1000 Ang^3
#
#
#
# Elastic Constant Matrix: (Units=GPa)
#
#
# Indices 1 2 3 4 5 6 
#
# 1 32.0552 18.7161 -4.3724 0.0000 0.8683 0.0000
# 2 18.7161 64.1197 3.0401 0.0000 0.9027 0.0000
# 3 -4.3724 3.0401 80.9223 0.0000 0.4039 0.0000
# 4 0.0000 0.0000 0.0000 24.7409 0.0000 2.8787
# 5 0.8683 0.9027 0.4039 0.0000 19.5522 0.0000
# 6 0.0000 0.0000 0.0000 2.8787 0.0000 -1.9729
#
#
#
# Elastic Compliance Matrix: (Units=1/GPa)
#
#
# Indices 1 2 3 4 5 6 
#
# 1 0.038125 -0.011229 0.002488 0.000000 -0.001226 0.000000
# 2 -0.011229 0.018941 -0.001317 0.000000 -0.000349 0.000000
# 3 0.002488 -0.001317 0.012543 0.000000 -0.000309 0.000000
# 4 0.000000 0.000000 0.000000 0.034553 0.000000 0.050417
# 5 -0.001226 -0.000349 -0.000309 0.000000 0.051222 0.000000
# 6 0.000000 0.000000 0.000000 0.050417 0.000000 -0.433313
#
#
# Mechanical properties :
#
#
# Convention : Reuss Voigt Hill
#
# Bulk Modulus (GPa) = 20.20469 23.54053 21.87261
# Shear Modulus (GPa) = -20.71968 19.11161 -0.80403
#
# Velocity S-wave (km/s) = -3.44591 3.30949 -0.67881
# Velocity P-wave (km/s) = 2.06234 5.30043 3.45263
#
# Compressibility (1/GPa) = 0.04949345
#
# Stress axis : x y z
#
# Youngs Moduli (GPa) = 26.22941 52.79589 79.72597
#
# Poissons Ratio (x) = 0.59285 -0.19835
# Poissons Ratio (y) = 0.29453 0.10496
# Poissons Ratio (z) = -0.06526 0.06951
#
# Static dielectric constant tensor:
#      x y z
#    x 1.595990 0.000000 -0.005340 
#    y 0.000000 1.620750 0.000000 
#    z -0.005340 0.000000 1.593750 
# 
# From -- ./inp_files/90969.got.cif
#   From: 2010.05.17/outbox.cif.g08.bks.cpg/sg10_46_cif.got.tgz:90969.got - 2010.06.03 11:33:40.
