data_PCOD9144584
_publ_section_title
;
Structure prediction by ZEFSAII (Michael W. Deem and Ramdas Pophale) SiO2 
 PCOD9144584
Probable space group: P 2/M
;
_chemical_formula_sum "Si O2"
_cell_formula_units_Z 32
_cell_length_a 23.993535
_cell_length_b 7.524857
_cell_length_c 16.936848
_cell_angle_alpha 90.000000
_cell_angle_beta 147.741604
_cell_angle_gamma 90.000000
_cell_volume 1632.125544
_symmetry_space_group_name_H-M "P 2/M"
_symmetry_group_IT_number 10
_symmetry_cell_setting 'monoclinic'
loop_
_space_group_symop_operation_xyz
x,y,z
-x,y,-z
-x,-y,-z
x,-y,z
loop_
_atom_site_type_symbol
_atom_site_label
_atom_site_fract_x
_atom_site_fract_y
_atom_site_fract_z
Si Si1 0.322573 0.217762 0.812652
Si Si2 0.089600 0.718170 0.922603
Si Si3 0.355894 0.786816 0.677165
Si Si4 0.886557 0.202806 0.368787
Si Si5 0.146371 0.712779 0.332781
Si Si6 0.874543 0.703809 0.863028
Si Si7 0.789921 0.707455 0.088389
Si Si8 0.423710 0.214591 0.099786
O O1 0.362187 0.277131 0.775216
O O2 0.203505 0.280003 0.683755
O O3 0.323002 0.000000 0.813612
O O4 0.386603 0.270194 0.967110
O O5 0.090546 0.500000 0.925748
O O6 0.156954 0.773980 0.928027
O O7 0.967528 0.774043 0.773062
O O8 0.136970 0.780830 0.063193
O O9 0.244121 0.746919 0.505677
O O10 0.456876 0.724396 0.749094
O O11 0.364072 0.000000 0.690661
O O12 0.837255 0.200732 0.222494
O O13 0.000000 0.288777 0.500000
O O14 0.902199 0.000000 0.415722
O O15 0.136016 0.500000 0.312160
O O16 0.166616 0.784307 0.268075
O O17 0.836221 0.500000 0.821394
O O18 0.000000 0.698465 0.000000
O O19 0.816760 0.500000 0.128246
O O20 0.664881 0.723973 0.945589
O O21 0.420751 0.000000 0.098683
#
# Coordination Sequence:
#
# PCOD9144584 Si02
#       8
#     4   4   4   4   4   4   4   4
#     4   8  15  29  47  65  83 114 159 193 219 258
#     4   8  15  28  47  71  96 121 149 182 222 274
#     4  10  19  30  48  70  91 118 152 195 235 267
#     4   9  18  31  46  64  91 126 157 184 217 268
#     4   9  17  29  47  72  97 119 145 182 229 276
#     4   7  11  24  46  67  89 120 152 177 212 270
#     4  10  19  30  47  70  93 118 151 192 233 267
#     4   9  18  34  50  63  86 122 163 195 223 266
#
# _framework density 19.606334
#
# number of rings (size 3 to 8) (size 9 to 14) (size 15 to 20)
#    0.000    3.250    0.000    3.000    1.750    2.250 
#    0.000    3.125    0.000    9.375    0.000    5.250 
#    0.000    0.000    0.000    0.000    0.000    0.000 
#
# Total GULP energy -178252.383079 kJ/mol
# GULP energy per Si atom -5570.386971 kJ/mol
# Density = 1.956171 g / cm^3
# Si number density = 19.606334 Si / 1000 Ang^3
#
#
#
# Elastic Constant Matrix: (Units=GPa)
#
#
# Indices 1 2 3 4 5 6 
#
# 1 135.9356 -2.7370 57.0640 0.0000 20.7335 0.0000
# 2 -2.7370 50.0133 -0.6523 0.0000 3.7270 0.0000
# 3 57.0640 -0.6523 62.3491 0.0000 14.0635 0.0000
# 4 0.0000 0.0000 0.0000 36.2240 0.0000 -24.3433
# 5 20.7335 3.7270 14.0635 0.0000 22.6598 0.0000
# 6 0.0000 0.0000 0.0000 -24.3433 0.0000 38.6709
#
#
#
# Elastic Compliance Matrix: (Units=1/GPa)
#
#
# Indices 1 2 3 4 5 6 
#
# 1 0.012460 0.000937 -0.010218 0.000000 -0.005213 0.000000
# 2 0.000937 0.020381 0.000355 0.000000 -0.004430 0.000000
# 3 -0.010218 0.000355 0.027091 0.000000 -0.007523 0.000000
# 4 0.000000 0.000000 0.000000 0.047847 0.000000 0.030120
# 5 -0.005213 -0.004430 -0.007523 0.000000 0.054298 0.000000
# 6 0.000000 0.000000 0.000000 0.030120 0.000000 0.044820
#
#
# Mechanical properties :
#
#
# Convention : Reuss Voigt Hill
#
# Bulk Modulus (GPa) = 23.76464 39.51637 31.64051
# Shear Modulus (GPa) = 20.94020 32.48583 26.71301
#
# Velocity S-wave (km/s) = 3.27162 4.07493 3.69517
# Velocity P-wave (km/s) = 5.13990 6.50682 5.86333
#
# Compressibility (1/GPa) = 0.04207932
#
# Stress axis : x y z
#
# Youngs Moduli (GPa) = 80.25839 49.06600 36.91255
#
# Poissons Ratio (x) = -0.04598 0.37717
# Poissons Ratio (y) = -0.07521 -0.01309
# Poissons Ratio (z) = 0.82007 -0.01741
#
# Static dielectric constant tensor:
#      x y z
#    x 1.707630 0.000000 0.005590 
#    y 0.000000 1.767860 0.000000 
#    z 0.005590 0.000000 1.690050 
# 
# From -- ./inp_files/79970.got.cif
#   From: 2010.05.17/outbox.cif.g08.bks.cpg/sg10_40_cif.got.tgz:79970.got - 2010.06.03 11:33:40.
