data_PCOD9144156
_publ_section_title
;
Structure prediction by ZEFSAII (Michael W. Deem and Ramdas Pophale) SiO2 
 PCOD9144156
Probable space group: P 2/M
;
_chemical_formula_sum "Si O2"
_cell_formula_units_Z 28
_cell_length_a 15.180025
_cell_length_b 20.125207
_cell_length_c 8.840367
_cell_angle_alpha 90.000000
_cell_angle_beta 32.621157
_cell_angle_gamma 90.000000
_cell_volume 1455.921076
_symmetry_space_group_name_H-M "P 2/M"
_symmetry_group_IT_number 10
_symmetry_cell_setting 'monoclinic'
loop_
_space_group_symop_operation_xyz
x,y,z
-x,y,-z
-x,-y,-z
x,-y,z
loop_
_atom_site_type_symbol
_atom_site_label
_atom_site_fract_x
_atom_site_fract_y
_atom_site_fract_z
Si Si1 0.818712 0.144550 0.690644
Si Si2 0.319377 0.712899 0.194552
Si Si3 0.310628 0.500000 0.762772
Si Si4 0.842436 0.500000 0.333319
Si Si5 0.838665 0.080455 0.331236
Si Si6 0.068922 0.355498 0.733304
Si Si7 0.488623 0.919918 0.691736
Si Si8 0.839664 0.618024 0.821085
O O1 0.747765 0.218525 0.773224
O O2 0.840465 0.110638 0.495665
O O3 0.000000 0.144956 0.500000
O O4 0.675712 0.107241 0.991785
O O5 0.213124 0.694237 0.494502
O O6 0.277783 0.656478 0.126256
O O7 0.500000 0.715835 0.000000
O O8 0.500000 0.500000 0.500000
O O9 0.286548 0.500000 0.615654
O O10 0.239828 0.562650 0.957059
O O11 0.857567 0.430568 0.399060
O O12 0.000000 0.500000 0.000000
O O13 0.662078 0.099896 0.516281
O O14 0.841848 0.000000 0.335091
O O15 0.000000 0.100152 0.000000
O O16 0.928907 0.335886 0.816190
O O17 0.000000 0.354420 0.000000
O O18 0.500000 0.899749 0.500000
O O19 0.480041 0.000000 0.711200
O O20 0.000000 0.591344 0.500000
#
# Coordination Sequence:
#
# PCOD9144156 Si02
#       8
#     4   4   2   2   4   4   4   4
#     4  12  24  42  63  88 124 169 215 256 306 367
#     4  11  26  42  59  84 121 158 203 251 305 360
#     4  12  23  34  61  95 123 143 193 251 303 356
#     4  10  18  36  62  90 117 150 192 241 303 364
#     4  10  21  38  64  98 132 165 204 253 310 367
#     4  10  19  39  66  86 115 153 199 239 296 368
#     4  10  21  39  65  97 130 163 205 258 310 360
#     4  10  21  40  60  85 117 156 192 239 298 364
#
# _framework density 19.231812000000001
#
# number of rings (size 3 to 8) (size 9 to 14) (size 15 to 20)
#    0.000    1.429    2.857    4.071    2.000    5.714 
#    0.000    5.714    0.000    0.000    0.000    0.000 
#    0.000    0.000    0.000    0.000    0.000    0.000 
#
# Total GULP energy -156002.820404 kJ/mol
# GULP energy per Si atom -5571.529300 kJ/mol
# Density = 1.918804 g / cm^3
# Si number density = 19.231812 Si / 1000 Ang^3
#
#
#
# Elastic Constant Matrix: (Units=GPa)
#
#
# Indices 1 2 3 4 5 6 
#
# 1 183.1322 38.4391 82.2588 0.0000 -22.1104 0.0000
# 2 38.4391 46.2735 40.9877 0.0000 -4.0476 0.0000
# 3 82.2588 40.9877 152.1268 0.0000 -14.2211 0.0000
# 4 0.0000 0.0000 0.0000 4.5049 0.0000 -12.3042
# 5 -22.1104 -4.0476 -14.2211 0.0000 45.9824 0.0000
# 6 0.0000 0.0000 0.0000 -12.3042 0.0000 1.6350
#
#
#
# Elastic Compliance Matrix: (Units=1/GPa)
#
#
# Indices 1 2 3 4 5 6 
#
# 1 0.007903 -0.003635 -0.003057 0.000000 0.002535 0.000000
# 2 -0.003635 0.030058 -0.006229 0.000000 -0.001029 0.000000
# 3 -0.003057 -0.006229 0.010005 0.000000 0.001076 0.000000
# 4 0.000000 0.000000 0.000000 -0.011352 0.000000 -0.085429
# 5 0.002535 -0.001029 0.001076 0.000000 0.023208 0.000000
# 6 0.000000 0.000000 0.000000 -0.085429 0.000000 -0.031278
#
#
# Mechanical properties :
#
#
# Convention : Reuss Voigt Hill
#
# Bulk Modulus (GPa) = 45.20051 78.32265 61.76158
# Shear Modulus (GPa) = 80.95647 25.08092 53.01870
#
# Velocity S-wave (km/s) = 6.49511 3.61520 5.25624
# Velocity P-wave (km/s) = 8.93323 7.63153 8.30791
#
# Compressibility (1/GPa) = 0.02212365
#
# Stress axis : x y z
#
# Youngs Moduli (GPa) = 126.54035 33.26901 99.94815
#
# Poissons Ratio (x) = 0.12095 0.30551
# Poissons Ratio (y) = 0.46003 0.62257
# Poissons Ratio (z) = 0.38680 0.20723
#
# Static dielectric constant tensor:
#      x y z
#    x 1.671090 0.000000 -0.008550 
#    y 0.000000 1.944930 0.000000 
#    z -0.008550 0.000000 1.690760 
# 
# From -- ./inp_files/30436.got.cif
#   From: 2010.05.17/outbox.cif.g08.bks.cpg/sg10_16_cif.got.tgz:30436.got - 2010.06.03 11:33:40.
