data_PCOD9144870
_publ_section_title
;
Structure prediction by ZEFSAII (Michael W. Deem and Ramdas Pophale) SiO2 
 PCOD9144870
Probable space group: P 2/M
;
_chemical_formula_sum "Si O2"
_cell_formula_units_Z 32
_cell_length_a 11.643506
_cell_length_b 7.477256
_cell_length_c 23.413091
_cell_angle_alpha 90.000000
_cell_angle_beta 51.623205
_cell_angle_gamma 90.000000
_cell_volume 1597.976347
_symmetry_space_group_name_H-M "P 2/M"
_symmetry_group_IT_number 10
_symmetry_cell_setting 'monoclinic'
loop_
_space_group_symop_operation_xyz
x,y,z
-x,y,-z
-x,-y,-z
x,-y,z
loop_
_atom_site_type_symbol
_atom_site_label
_atom_site_fract_x
_atom_site_fract_y
_atom_site_fract_z
Si Si1 0.528998 0.791983 0.167524
Si Si2 0.169965 0.784088 0.750706
Si Si3 0.279865 0.215203 0.599949
Si Si4 0.485351 0.219541 0.702587
Si Si5 0.606318 0.215159 0.549693
Si Si6 0.159599 0.283121 0.972286
Si Si7 0.575501 0.794356 0.920063
Si Si8 0.146634 0.291245 0.105302
O O1 0.483939 0.716995 0.242884
O O2 0.465918 0.712318 0.128135
O O3 0.484181 0.000000 0.182437
O O4 0.704970 0.781306 0.107212
O O5 0.174431 0.720661 0.683139
O O6 0.320287 0.726666 0.735111
O O7 0.023653 0.729153 0.827914
O O8 0.173154 0.000000 0.748825
O O9 0.442745 0.245750 0.575262
O O10 0.284178 0.283420 0.533439
O O11 0.261645 0.000000 0.602112
O O12 0.595898 0.278333 0.618165
O O13 0.485576 0.000000 0.702652
O O14 0.625312 0.000000 0.546164
O O15 0.161827 0.500000 0.970911
O O16 0.179386 0.221699 0.031573
O O17 0.000000 0.226066 0.000000
O O18 0.747434 0.793356 0.880533
O O19 0.522675 0.000000 0.933722
O O20 0.500000 0.713569 0.000000
O O21 0.181790 0.500000 0.094346
#
# Coordination Sequence:
#
# PCOD9144870 Si02
#       8
#     4   4   4   4   4   4   4   4
#     4  10  19  31  48  68  87 111 146 183 221 258
#     4   9  16  27  44  67  95 120 144 175 214 259
#     4   7  10  17  33  59  89 120 144 165 201 253
#     4   8  14  24  41  68  96 118 141 176 217 259
#     4   7   9  16  32  58  92 119 140 167 204 251
#     4  10  21  34  46  63  89 118 144 172 213 264
#     4  10  20  35  51  65  83 110 146 190 230 260
#     4  11  22  33  47  65  86 115 150 184 220 259
#
# _framework density 20.025327999999998
#
# number of rings (size 3 to 8) (size 9 to 14) (size 15 to 20)
#    0.000    3.000    1.250    3.375    0.000    1.500 
#    0.000    0.000    0.000    0.000    0.000    8.750 
#    0.000    7.000    0.000    0.000    0.000    0.000 
#
# Total GULP energy -178304.076135 kJ/mol
# GULP energy per Si atom -5572.002379 kJ/mol
# Density = 1.997975 g / cm^3
# Si number density = 20.025328 Si / 1000 Ang^3
#
#
#
# Elastic Constant Matrix: (Units=GPa)
#
#
# Indices 1 2 3 4 5 6 
#
# 1 71.7430 6.1669 20.1614 0.0000 33.3184 0.0000
# 2 6.1669 57.3680 6.4928 0.0000 5.0519 0.0000
# 3 20.1614 6.4928 108.7236 0.0000 52.9258 0.0000
# 4 0.0000 0.0000 0.0000 148.2250 0.0000 -115.8808
# 5 33.3184 5.0519 52.9258 0.0000 38.4232 0.0000
# 6 0.0000 0.0000 0.0000 -115.8808 0.0000 80.4707
#
#
#
# Elastic Compliance Matrix: (Units=1/GPa)
#
#
# Indices 1 2 3 4 5 6 
#
# 1 0.041104 -0.001052 0.029514 0.000000 -0.076159 0.000000
# 2 -0.001052 0.017664 -0.000526 0.000000 -0.000685 0.000000
# 3 0.029514 -0.000526 0.049111 0.000000 -0.093172 0.000000
# 4 0.000000 0.000000 0.000000 -0.053626 0.000000 -0.077223
# 5 -0.076159 -0.000685 -0.093172 0.000000 0.220496 0.000000
# 6 0.000000 0.000000 0.000000 -0.077223 0.000000 -0.098778
#
#
# Mechanical properties :
#
#
# Convention : Reuss Voigt Hill
#
# Bulk Modulus (GPa) = 6.10682 33.71965 19.91323
# Shear Modulus (GPa) = 28.62295 67.09134 47.85714
#
# Velocity S-wave (km/s) = 3.78476 5.79448 4.89389
# Velocity P-wave (km/s) = 4.70695 7.85131 6.47296
#
# Compressibility (1/GPa) = 0.16375130
#
# Stress axis : x y z
#
# Youngs Moduli (GPa) = 24.32840 56.61124 20.36184
#
# Poissons Ratio (x) = 0.05957 -0.60096
# Poissons Ratio (y) = 0.02560 0.01072
# Poissons Ratio (z) = -0.71803 0.02979
#
# Static dielectric constant tensor:
#      x y z
#    x 1.701810 0.000000 0.054290 
#    y 0.000000 1.747890 0.000000 
#    z 0.054290 0.000000 1.749430 
# 
# From -- ./inp_files/54895.got.cif
#   From: 2010.05.17/outbox.cif.g08.bks.cpg/sg10_28_cif.got.tgz:54895.got - 2010.06.03 11:33:40.
