data_PCOD9144683
_publ_section_title
;
Structure prediction by ZEFSAII (Michael W. Deem and Ramdas Pophale) SiO2 
 PCOD9144683
Probable space group: P 2/M
;
_chemical_formula_sum "Si O2"
_cell_formula_units_Z 28
_cell_length_a 26.981095
_cell_length_b 13.609657
_cell_length_c 24.169836
_cell_angle_alpha 90.000000
_cell_angle_beta 9.872935
_cell_angle_gamma 90.000000
_cell_volume 1521.783081
_symmetry_space_group_name_H-M "P 2/M"
_symmetry_group_IT_number 10
_symmetry_cell_setting 'monoclinic'
loop_
_space_group_symop_operation_xyz
x,y,z
-x,y,-z
-x,-y,-z
x,-y,z
loop_
_atom_site_type_symbol
_atom_site_label
_atom_site_fract_x
_atom_site_fract_y
_atom_site_fract_z
Si Si1 0.213175 0.611156 0.942574
Si Si2 0.665364 0.721335 0.375142
Si Si3 0.105448 0.190031 0.685947
Si Si4 0.219205 0.390783 0.060828
Si Si5 0.386253 0.292505 0.285077
Si Si6 0.658339 0.386578 0.884541
Si Si7 0.538078 0.113138 0.603825
O O1 0.101015 0.500000 0.057953
O O2 0.468210 0.637623 0.620252
O O3 0.335628 0.616888 0.870486
O O4 0.979716 0.699407 0.198890
O O5 0.500000 0.746202 0.500000
O O6 0.656245 0.814178 0.426587
O O7 0.000000 0.692641 0.000000
O O8 0.232931 0.200082 0.483668
O O9 0.320202 0.142969 0.493736
O O10 0.804338 0.132475 0.016528
O O11 0.263245 0.500000 0.033578
O O12 0.881112 0.368069 0.426473
O O13 0.376932 0.320884 0.929708
O O14 0.541287 0.305052 0.055887
O O15 0.607860 0.500000 0.960369
O O16 0.000000 0.376237 0.500000
O O17 0.500000 0.377904 0.000000
O O18 0.599853 0.000000 0.523411
#
# Coordination Sequence:
#
# PCOD9144683 Si02
#       7
#     4   4   4   4   4   4   4
#     4   9  20  37  55  78 111 148 184 226 272 314
#     4  11  23  38  55  79 111 144 184 221 259 330
#     4  10  21  38  59  87 111 135 180 228 276 336
#     4  10  19  30  49  73  97 136 186 228 268 309
#     4  11  19  32  51  73 107 141 178 228 273 307
#     4  10  20  31  44  68 107 154 197 225 246 289
#     4  11  23  42  64  83 108 136 169 229 294 335
#
# _framework density 18.399469
#
# number of rings (size 3 to 8) (size 9 to 14) (size 15 to 20)
#    0.000    1.714    0.000    6.857    0.000    4.571 
#    0.000    8.571    0.000    0.000    0.000    0.000 
#    0.000   11.429    0.000    0.000    0.000    0.000 
#
# Total GULP energy -156206.937496 kJ/mol
# GULP energy per Si atom -5578.819196 kJ/mol
# Density = 1.835759 g / cm^3
# Si number density = 18.399469 Si / 1000 Ang^3
#
#
#
# Elastic Constant Matrix: (Units=GPa)
#
#
# Indices 1 2 3 4 5 6 
#
# 1 83.6611 2.9348 38.4599 0.0000 -0.2819 0.0000
# 2 2.9348 45.6202 -2.3044 0.0000 -4.0542 0.0000
# 3 38.4599 -2.3044 80.3490 0.0000 -1.1823 0.0000
# 4 0.0000 0.0000 0.0000 8.2948 0.0000 -1.1810
# 5 -0.2819 -4.0542 -1.1823 0.0000 31.4738 0.0000
# 6 0.0000 0.0000 0.0000 -1.1810 0.0000 8.0647
#
#
#
# Elastic Compliance Matrix: (Units=1/GPa)
#
#
# Indices 1 2 3 4 5 6 
#
# 1 0.015413 -0.001395 -0.007422 0.000000 -0.000320 0.000000
# 2 -0.001395 0.022337 0.001351 0.000000 0.002916 0.000000
# 3 -0.007422 0.001351 0.016048 0.000000 0.000710 0.000000
# 4 0.000000 0.000000 0.000000 0.123124 0.000000 0.018030
# 5 -0.000320 0.002916 0.000710 0.000000 0.032172 0.000000
# 6 0.000000 0.000000 0.000000 0.018030 0.000000 0.126637
#
#
# Mechanical properties :
#
#
# Convention : Reuss Voigt Hill
#
# Bulk Modulus (GPa) = 25.72954 31.97899 28.85427
# Shear Modulus (GPa) = 13.75070 20.93601 17.34336
#
# Velocity S-wave (km/s) = 2.73672 3.37688 3.07351
# Velocity P-wave (km/s) = 4.89902 5.71161 5.32085
#
# Compressibility (1/GPa) = 0.03886583
#
# Stress axis : x y z
#
# Youngs Moduli (GPa) = 64.88056 44.76833 62.31442
#
# Poissons Ratio (x) = 0.06245 0.46251
# Poissons Ratio (y) = 0.09050 -0.08420
# Poissons Ratio (z) = 0.48156 -0.06049
#
# Static dielectric constant tensor:
#      x y z
#    x 1.634890 0.000000 0.030090 
#    y 0.000000 1.637960 0.000000 
#    z 0.030090 0.000000 1.653570 
# 
# From -- ./inp_files/91267.got.cif
#   From: 2010.05.17/outbox.cif.g08.bks.cpg/sg10_46_cif.got.tgz:91267.got - 2010.06.03 11:33:40.
