data_PCOD9144196
_publ_section_title
;
Structure prediction by ZEFSAII (Michael W. Deem and Ramdas Pophale) SiO2 
 PCOD9144196
Probable space group: P 2/M
;
_chemical_formula_sum "Si O2"
_cell_formula_units_Z 30
_cell_length_a 25.716058
_cell_length_b 12.762051
_cell_length_c 5.419566
_cell_angle_alpha 90.000000
_cell_angle_beta 58.206065
_cell_angle_gamma 90.000000
_cell_volume 1511.756964
_symmetry_space_group_name_H-M "P 2/M"
_symmetry_group_IT_number 10
_symmetry_cell_setting 'monoclinic'
loop_
_space_group_symop_operation_xyz
x,y,z
-x,y,-z
-x,-y,-z
x,-y,z
loop_
_atom_site_type_symbol
_atom_site_label
_atom_site_fract_x
_atom_site_fract_y
_atom_site_fract_z
Si Si1 0.040536 0.733452 0.148660
Si Si2 0.234045 0.886629 0.164887
Si Si3 0.427716 0.814791 0.680710
Si Si4 0.317952 0.323568 0.955121
Si Si5 0.366084 0.115779 0.334791
Si Si6 0.039670 0.500000 0.150826
Si Si7 0.722744 0.320786 0.443140
Si Si8 0.829743 0.825097 0.175644
O O1 0.068909 0.615072 0.077726
O O2 0.000000 0.744668 0.500000
O O3 0.097912 0.810709 0.005221
O O4 0.000000 0.744668 0.000000
O O5 0.280731 0.788966 0.048172
O O6 0.193524 0.877527 0.513213
O O7 0.265516 0.000000 0.086209
O O8 0.193524 0.877527 0.019168
O O9 0.500000 0.801588 0.500000
O O10 0.406078 0.871178 0.482838
O O11 0.388952 0.706579 0.777621
O O12 0.406078 0.871178 0.986774
O O13 0.296802 0.375915 0.258460
O O14 0.296802 0.375915 0.757528
O O15 0.317114 0.210710 0.457216
O O16 0.337620 0.000000 0.405951
O O17 0.000000 0.500000 0.500000
O O18 0.000000 0.500000 0.000000
O O19 0.792869 0.285676 0.267828
#
# Coordination Sequence:
#
# PCOD9144196 Si02
#       8
#     4   4   4   4   4   2   4   4
#     4  10  19  33  52  72  95 115 135 163 200 246
#     4  10  19  31  46  62  80 107 147 188 218 243
#     4  10  19  27  34  46  65  89 117 154 205 254
#     4   8  16  27  39  53  70  93 126 171 211 240
#     4  10  19  28  36  47  64  87 119 162 202 235
#     4   8  16  30  50  74  94 116 136 154 187 238
#     4   8  16  27  39  54  71  91 123 163 199 234
#     4  10  19  30  47  67  83 107 140 176 211 245
#
# _framework density 19.844459000000001
#
# number of rings (size 3 to 8) (size 9 to 14) (size 15 to 20)
#    0.000    2.667    0.000    2.000    0.000   11.200 
#    0.000    0.000    0.000    8.000    0.000    0.000 
#    0.000    0.000    0.000    0.000    0.000    0.000 
#
# Total GULP energy -167177.485207 kJ/mol
# GULP energy per Si atom -5572.582840 kJ/mol
# Density = 1.979929 g / cm^3
# Si number density = 19.844459 Si / 1000 Ang^3
#
#
#
# Elastic Constant Matrix: (Units=GPa)
#
#
# Indices 1 2 3 4 5 6 
#
# 1 123.0971 16.7138 77.8582 0.0000 18.1085 0.0000
# 2 16.7138 47.9679 15.7345 0.0000 -2.4847 0.0000
# 3 77.8582 15.7345 142.1960 0.0000 30.3463 0.0000
# 4 0.0000 0.0000 0.0000 -30.2242 0.0000 36.0288
# 5 18.1085 -2.4847 30.3463 0.0000 57.2368 0.0000
# 6 0.0000 0.0000 0.0000 36.0288 0.0000 -44.4251
#
#
#
# Elastic Compliance Matrix: (Units=1/GPa)
#
#
# Indices 1 2 3 4 5 6 
#
# 1 0.012671 -0.002300 -0.006547 0.000000 -0.000637 0.000000
# 2 -0.002300 0.022369 -0.001780 0.000000 0.002642 0.000000
# 3 -0.006547 -0.001780 0.011714 0.000000 -0.004217 0.000000
# 4 0.000000 0.000000 0.000000 -0.995170 0.000000 -0.807082
# 5 -0.000637 0.002642 -0.004217 0.000000 0.020023 0.000000
# 6 0.000000 0.000000 0.000000 -0.807082 0.000000 -0.677054
#
#
# Mechanical properties :
#
#
# Convention : Reuss Voigt Hill
#
# Bulk Modulus (GPa) = 39.21568 59.31934 49.26751
# Shear Modulus (GPa) = -3.17321 10.04781 3.43730
#
# Velocity S-wave (km/s) = -1.26590 2.25262 1.31753
# Velocity P-wave (km/s) = 4.20330 6.05993 5.21491
#
# Compressibility (1/GPa) = 0.02550000
#
# Stress axis : x y z
#
# Youngs Moduli (GPa) = 78.92122 44.70388 85.36624
#
# Poissons Ratio (x) = 0.10284 0.55891
# Poissons Ratio (y) = 0.18155 0.15192
# Poissons Ratio (z) = 0.51672 0.07956
#
# Static dielectric constant tensor:
#      x y z
#    x 1.709610 0.000000 0.058380 
#    y 0.000000 1.717690 0.000000 
#    z 0.058380 0.000000 1.732620 
# 
# From -- ./inp_files/13312.got.cif
#   From: 2010.05.17/outbox.cif.g08.bks.cpg/sg10_7_cif.got.tgz:13312.got - 2010.06.03 11:33:40.
