data_PCOD9144715
_publ_section_title
;
Structure prediction by ZEFSAII (Michael W. Deem and Ramdas Pophale) SiO2 
 PCOD9144715
Probable space group: P 2/M
;
_chemical_formula_sum "Si O2"
_cell_formula_units_Z 32
_cell_length_a 12.893188
_cell_length_b 7.772526
_cell_length_c 29.352049
_cell_angle_alpha 90.000000
_cell_angle_beta 29.433821
_cell_angle_gamma 90.000000
_cell_volume 1445.479461
_symmetry_space_group_name_H-M "P 2/M"
_symmetry_group_IT_number 10
_symmetry_cell_setting 'monoclinic'
loop_
_space_group_symop_operation_xyz
x,y,z
-x,y,-z
-x,-y,-z
x,-y,z
loop_
_atom_site_type_symbol
_atom_site_label
_atom_site_fract_x
_atom_site_fract_y
_atom_site_fract_z
Si Si1 0.623769 0.709302 0.710560
Si Si2 0.316620 0.698447 0.752651
Si Si3 0.309790 0.788454 0.512268
Si Si4 0.930020 0.207943 0.724875
Si Si5 0.235963 0.203138 0.680806
Si Si6 0.467904 0.701917 0.866714
Si Si7 0.982904 0.198542 0.954611
Si Si8 0.070023 0.198617 0.520144
O O1 0.640960 0.500000 0.703584
O O2 0.517795 0.769431 0.703937
O O3 0.486780 0.757961 0.806676
O O4 0.850850 0.791877 0.631226
O O5 0.361770 0.500000 0.726439
O O6 0.257318 0.776006 0.726751
O O7 0.128545 0.711804 0.861466
O O8 0.550851 0.730576 0.425643
O O9 0.119727 0.736598 0.618121
O O10 0.245936 0.729087 0.485776
O O11 0.308937 0.000000 0.513439
O O12 0.697478 0.271771 0.801174
O O13 0.022293 0.266168 0.738636
O O14 0.915778 0.000000 0.728048
O O15 0.237776 0.000000 0.670948
O O16 0.422024 0.500000 0.884925
O O17 0.262683 0.791776 0.965515
O O18 0.051198 0.000000 0.929952
O O19 0.000000 0.269007 0.000000
O O20 0.000000 0.286227 0.500000
O O21 0.125734 0.000000 0.489723
#
# Coordination Sequence:
#
# PCOD9144715 Si02
#       8
#     4   4   4   4   4   4   4   4
#     4  10  21  35  53  79 114 155 189 227 284 348
#     4  11  23  40  60  85 121 158 193 237 294 357
#     4   9  17  32  55  84 116 153 198 245 294 341
#     4  10  20  37  61  87 117 156 203 250 291 339
#     4  10  21  38  60  86 117 155 202 251 295 341
#     4  11  22  38  60  87 120 153 189 234 288 349
#     4  11  23  39  64  94 119 148 190 239 291 350
#     4  10  19  30  49  79 114 151 193 241 287 339
#
# _framework density 22.137983999999999
#
# number of rings (size 3 to 8) (size 9 to 14) (size 15 to 20)
#    0.000    1.750    2.500    2.250    0.000    5.250 
#    0.000    1.875    0.000    5.250    0.000    0.000 
#    0.000    0.000    0.000    0.000    0.000    0.000 
#
# Total GULP energy -178660.949590 kJ/mol
# GULP energy per Si atom -5583.154675 kJ/mol
# Density = 2.208760 g / cm^3
# Si number density = 22.137984 Si / 1000 Ang^3
#
#
#
# Elastic Constant Matrix: (Units=GPa)
#
#
# Indices 1 2 3 4 5 6 
#
# 1 123.9823 0.2775 24.5230 0.0000 -22.8367 0.0000
# 2 0.2775 39.9218 -1.3156 0.0000 -2.5184 0.0000
# 3 24.5230 -1.3156 81.3715 0.0000 -15.6743 0.0000
# 4 0.0000 0.0000 0.0000 47.8271 0.0000 -10.4347
# 5 -22.8367 -2.5184 -15.6743 0.0000 32.2666 0.0000
# 6 0.0000 0.0000 0.0000 -10.4347 0.0000 14.8482
#
#
#
# Elastic Compliance Matrix: (Units=1/GPa)
#
#
# Indices 1 2 3 4 5 6 
#
# 1 0.009492 0.000250 -0.001720 0.000000 0.005902 0.000000
# 2 0.000250 0.025235 0.000823 0.000000 0.002546 0.000000
# 3 -0.001720 0.000823 0.013899 0.000000 0.005599 0.000000
# 4 0.000000 0.000000 0.000000 0.024695 0.000000 0.017355
# 5 0.005902 0.002546 0.005599 0.000000 0.038088 0.000000
# 6 0.000000 0.000000 0.000000 0.017355 0.000000 0.079544
#
#
# Mechanical properties :
#
#
# Convention : Reuss Voigt Hill
#
# Bulk Modulus (GPa) = 21.12686 32.47171 26.79929
# Shear Modulus (GPa) = 24.03553 33.77442 28.90497
#
# Velocity S-wave (km/s) = 3.29859 3.91017 3.61733
# Velocity P-wave (km/s) = 4.90628 5.92331 5.43862
#
# Compressibility (1/GPa) = 0.04733311
#
# Stress axis : x y z
#
# Youngs Moduli (GPa) = 105.34693 39.62756 71.94530
#
# Poissons Ratio (x) = -0.00989 0.12373
# Poissons Ratio (y) = -0.02630 -0.05923
# Poissons Ratio (z) = 0.18117 -0.03262
#
# Static dielectric constant tensor:
#      x y z
#    x 1.866940 0.000000 0.009300 
#    y 0.000000 1.814460 0.000000 
#    z 0.009300 0.000000 1.837250 
# 
# From -- ./inp_files/94976.got.cif
#   From: 2010.05.17/outbox.cif.g08.bks.cpg/sg10_48_cif.got.tgz:94976.got - 2010.06.03 11:33:40.
