data_PCOD9144543
_publ_section_title
;
Structure prediction by ZEFSAII (Michael W. Deem and Ramdas Pophale) SiO2 
 PCOD9144543
Probable space group: P 2/M
;
_chemical_formula_sum "Si O2"
_cell_formula_units_Z 32
_cell_length_a 30.068990
_cell_length_b 9.215937
_cell_length_c 21.952132
_cell_angle_alpha 90.000000
_cell_angle_beta 19.470922
_cell_angle_gamma 90.000000
_cell_volume 2027.717205
_symmetry_space_group_name_H-M "P 2/M"
_symmetry_group_IT_number 10
_symmetry_cell_setting 'monoclinic'
loop_
_space_group_symop_operation_xyz
x,y,z
-x,y,-z
-x,-y,-z
x,-y,z
loop_
_atom_site_type_symbol
_atom_site_label
_atom_site_fract_x
_atom_site_fract_y
_atom_site_fract_z
Si Si1 0.715616 0.831472 0.204663
Si Si2 0.425147 0.326169 0.160468
Si Si3 0.409947 0.326230 0.816892
Si Si4 0.126723 0.172537 0.376050
Si Si5 0.410756 0.172683 0.945866
Si Si6 0.443423 0.830512 0.476280
Si Si7 0.853741 0.673930 0.920968
Si Si8 0.128819 0.674341 0.503214
O O1 0.578312 0.825939 0.342880
O O2 0.674446 0.782270 0.325744
O O3 0.755298 0.000000 0.156913
O O4 0.819390 0.741832 0.030761
O O5 0.440065 0.500000 0.150445
O O6 0.490792 0.240938 0.131279
O O7 0.268843 0.291508 0.354828
O O8 0.500000 0.290843 0.000000
O O9 0.416836 0.500000 0.813319
O O10 0.422532 0.250402 0.865710
O O11 0.523481 0.266384 0.624607
O O12 0.266752 0.288463 0.970296
O O13 0.130392 0.254901 0.434895
O O14 0.000000 0.219179 0.500000
O O15 0.115122 0.000000 0.402507
O O16 0.261825 0.197342 0.164142
O O17 0.431504 0.000000 0.913130
O O18 0.422397 0.000000 0.487133
O O19 0.853602 0.500000 0.926587
O O20 0.996394 0.721101 0.710435
O O21 0.123040 0.500000 0.504037
#
# Coordination Sequence:
#
# PCOD9144543 Si02
#       8
#     4   4   4   4   4   4   4   4
#     4   8  14  25  43  66  94 130 163 191 227 276
#     4  10  20  36  55  71  89 119 161 206 245 284
#     4  10  19  30  46  70 100 130 160 194 235 283
#     4  10  21  34  48  69  96 125 156 191 235 286
#     4  11  22  34  50  70  94 124 159 200 243 284
#     4   8  14  26  43  65  95 129 163 193 227 274
#     4   9  18  30  45  70 101 129 158 195 236 282
#     4  10  20  34  51  70  93 124 160 198 241 282
#
# _framework density 15.781292000000001
#
# number of rings (size 3 to 8) (size 9 to 14) (size 15 to 20)
#    0.000    2.500    1.250    2.250    0.000    3.000 
#    0.000    2.500    0.000    0.000    0.000    0.875 
#    0.000    7.000    0.000    0.000    0.000    0.000 
#
# Total GULP energy -178361.751060 kJ/mol
# GULP energy per Si atom -5573.804721 kJ/mol
# Density = 1.574537 g / cm^3
# Si number density = 15.781292 Si / 1000 Ang^3
#
#
#
# Elastic Constant Matrix: (Units=GPa)
#
#
# Indices 1 2 3 4 5 6 
#
# 1 115.4117 65.1696 96.7803 0.0000 14.8331 0.0000
# 2 65.1696 48.1891 54.2328 0.0000 11.2287 0.0000
# 3 96.7803 54.2328 82.8643 0.0000 19.1643 0.0000
# 4 0.0000 0.0000 0.0000 21.2747 0.0000 7.0853
# 5 14.8331 11.2287 19.1643 0.0000 28.3420 0.0000
# 6 0.0000 0.0000 0.0000 7.0853 0.0000 30.0859
#
#
#
# Elastic Compliance Matrix: (Units=1/GPa)
#
#
# Indices 1 2 3 4 5 6 
#
# 1 -6.107597 0.684327 7.122720 0.000000 -1.890891 0.000000
# 2 0.684327 0.002546 -0.850922 0.000000 0.216218 0.000000
# 3 7.122720 -0.850922 -8.256993 0.000000 2.192593 0.000000
# 4 0.000000 0.000000 0.000000 0.051005 0.000000 -0.012012
# 5 -1.890891 0.216218 2.192593 0.000000 -0.543350 0.000000
# 6 0.000000 0.000000 0.000000 -0.012012 0.000000 0.036067
#
#
# Mechanical properties :
#
#
# Convention : Reuss Voigt Hill
#
# Bulk Modulus (GPa) = -2.22324 75.42560 36.60118
# Shear Modulus (GPa) = -0.17313 17.95935 8.89311
#
# Velocity S-wave (km/s) = -0.33158 3.37711 2.37644
# Velocity P-wave (km/s) = 1.24837 7.94384 5.54735
#
# Compressibility (1/GPa) = -0.44979476
#
# Stress axis : x y z
#
# Youngs Moduli (GPa) = -0.16373 392.76580 -0.12111
#
# Poissons Ratio (x) = -268.78017 0.86263
# Poissons Ratio (y) = 0.11205 -0.10305
# Poissons Ratio (z) = 1.16621 334.21301
#
# Static dielectric constant tensor:
#      x y z
#    x 1.501870 0.000000 0.008440 
#    y 0.000000 1.524130 0.000000 
#    z 0.008440 0.000000 1.530570 
# 
# From -- ./inp_files/54824.got.cif
#   From: 2010.05.17/outbox.cif.g08.bks.cpg/sg10_28_cif.got.tgz:54824.got - 2010.06.03 11:33:40.
