data_PCOD9144444
_publ_section_title
;
Structure prediction by ZEFSAII (Michael W. Deem and Ramdas Pophale) SiO2 
 PCOD9144444
Probable space group: P 2/M
;
_chemical_formula_sum "Si O2"
_cell_formula_units_Z 32
_cell_length_a 12.542072
_cell_length_b 8.336575
_cell_length_c 19.105567
_cell_angle_alpha 90.000000
_cell_angle_beta 120.805252
_cell_angle_gamma 90.000000
_cell_volume 1715.797523
_symmetry_space_group_name_H-M "P 2/M"
_symmetry_group_IT_number 10
_symmetry_cell_setting 'monoclinic'
loop_
_space_group_symop_operation_xyz
x,y,z
-x,y,-z
-x,-y,-z
x,-y,z
loop_
_atom_site_type_symbol
_atom_site_label
_atom_site_fract_x
_atom_site_fract_y
_atom_site_fract_z
Si Si1 0.838020 0.809775 0.227484
Si Si2 0.511130 0.692930 0.781684
Si Si3 0.235857 0.694265 0.645257
Si Si4 0.897715 0.690704 0.700789
Si Si5 0.573126 0.694048 0.093374
Si Si6 0.447021 0.184732 0.559725
Si Si7 0.319186 0.808795 0.272922
Si Si8 0.179888 0.685666 0.477561
O O1 0.826264 0.746389 0.303327
O O2 0.712972 0.757232 0.146216
O O3 0.961718 0.737448 0.235780
O O4 0.846584 0.000000 0.231696
O O5 0.512240 0.500000 0.778170
O O6 0.381279 0.747007 0.700205
O O7 0.494414 0.741228 0.856934
O O8 0.637465 0.756023 0.789497
O O9 0.236532 0.500000 0.642937
O O10 0.164457 0.752706 0.551434
O O11 0.884344 0.500000 0.691818
O O12 0.802251 0.748512 0.727927
O O13 0.869245 0.757432 0.612220
O O14 0.578840 0.500000 0.094695
O O15 0.500000 0.747817 0.000000
O O16 0.500000 0.175400 0.500000
O O17 0.561160 0.248419 0.643018
O O18 0.328604 0.297993 0.521302
O O19 0.413523 0.000000 0.569264
O O20 0.316169 0.000000 0.275039
O O21 0.138492 0.500000 0.465703
#
# Coordination Sequence:
#
# PCOD9144444 Si02
#       8
#     4   4   4   4   4   4   4   4
#     4  11  23  38  56  80 111 143 177 219 270 328
#     4   9  17  31  54  83 112 139 173 217 265 316
#     4   9  18  34  53  74 104 141 185 234 277 318
#     4  11  23  37  53  73 103 148 195 233 271 317
#     4   9  19  39  67  93 114 137 168 210 261 320
#     4  10  19  30  44  67 102 141 181 231 279 316
#     4  11  21  32  49  75 109 147 184 224 272 320
#     4  10  20  32  50  73  98 138 192 241 275 310
#
# _framework density 18.650219
#
# number of rings (size 3 to 8) (size 9 to 14) (size 15 to 20)
#    0.000    2.000    2.500    2.625    0.000    4.500 
#    0.000    2.500    0.000    0.750    0.000    5.250 
#    0.000    0.000    0.000    0.000    0.000    0.000 
#
# Total GULP energy -178421.961319 kJ/mol
# GULP energy per Si atom -5575.686291 kJ/mol
# Density = 1.860777 g / cm^3
# Si number density = 18.650219 Si / 1000 Ang^3
#
#
#
# Elastic Constant Matrix: (Units=GPa)
#
#
# Indices 1 2 3 4 5 6 
#
# 1 119.7035 11.5049 57.5914 0.0000 6.5200 0.0000
# 2 11.5049 13.8947 14.8252 0.0000 -1.9371 0.0000
# 3 57.5914 14.8252 88.7705 0.0000 -7.3949 0.0000
# 4 0.0000 0.0000 0.0000 13.1554 0.0000 -2.6859
# 5 6.5200 -1.9371 -7.3949 0.0000 14.2656 0.0000
# 6 0.0000 0.0000 0.0000 -2.6859 0.0000 13.7546
#
#
#
# Elastic Compliance Matrix: (Units=1/GPa)
#
#
# Indices 1 2 3 4 5 6 
#
# 1 0.013808 -0.002995 -0.009425 0.000000 -0.011603 0.000000
# 2 -0.002995 0.088503 -0.012251 0.000000 0.007036 0.000000
# 3 -0.009425 -0.012251 0.020532 0.000000 0.013287 0.000000
# 4 0.000000 0.000000 0.000000 0.079171 0.000000 0.015460
# 5 -0.011603 0.007036 0.013287 0.000000 0.083245 0.000000
# 6 0.000000 0.000000 0.000000 0.015460 0.000000 0.075722
#
#
# Mechanical properties :
#
#
# Convention : Reuss Voigt Hill
#
# Bulk Modulus (GPa) = 13.60522 43.35685 28.48104
# Shear Modulus (GPa) = 11.49893 17.46495 14.48194
#
# Velocity S-wave (km/s) = 2.48575 3.06346 2.78960
# Velocity P-wave (km/s) = 3.94327 5.98422 5.06756
#
# Compressibility (1/GPa) = 0.07350118
#
# Stress axis : x y z
#
# Youngs Moduli (GPa) = 72.42055 11.29909 48.70353
#
# Poissons Ratio (x) = 0.03384 0.45902
# Poissons Ratio (y) = 0.21690 0.59668
# Poissons Ratio (z) = 0.68254 0.13843
#
# Static dielectric constant tensor:
#      x y z
#    x 1.675200 0.000000 -0.042040 
#    y 0.000000 1.654250 0.000000 
#    z -0.042040 0.000000 1.670210 
# 
# From -- ./inp_files/83390.got.cif
#   From: 2010.05.17/outbox.cif.g08.bks.cpg/sg10_42_cif.got.tgz:83390.got - 2010.06.03 11:33:40.
