data_PCOD9144670
_publ_section_title
;
Structure prediction by ZEFSAII (Michael W. Deem and Ramdas Pophale) SiO2 
 PCOD9144670
Probable space group: P 2/M
;
_chemical_formula_sum "Si O2"
_cell_formula_units_Z 28
_cell_length_a 22.456589
_cell_length_b 13.225048
_cell_length_c 5.284994
_cell_angle_alpha 90.000000
_cell_angle_beta 96.757740
_cell_angle_gamma 90.000000
_cell_volume 1558.682954
_symmetry_space_group_name_H-M "P 2/M"
_symmetry_group_IT_number 10
_symmetry_cell_setting 'monoclinic'
loop_
_space_group_symop_operation_xyz
x,y,z
-x,y,-z
-x,-y,-z
x,-y,z
loop_
_atom_site_type_symbol
_atom_site_label
_atom_site_fract_x
_atom_site_fract_y
_atom_site_fract_z
Si Si1 0.759365 0.387645 0.129683
Si Si2 0.428639 0.240696 0.464319
Si Si3 0.755315 0.886244 0.627658
Si Si4 0.689938 0.326373 0.594969
Si Si5 0.427974 0.112714 0.963987
Si Si6 0.963331 0.122177 0.231666
Si Si7 0.174656 0.178361 0.837328
O O1 0.785757 0.500000 0.142879
O O2 0.718876 0.373027 0.358851
O O3 0.806704 0.296264 0.153352
O O4 0.718876 0.373027 0.860024
O O5 0.500000 0.264189 0.500000
O O6 0.381857 0.332121 0.440929
O O7 0.414287 0.174945 0.706012
O O8 0.414287 0.174945 0.208274
O O9 0.708862 0.792946 0.604431
O O10 0.795871 0.870967 0.397721
O O11 0.729755 0.000000 0.614877
O O12 0.795871 0.870967 0.898150
O O13 0.401499 0.000000 0.950749
O O14 0.500000 0.102539 0.000000
O O15 0.896258 0.164145 0.198129
O O16 0.000000 0.151986 0.500000
O O17 0.958461 0.000000 0.229230
O O18 0.000000 0.151986 0.000000
#
# Coordination Sequence:
#
# PCOD9144670 Si02
#       7
#     4   4   4   4   4   4   4
#     4  10  21  39  61  78  97 129 173 228 273 306
#     4  10  19  32  49  69 100 136 166 208 264 318
#     4  10  19  31  49  74 106 139 170 212 257 300
#     4  10  21  35  53  80 102 128 172 214 264 321
#     4   9  17  28  43  65  94 134 177 203 229 287
#     4  10  19  30  48  76 111 148 176 200 237 290
#     4  10  20  34  53  77 105 139 180 214 252 303
#
# _framework density 17.963884
#
# number of rings (size 3 to 8) (size 9 to 14) (size 15 to 20)
#    0.000    2.143    0.000    3.857    0.000    4.000 
#    0.000    0.000    0.000    3.429    0.000    0.000 
#    0.000    0.000    0.000    0.000    0.000    0.000 
#
# Total GULP energy -156277.716527 kJ/mol
# GULP energy per Si atom -5581.347019 kJ/mol
# Density = 1.792300 g / cm^3
# Si number density = 17.963884 Si / 1000 Ang^3
#
#
#
# Elastic Constant Matrix: (Units=GPa)
#
#
# Indices 1 2 3 4 5 6 
#
# 1 83.9184 5.8713 34.8719 0.0000 -2.1510 0.0000
# 2 5.8713 76.7411 15.0576 0.0000 -0.5975 0.0000
# 3 34.8719 15.0576 155.0669 0.0000 -2.4771 0.0000
# 4 0.0000 0.0000 0.0000 -4.5192 0.0000 0.8370
# 5 -2.1510 -0.5975 -2.4771 0.0000 41.0783 0.0000
# 6 0.0000 0.0000 0.0000 0.8370 0.0000 8.3498
#
#
#
# Elastic Compliance Matrix: (Units=1/GPa)
#
#
# Indices 1 2 3 4 5 6 
#
# 1 0.013169 -0.000432 -0.002911 0.000000 0.000508 0.000000
# 2 -0.000432 0.013299 -0.001193 0.000000 0.000099 0.000000
# 3 -0.002911 -0.001193 0.007224 0.000000 0.000266 0.000000
# 4 0.000000 0.000000 0.000000 -0.217243 0.000000 0.021778
# 5 0.000508 0.000099 0.000266 0.000000 0.024388 0.000000
# 6 0.000000 0.000000 0.000000 0.021778 0.000000 0.117580
#
#
# Mechanical properties :
#
#
# Convention : Reuss Voigt Hill
#
# Bulk Modulus (GPa) = 40.61904 47.48087 44.04995
# Shear Modulus (GPa) = -205.72181 26.31015 -89.70583
#
# Velocity S-wave (km/s) = -10.71300 3.83118 -7.07426
# Velocity P-wave (km/s) = 11.41770 6.78670 6.49248
#
# Compressibility (1/GPa) = 0.02461900
#
# Stress axis : x y z
#
# Youngs Moduli (GPa) = 75.93332 75.19548 138.43478
#
# Poissons Ratio (x) = 0.03251 0.40305
# Poissons Ratio (y) = 0.03283 0.16509
# Poissons Ratio (z) = 0.22108 0.08967
#
# Static dielectric constant tensor:
#      x y z
#    x 1.592070 0.000000 -0.000760 
#    y 0.000000 1.613580 0.000000 
#    z -0.000760 0.000000 1.603820 
# 
# From -- ./inp_files/12248.got.cif
#   From: 2010.05.17/outbox.cif.g08.bks.cpg/sg10_7_cif.got.tgz:12248.got - 2010.06.03 11:33:40.
