data_PCOD9144388
_publ_section_title
;
Structure prediction by ZEFSAII (Michael W. Deem and Ramdas Pophale) SiO2 
 PCOD9144388
Probable space group: P 2/M
;
_chemical_formula_sum "Si O2"
_cell_formula_units_Z 28
_cell_length_a 8.313321
_cell_length_b 20.632233
_cell_length_c 14.019975
_cell_angle_alpha 90.000000
_cell_angle_beta 33.226584
_cell_angle_gamma 90.000000
_cell_volume 1317.680345
_symmetry_space_group_name_H-M "P 2/M"
_symmetry_group_IT_number 10
_symmetry_cell_setting 'monoclinic'
loop_
_space_group_symop_operation_xyz
x,y,z
-x,y,-z
-x,-y,-z
x,-y,z
loop_
_atom_site_type_symbol
_atom_site_label
_atom_site_fract_x
_atom_site_fract_y
_atom_site_fract_z
Si Si1 0.732588 0.147534 0.692118
Si Si2 0.836282 0.337888 0.331159
Si Si3 0.219990 0.391991 0.966156
Si Si4 0.129346 0.570097 0.329575
Si Si5 0.311741 0.248057 0.889929
Si Si6 0.939664 0.801771 0.795817
Si Si7 0.738225 0.927341 0.969226
O O1 0.579967 0.208120 0.714863
O O2 0.851214 0.176256 0.733557
O O3 0.468155 0.097712 0.842949
O O4 0.000000 0.119808 0.500000
O O5 0.500000 0.359026 0.500000
O O6 0.003576 0.367538 0.338480
O O7 0.847588 0.259666 0.318706
O O8 0.018791 0.368926 0.153521
O O9 0.517008 0.427504 0.846217
O O10 0.334888 0.324184 0.863484
O O11 0.000000 0.424109 0.000000
O O12 0.038997 0.500000 0.330835
O O13 0.000000 0.571111 0.500000
O O14 0.292530 0.229839 0.012428
O O15 0.000000 0.228132 0.000000
O O16 0.979769 0.872275 0.826228
O O17 0.849322 0.000000 0.926577
O O18 0.500000 0.927589 0.000000
#
# Coordination Sequence:
#
# PCOD9144388 Si02
#       7
#     4   4   4   4   4   4   4
#     4  10  19  29  48  79 110 143 186 239 293 343
#     4  11  23  39  62  90 121 156 199 251 302 356
#     4  10  21  38  61  88 117 154 200 247 300 358
#     4  11  25  43  62  87 122 162 202 244 292 350
#     4   9  18  33  52  76 109 146 187 234 287 348
#     4   9  19  34  54  81 112 147 189 234 287 344
#     4   8  15  31  53  76 107 148 191 235 288 351
#
# _framework density 21.249462999999999
#
# number of rings (size 3 to 8) (size 9 to 14) (size 15 to 20)
#    0.000    2.286    0.000    3.429    0.000   12.286 
#    0.000    0.000    0.000    7.286    0.000    6.000 
#    0.000    3.429    0.000    0.000    0.000    0.571 
#
# Total GULP energy -155947.563427 kJ/mol
# GULP energy per Si atom -5569.555837 kJ/mol
# Density = 2.120110 g / cm^3
# Si number density = 21.249463 Si / 1000 Ang^3
#
#
#
# Elastic Constant Matrix: (Units=GPa)
#
#
# Indices 1 2 3 4 5 6 
#
# 1 53.8138 17.7423 29.6134 0.0000 -0.8479 0.0000
# 2 17.7423 115.8374 44.7671 0.0000 -3.9346 0.0000
# 3 29.6134 44.7671 90.7149 0.0000 -11.5131 0.0000
# 4 0.0000 0.0000 0.0000 4.0570 0.0000 8.1148
# 5 -0.8479 -3.9346 -11.5131 0.0000 21.5575 0.0000
# 6 0.0000 0.0000 0.0000 8.1148 0.0000 6.7047
#
#
#
# Elastic Compliance Matrix: (Units=1/GPa)
#
#
# Indices 1 2 3 4 5 6 
#
# 1 0.022916 -0.000704 -0.007547 0.000000 -0.003258 0.000000
# 2 -0.000704 0.010706 -0.005159 0.000000 -0.000829 0.000000
# 3 -0.007547 -0.005159 0.017030 0.000000 0.007857 0.000000
# 4 0.000000 0.000000 0.000000 -0.173476 0.000000 0.209960
# 5 -0.003258 -0.000829 0.007857 0.000000 0.050304 0.000000
# 6 0.000000 0.000000 0.000000 0.209960 0.000000 -0.104969
#
#
# Mechanical properties :
#
#
# Convention : Reuss Voigt Hill
#
# Bulk Modulus (GPa) = 41.95818 49.40128 45.67973
# Shear Modulus (GPa) = -35.03252 17.68008 -8.67622
#
# Velocity S-wave (km/s) = -4.06474 2.88761 -2.02284
# Velocity P-wave (km/s) = 1.49702 5.86655 4.01095
#
# Compressibility (1/GPa) = 0.02383325
#
# Stress axis : x y z
#
# Youngs Moduli (GPa) = 43.63685 93.40423 58.71930
#
# Poissons Ratio (x) = 0.06576 0.44315
# Poissons Ratio (y) = 0.03072 0.30292
# Poissons Ratio (z) = 0.32933 0.48185
#
# Static dielectric constant tensor:
#      x y z
#    x 1.820870 0.000000 0.023530 
#    y 0.000000 1.782600 0.000000 
#    z 0.023530 0.000000 1.763240 
# 
# From -- ./inp_files/62548.got.cif
#   From: 2010.05.17/outbox.cif.g08.bks.cpg/sg10_32_cif.got.tgz:62548.got - 2010.06.03 11:33:40.
