data_PCOD9144172
_publ_section_title
;
Structure prediction by ZEFSAII (Michael W. Deem and Ramdas Pophale) SiO2 
 PCOD9144172
Probable space group: P 2/M
;
_chemical_formula_sum "Si O2"
_cell_formula_units_Z 32
_cell_length_a 19.087649
_cell_length_b 15.449328
_cell_length_c 11.934186
_cell_angle_alpha 90.000000
_cell_angle_beta 27.885707
_cell_angle_gamma 90.000000
_cell_volume 1646.003956
_symmetry_space_group_name_H-M "P 2/M"
_symmetry_group_IT_number 10
_symmetry_cell_setting 'monoclinic'
loop_
_space_group_symop_operation_xyz
x,y,z
-x,y,-z
-x,-y,-z
x,-y,z
loop_
_atom_site_type_symbol
_atom_site_label
_atom_site_fract_x
_atom_site_fract_y
_atom_site_fract_z
Si Si1 0.356592 0.404874 0.783658
Si Si2 0.391163 0.902369 0.808332
Si Si3 0.251527 0.597608 0.378213
Si Si4 0.770442 0.766301 0.121193
Si Si5 0.157309 0.900900 0.341119
Si Si6 0.352297 0.200212 0.466232
Si Si7 0.883607 0.780736 0.391782
Si Si8 0.473240 0.361507 0.861314
O O1 0.500000 0.393614 0.500000
O O2 0.291415 0.500000 0.854802
O O3 0.246754 0.325871 0.915069
O O4 0.416939 0.399287 0.824474
O O5 0.335694 0.833221 0.795445
O O6 0.557679 0.882256 0.616218
O O7 0.376926 0.000000 0.785481
O O8 0.283765 0.893047 0.068044
O O9 0.190540 0.500000 0.452548
O O10 0.141727 0.677368 0.558226
O O11 0.375822 0.597408 0.301310
O O12 0.345693 0.623979 0.134258
O O13 0.715647 0.756571 0.326133
O O14 0.941302 0.797644 0.875406
O O15 0.168424 0.831686 0.424002
O O16 0.000000 0.888467 0.500000
O O17 0.160622 0.000000 0.380546
O O18 0.220985 0.188392 0.562534
O O19 0.476589 0.263037 0.234472
#
# Coordination Sequence:
#
# PCOD9144172 Si02
#       8
#     4   4   4   4   4   4   4   4
#     4  11  21  35  60  89 119 161 212 262 303 350
#     4  11  23  41  70  95 120 157 201 254 310 367
#     4  10  21  36  59  88 125 162 203 256 311 368
#     4  12  23  42  60  87 130 167 206 252 305 369
#     4  10  21  42  67  94 123 157 201 249 309 377
#     4  11  23  41  61  92 125 160 211 256 299 363
#     4  11  25  39  64  89 126 170 203 248 315 365
#     4  10  18  37  60  87 119 157 202 260 313 353
#
# _framework density 19.441022
#
# number of rings (size 3 to 8) (size 9 to 14) (size 15 to 20)
#    0.000    1.250    3.750    3.000    0.000    3.500 
#    0.000    1.250    0.000    6.375    0.000    0.000 
#    0.000    0.000    0.000    0.000    0.000    0.000 
#
# Total GULP energy -178727.715520 kJ/mol
# GULP energy per Si atom -5585.241110 kJ/mol
# Density = 1.939677 g / cm^3
# Si number density = 19.441022 Si / 1000 Ang^3
#
#
#
# Elastic Constant Matrix: (Units=GPa)
#
#
# Indices 1 2 3 4 5 6 
#
# 1 113.8868 42.7405 32.9234 0.0000 1.8939 0.0000
# 2 42.7405 91.2262 9.2326 0.0000 -10.2493 0.0000
# 3 32.9234 9.2326 49.9675 0.0000 -6.6625 0.0000
# 4 0.0000 0.0000 0.0000 6.4485 0.0000 -5.0302
# 5 1.8939 -10.2493 -6.6625 0.0000 23.4286 0.0000
# 6 0.0000 0.0000 0.0000 -5.0302 0.0000 -0.2110
#
#
#
# Elastic Compliance Matrix: (Units=1/GPa)
#
#
# Indices 1 2 3 4 5 6 
#
# 1 0.013778 -0.006282 -0.008764 0.000000 -0.006354 0.000000
# 2 -0.006282 0.014504 0.002466 0.000000 0.007554 0.000000
# 3 -0.008764 0.002466 0.026578 0.000000 0.009346 0.000000
# 4 0.000000 0.000000 0.000000 0.007913 0.000000 -0.188656
# 5 -0.006354 0.007554 0.009346 0.000000 0.049159 0.000000
# 6 0.000000 0.000000 0.000000 -0.188656 0.000000 -0.241852
#
#
# Mechanical properties :
#
#
# Convention : Reuss Voigt Hill
#
# Bulk Modulus (GPa) = 33.67014 47.20816 40.43915
# Shear Modulus (GPa) = -52.70930 17.27883 -17.71523
#
# Velocity S-wave (km/s) = -5.21261 2.98448 -3.02193
# Velocity P-wave (km/s) = 4.34415 6.01761 2.94448
#
# Compressibility (1/GPa) = 0.02969991
#
# Stress axis : x y z
#
# Youngs Moduli (GPa) = 72.58200 68.94662 37.62474
#
# Poissons Ratio (x) = 0.43311 0.32976
# Poissons Ratio (y) = 0.45595 -0.09280
# Poissons Ratio (z) = 0.63614 -0.17005
#
# Static dielectric constant tensor:
#      x y z
#    x 1.647030 0.000000 0.009990 
#    y 0.000000 1.703220 0.000000 
#    z 0.009990 0.000000 1.671540 
# 
# From -- ./inp_files/54023.got.cif
#   From: 2010.05.17/outbox.cif.g08.bks.cpg/sg10_28_cif.got.tgz:54023.got - 2010.06.03 11:33:40.
