data_PCOD9144497
_publ_section_title
;
Structure prediction by ZEFSAII (Michael W. Deem and Ramdas Pophale) SiO2 
 PCOD9144497
Probable space group: P 2/M
;
_chemical_formula_sum "Si O2"
_cell_formula_units_Z 28
_cell_length_a 14.822589
_cell_length_b 13.958715
_cell_length_c 15.058720
_cell_angle_alpha 90.000000
_cell_angle_beta 29.094856
_cell_angle_gamma 90.000000
_cell_volume 1515.037457
_symmetry_space_group_name_H-M "P 2/M"
_symmetry_group_IT_number 10
_symmetry_cell_setting 'monoclinic'
loop_
_space_group_symop_operation_xyz
x,y,z
-x,y,-z
-x,-y,-z
x,-y,z
loop_
_atom_site_type_symbol
_atom_site_label
_atom_site_fract_x
_atom_site_fract_y
_atom_site_fract_z
Si Si1 0.577853 0.115192 0.072583
Si Si2 0.961716 0.391777 0.928555
Si Si3 0.287850 0.386367 0.508921
Si Si4 0.601461 0.610418 0.000408
Si Si5 0.203466 0.884121 0.289191
Si Si6 0.976564 0.388763 0.421581
Si Si7 0.613300 0.276804 0.168827
O O1 0.373972 0.139925 0.208281
O O2 0.608134 0.168106 0.139718
O O3 0.587659 0.000000 0.071504
O O4 0.729823 0.147459 0.867000
O O5 0.888757 0.500000 0.970698
O O6 0.148786 0.380973 0.711296
O O7 0.812842 0.313826 0.027118
O O8 0.000000 0.386470 0.000000
O O9 0.339084 0.500000 0.455176
O O10 0.169817 0.352275 0.524031
O O11 0.462695 0.316783 0.367201
O O12 0.541915 0.500000 0.062070
O O13 0.820872 0.612717 0.795726
O O14 0.500000 0.648106 0.000000
O O15 0.560880 0.666936 0.123500
O O16 0.000000 0.856157 0.500000
O O17 0.201442 0.000000 0.286330
O O18 0.921576 0.500000 0.482013
O O19 0.000000 0.347439 0.500000
#
# Coordination Sequence:
#
# PCOD9144497 Si02
#       7
#     4   4   4   4   4   4   4
#     4   9  20  35  51  78 113 147 190 242 284 326
#     4  10  22  41  62  84 112 143 180 233 287 335
#     4  10  20  35  55  81 110 141 181 225 272 330
#     4  10  19  30  45  70 108 148 182 215 258 317
#     4   8  15  33  56  73 101 148 195 238 283 327
#     4   9  16  29  45  66 104 147 178 212 254 306
#     4  12  22  34  56  80 109 145 187 227 279 341
#
# _framework density 18.481390999999999
#
# number of rings (size 3 to 8) (size 9 to 14) (size 15 to 20)
#    0.000    2.286    1.429    3.000    2.000    4.000 
#    0.000    2.143    0.000    0.429    0.000    1.000 
#    0.000    0.000    0.000    0.000    0.000    0.000 
#
# Total GULP energy -156276.752659 kJ/mol
# GULP energy per Si atom -5581.312595 kJ/mol
# Density = 1.843933 g / cm^3
# Si number density = 18.481391 Si / 1000 Ang^3
#
#
#
# Elastic Constant Matrix: (Units=GPa)
#
#
# Indices 1 2 3 4 5 6 
#
# 1 35.0477 23.3824 25.3371 0.0000 9.0839 0.0000
# 2 23.3824 75.7337 28.2682 0.0000 -2.2058 0.0000
# 3 25.3371 28.2682 120.8584 0.0000 -5.4106 0.0000
# 4 0.0000 0.0000 0.0000 -19.6862 0.0000 -14.4838
# 5 9.0839 -2.2058 -5.4106 0.0000 21.9793 0.0000
# 6 0.0000 0.0000 0.0000 -14.4838 0.0000 13.9101
#
#
#
# Elastic Compliance Matrix: (Units=1/GPa)
#
#
# Indices 1 2 3 4 5 6 
#
# 1 0.049272 -0.012766 -0.008405 0.000000 -0.023714 0.000000
# 2 -0.012766 0.017783 -0.001180 0.000000 0.006770 0.000000
# 3 -0.008405 -0.001180 0.010579 0.000000 0.005960 0.000000
# 4 0.000000 0.000000 0.000000 -0.028763 0.000000 -0.029949
# 5 -0.023714 0.006770 0.005960 0.000000 0.057445 0.000000
# 6 0.000000 0.000000 0.000000 -0.029949 0.000000 0.040706
#
#
# Mechanical properties :
#
#
# Convention : Reuss Voigt Hill
#
# Bulk Modulus (GPa) = 30.36560 42.84614 36.60587
# Shear Modulus (GPa) = 24.66671 13.55079 19.10875
#
# Velocity S-wave (km/s) = 3.65729 2.71073 3.21899
# Velocity P-wave (km/s) = 5.85665 5.74727 5.80222
#
# Compressibility (1/GPa) = 0.03293200
#
# Stress axis : x y z
#
# Youngs Moduli (GPa) = 20.29541 56.23281 94.52618
#
# Poissons Ratio (x) = 0.71786 0.79452
# Poissons Ratio (y) = 0.25909 0.11155
# Poissons Ratio (z) = 0.17059 0.06636
#
# Static dielectric constant tensor:
#      x y z
#    x 1.623760 0.000000 0.001310 
#    y 0.000000 1.682810 0.000000 
#    z 0.001310 0.000000 1.685980 
# 
# From -- ./inp_files/67535.got.cif
#   From: 2010.05.17/outbox.cif.g08.bks.cpg/sg10_34_cif.got.tgz:67535.got - 2010.06.03 11:33:40.
