data_PCOD9144807
_publ_section_title
;
Structure prediction by ZEFSAII (Michael W. Deem and Ramdas Pophale) SiO2 
 PCOD9144807
Probable space group: P 2/M
;
_chemical_formula_sum "Si O2"
_cell_formula_units_Z 32
_cell_length_a 11.282294
_cell_length_b 8.714657
_cell_length_c 21.111720
_cell_angle_alpha 90.000000
_cell_angle_beta 53.487303
_cell_angle_gamma 90.000000
_cell_volume 1668.317938
_symmetry_space_group_name_H-M "P 2/M"
_symmetry_group_IT_number 10
_symmetry_cell_setting 'monoclinic'
loop_
_space_group_symop_operation_xyz
x,y,z
-x,y,-z
-x,-y,-z
x,-y,z
loop_
_atom_site_type_symbol
_atom_site_label
_atom_site_fract_x
_atom_site_fract_y
_atom_site_fract_z
Si Si1 0.821249 0.824967 0.550847
Si Si2 0.369161 0.687031 0.737428
Si Si3 0.599106 0.313568 0.410492
Si Si4 0.792925 0.316985 0.694076
Si Si5 0.931511 0.682059 0.117385
Si Si6 0.775706 0.682126 0.028987
Si Si7 0.129681 0.684310 0.597216
Si Si8 0.501730 0.818247 0.825052
O O1 0.766763 0.732059 0.629183
O O2 0.797744 0.749652 0.490029
O O3 0.000000 0.826553 0.500000
O O4 0.768366 0.000000 0.570360
O O5 0.375094 0.500000 0.740102
O O6 0.436271 0.737753 0.649198
O O7 0.196013 0.735148 0.794745
O O8 0.445511 0.754251 0.775049
O O9 0.500000 0.256928 0.500000
O O10 0.586245 0.500000 0.413565
O O11 0.766644 0.276675 0.376957
O O12 0.785282 0.500000 0.700771
O O13 0.667244 0.244807 0.777718
O O14 0.959882 0.265284 0.656890
O O15 0.949156 0.500000 0.122466
O O16 0.853696 0.698700 0.073253
O O17 0.098138 0.743850 0.058987
O O18 0.754237 0.500000 0.025806
O O19 0.617563 0.760692 0.085688
O O20 0.127846 0.500000 0.591031
O O21 0.502396 0.000000 0.823455
#
# Coordination Sequence:
#
# PCOD9144807 Si02
#       8
#     4   4   4   4   4   4   4   4
#     4   9  17  29  45  66  90 115 146 188 235 275
#     4   9  17  31  49  69  95 129 160 187 229 279
#     4   9  18  31  49  73  96 120 156 198 232 267
#     4  10  19  31  47  65  89 123 158 192 231 276
#     4   7  11  22  43  66  89 120 157 187 216 272
#     4   8  13  25  43  64  91 123 154 183 225 279
#     4   9  18  32  49  69  90 118 159 196 227 273
#     4  11  21  30  43  69 101 123 151 193 237 282
#
# _framework density 19.180997000000001
#
# number of rings (size 3 to 8) (size 9 to 14) (size 15 to 20)
#    0.000    3.000    0.000    3.375    1.750    2.000 
#    0.000    5.625    0.000    0.750    0.000    0.875 
#    0.000    7.000    0.000    0.000    0.000    0.000 
#
# Total GULP energy -178233.277975 kJ/mol
# GULP energy per Si atom -5569.789937 kJ/mol
# Density = 1.913734 g / cm^3
# Si number density = 19.180997 Si / 1000 Ang^3
#
#
#
# Elastic Constant Matrix: (Units=GPa)
#
#
# Indices 1 2 3 4 5 6 
#
# 1 33.0763 5.6432 10.8781 0.0000 -13.2520 0.0000
# 2 5.6432 37.2381 15.4272 0.0000 -12.6082 0.0000
# 3 10.8781 15.4272 87.2938 0.0000 -35.3547 0.0000
# 4 0.0000 0.0000 0.0000 4.1449 0.0000 -7.3528
# 5 -13.2520 -12.6082 -35.3547 0.0000 30.0517 0.0000
# 6 0.0000 0.0000 0.0000 -7.3528 0.0000 1.2050
#
#
#
# Elastic Compliance Matrix: (Units=1/GPa)
#
#
# Indices 1 2 3 4 5 6 
#
# 1 0.037389 -0.000169 0.003858 0.000000 0.020955 0.000000
# 2 -0.000169 0.031309 -0.000424 0.000000 0.012562 0.000000
# 3 0.003858 -0.000424 0.022285 0.000000 0.027740 0.000000
# 4 0.000000 0.000000 0.000000 -0.024557 0.000000 -0.149846
# 5 0.020955 0.012562 0.027740 0.000000 0.080422 0.000000
# 6 0.000000 0.000000 0.000000 -0.149846 0.000000 -0.084471
#
#
# Mechanical properties :
#
#
# Convention : Reuss Voigt Hill
#
# Bulk Modulus (GPa) = 10.25529 24.61168 17.43348
# Shear Modulus (GPa) = 56.59179 15.45765 36.02472
#
# Velocity S-wave (km/s) = 5.43766 2.84189 4.33846
# Velocity P-wave (km/s) = 6.69196 4.86082 5.84850
#
# Compressibility (1/GPa) = 0.09751066
#
# Stress axis : x y z
#
# Youngs Moduli (GPa) = 26.74593 31.93981 44.87331
#
# Poissons Ratio (x) = 0.00540 -0.17310
# Poissons Ratio (y) = 0.00452 0.01905
# Poissons Ratio (z) = -0.10317 0.01356
#
# Static dielectric constant tensor:
#      x y z
#    x 1.692730 0.000000 -0.046070 
#    y 0.000000 1.644710 0.000000 
#    z -0.046070 0.000000 1.723870 
# 
# From -- ./inp_files/55333.got.cif
#   From: 2010.05.17/outbox.cif.g08.bks.cpg/sg10_28_cif.got.tgz:55333.got - 2010.06.03 11:33:40.
