data_PCOD9144367
_publ_section_title
;
Structure prediction by ZEFSAII (Michael W. Deem and Ramdas Pophale) SiO2 
 PCOD9144367
Probable space group: P 2/M
;
_chemical_formula_sum "Si O2"
_cell_formula_units_Z 32
_cell_length_a 15.995538
_cell_length_b 8.516060
_cell_length_c 14.842407
_cell_angle_alpha 90.000000
_cell_angle_beta 91.194047
_cell_angle_gamma 90.000000
_cell_volume 2021.378236
_symmetry_space_group_name_H-M "P 2/M"
_symmetry_group_IT_number 10
_symmetry_cell_setting 'monoclinic'
loop_
_space_group_symop_operation_xyz
x,y,z
-x,y,-z
-x,-y,-z
x,-y,z
loop_
_atom_site_type_symbol
_atom_site_label
_atom_site_fract_x
_atom_site_fract_y
_atom_site_fract_z
Si Si1 0.988234 0.681493 0.391087
Si Si2 0.597980 0.191030 0.101143
Si Si3 0.171400 0.688339 0.384773
Si Si4 0.669444 0.811445 0.714849
Si Si5 0.491200 0.311461 0.395237
Si Si6 0.653735 0.809625 0.293827
Si Si7 0.187192 0.186674 0.587387
Si Si8 0.402791 0.808910 0.098577
O O1 0.977621 0.500000 0.363511
O O2 0.902714 0.772215 0.371714
O O3 0.000000 0.682881 0.500000
O O4 0.077257 0.744009 0.357989
O O5 0.649192 0.243054 0.189571
O O6 0.500432 0.235241 0.111975
O O7 0.599891 0.000000 0.100088
O O8 0.624629 0.243863 0.001845
O O9 0.169426 0.500000 0.382985
O O10 0.243400 0.750514 0.321868
O O11 0.190680 0.739474 0.487825
O O12 0.593586 0.753831 0.650171
O O13 0.649405 0.756196 0.816250
O O14 0.669719 0.000000 0.714001
O O15 0.500000 0.264263 0.500000
O O16 0.489513 0.500000 0.390852
O O17 0.570699 0.248689 0.342081
O O18 0.735997 0.757433 0.349393
O O19 0.652578 0.000000 0.294430
O O20 0.193609 0.000000 0.576977
O O21 0.400928 0.000000 0.098531
#
# Coordination Sequence:
#
# PCOD9144367 Si02
#       8
#     4   4   4   4   4   4   4   4
#     4   8  16  31  48  64  87 121 155 186 225 271
#     4   8  13  26  46  67  89 114 147 185 226 272
#     4  10  20  33  47  65  92 126 157 185 223 272
#     4  11  20  31  48  70  91 116 152 193 231 266
#     4  11  23  34  43  59  89 129 162 184 214 263
#     4  10  19  31  47  68  92 119 151 188 226 266
#     4  10  19  29  46  72  96 119 150 191 231 263
#     4   8  14  25  46  69  87 113 148 186 228 271
#
# _framework density 15.830783
#
# number of rings (size 3 to 8) (size 9 to 14) (size 15 to 20)
#    0.000    2.500    1.250    3.750    0.000    6.750 
#    0.000    0.000    0.000    2.250    0.000    0.875 
#    0.000    7.000    0.000    0.000    0.000    0.000 
#
# Total GULP energy -178343.642109 kJ/mol
# GULP energy per Si atom -5573.238816 kJ/mol
# Density = 1.579475 g / cm^3
# Si number density = 15.830783 Si / 1000 Ang^3
#
#
#
# Elastic Constant Matrix: (Units=GPa)
#
#
# Indices 1 2 3 4 5 6 
#
# 1 99.3258 10.8978 49.1459 0.0000 -24.8238 0.0000
# 2 10.8978 15.6606 12.6639 0.0000 -4.1073 0.0000
# 3 49.1459 12.6639 108.4218 0.0000 -19.5616 0.0000
# 4 0.0000 0.0000 0.0000 -0.2356 0.0000 9.8538
# 5 -24.8238 -4.1073 -19.5616 0.0000 13.0581 0.0000
# 6 0.0000 0.0000 0.0000 9.8538 0.0000 64.9630
#
#
#
# Elastic Compliance Matrix: (Units=1/GPa)
#
#
# Indices 1 2 3 4 5 6 
#
# 1 0.019997 -0.003044 -0.002772 0.000000 0.032905 0.000000
# 2 -0.003044 0.072755 -0.005527 0.000000 0.008817 0.000000
# 3 -0.002772 -0.005527 0.013513 0.000000 0.013235 0.000000
# 4 0.000000 0.000000 0.000000 -0.577954 0.000000 0.087666
# 5 0.032905 0.008817 0.013235 0.000000 0.161734 0.000000
# 6 0.000000 0.000000 0.000000 0.087666 0.000000 0.002096
#
#
# Mechanical properties :
#
#
# Convention : Reuss Voigt Hill
#
# Bulk Modulus (GPa) = 11.96480 40.98037 26.47258
# Shear Modulus (GPa) = -19.43164 25.60380 3.08608
#
# Velocity S-wave (km/s) = -3.50731 4.02598 1.39773
# Velocity P-wave (km/s) = 2.97108 6.89595 4.40039
#
# Compressibility (1/GPa) = 0.08357849
#
# Stress axis : x y z
#
# Youngs Moduli (GPa) = 50.00700 13.74478 74.00131
#
# Poissons Ratio (x) = 0.04184 0.20514
# Poissons Ratio (y) = 0.15222 0.40903
# Poissons Ratio (z) = 0.13862 0.07597
#
# Static dielectric constant tensor:
#      x y z
#    x 1.526130 0.000000 -0.001850 
#    y 0.000000 1.539550 0.000000 
#    z -0.001850 0.000000 1.535020 
# 
# From -- ./inp_files/66159.got.cif
#   From: 2010.05.17/outbox.cif.g08.bks.cpg/sg10_34_cif.got.tgz:66159.got - 2010.06.03 11:33:40.
