data_PCOD9144405
_publ_section_title
;
Structure prediction by ZEFSAII (Michael W. Deem and Ramdas Pophale) SiO2 
 PCOD9144405
Probable space group: P 2/M
;
_chemical_formula_sum "Si O2"
_cell_formula_units_Z 26
_cell_length_a 5.211282
_cell_length_b 13.698105
_cell_length_c 26.560328
_cell_angle_alpha 90.000000
_cell_angle_beta 119.597585
_cell_angle_gamma 90.000000
_cell_volume 1648.602492
_symmetry_space_group_name_H-M "P 2/M"
_symmetry_group_IT_number 10
_symmetry_cell_setting 'monoclinic'
loop_
_space_group_symop_operation_xyz
x,y,z
-x,y,-z
-x,-y,-z
x,-y,z
loop_
_atom_site_type_symbol
_atom_site_label
_atom_site_fract_x
_atom_site_fract_y
_atom_site_fract_z
Si Si1 0.805638 0.882822 0.233119
Si Si2 0.207324 0.119070 0.364652
Si Si3 0.116446 0.118895 0.565740
Si Si4 0.766863 0.803497 0.931434
Si Si5 0.109550 0.882405 0.160375
Si Si6 0.644856 0.000000 0.959642
Si Si7 0.645379 0.391943 0.959459
O O1 0.458207 0.866700 0.205513
O O2 0.998804 0.847124 0.298905
O O3 0.930734 0.848075 0.191728
O O4 0.846011 0.000000 0.235465
O O5 0.546482 0.148455 0.392031
O O6 0.083803 0.149848 0.406887
O O7 0.200961 0.000000 0.363432
O O8 0.000000 0.151329 0.500000
O O9 0.111272 0.000000 0.564434
O O10 0.935573 0.824453 0.895983
O O11 0.574280 0.900867 0.923208
O O12 0.597937 0.701076 0.918921
O O13 0.000000 0.800406 0.000000
O O14 0.067194 0.000000 0.147504
O O15 0.500000 0.000000 0.000000
O O16 0.000000 0.000000 0.000000
O O17 0.542220 0.500000 0.932717
O O18 0.500000 0.372638 0.000000
O O19 0.000000 0.398769 0.000000
#
# Coordination Sequence:
#
# PCOD9144405 Si02
#       7
#     4   4   4   4   4   2   4
#     4   9  18  29  40  51  70  99 132 158 190 233
#     4   9  15  24  35  46  64  92 119 150 190 232
#     4   9  15  21  32  50  68  85 113 154 198 233
#     4  10  20  33  46  64  83 106 128 164 212 256
#     4  10  19  30  40  56  75  98 128 163 194 239
#     4  10  20  30  42  60  82 104 126 150 193 256
#     4   9  18  32  48  64  81 102 128 156 193 248
#
# _framework density 15.770934
#
# number of rings (size 3 to 8) (size 9 to 14) (size 15 to 20)
#    0.000    2.615    0.769    1.846    0.000   10.462 
#    0.000    0.000    0.000    0.000    0.000    0.000 
#    0.000    0.000    0.000    0.000    0.000    0.000 
#
# Total GULP energy -144952.864556 kJ/mol
# GULP energy per Si atom -5575.110175 kJ/mol
# Density = 1.573504 g / cm^3
# Si number density = 15.770934 Si / 1000 Ang^3
#
#
#
# Elastic Constant Matrix: (Units=GPa)
#
#
# Indices 1 2 3 4 5 6 
#
# 1 61.9401 5.0575 -7.2226 0.0000 -9.2538 0.0000
# 2 5.0575 70.3474 2.9255 0.0000 -7.5117 0.0000
# 3 -7.2226 2.9255 53.6487 0.0000 0.1576 0.0000
# 4 0.0000 0.0000 0.0000 1.1904 0.0000 -1.9176
# 5 -9.2538 -7.5117 0.1576 0.0000 25.0083 0.0000
# 6 0.0000 0.0000 0.0000 -1.9176 0.0000 9.6120
#
#
#
# Elastic Compliance Matrix: (Units=1/GPa)
#
#
# Indices 1 2 3 4 5 6 
#
# 1 0.017405 -0.000685 0.002362 0.000000 0.006220 0.000000
# 2 -0.000685 0.014749 -0.000909 0.000000 0.004182 0.000000
# 3 0.002362 -0.000909 0.019006 0.000000 0.000481 0.000000
# 4 0.000000 0.000000 0.000000 1.237878 0.000000 0.246962
# 5 0.006220 0.004182 0.000481 0.000000 0.043541 0.000000
# 6 0.000000 0.000000 0.000000 0.246962 0.000000 0.153306
#
#
# Mechanical properties :
#
#
# Convention : Reuss Voigt Hill
#
# Bulk Modulus (GPa) = 18.97671 20.82856 19.90263
# Shear Modulus (GPa) = 3.32908 19.50720 11.41814
#
# Velocity S-wave (km/s) = 1.45447 3.52079 2.69364
# Velocity P-wave (km/s) = 3.85739 5.45559 4.72456
#
# Compressibility (1/GPa) = 0.05269618
#
# Stress axis : x y z
#
# Youngs Moduli (GPa) = 57.45386 67.80206 52.61512
#
# Poissons Ratio (x) = 0.04647 -0.12429
# Poissons Ratio (y) = 0.03938 0.04782
# Poissons Ratio (z) = -0.13572 0.06162
#
# Static dielectric constant tensor:
#      x y z
#    x 1.510200 0.000000 -0.040020 
#    y 0.000000 1.545650 0.000000 
#    z -0.040020 0.000000 1.502590 
# 
# From -- ./inp_files/12543.got.cif
#   From: 2010.05.17/outbox.cif.g08.bks.cpg/sg10_7_cif.got.tgz:12543.got - 2010.06.03 11:33:40.
