data_PCOD9144602
_publ_section_title
;
Structure prediction by ZEFSAII (Michael W. Deem and Ramdas Pophale) SiO2 
 PCOD9144602
Probable space group: P 2/M
;
_chemical_formula_sum "Si O2"
_cell_formula_units_Z 20
_cell_length_a 32.168695
_cell_length_b 8.078792
_cell_length_c 13.915076
_cell_angle_alpha 90.000000
_cell_angle_beta 165.178854
_cell_angle_gamma 90.000000
_cell_volume 925.060943
_symmetry_space_group_name_H-M "P 2/M"
_symmetry_group_IT_number 10
_symmetry_cell_setting 'monoclinic'
loop_
_space_group_symop_operation_xyz
x,y,z
-x,y,-z
-x,-y,-z
x,-y,z
loop_
_atom_site_type_symbol
_atom_site_label
_atom_site_fract_x
_atom_site_fract_y
_atom_site_fract_z
Si Si1 0.217043 0.805638 0.696319
Si Si2 0.321706 0.801404 0.134339
Si Si3 0.669340 0.179304 0.438610
Si Si4 0.876096 0.500000 0.634190
Si Si5 0.311775 0.500000 0.611399
Si Si6 0.581067 0.302344 0.452698
O O1 0.124127 0.666431 0.428538
O O2 0.177264 0.000000 0.591523
O O3 0.205667 0.765442 0.784907
O O4 0.407235 0.779133 0.092207
O O5 0.500000 0.737011 0.500000
O O6 0.297262 0.737195 0.186961
O O7 0.331164 0.000000 0.161106
O O8 0.759529 0.333057 0.592102
O O9 0.633778 0.225251 0.469109
O O10 0.749714 0.000000 0.611156
O O11 0.500000 0.167964 0.000000
O O12 0.707544 0.500000 0.318596
O O13 0.000000 0.500000 0.000000
O O14 0.500000 0.500000 0.000000
O O15 0.571086 0.500000 0.424284
#
# Coordination Sequence:
#
# PCOD9144602 Si02
#       6
#     4   4   4   2   2   4
#     4  10  20  35  53  75 109 152 189 226 280 340
#     4   8  16  28  45  74 110 145 182 224 275 341
#     4  10  19  30  47  72 106 145 179 217 265 321
#     4  12  26  40  58  84 114 146 191 241 281 327
#     4  10  20  36  55  78 106 140 187 225 271 331
#     4  11  18  27  50  83 117 146 180 230 288 336
#
# _framework density 21.620197000000001
#
# number of rings (size 3 to 8) (size 9 to 14) (size 15 to 20)
#    0.000    2.000    2.000    5.400    1.400    4.000 
#    0.000    0.000    0.000    0.000    0.000    2.800 
#    0.000    4.800    0.000    0.000    0.000    0.000 
#
# Total GULP energy -111561.745054 kJ/mol
# GULP energy per Si atom -5578.087253 kJ/mol
# Density = 2.157099 g / cm^3
# Si number density = 21.620197 Si / 1000 Ang^3
#
#
#
# Elastic Constant Matrix: (Units=GPa)
#
#
# Indices 1 2 3 4 5 6 
#
# 1 110.3811 57.4818 45.7647 0.0000 -55.5983 0.0000
# 2 57.4818 188.7649 58.8248 0.0000 -42.8916 0.0000
# 3 45.7647 58.8248 82.6712 0.0000 -36.9402 0.0000
# 4 0.0000 0.0000 0.0000 29.9478 0.0000 -29.8852
# 5 -55.5983 -42.8916 -36.9402 0.0000 45.7908 0.0000
# 6 0.0000 0.0000 0.0000 -29.8852 0.0000 32.9522
#
#
#
# Elastic Compliance Matrix: (Units=1/GPa)
#
#
# Indices 1 2 3 4 5 6 
#
# 1 0.023431 -0.000850 -0.000015 0.000000 0.027641 0.000000
# 2 -0.000850 0.007304 -0.003332 0.000000 0.003122 0.000000
# 3 -0.000015 -0.003332 0.020441 0.000000 0.013351 0.000000
# 4 0.000000 0.000000 0.000000 0.351599 0.000000 0.318874
# 5 0.027641 0.003122 0.013351 0.000000 0.069095 0.000000
# 6 0.000000 0.000000 0.000000 0.318874 0.000000 0.319542
#
#
# Mechanical properties :
#
#
# Convention : Reuss Voigt Hill
#
# Bulk Modulus (GPa) = 23.37394 78.43996 50.90695
# Shear Modulus (GPa) = 6.14201 36.38789 21.26495
#
# Velocity S-wave (km/s) = 1.68732 4.10695 3.13959
# Velocity P-wave (km/s) = 3.82501 7.67131 6.06134
#
# Compressibility (1/GPa) = 0.04278269
#
# Stress axis : x y z
#
# Youngs Moduli (GPa) = 42.67830 136.91074 48.92198
#
# Poissons Ratio (x) = 0.11632 0.00074
# Poissons Ratio (y) = 0.03626 0.16300
# Poissons Ratio (z) = 0.00065 0.45615
#
# Static dielectric constant tensor:
#      x y z
#    x 1.802270 0.000000 0.011110 
#    y 0.000000 1.814030 0.000000 
#    z 0.011110 0.000000 1.872560 
# 
# From -- ./inp_files/58064.got.cif
#   From: 2010.05.17/outbox.cif.g08.bks.cpg/sg10_30_cif.got.tgz:58064.got - 2010.06.03 11:33:40.
