data_PCOD9144409
_publ_section_title
;
Structure prediction by ZEFSAII (Michael W. Deem and Ramdas Pophale) SiO2 
 PCOD9144409
Probable space group: P 2/M
;
_chemical_formula_sum "Si O2"
_cell_formula_units_Z 28
_cell_length_a 33.541140
_cell_length_b 13.869142
_cell_length_c 30.895915
_cell_angle_alpha 90.000000
_cell_angle_beta 171.757338
_cell_angle_gamma 90.000000
_cell_volume 2060.507796
_symmetry_space_group_name_H-M "P 2/M"
_symmetry_group_IT_number 10
_symmetry_cell_setting 'monoclinic'
loop_
_space_group_symop_operation_xyz
x,y,z
-x,y,-z
-x,-y,-z
x,-y,z
loop_
_atom_site_type_symbol
_atom_site_label
_atom_site_fract_x
_atom_site_fract_y
_atom_site_fract_z
Si Si1 0.486213 0.116755 0.180724
Si Si2 0.145338 0.610144 0.703468
Si Si3 0.597486 0.882545 0.736472
Si Si4 0.679741 0.117549 0.651639
Si Si5 0.355713 0.272314 0.798003
Si Si6 0.761856 0.117633 0.566609
Si Si7 0.159525 0.116054 0.523307
O O1 0.623891 0.150434 0.373461
O O2 0.666796 0.143805 0.332901
O O3 0.490860 0.000000 0.187225
O O4 0.163590 0.143801 0.829703
O O5 0.189534 0.500000 0.765358
O O6 0.000000 0.605855 0.500000
O O7 0.926742 0.667472 0.498075
O O8 0.429996 0.667443 0.001328
O O9 0.458837 0.851681 0.542368
O O10 0.417486 0.852254 0.584514
O O11 0.596639 0.000000 0.735287
O O12 0.917698 0.852254 0.084726
O O13 0.500000 0.147832 0.500000
O O14 0.679230 0.000000 0.650924
O O15 0.000000 0.147832 0.000000
O O16 0.284633 0.172266 0.698470
O O17 0.500000 0.258558 0.000000
O O18 0.760596 0.000000 0.564845
O O19 0.175733 0.000000 0.545995
#
# Coordination Sequence:
#
# PCOD9144409 Si02
#       7
#     4   4   4   4   4   4   4
#     4   9  17  28  40  52  68  93 122 153 188 221
#     4   9  17  30  47  65  83 101 123 154 189 221
#     4   9  15  21  30  43  56  72  98 134 172 211
#     4   9  15  21  27  36  53  75  95 118 158 215
#     4  10  19  30  45  64  83 104 129 154 183 224
#     4   9  15  23  34  46  58  74 104 144 179 209
#     4  10  19  30  42  57  79 105 130 154 184 226
#
# _framework density 13.588882999999999
#
# number of rings (size 3 to 8) (size 9 to 14) (size 15 to 20)
#    0.000    2.714    0.000    3.000    0.000    8.857 
#    0.000    0.000    0.000    5.143    0.000    0.000 
#    0.000    0.000    0.000    0.000    0.000    0.000 
#
# Total GULP energy -155932.273123 kJ/mol
# GULP energy per Si atom -5569.009754 kJ/mol
# Density = 1.355795 g / cm^3
# Si number density = 13.588883 Si / 1000 Ang^3
#
#
#
# Elastic Constant Matrix: (Units=GPa)
#
#
# Indices 1 2 3 4 5 6 
#
# 1 105.3784 29.9359 80.3814 0.0000 10.2270 0.0000
# 2 29.9359 30.2185 29.7676 0.0000 -0.2792 0.0000
# 3 80.3814 29.7676 117.0467 0.0000 16.7196 0.0000
# 4 0.0000 0.0000 0.0000 3.9961 0.0000 3.0271
# 5 10.2270 -0.2792 16.7196 0.0000 29.5152 0.0000
# 6 0.0000 0.0000 0.0000 3.0271 0.0000 2.6687
#
#
#
# Elastic Compliance Matrix: (Units=1/GPa)
#
#
# Indices 1 2 3 4 5 6 
#
# 1 0.021654 -0.009183 -0.012459 0.000000 -0.000532 0.000000
# 2 -0.009183 0.049575 -0.007424 0.000000 0.007856 0.000000
# 3 -0.012459 -0.007424 0.020000 0.000000 -0.007082 0.000000
# 4 0.000000 0.000000 0.000000 1.778028 0.000000 -2.016804
# 5 -0.000532 0.007856 -0.007082 0.000000 0.038151 0.000000
# 6 0.000000 0.000000 0.000000 -2.016804 0.000000 2.662355
#
#
# Mechanical properties :
#
#
# Convention : Reuss Voigt Hill
#
# Bulk Modulus (GPa) = 30.21473 59.20150 44.70811
# Shear Modulus (GPa) = 1.07784 14.73992 7.90888
#
# Velocity S-wave (km/s) = 0.89157 3.29706 2.41511
# Velocity P-wave (km/s) = 4.83146 7.62593 6.38349
#
# Compressibility (1/GPa) = 0.03309644
#
# Stress axis : x y z
#
# Youngs Moduli (GPa) = 46.18185 20.17139 50.00082
#
# Poissons Ratio (x) = 0.18523 0.62297
# Poissons Ratio (y) = 0.42407 0.37121
# Poissons Ratio (z) = 0.57539 0.14976
#
# Static dielectric constant tensor:
#      x y z
#    x 1.449780 0.000000 0.008080 
#    y 0.000000 1.404940 0.000000 
#    z 0.008080 0.000000 1.453330 
# 
# From -- ./inp_files/13062.got.cif
#   From: 2010.05.17/outbox.cif.g08.bks.cpg/sg10_7_cif.got.tgz:13062.got - 2010.06.03 11:33:40.
