data_PCOD9144922
_publ_section_title
;
Structure prediction by ZEFSAII (Michael W. Deem and Ramdas Pophale) SiO2 
 PCOD9144922
Probable space group: P 2/M
;
_chemical_formula_sum "Si O2"
_cell_formula_units_Z 32
_cell_length_a 9.644995
_cell_length_b 14.638079
_cell_length_c 14.780140
_cell_angle_alpha 90.000000
_cell_angle_beta 61.035919
_cell_angle_gamma 90.000000
_cell_volume 1825.722238
_symmetry_space_group_name_H-M "P 2/M"
_symmetry_group_IT_number 10
_symmetry_cell_setting 'monoclinic'
loop_
_space_group_symop_operation_xyz
x,y,z
-x,y,-z
-x,-y,-z
x,-y,z
loop_
_atom_site_type_symbol
_atom_site_label
_atom_site_fract_x
_atom_site_fract_y
_atom_site_fract_z
Si Si1 0.811696 0.102780 0.552205
Si Si2 0.815437 0.103738 0.029626
Si Si3 0.138361 0.893160 0.669207
Si Si4 0.224388 0.891776 0.168922
Si Si5 0.628179 0.233476 0.739189
Si Si6 0.709120 0.227329 0.225311
Si Si7 0.498182 0.607346 0.106118
Si Si8 0.834246 0.394210 0.101470
O O1 0.786425 0.118040 0.453510
O O2 0.754816 0.186091 0.632062
O O3 0.000000 0.096119 0.500000
O O4 0.748325 0.000000 0.597793
O O5 0.740297 0.174708 0.121386
O O6 0.754821 0.000000 0.061280
O O7 0.790719 0.129455 0.932895
O O8 0.000000 0.102290 0.000000
O O9 0.228316 0.833196 0.713534
O O10 0.949994 0.871768 0.733600
O O11 0.149526 0.000000 0.691007
O O12 0.358407 0.836769 0.180163
O O13 0.251916 0.000000 0.168566
O O14 0.477625 0.238847 0.720559
O O15 0.617288 0.330489 0.795500
O O16 0.801517 0.322779 0.191205
O O17 0.454743 0.500000 0.124838
O O18 0.678705 0.615712 0.086762
O O19 0.500000 0.634784 0.000000
O O20 0.842758 0.500000 0.127102
O O21 0.000000 0.371843 0.000000
#
# Coordination Sequence:
#
# PCOD9144922 Si02
#       8
#     4   4   4   4   4   4   4   4
#     4  10  20  38  59  79 105 144 192 235 272 317
#     4  10  19  31  48  72 107 144 177 212 264 327
#     4  10  20  35  56  78 104 143 187 225 268 321
#     4  10  20  33  51  76 106 146 187 219 261 328
#     4  11  23  34  56  81 108 140 184 227 275 324
#     4  11  22  33  51  81 112 139 175 228 278 323
#     4   9  20  38  58  83 115 145 176 221 278 334
#     4   9  19  35  55  78 107 144 181 218 263 323
#
# _framework density 17.527308999999999
#
# number of rings (size 3 to 8) (size 9 to 14) (size 15 to 20)
#    0.000    2.000    2.500    1.125    3.500    2.500 
#    0.000    2.500    0.000    1.125    0.000    3.500 
#    0.000    0.000    0.000    0.000    0.000    0.000 
#
# Total GULP energy -178249.951358 kJ/mol
# GULP energy per Si atom -5570.310980 kJ/mol
# Density = 1.748742 g / cm^3
# Si number density = 17.527309 Si / 1000 Ang^3
#
#
#
# Elastic Constant Matrix: (Units=GPa)
#
#
# Indices 1 2 3 4 5 6 
#
# 1 52.3024 39.2675 21.5594 0.0000 16.6100 0.0000
# 2 39.2675 82.3688 53.7548 0.0000 6.7128 0.0000
# 3 21.5594 53.7548 74.4421 0.0000 10.5698 0.0000
# 4 0.0000 0.0000 0.0000 19.4566 0.0000 -3.5896
# 5 16.6100 6.7128 10.5698 0.0000 24.1319 0.0000
# 6 0.0000 0.0000 0.0000 -3.5896 0.0000 22.0701
#
#
#
# Elastic Compliance Matrix: (Units=1/GPa)
#
#
# Indices 1 2 3 4 5 6 
#
# 1 0.040928 -0.022808 0.008227 0.000000 -0.025430 0.000000
# 2 -0.022808 0.035691 -0.021312 0.000000 0.015105 0.000000
# 3 0.008227 -0.021312 0.028153 0.000000 -0.012066 0.000000
# 4 0.000000 0.000000 0.000000 0.052986 0.000000 0.008618
# 5 -0.025430 0.015105 -0.012066 0.000000 0.060025 0.000000
# 6 0.000000 0.000000 0.000000 0.008618 0.000000 0.046712
#
#
# Mechanical properties :
#
#
# Convention : Reuss Voigt Hill
#
# Bulk Modulus (GPa) = 30.31538 48.69740 39.50639
# Shear Modulus (GPa) = 14.39776 19.43384 16.91580
#
# Velocity S-wave (km/s) = 2.86920 3.33344 3.10999
# Velocity P-wave (km/s) = 5.32072 6.53145 5.95692
#
# Compressibility (1/GPa) = 0.03298655
#
# Stress axis : x y z
#
# Youngs Moduli (GPa) = 24.43316 28.01814 35.52015
#
# Poissons Ratio (x) = 0.63905 -0.29224
# Poissons Ratio (y) = 0.55728 0.75700
# Poissons Ratio (z) = -0.20102 0.59712
#
# Static dielectric constant tensor:
#      x y z
#    x 1.668200 0.000000 -0.030790 
#    y 0.000000 1.607950 0.000000 
#    z -0.030790 0.000000 1.627740 
# 
# From -- ./inp_files/29514.got.cif
#   From: 2010.05.17/outbox.cif.g08.bks.cpg/sg10_15_cif.got.tgz:29514.got - 2010.06.03 11:33:40.
