data_PCOD9144130
_publ_section_title
;
Structure prediction by ZEFSAII (Michael W. Deem and Ramdas Pophale) SiO2 
 PCOD9144130
Probable space group: P 2/M
;
_chemical_formula_sum "Si O2"
_cell_formula_units_Z 20
_cell_length_a 10.453564
_cell_length_b 12.029693
_cell_length_c 7.583984
_cell_angle_alpha 90.000000
_cell_angle_beta 62.477403
_cell_angle_gamma 90.000000
_cell_volume 845.777353
_symmetry_space_group_name_H-M "P 2/M"
_symmetry_group_IT_number 10
_symmetry_cell_setting 'monoclinic'
loop_
_space_group_symop_operation_xyz
x,y,z
-x,y,-z
-x,-y,-z
x,-y,z
loop_
_atom_site_type_symbol
_atom_site_label
_atom_site_fract_x
_atom_site_fract_y
_atom_site_fract_z
Si Si1 0.970950 0.000000 0.807929
Si Si2 0.669025 0.371751 0.523319
Si Si3 0.925491 0.236677 0.240362
Si Si4 0.580531 0.242284 0.139782
Si Si5 0.824298 0.624769 0.804385
Si Si6 0.628197 0.000000 0.065174
O O1 0.796336 0.000000 0.890028
O O2 0.047561 0.886364 0.697702
O O3 0.000000 0.000000 0.000000
O O4 0.663931 0.500000 0.461525
O O5 0.764159 0.284358 0.351225
O O6 0.515107 0.319454 0.674126
O O7 0.750127 0.376048 0.661476
O O8 0.018765 0.323883 0.291538
O O9 0.000000 0.236444 0.000000
O O10 0.500000 0.235246 0.000000
O O11 0.727790 0.300179 0.991997
O O12 0.606757 0.115459 0.182099
O O13 0.828515 0.500000 0.870438
O O14 0.500000 0.000000 0.000000
#
# Coordination Sequence:
#
# PCOD9144130 Si02
#       6
#     2   4   4   4   4   2
#     4  10  22  41  63  86 123 168 208 248 312 383
#     4  10  21  37  58  90 123 155 202 256 307 366
#     4  11  23  39  59  81 120 162 204 248 306 370
#     4   9  18  33  58  86 120 151 195 253 312 354
#     4  10  19  35  59  85 116 158 198 250 309 363
#     4  10  18  35  64  95 120 153 211 267 303 360
#
# _framework density 23.646884
#
# number of rings (size 3 to 8) (size 9 to 14) (size 15 to 20)
#    0.000    2.000    2.000    1.800    0.000    6.400 
#    0.000    4.000    0.000    4.800    0.000    0.000 
#    0.000    0.000    0.000    0.000    0.000    0.000 
#
# Total GULP energy -111796.988068 kJ/mol
# GULP energy per Si atom -5589.849403 kJ/mol
# Density = 2.359306 g / cm^3
# Si number density = 23.646884 Si / 1000 Ang^3
#
#
#
# Elastic Constant Matrix: (Units=GPa)
#
#
# Indices 1 2 3 4 5 6 
#
# 1 91.3490 29.4280 22.5300 0.0000 -25.6116 0.0000
# 2 29.4280 181.6135 38.2201 0.0000 -23.3852 0.0000
# 3 22.5300 38.2201 96.8718 0.0000 -24.9542 0.0000
# 4 0.0000 0.0000 0.0000 10.5842 0.0000 6.8922
# 5 -25.6116 -23.3852 -24.9542 0.0000 53.4456 0.0000
# 6 0.0000 0.0000 0.0000 6.8922 0.0000 35.5168
#
#
#
# Elastic Compliance Matrix: (Units=1/GPa)
#
#
# Indices 1 2 3 4 5 6 
#
# 1 0.013087 -0.001194 -0.001241 0.000000 0.005170 0.000000
# 2 -0.001194 0.006258 -0.001857 0.000000 0.001299 0.000000
# 3 -0.001241 -0.001857 0.012483 0.000000 0.004421 0.000000
# 4 0.000000 0.000000 0.000000 0.108146 0.000000 -0.020986
# 5 0.005170 0.001299 0.004421 0.000000 0.023821 0.000000
# 6 0.000000 0.000000 0.000000 -0.020986 0.000000 0.032228
#
#
# Mechanical properties :
#
#
# Convention : Reuss Voigt Hill
#
# Bulk Modulus (GPa) = 43.02018 61.13229 52.07624
# Shear Modulus (GPa) = 23.54558 38.55306 31.04932
#
# Velocity S-wave (km/s) = 3.15892 4.04216 3.62752
# Velocity P-wave (km/s) = 5.61581 6.90606 6.29408
#
# Compressibility (1/GPa) = 0.02324491
#
# Stress axis : x y z
#
# Youngs Moduli (GPa) = 76.41113 159.80497 80.10887
#
# Poissons Ratio (x) = 0.19077 0.09942
# Poissons Ratio (y) = 0.09122 0.14873
# Poissons Ratio (z) = 0.09483 0.29670
#
# Static dielectric constant tensor:
#      x y z
#    x 1.942640 0.000000 0.076490 
#    y 0.000000 1.875690 0.000000 
#    z 0.076490 0.000000 1.889140 
# 
# From -- ./inp_files/23894.got.cif
#   From: 2010.05.17/outbox.cif.g08.bks.cpg/sg10_12_cif.got.tgz:23894.got - 2010.06.03 11:33:40.
