data_PCOD9144963
_publ_section_title
;
Structure prediction by ZEFSAII (Michael W. Deem and Ramdas Pophale) SiO2 
 PCOD9144963
Probable space group: P 2/M
;
_chemical_formula_sum "Si O2"
_cell_formula_units_Z 32
_cell_length_a 11.687724
_cell_length_b 8.663404
_cell_length_c 15.057589
_cell_angle_alpha 90.000000
_cell_angle_beta 106.694165
_cell_angle_gamma 90.000000
_cell_volume 1460.401440
_symmetry_space_group_name_H-M "P 2/M"
_symmetry_group_IT_number 10
_symmetry_cell_setting 'monoclinic'
loop_
_space_group_symop_operation_xyz
x,y,z
-x,y,-z
-x,-y,-z
x,-y,z
loop_
_atom_site_type_symbol
_atom_site_label
_atom_site_fract_x
_atom_site_fract_y
_atom_site_fract_z
Si Si1 0.879299 0.673354 0.745392
Si Si2 0.368783 0.180913 0.833495
Si Si3 0.621695 0.315651 0.692486
Si Si4 0.129105 0.680819 0.557682
Si Si5 0.129890 0.674079 0.044376
Si Si6 0.622165 0.820573 0.381630
Si Si7 0.880398 0.183271 0.252943
Si Si8 0.375857 0.816262 0.108505
O O1 0.909658 0.500000 0.719897
O O2 0.750283 0.718988 0.677058
O O3 0.860517 0.663675 0.846902
O O4 0.989543 0.785793 0.756308
O O5 0.370011 0.193244 0.725336
O O6 0.235808 0.232232 0.830172
O O7 0.494947 0.247796 0.894281
O O8 0.374229 0.000000 0.857936
O O9 0.620074 0.500000 0.708876
O O10 0.498611 0.267738 0.618388
O O11 0.623529 0.224675 0.786417
O O12 0.133299 0.500000 0.536981
O O13 0.252483 0.757557 0.553441
O O14 0.126674 0.712214 0.661715
O O15 0.000000 0.745279 0.500000
O O16 0.124187 0.500000 0.005523
O O17 0.252976 0.751657 0.042111
O O18 0.000000 0.749896 0.000000
O O19 0.609526 0.000000 0.399498
O O20 0.867058 0.000000 0.270774
O O21 0.374477 0.000000 0.097730
#
# Coordination Sequence:
#
# PCOD9144963 Si02
#       8
#     4   4   4   4   4   4   4   4
#     4   9  18  31  47  69  96 125 158 197 239 284
#     4   7  13  25  40  62  89 115 145 185 229 269
#     4   9  16  27  44  66  93 124 157 194 237 281
#     4  10  20  33  50  72  98 128 160 193 233 283
#     4   9  18  32  48  67  94 126 158 195 240 289
#     4   9  16  27  45  69  95 121 154 197 238 276
#     4  10  19  31  49  71  96 126 158 194 238 285
#     4   9  15  25  43  66  91 116 150 197 240 278
#
# _framework density 21.911783
#
# number of rings (size 3 to 8) (size 9 to 14) (size 15 to 20)
#    0.000    3.000    0.000    4.125    0.000    3.750 
#    0.000    1.875    0.000    1.500    0.000   10.500 
#    0.000    0.000    0.000    0.000    0.000    0.000 
#
# Total GULP energy -178187.738076 kJ/mol
# GULP energy per Si atom -5568.366815 kJ/mol
# Density = 2.186191 g / cm^3
# Si number density = 21.911783 Si / 1000 Ang^3
#
#
#
# Elastic Constant Matrix: (Units=GPa)
#
#
# Indices 1 2 3 4 5 6 
#
# 1 150.6668 35.8741 53.4536 0.0000 79.7368 0.0000
# 2 35.8741 36.7443 13.2428 0.0000 25.4909 0.0000
# 3 53.4536 13.2428 57.5910 0.0000 36.5902 0.0000
# 4 0.0000 0.0000 0.0000 7.5020 0.0000 15.6144
# 5 79.7368 25.4909 36.5902 0.0000 57.8642 0.0000
# 6 0.0000 0.0000 0.0000 15.6144 0.0000 57.1382
#
#
#
# Elastic Compliance Matrix: (Units=1/GPa)
#
#
# Indices 1 2 3 4 5 6 
#
# 1 0.024702 -0.000978 -0.002256 0.000000 -0.032181 0.000000
# 2 -0.000978 0.039604 0.003392 0.000000 -0.018244 0.000000
# 3 -0.002256 0.003392 0.029506 0.000000 -0.017044 0.000000
# 4 0.000000 0.000000 0.000000 0.309123 0.000000 -0.084475
# 5 -0.032181 -0.018244 -0.017044 0.000000 0.080443 0.000000
# 6 0.000000 0.000000 0.000000 -0.084475 0.000000 0.040586
#
#
# Mechanical properties :
#
#
# Convention : Reuss Voigt Hill
#
# Bulk Modulus (GPa) = 10.62371 50.01589 30.31980
# Shear Modulus (GPa) = 9.00863 33.99632 21.50247
#
# Velocity S-wave (km/s) = 2.02984 3.94319 3.13600
# Velocity P-wave (km/s) = 3.21754 6.60358 5.19422
#
# Compressibility (1/GPa) = 0.09412905
#
# Stress axis : x y z
#
# Youngs Moduli (GPa) = 40.48314 25.24994 33.89089
#
# Poissons Ratio (x) = 0.02470 0.07645
# Poissons Ratio (y) = 0.03960 -0.11497
# Poissons Ratio (z) = 0.09132 -0.08566
#
# Static dielectric constant tensor:
#      x y z
#    x 1.899550 0.000000 0.027180 
#    y 0.000000 1.761860 0.000000 
#    z 0.027180 0.000000 1.877770 
# 
# From -- ./inp_files/83371.got.cif
#   From: 2010.05.17/outbox.cif.g08.bks.cpg/sg10_42_cif.got.tgz:83371.got - 2010.06.03 11:33:40.
