data_PCOD9144239
_publ_section_title
;
Structure prediction by ZEFSAII (Michael W. Deem and Ramdas Pophale) SiO2 
 PCOD9144239
Probable space group: P 2/M
;
_chemical_formula_sum "Si O2"
_cell_formula_units_Z 32
_cell_length_a 28.502495
_cell_length_b 7.363569
_cell_length_c 12.203315
_cell_angle_alpha 90.000000
_cell_angle_beta 146.472041
_cell_angle_gamma 90.000000
_cell_volume 1414.681169
_symmetry_space_group_name_H-M "P 2/M"
_symmetry_group_IT_number 10
_symmetry_cell_setting 'monoclinic'
loop_
_space_group_symop_operation_xyz
x,y,z
-x,y,-z
-x,-y,-z
x,-y,z
loop_
_atom_site_type_symbol
_atom_site_label
_atom_site_fract_x
_atom_site_fract_y
_atom_site_fract_z
Si Si1 0.578187 0.220323 0.574415
Si Si2 0.381481 0.778190 0.933736
Si Si3 0.311694 0.212430 0.024105
Si Si4 0.919393 0.212846 0.912124
Si Si5 0.046938 0.719061 0.767116
Si Si6 0.268345 0.221566 0.516084
Si Si7 0.121332 0.718009 0.685183
Si Si8 0.569295 0.221753 0.307665
O O1 0.500000 0.271207 0.500000
O O2 0.572774 0.283095 0.440283
O O3 0.576918 0.000000 0.562632
O O4 0.659816 0.282348 0.802082
O O5 0.362147 0.713058 0.018678
O O6 0.304755 0.724270 0.705346
O O7 0.381685 0.000000 0.934070
O O8 0.476251 0.723557 0.082346
O O9 0.212034 0.229791 0.816251
O O10 0.334027 0.000000 0.069221
O O11 0.826050 0.286417 0.697961
O O12 0.915876 0.000000 0.876917
O O13 0.933220 0.224959 0.070292
O O14 0.000000 0.287923 0.000000
O O15 0.048202 0.500000 0.771440
O O16 0.108056 0.779277 0.785669
O O17 0.954776 0.779028 0.542238
O O18 0.344919 0.280036 0.585202
O O19 0.266136 0.000000 0.507501
O O20 0.116028 0.500000 0.677698
O O21 0.569818 0.000000 0.303871
#
# Coordination Sequence:
#
# PCOD9144239 Si02
#       8
#     4   4   4   4   4   4   4   4
#     4   9  15  25  39  66 104 133 162 205 253 295
#     4   9  16  27  43  68 101 137 176 211 247 296
#     4  10  19  28  49  79 105 134 167 207 257 314
#     4  10  22  36  52  79 114 142 165 212 273 314
#     4   9  20  40  60  75  98 135 178 217 256 310
#     4   9  18  29  43  66 101 140 173 207 254 306
#     4   9  20  38  57  77 102 133 170 218 266 307
#     4   9  15  25  42  64  97 139 175 209 248 297
#
# _framework density 22.619938000000001
#
# number of rings (size 3 to 8) (size 9 to 14) (size 15 to 20)
#    0.000    2.750    1.250    1.125    3.500    2.750 
#    0.000    1.250    0.000    0.375    0.000    0.875 
#    0.000    2.000    0.000    0.000    0.000    0.000 
#
# Total GULP energy -178574.071842 kJ/mol
# GULP energy per Si atom -5580.439745 kJ/mol
# Density = 2.256845 g / cm^3
# Si number density = 22.619938 Si / 1000 Ang^3
#
#
#
# Elastic Constant Matrix: (Units=GPa)
#
#
# Indices 1 2 3 4 5 6 
#
# 1 101.3320 -2.8898 78.1838 0.0000 9.5683 0.0000
# 2 -2.8898 76.0573 -1.3231 0.0000 0.8439 0.0000
# 3 78.1838 -1.3231 166.2842 0.0000 5.9525 0.0000
# 4 0.0000 0.0000 0.0000 56.9717 0.0000 14.8872
# 5 9.5683 0.8439 5.9525 0.0000 37.1743 0.0000
# 6 0.0000 0.0000 0.0000 14.8872 0.0000 7.9721
#
#
#
# Elastic Compliance Matrix: (Units=1/GPa)
#
#
# Indices 1 2 3 4 5 6 
#
# 1 0.015809 0.000505 -0.007325 0.000000 -0.002908 0.000000
# 2 0.000505 0.013170 -0.000118 0.000000 -0.000410 0.000000
# 3 -0.007325 -0.000118 0.009444 0.000000 0.000376 0.000000
# 4 0.000000 0.000000 0.000000 0.034281 0.000000 -0.064016
# 5 -0.002908 -0.000410 0.000376 0.000000 0.027598 0.000000
# 6 0.000000 0.000000 0.000000 -0.064016 0.000000 0.244983
#
#
# Mechanical properties :
#
#
# Convention : Reuss Voigt Hill
#
# Bulk Modulus (GPa) = 40.73841 54.62392 47.68117
# Shear Modulus (GPa) = 13.61130 38.40378 26.00754
#
# Velocity S-wave (km/s) = 2.45570 4.12489 3.39449
# Velocity P-wave (km/s) = 5.10780 6.84743 6.04057
#
# Compressibility (1/GPa) = 0.02454686
#
# Stress axis : x y z
#
# Youngs Moduli (GPa) = 63.25387 75.93194 105.89240
#
# Poissons Ratio (x) = -0.03838 0.77568
# Poissons Ratio (y) = -0.03197 0.01252
# Poissons Ratio (z) = 0.46334 0.00898
#
# Static dielectric constant tensor:
#      x y z
#    x 1.806240 0.000000 0.000180 
#    y 0.000000 1.893220 0.000000 
#    z 0.000180 0.000000 1.838390 
# 
# From -- ./inp_files/58302.got.cif
#   From: 2010.05.17/outbox.cif.g08.bks.cpg/sg10_30_cif.got.tgz:58302.got - 2010.06.03 11:33:40.
