data_PCOD9144732
_publ_section_title
;
Structure prediction by ZEFSAII (Michael W. Deem and Ramdas Pophale) SiO2 
 PCOD9144732
Probable space group: P 2/M
;
_chemical_formula_sum "Si O2"
_cell_formula_units_Z 32
_cell_length_a 24.819749
_cell_length_b 8.770824
_cell_length_c 17.955971
_cell_angle_alpha 90.000000
_cell_angle_beta 27.256812
_cell_angle_gamma 90.000000
_cell_volume 1790.163997
_symmetry_space_group_name_H-M "P 2/M"
_symmetry_group_IT_number 10
_symmetry_cell_setting 'monoclinic'
loop_
_space_group_symop_operation_xyz
x,y,z
-x,y,-z
-x,-y,-z
x,-y,z
loop_
_atom_site_type_symbol
_atom_site_label
_atom_site_fract_x
_atom_site_fract_y
_atom_site_fract_z
Si Si1 0.520334 0.185136 0.560052
Si Si2 0.881004 0.682276 0.969512
Si Si3 0.642084 0.325060 0.834920
Si Si4 0.214061 0.817226 0.759498
Si Si5 0.293717 0.184332 0.932791
Si Si6 0.862549 0.683256 0.295715
Si Si7 0.352387 0.684893 0.336129
Si Si8 0.613212 0.818258 0.024533
O O1 0.500000 0.234871 0.500000
O O2 0.651023 0.231186 0.423059
O O3 0.413716 0.234755 0.743263
O O4 0.518428 0.000000 0.562589
O O5 0.869475 0.500000 0.985017
O O6 0.822437 0.750159 0.116177
O O7 0.814649 0.747404 0.979348
O O8 0.018986 0.721469 0.805248
O O9 0.680108 0.500000 0.798405
O O10 0.684891 0.267197 0.702031
O O11 0.500000 0.325738 0.000000
O O12 0.665540 0.233226 0.881062
O O13 0.136450 0.757470 0.786839
O O14 0.209141 0.000000 0.769707
O O15 0.308747 0.228249 0.000449
O O16 0.287495 0.000000 0.935893
O O17 0.858780 0.500000 0.291697
O O18 0.746199 0.731545 0.483693
O O19 0.359971 0.500000 0.325650
O O20 0.481969 0.748813 0.193374
O O21 0.601069 0.000000 0.040674
#
# Coordination Sequence:
#
# PCOD9144732 Si02
#       8
#     4   4   4   4   4   4   4   4
#     4   9  16  30  51  71  95 127 160 199 243 287
#     4  11  23  37  52  71  98 134 173 214 256 293
#     4   8  15  29  50  75 103 135 167 199 243 301
#     4  11  21  35  56  77  99 131 170 208 253 307
#     4  10  20  35  52  72 101 135 169 205 249 301
#     4  10  22  38  53  72 101 132 168 216 258 291
#     4   9  18  34  54  75 103 137 168 203 250 301
#     4  10  19  30  50  81 111 134 160 202 254 303
#
# _framework density 17.875457999999998
#
# number of rings (size 3 to 8) (size 9 to 14) (size 15 to 20)
#    0.000    2.250    1.250    3.000    0.000    7.250 
#    0.000    1.875    0.000    0.750    0.000    5.250 
#    0.000    0.000    0.000    0.000    0.000    0.000 
#
# Total GULP energy -178517.241642 kJ/mol
# GULP energy per Si atom -5578.663801 kJ/mol
# Density = 1.783477 g / cm^3
# Si number density = 17.875458 Si / 1000 Ang^3
#
#
#
# Elastic Constant Matrix: (Units=GPa)
#
#
# Indices 1 2 3 4 5 6 
#
# 1 164.7492 42.2246 42.1394 0.0000 5.1971 0.0000
# 2 42.2246 26.8987 16.0299 0.0000 -2.1239 0.0000
# 3 42.1394 16.0299 35.6845 0.0000 -3.7654 0.0000
# 4 0.0000 0.0000 0.0000 19.3495 0.0000 1.4888
# 5 5.1971 -2.1239 -3.7654 0.0000 25.1886 0.0000
# 6 0.0000 0.0000 0.0000 1.4888 0.0000 32.7246
#
#
#
# Elastic Compliance Matrix: (Units=1/GPa)
#
#
# Indices 1 2 3 4 5 6 
#
# 1 0.012008 -0.014309 -0.008272 0.000000 -0.004921 0.000000
# 2 -0.014309 0.067837 -0.012864 0.000000 0.006749 0.000000
# 3 -0.008272 -0.012864 0.044335 0.000000 0.007250 0.000000
# 4 0.000000 0.000000 0.000000 0.051863 0.000000 -0.002360
# 5 -0.004921 0.006749 0.007250 0.000000 0.042369 0.000000
# 6 0.000000 0.000000 0.000000 -0.002360 0.000000 0.030665
#
#
# Mechanical properties :
#
#
# Convention : Reuss Voigt Hill
#
# Bulk Modulus (GPa) = 18.76478 47.56892 33.16685
# Shear Modulus (GPa) = 14.80476 23.91510 19.35993
#
# Velocity S-wave (km/s) = 2.88100 3.66166 3.29454
# Velocity P-wave (km/s) = 4.64620 6.67429 5.75036
#
# Compressibility (1/GPa) = 0.05329133
#
# Stress axis : x y z
#
# Youngs Moduli (GPa) = 83.27679 14.74118 22.55565
#
# Poissons Ratio (x) = 0.21093 0.18657
# Poissons Ratio (y) = 1.19161 0.29015
# Poissons Ratio (z) = 0.68884 0.18962
#
# Static dielectric constant tensor:
#      x y z
#    x 1.617150 0.000000 0.006960 
#    y 0.000000 1.605010 0.000000 
#    z 0.006960 0.000000 1.610270 
# 
# From -- ./inp_files/79911.got.cif
#   From: 2010.05.17/outbox.cif.g08.bks.cpg/sg10_40_cif.got.tgz:79911.got - 2010.06.03 11:33:40.
