data_PCOD9144669
_publ_section_title
;
Structure prediction by ZEFSAII (Michael W. Deem and Ramdas Pophale) SiO2 
 PCOD9144669
Probable space group: P 2/M
;
_chemical_formula_sum "Si O2"
_cell_formula_units_Z 30
_cell_length_a 17.057045
_cell_length_b 9.434228
_cell_length_c 10.660793
_cell_angle_alpha 90.000000
_cell_angle_beta 69.067660
_cell_angle_gamma 90.000000
_cell_volume 1602.315118
_symmetry_space_group_name_H-M "P 2/M"
_symmetry_group_IT_number 10
_symmetry_cell_setting 'monoclinic'
loop_
_space_group_symop_operation_xyz
x,y,z
-x,y,-z
-x,-y,-z
x,-y,z
loop_
_atom_site_type_symbol
_atom_site_label
_atom_site_fract_x
_atom_site_fract_y
_atom_site_fract_z
Si Si1 0.989875 0.337082 0.354581
Si Si2 0.670225 0.344778 0.514911
Si Si3 0.841941 0.169262 0.768863
Si Si4 0.432616 0.158784 0.801949
Si Si5 0.176292 0.833099 0.521561
Si Si6 0.424140 0.656194 0.172319
Si Si7 0.302686 0.335520 0.004142
Si Si8 0.500000 0.757991 0.500000
O O1 0.990930 0.500000 0.308821
O O2 0.068190 0.244292 0.262881
O O3 0.000000 0.342204 0.500000
O O4 0.902290 0.257074 0.383555
O O5 0.707359 0.500000 0.468598
O O6 0.739078 0.223436 0.462121
O O7 0.640932 0.338734 0.676164
O O8 0.583198 0.327815 0.490667
O O9 0.819301 0.189161 0.633094
O O10 0.774900 0.246789 0.896294
O O11 0.844842 0.000000 0.788824
O O12 0.507239 0.224693 0.842940
O O13 0.470549 0.159606 0.640376
O O14 0.411670 0.000000 0.853703
O O15 0.351171 0.258165 0.863177
O O16 0.163923 0.000000 0.548477
O O17 0.465823 0.500000 0.155696
O O18 0.371314 0.666724 0.076946
O O19 0.281694 0.500000 0.990630
#
# Coordination Sequence:
#
# PCOD9144669 Si02
#       8
#     4   4   4   4   4   4   4   2
#     4   9  17  29  47  71 104 145 182 214 254 309
#     4  10  19  34  56  77 102 139 182 223 265 315
#     4  10  19  31  48  75 111 144 175 214 261 315
#     4  11  23  37  54  74  99 134 176 222 271 320
#     4  10  19  30  48  76 109 142 177 217 264 314
#     4   9  19  34  51  73 103 136 171 214 263 316
#     4  11  21  34  52  76 106 139 175 214 262 320
#     4  10  24  42  56  76 102 138 178 232 274 312
#
# _framework density 18.722909999999999
#
# number of rings (size 3 to 8) (size 9 to 14) (size 15 to 20)
#    0.000    2.000    1.333    2.800    0.000    9.600 
#    0.000    0.000    0.000    0.000    0.000    0.933 
#    0.000    6.400    0.000    0.000    0.000    0.000 
#
# Total GULP energy -167324.269770 kJ/mol
# GULP energy per Si atom -5577.475659 kJ/mol
# Density = 1.868030 g / cm^3
# Si number density = 18.722910 Si / 1000 Ang^3
#
#
#
# Elastic Constant Matrix: (Units=GPa)
#
#
# Indices 1 2 3 4 5 6 
#
# 1 79.8359 52.1304 26.5701 0.0000 -22.9122 0.0000
# 2 52.1304 157.2658 42.3249 0.0000 -33.1010 0.0000
# 3 26.5701 42.3249 63.9993 0.0000 -25.0208 0.0000
# 4 0.0000 0.0000 0.0000 15.2043 0.0000 -20.0679
# 5 -22.9122 -33.1010 -25.0208 0.0000 28.4557 0.0000
# 6 0.0000 0.0000 0.0000 -20.0679 0.0000 11.1632
#
#
#
# Elastic Compliance Matrix: (Units=1/GPa)
#
#
# Indices 1 2 3 4 5 6 
#
# 1 0.017984 -0.003681 -0.001592 0.000000 0.008799 0.000000
# 2 -0.003681 0.009479 -0.002421 0.000000 0.005934 0.000000
# 3 -0.001592 -0.002421 0.024816 0.000000 0.017722 0.000000
# 4 0.000000 0.000000 0.000000 -0.047913 0.000000 -0.086132
# 5 0.008799 0.005934 0.017722 0.000000 0.064713 0.000000
# 6 0.000000 0.000000 0.000000 -0.086132 0.000000 -0.065257
#
#
# Mechanical properties :
#
#
# Convention : Reuss Voigt Hill
#
# Bulk Modulus (GPa) = 27.10625 60.35022 43.72823
# Shear Modulus (GPa) = 158.69179 22.96969 90.83074
#
# Velocity S-wave (km/s) = 9.21640 3.50640 6.97269
# Velocity P-wave (km/s) = 11.30332 6.97829 9.39313
#
# Compressibility (1/GPa) = 0.03689186
#
# Stress axis : x y z
#
# Youngs Moduli (GPa) = 55.60387 105.49190 40.29716
#
# Poissons Ratio (x) = 0.38831 0.06416
# Poissons Ratio (y) = 0.20468 0.09755
# Poissons Ratio (z) = 0.08852 0.25537
#
# Static dielectric constant tensor:
#      x y z
#    x 1.633280 0.000000 0.001860 
#    y 0.000000 1.661010 0.000000 
#    z 0.001860 0.000000 1.661340 
# 
# From -- ./inp_files/53053.got.cif
#   From: 2010.05.17/outbox.cif.g08.bks.cpg/sg10_27_cif.got.tgz:53053.got - 2010.06.03 11:33:40.
