data_PCOD9144575
_publ_section_title
;
Structure prediction by ZEFSAII (Michael W. Deem and Ramdas Pophale) SiO2 
 PCOD9144575
Probable space group: P 2/M
;
_chemical_formula_sum "Si O2"
_cell_formula_units_Z 28
_cell_length_a 13.356066
_cell_length_b 7.499297
_cell_length_c 21.811733
_cell_angle_alpha 90.000000
_cell_angle_beta 141.790270
_cell_angle_gamma 90.000000
_cell_volume 1351.320501
_symmetry_space_group_name_H-M "P 2/M"
_symmetry_group_IT_number 10
_symmetry_cell_setting 'monoclinic'
loop_
_space_group_symop_operation_xyz
x,y,z
-x,y,-z
-x,-y,-z
x,-y,z
loop_
_atom_site_type_symbol
_atom_site_label
_atom_site_fract_x
_atom_site_fract_y
_atom_site_fract_z
Si Si1 0.883608 0.790078 0.721791
Si Si2 0.656081 0.789459 0.714785
Si Si3 0.309973 0.713771 0.491864
Si Si4 0.486015 0.217632 0.091837
Si Si5 0.511355 0.212177 0.769769
Si Si6 0.240474 0.782595 0.866261
Si Si7 0.837255 0.285165 0.453473
O O1 0.801071 0.713933 0.743411
O O2 0.757896 0.774026 0.605579
O O3 0.057494 0.716992 0.784806
O O4 0.909373 0.000000 0.745584
O O5 0.490570 0.772618 0.596074
O O6 0.615579 0.714588 0.762728
O O7 0.686680 0.000000 0.737385
O O8 0.311114 0.500000 0.492194
O O9 0.194870 0.776565 0.492374
O O10 0.459733 0.282556 0.148128
O O11 0.656575 0.274626 0.143615
O O12 0.487847 0.000000 0.094296
O O13 0.345927 0.267818 0.976596
O O14 0.323706 0.238280 0.661651
O O15 0.540849 0.000000 0.785905
O O16 0.238306 0.000000 0.862926
O O17 0.847048 0.500000 0.460271
O O18 0.000000 0.217483 0.500000
#
# Coordination Sequence:
#
# PCOD9144575 Si02
#       7
#     4   4   4   4   4   4   4
#     4  10  19  30  47  68  93 123 154 188 229 269
#     4   9  18  32  45  65  96 124 151 188 228 268
#     4  10  20  32  47  67  91 123 158 188 223 269
#     4   8  14  27  46  68  93 117 147 189 230 270
#     4   9  17  29  48  69  89 118 154 188 223 263
#     4   8  15  27  44  68  94 118 147 186 232 274
#     4   9  19  33  45  63  94 124 148 181 228 277
#
# _framework density 20.720472999999998
#
# number of rings (size 3 to 8) (size 9 to 14) (size 15 to 20)
#    0.000    3.000    0.000    1.714    2.000    3.143 
#    0.000    0.714    0.000    5.143    0.000    2.000 
#    0.000    5.714    0.000    0.000    0.000    0.000 
#
# Total GULP energy -156183.870036 kJ/mol
# GULP energy per Si atom -5577.995358 kJ/mol
# Density = 2.067331 g / cm^3
# Si number density = 20.720473 Si / 1000 Ang^3
#
#
#
# Elastic Constant Matrix: (Units=GPa)
#
#
# Indices 1 2 3 4 5 6 
#
# 1 164.8564 6.9275 74.4006 0.0000 1.1348 0.0000
# 2 6.9275 57.3844 -5.2781 0.0000 2.3828 0.0000
# 3 74.4006 -5.2781 55.6244 0.0000 -5.1176 0.0000
# 4 0.0000 0.0000 0.0000 271.6784 0.0000 0.2067
# 5 1.1348 2.3828 -5.1176 0.0000 40.5645 0.0000
# 6 0.0000 0.0000 0.0000 0.2067 0.0000 1.8119
#
#
#
# Elastic Compliance Matrix: (Units=1/GPa)
#
#
# Indices 1 2 3 4 5 6 
#
# 1 0.016531 -0.003961 -0.022773 0.000000 -0.003103 0.000000
# 2 -0.003961 0.018557 0.007051 0.000000 -0.000090 0.000000
# 3 -0.022773 0.007051 0.049704 0.000000 0.006494 0.000000
# 4 0.000000 0.000000 0.000000 0.003681 0.000000 -0.000420
# 5 -0.003103 -0.000090 0.006494 0.000000 0.025563 0.000000
# 6 0.000000 0.000000 0.000000 -0.000420 0.000000 0.551943
#
#
# Mechanical properties :
#
#
# Convention : Reuss Voigt Hill
#
# Bulk Modulus (GPa) = 22.01380 47.77391 34.89385
# Shear Modulus (GPa) = 6.93975 76.26530 41.60253
#
# Velocity S-wave (km/s) = 1.83207 6.07344 4.48571
# Velocity P-wave (km/s) = 3.88878 8.50227 6.61102
#
# Compressibility (1/GPa) = 0.04542605
#
# Stress axis : x y z
#
# Youngs Moduli (GPa) = 60.49207 53.88850 20.11922
#
# Poissons Ratio (x) = 0.21347 0.45817
# Poissons Ratio (y) = 0.23963 -0.14186
# Poissons Ratio (z) = 1.37756 -0.37998
#
# Static dielectric constant tensor:
#      x y z
#    x 1.783570 0.000000 -0.002250 
#    y 0.000000 1.767930 0.000000 
#    z -0.002250 0.000000 1.686550 
# 
# From -- ./inp_files/49119.got.cif
#   From: 2010.05.17/outbox.cif.g08.bks.cpg/sg10_25_cif.got.tgz:49119.got - 2010.06.03 11:33:40.
