data_PCOD9144153
_publ_section_title
;
Structure prediction by ZEFSAII (Michael W. Deem and Ramdas Pophale) SiO2 
 PCOD9144153
Probable space group: P 2/M
;
_chemical_formula_sum "Si O2"
_cell_formula_units_Z 28
_cell_length_a 15.584563
_cell_length_b 16.138993
_cell_length_c 9.438182
_cell_angle_alpha 90.000000
_cell_angle_beta 40.624241
_cell_angle_gamma 90.000000
_cell_volume 1545.624645
_symmetry_space_group_name_H-M "P 2/M"
_symmetry_group_IT_number 10
_symmetry_cell_setting 'monoclinic'
loop_
_space_group_symop_operation_xyz
x,y,z
-x,y,-z
-x,-y,-z
x,-y,z
loop_
_atom_site_type_symbol
_atom_site_label
_atom_site_fract_x
_atom_site_fract_y
_atom_site_fract_z
Si Si1 0.470623 0.732634 0.871123
Si Si2 0.123763 0.403631 0.949311
Si Si3 0.122791 0.097692 0.760833
Si Si4 0.230232 0.748444 0.981892
Si Si5 0.957882 0.096815 0.714298
Si Si6 0.416488 0.594605 0.462503
Si Si7 0.391788 0.836247 0.539599
O O1 0.540135 0.651140 0.721277
O O2 0.535843 0.803226 0.690806
O O3 0.500000 0.743396 0.000000
O O4 0.318543 0.729514 0.009901
O O5 0.112253 0.500000 0.016688
O O6 0.261404 0.400370 0.690374
O O7 0.142493 0.330287 0.041935
O O8 0.000000 0.388175 0.000000
O O9 0.261711 0.121279 0.647152
O O10 0.088530 0.115704 0.642203
O O11 0.115359 0.000000 0.786471
O O12 0.000000 0.136548 0.000000
O O13 0.148547 0.833108 0.112160
O O14 0.332233 0.768079 0.724371
O O15 0.000000 0.101213 0.500000
O O16 0.916559 0.000000 0.797111
O O17 0.500000 0.615346 0.500000
O O18 0.449862 0.500000 0.387979
O O19 0.500000 0.882832 0.500000
#
# Coordination Sequence:
#
# PCOD9144153 Si02
#       7
#     4   4   4   4   4   4   4
#     4  11  23  37  54  86 121 151 202 254 297 358
#     4  10  21  36  61  95 123 153 200 247 292 355
#     4  10  20  36  60  87 110 143 194 250 294 348
#     4  11  21  38  63  87 115 164 199 247 304 353
#     4  10  23  40  60  89 123 157 201 249 302 369
#     4  10  18  36  62  83 114 159 202 244 295 353
#     4  10  21  37  56  82 116 151 196 242 295 356
#
# _framework density 18.115653999999999
#
# number of rings (size 3 to 8) (size 9 to 14) (size 15 to 20)
#    0.000    1.714    4.286    0.429    4.000    0.571 
#    0.000    2.143    0.000    1.286    0.000    0.000 
#    0.000    0.000    0.000    0.000    0.000    0.000 
#
# Total GULP energy -155909.393179 kJ/mol
# GULP energy per Si atom -5568.192614 kJ/mol
# Density = 1.807442 g / cm^3
# Si number density = 18.115654 Si / 1000 Ang^3
#
#
#
# Elastic Constant Matrix: (Units=GPa)
#
#
# Indices 1 2 3 4 5 6 
#
# 1 200.8457 54.4129 67.6996 0.0000 -2.2247 0.0000
# 2 54.4129 74.2267 31.7743 0.0000 -2.2415 0.0000
# 3 67.6996 31.7743 61.9130 0.0000 1.0823 0.0000
# 4 0.0000 0.0000 0.0000 38.3815 0.0000 -8.0664
# 5 -2.2247 -2.2415 1.0823 0.0000 40.2541 0.0000
# 6 0.0000 0.0000 0.0000 -8.0664 0.0000 31.1553
#
#
#
# Elastic Compliance Matrix: (Units=1/GPa)
#
#
# Indices 1 2 3 4 5 6 
#
# 1 0.008334 -0.002806 -0.007682 0.000000 0.000511 0.000000
# 2 -0.002806 0.018268 -0.006326 0.000000 0.001032 0.000000
# 3 -0.007682 -0.006326 0.027825 0.000000 -0.001525 0.000000
# 4 0.000000 0.000000 0.000000 0.027553 0.000000 0.007134
# 5 0.000511 0.001032 -0.001525 0.000000 0.024969 0.000000
# 6 0.000000 0.000000 0.000000 0.007134 0.000000 0.033944
#
#
# Mechanical properties :
#
#
# Convention : Reuss Voigt Hill
#
# Bulk Modulus (GPa) = 48.07610 71.63987 59.85799
# Shear Modulus (GPa) = 27.55531 34.16476 30.86003
#
# Velocity S-wave (km/s) = 3.90433 4.34743 4.13183
# Velocity P-wave (km/s) = 6.84990 8.05183 7.47506
#
# Compressibility (1/GPa) = 0.02080036
#
# Stress axis : x y z
#
# Youngs Moduli (GPa) = 119.98869 54.74115 35.93915
#
# Poissons Ratio (x) = 0.15358 0.27609
# Poissons Ratio (y) = 0.33663 0.22733
# Poissons Ratio (z) = 0.92177 0.34627
#
# Static dielectric constant tensor:
#      x y z
#    x 1.647370 0.000000 -0.018260 
#    y 0.000000 1.671130 0.000000 
#    z -0.018260 0.000000 1.630670 
# 
# From -- ./inp_files/30071.got.cif
#   From: 2010.05.17/outbox.cif.g08.bks.cpg/sg10_16_cif.got.tgz:30071.got - 2010.06.03 11:33:40.
