data_PCOD9144008
_publ_section_title
;
Structure prediction by ZEFSAII (Michael W. Deem and Ramdas Pophale) SiO2 
 PCOD9144008
Probable space group: P 2/M
;
_chemical_formula_sum "Si O2"
_cell_formula_units_Z 20
_cell_length_a 11.706056
_cell_length_b 11.525349
_cell_length_c 14.209941
_cell_angle_alpha 90.000000
_cell_angle_beta 30.465657
_cell_angle_gamma 90.000000
_cell_volume 972.038801
_symmetry_space_group_name_H-M "P 2/M"
_symmetry_group_IT_number 10
_symmetry_cell_setting 'monoclinic'
loop_
_space_group_symop_operation_xyz
x,y,z
-x,y,-z
-x,-y,-z
x,-y,z
loop_
_atom_site_type_symbol
_atom_site_label
_atom_site_fract_x
_atom_site_fract_y
_atom_site_fract_z
Si Si1 0.841670 0.500000 0.743605
Si Si2 0.599295 0.130354 0.325954
Si Si3 0.280901 0.246869 0.208155
Si Si4 0.232645 0.761898 0.465751
Si Si5 0.843341 0.500000 0.966830
Si Si6 0.667138 0.500000 0.604638
Si Si7 0.000000 0.306842 0.000000
O O1 0.714671 0.385496 0.805167
O O2 0.883542 0.500000 0.826912
O O3 0.088707 0.500000 0.521404
O O4 0.500000 0.147212 0.500000
O O5 0.387644 0.147084 0.407763
O O6 0.787141 0.225440 0.170352
O O7 0.691801 0.000000 0.252377
O O8 0.280636 0.227906 0.320017
O O9 0.036803 0.217822 0.335785
O O10 0.500000 0.197405 0.000000
O O11 0.309957 0.633736 0.450813
O O12 0.946742 0.610494 0.948349
O O13 0.574280 0.500000 0.174825
#
# Coordination Sequence:
#
# PCOD9144008 Si02
#       7
#     2   4   4   4   2   2   2
#     4  10  21  32  58  92 131 175 201 235 310 391
#     4  11  26  46  68  89 118 169 224 270 314 364
#     4  10  20  34  59  91 128 166 200 246 308 378
#     4  10  21  38  60  92 127 162 207 257 313 374
#     4  11  22  36  59 101 134 165 197 253 314 390
#     4  10  18  34  56  86 128 165 193 246 312 373
#     4  11  25  40  66  94 131 165 210 258 324 377
#
# _framework density 20.575310000000002
#
# number of rings (size 3 to 8) (size 9 to 14) (size 15 to 20)
#    0.000    1.600    2.000    2.400    5.600    2.400 
#    0.000    4.500    0.000    1.200    0.000    0.000 
#    0.000    0.000    0.000    0.000    0.000    0.000 
#
# Total GULP energy -111532.769574 kJ/mol
# GULP energy per Si atom -5576.638479 kJ/mol
# Density = 2.052848 g / cm^3
# Si number density = 20.575310 Si / 1000 Ang^3
#
#
#
# Elastic Constant Matrix: (Units=GPa)
#
#
# Indices 1 2 3 4 5 6 
#
# 1 122.9766 35.2914 53.3340 0.0000 -1.0817 0.0000
# 2 35.2914 76.2278 34.8453 0.0000 -0.2383 0.0000
# 3 53.3340 34.8453 138.6352 0.0000 -27.9584 0.0000
# 4 0.0000 0.0000 0.0000 0.8951 0.0000 -8.1090
# 5 -1.0817 -0.2383 -27.9584 0.0000 25.3401 0.0000
# 6 0.0000 0.0000 0.0000 -8.1090 0.0000 14.5275
#
#
#
# Elastic Compliance Matrix: (Units=1/GPa)
#
#
# Indices 1 2 3 4 5 6 
#
# 1 0.010820 -0.003082 -0.004245 0.000000 -0.004251 0.000000
# 2 -0.003082 0.016232 -0.003717 0.000000 -0.004080 0.000000
# 3 -0.004245 -0.003717 0.012523 0.000000 0.013601 0.000000
# 4 0.000000 0.000000 0.000000 -0.275388 0.000000 -0.153717
# 5 -0.004251 -0.004080 0.013601 0.000000 0.054250 0.000000
# 6 0.000000 0.000000 0.000000 -0.153717 0.000000 -0.016967
#
#
# Mechanical properties :
#
#
# Convention : Reuss Voigt Hill
#
# Bulk Modulus (GPa) = 57.18508 64.97566 61.08037
# Shear Modulus (GPa) = -29.30598 22.44377 -3.43110
#
# Velocity S-wave (km/s) = -3.77812 3.30633 -1.29275
# Velocity P-wave (km/s) = 2.97004 6.79880 5.24618
#
# Compressibility (1/GPa) = 0.01748708
#
# Stress axis : x y z
#
# Youngs Moduli (GPa) = 92.42354 61.60749 79.85022
#
# Poissons Ratio (x) = 0.18988 0.33897
# Poissons Ratio (y) = 0.28485 0.29679
# Poissons Ratio (z) = 0.39234 0.22899
#
# Static dielectric constant tensor:
#      x y z
#    x 1.731130 0.000000 0.028780 
#    y 0.000000 1.769010 0.000000 
#    z 0.028780 0.000000 1.831350 
# 
# From -- ./inp_files/64617.got.cif
#   From: 2010.05.17/outbox.cif.g08.bks.cpg/sg10_33_cif.got.tgz:64617.got - 2010.06.03 11:33:40.
