data_PCOD9144029
_publ_section_title
;
Structure prediction by ZEFSAII (Michael W. Deem and Ramdas Pophale) SiO2 
 PCOD9144029
Probable space group: P 2/M
;
_chemical_formula_sum "Si O2"
_cell_formula_units_Z 26
_cell_length_a 15.439207
_cell_length_b 12.337854
_cell_length_c 8.265242
_cell_angle_alpha 90.000000
_cell_angle_beta 53.627774
_cell_angle_gamma 90.000000
_cell_volume 1267.692450
_symmetry_space_group_name_H-M "P 2/M"
_symmetry_group_IT_number 10
_symmetry_cell_setting 'monoclinic'
loop_
_space_group_symop_operation_xyz
x,y,z
-x,y,-z
-x,-y,-z
x,-y,z
loop_
_atom_site_type_symbol
_atom_site_label
_atom_site_fract_x
_atom_site_fract_y
_atom_site_fract_z
Si Si1 0.668711 0.500000 0.771491
Si Si2 0.534564 0.877203 0.276178
Si Si3 0.124343 0.500000 0.644960
Si Si4 0.859332 0.270202 0.266261
Si Si5 0.075304 0.260814 0.169911
Si Si6 0.638854 0.263016 0.706363
Si Si7 0.253028 0.873693 0.131413
Si Si8 0.121474 0.500000 0.268330
O O1 0.749045 0.500000 0.528934
O O2 0.616634 0.382344 0.805964
O O3 0.748153 0.500000 0.839472
O O4 0.500000 0.870557 0.500000
O O5 0.466216 0.789387 0.254637
O O6 0.508953 0.000000 0.245433
O O7 0.661874 0.863292 0.110804
O O8 0.101604 0.394613 0.769557
O O9 0.083981 0.500000 0.501841
O O10 0.738806 0.263808 0.467261
O O11 0.950352 0.224882 0.288814
O O12 0.875903 0.238404 0.063043
O O13 0.143588 0.188545 0.216082
O O14 0.094381 0.386394 0.207655
O O15 0.684524 0.184913 0.793703
O O16 0.235423 0.000000 0.182955
#
# Coordination Sequence:
#
# PCOD9144029 Si02
#       8
#     2   4   2   4   4   4   4   2
#     4   8  18  34  54  86 116 148 182 229 286 338
#     4  10  22  41  65  88 111 147 193 240 287 341
#     4   8  16  32  49  82 113 150 191 231 268 336
#     4  10  21  34  55  85 120 156 192 235 285 346
#     4  11  21  36  56  85 119 156 194 234 289 338
#     4  11  20  40  60  86 118 149 190 243 286 338
#     4  11  23  40  61  85 111 148 198 242 284 340
#     4  10  18  34  58  83 118 154 193 239 278 332
#
# _framework density 20.509706000000001
#
# number of rings (size 3 to 8) (size 9 to 14) (size 15 to 20)
#    0.462    1.385    1.538    2.769    0.000    5.538 
#    0.000    7.308    0.000    0.000    0.000    0.000 
#    0.000    0.000    0.000    0.000    0.000    0.000 
#
# Total GULP energy -144851.955315 kJ/mol
# GULP energy per Si atom -5571.229051 kJ/mol
# Density = 2.046302 g / cm^3
# Si number density = 20.509706 Si / 1000 Ang^3
#
#
#
# Elastic Constant Matrix: (Units=GPa)
#
#
# Indices 1 2 3 4 5 6 
#
# 1 89.6145 54.2185 -4.4221 0.0000 -4.5830 0.0000
# 2 54.2185 117.5552 2.7106 0.0000 -1.5556 0.0000
# 3 -4.4221 2.7106 57.2675 0.0000 -4.4453 0.0000
# 4 0.0000 0.0000 0.0000 20.7255 0.0000 -3.7999
# 5 -4.5830 -1.5556 -4.4453 0.0000 25.7556 0.0000
# 6 0.0000 0.0000 0.0000 -3.7999 0.0000 -11.0931
#
#
#
# Elastic Compliance Matrix: (Units=1/GPa)
#
#
# Indices 1 2 3 4 5 6 
#
# 1 0.015794 -0.007290 0.001772 0.000000 0.002676 0.000000
# 2 -0.007290 0.011886 -0.001186 0.000000 -0.000784 0.000000
# 3 0.001772 -0.001186 0.017914 0.000000 0.003336 0.000000
# 4 0.000000 0.000000 0.000000 0.045398 0.000000 -0.015551
# 5 0.002676 -0.000784 0.003336 0.000000 0.039831 0.000000
# 6 0.000000 0.000000 0.000000 -0.015551 0.000000 -0.084819
#
#
# Mechanical properties :
#
#
# Convention : Reuss Voigt Hill
#
# Bulk Modulus (GPa) = 31.06969 41.05013 36.05991
# Shear Modulus (GPa) = 71.28588 21.20627 46.24607
#
# Velocity S-wave (km/s) = 5.90191 3.21902 4.75367
# Velocity P-wave (km/s) = 7.85017 5.82018 6.91012
#
# Compressibility (1/GPa) = 0.03218571
#
# Stress axis : x y z
#
# Youngs Moduli (GPa) = 63.31652 84.13408 55.82272
#
# Poissons Ratio (x) = 0.61332 -0.09894
# Poissons Ratio (y) = 0.46156 0.06622
# Poissons Ratio (z) = -0.11222 0.09981
#
# Static dielectric constant tensor:
#      x y z
#    x 1.776180 0.000000 -0.046180 
#    y 0.000000 1.763060 0.000000 
#    z -0.046180 0.000000 1.760280 
# 
# From -- ./inp_files/28145.got.cif
#   From: 2010.05.17/outbox.cif.g08.bks.cpg/sg10_15_cif.got.tgz:28145.got - 2010.06.03 11:33:40.
