data_PCOD9144009
_publ_section_title
;
Structure prediction by ZEFSAII (Michael W. Deem and Ramdas Pophale) SiO2 
 PCOD9144009
Probable space group: P 2/M
;
_chemical_formula_sum "Si O2"
_cell_formula_units_Z 28
_cell_length_a 19.252241
_cell_length_b 9.357142
_cell_length_c 13.886658
_cell_angle_alpha 90.000000
_cell_angle_beta 36.539022
_cell_angle_gamma 90.000000
_cell_volume 1489.392931
_symmetry_space_group_name_H-M "P 2/M"
_symmetry_group_IT_number 10
_symmetry_cell_setting 'monoclinic'
loop_
_space_group_symop_operation_xyz
x,y,z
-x,y,-z
-x,-y,-z
x,-y,z
loop_
_atom_site_type_symbol
_atom_site_label
_atom_site_fract_x
_atom_site_fract_y
_atom_site_fract_z
Si Si1 0.617950 0.327479 0.606653
Si Si2 0.581192 0.666943 0.314920
Si Si3 0.819484 0.168640 0.067431
Si Si4 0.997736 0.660634 0.763104
Si Si5 0.885311 0.329569 0.570307
Si Si6 0.372228 0.325172 0.183097
Si Si7 0.834140 0.334604 0.241072
O O1 0.632140 0.500000 0.593309
O O2 0.494414 0.298533 0.695271
O O3 0.632022 0.278457 0.700203
O O4 0.716246 0.278086 0.422422
O O5 0.500000 0.679586 0.500000
O O6 0.617369 0.500000 0.269516
O O7 0.690347 0.769128 0.201343
O O8 0.865045 0.239279 0.115841
O O9 0.822792 0.000000 0.069283
O O10 0.896271 0.227077 0.893625
O O11 0.948766 0.500000 0.805892
O O12 0.079770 0.687472 0.580505
O O13 0.074822 0.662652 0.773521
O O14 0.880757 0.500000 0.596920
O O15 0.750231 0.278239 0.731305
O O16 0.000000 0.272937 0.500000
O O17 0.370376 0.500000 0.183147
O O18 0.500000 0.282760 0.000000
O O19 0.818494 0.500000 0.225622
#
# Coordination Sequence:
#
# PCOD9144009 Si02
#       7
#     4   4   4   4   4   4   4
#     4   9  16  29  51  76 103 139 179 218 262 321
#     4  10  19  34  56  77 102 140 186 227 267 325
#     4  12  25  36  50  78 116 147 182 231 282 331
#     4  10  20  35  57  80 109 148 190 228 269 325
#     4   9  17  30  51  82 117 147 178 226 283 335
#     4   9  16  27  46  77 113 143 173 220 282 335
#     4  10  18  34  57  78 104 144 191 228 264 317
#
# _framework density 18.799606000000001
#
# number of rings (size 3 to 8) (size 9 to 14) (size 15 to 20)
#    0.000    2.143    2.857    1.714    0.000    3.714 
#    0.000    4.286    0.000    0.429    0.000    0.000 
#    0.000    2.857    0.000    0.000    0.000    0.000 
#
# Total GULP energy -156053.027891 kJ/mol
# GULP energy per Si atom -5573.322425 kJ/mol
# Density = 1.875682 g / cm^3
# Si number density = 18.799606 Si / 1000 Ang^3
#
#
#
# Elastic Constant Matrix: (Units=GPa)
#
#
# Indices 1 2 3 4 5 6 
#
# 1 87.5500 13.2902 36.6754 0.0000 -17.9959 0.0000
# 2 13.2902 58.0709 35.2755 0.0000 -8.0003 0.0000
# 3 36.6754 35.2755 89.2373 0.0000 -20.7590 0.0000
# 4 0.0000 0.0000 0.0000 -10.7967 0.0000 2.0655
# 5 -17.9959 -8.0003 -20.7590 0.0000 18.7493 0.0000
# 6 0.0000 0.0000 0.0000 2.0655 0.0000 -15.4621
#
#
#
# Elastic Compliance Matrix: (Units=1/GPa)
#
#
# Indices 1 2 3 4 5 6 
#
# 1 0.015148 0.000367 -0.003976 0.000000 0.010293 0.000000
# 2 0.000367 0.022673 -0.009133 0.000000 -0.000086 0.000000
# 3 -0.003976 -0.009133 0.019740 0.000000 0.014143 0.000000
# 4 0.000000 0.000000 0.000000 -0.095050 0.000000 -0.012697
# 5 0.010293 -0.000086 0.014143 0.000000 0.078838 0.000000
# 6 0.000000 0.000000 0.000000 -0.012697 0.000000 -0.066370
#
#
# Mechanical properties :
#
#
# Convention : Reuss Voigt Hill
#
# Bulk Modulus (GPa) = 31.17600 45.03782 38.10691
# Shear Modulus (GPa) = 448.21465 8.47256 228.34361
#
# Velocity S-wave (km/s) = 15.45751 2.12522 11.03293
# Velocity P-wave (km/s) = 18.30844 5.48004 13.51351
#
# Compressibility (1/GPa) = 0.03207596
#
# Stress axis : x y z
#
# Youngs Moduli (GPa) = 66.01636 44.10626 50.65735
#
# Poissons Ratio (x) = -0.01617 0.20141
# Poissons Ratio (y) = -0.02420 0.46266
# Poissons Ratio (z) = 0.26247 0.40282
#
# Static dielectric constant tensor:
#      x y z
#    x 1.694130 0.000000 -0.035060 
#    y 0.000000 1.614880 0.000000 
#    z -0.035060 0.000000 1.683830 
# 
# From -- ./inp_files/70177.got.cif
#   From: 2010.05.17/outbox.cif.g08.bks.cpg/sg10_36_cif.got.tgz:70177.got - 2010.06.03 11:33:40.
