data_PCOD9144859
_publ_section_title
;
Structure prediction by ZEFSAII (Michael W. Deem and Ramdas Pophale) SiO2 
 PCOD9144859
Probable space group: P 2/M
;
_chemical_formula_sum "Si O2"
_cell_formula_units_Z 26
_cell_length_a 8.385856
_cell_length_b 7.767332
_cell_length_c 20.790620
_cell_angle_alpha 90.000000
_cell_angle_beta 121.930498
_cell_angle_gamma 90.000000
_cell_volume 1149.306705
_symmetry_space_group_name_H-M "P 2/M"
_symmetry_group_IT_number 10
_symmetry_cell_setting 'monoclinic'
loop_
_space_group_symop_operation_xyz
x,y,z
-x,y,-z
-x,-y,-z
x,-y,z
loop_
_atom_site_type_symbol
_atom_site_label
_atom_site_fract_x
_atom_site_fract_y
_atom_site_fract_z
Si Si1 0.343446 0.804696 0.419722
Si Si2 0.303184 0.695337 0.268619
Si Si3 0.969911 0.298715 0.896418
Si Si4 0.001417 0.700414 0.426373
Si Si5 0.348368 0.806564 0.730482
Si Si6 0.276214 0.000000 0.994735
Si Si7 0.417208 0.694450 0.102030
O O1 0.500000 0.726225 0.500000
O O2 0.307292 0.710518 0.345426
O O3 0.153845 0.804055 0.419341
O O4 0.403551 0.000000 0.416855
O O5 0.351794 0.500000 0.259375
O O6 0.105771 0.731092 0.192151
O O7 0.463277 0.811152 0.272098
O O8 0.031014 0.500000 0.916004
O O9 0.781905 0.281496 0.901103
O O10 0.120321 0.154102 0.945438
O O11 0.058185 0.500000 0.439027
O O12 0.000000 0.759118 0.500000
O O13 0.806329 0.717307 0.346931
O O14 0.415519 0.716887 0.810395
O O15 0.284819 0.000000 0.731615
O O16 0.421710 0.151538 0.052490
O O17 0.421813 0.500000 0.077629
#
# Coordination Sequence:
#
# PCOD9144859 Si02
#       7
#     4   4   4   4   4   2   4
#     4  11  24  40  61  90 120 154 197 246 296 351
#     4  10  21  37  57  84 119 160 201 244 298 356
#     4   9  19  30  46  76 113 153 197 244 294 354
#     4  11  24  41  62  88 119 157 198 244 298 354
#     4  11  21  36  58  85 119 160 202 247 301 355
#     4  12  19  28  50  78 113 156 193 242 307 356
#     4  10  19  31  47  76 115 154 199 244 295 358
#
# _framework density 22.622333000000001
#
# number of rings (size 3 to 8) (size 9 to 14) (size 15 to 20)
#    0.000    1.538    0.769    6.462    4.308    6.154 
#    0.000    0.000    0.000    0.000    0.000    2.154 
#    0.000    4.923    0.000    0.000    0.000    0.000 
#
# Total GULP energy -144837.860458 kJ/mol
# GULP energy per Si atom -5570.686941 kJ/mol
# Density = 2.257084 g / cm^3
# Si number density = 22.622333 Si / 1000 Ang^3
#
#
#
# Elastic Constant Matrix: (Units=GPa)
#
#
# Indices 1 2 3 4 5 6 
#
# 1 16.9355 8.8027 26.3981 0.0000 2.4275 0.0000
# 2 8.8027 120.8556 47.6462 0.0000 -1.8406 0.0000
# 3 26.3981 47.6462 174.6832 0.0000 7.7409 0.0000
# 4 0.0000 0.0000 0.0000 14.3870 0.0000 4.0633
# 5 2.4275 -1.8406 7.7409 0.0000 26.3138 0.0000
# 6 0.0000 0.0000 0.0000 4.0633 0.0000 7.9513
#
#
#
# Elastic Compliance Matrix: (Units=1/GPa)
#
#
# Indices 1 2 3 4 5 6 
#
# 1 0.077789 -0.001301 -0.011225 0.000000 -0.003965 0.000000
# 2 -0.001301 0.009345 -0.002418 0.000000 0.001485 0.000000
# 3 -0.011225 -0.002418 0.008148 0.000000 -0.001531 0.000000
# 4 0.000000 0.000000 0.000000 0.081231 0.000000 -0.041512
# 5 -0.003965 0.001485 -0.001531 0.000000 0.038923 0.000000
# 6 0.000000 0.000000 0.000000 -0.041512 0.000000 0.146980
#
#
# Mechanical properties :
#
#
# Convention : Reuss Voigt Hill
#
# Bulk Modulus (GPa) = 15.29188 53.12980 34.21084
# Shear Modulus (GPa) = 12.07432 25.03892 18.55662
#
# Velocity S-wave (km/s) = 2.31278 3.33050 2.86716
# Velocity P-wave (km/s) = 3.72910 6.19082 5.11040
#
# Compressibility (1/GPa) = 0.06539417
#
# Stress axis : x y z
#
# Youngs Moduli (GPa) = 12.85534 107.00866 122.72430
#
# Poissons Ratio (x) = 0.13921 1.37756
# Poissons Ratio (y) = 0.01672 0.29676
# Poissons Ratio (z) = 0.14430 0.25876
#
# Static dielectric constant tensor:
#      x y z
#    x 1.849580 0.000000 0.005330 
#    y 0.000000 1.789710 0.000000 
#    z 0.005330 0.000000 1.888300 
# 
# From -- ./inp_files/82229.got.cif
#   From: 2010.05.17/outbox.cif.g08.bks.cpg/sg10_42_cif.got.tgz:82229.got - 2010.06.03 11:33:40.
