data_PCOD9144236
_publ_section_title
;
Structure prediction by ZEFSAII (Michael W. Deem and Ramdas Pophale) SiO2 
 PCOD9144236
Probable space group: P 2/M
;
_chemical_formula_sum "Si O2"
_cell_formula_units_Z 30
_cell_length_a 8.494796
_cell_length_b 18.103028
_cell_length_c 10.686811
_cell_angle_alpha 90.000000
_cell_angle_beta 113.432476
_cell_angle_gamma 90.000000
_cell_volume 1507.899095
_symmetry_space_group_name_H-M "P 2/M"
_symmetry_group_IT_number 10
_symmetry_cell_setting 'monoclinic'
loop_
_space_group_symop_operation_xyz
x,y,z
-x,y,-z
-x,-y,-z
x,-y,z
loop_
_atom_site_type_symbol
_atom_site_label
_atom_site_fract_x
_atom_site_fract_y
_atom_site_fract_z
Si Si1 0.766572 0.915968 0.337965
Si Si2 0.101824 0.151742 0.370757
Si Si3 0.195437 0.321504 0.447037
Si Si4 0.658998 0.696637 0.779225
Si Si5 0.000000 0.670368 0.000000
Si Si6 0.395642 0.584631 0.718903
Si Si7 0.929734 0.583458 0.229999
Si Si8 0.564787 0.848178 0.665696
O O1 0.834885 0.903780 0.501310
O O2 0.563761 0.898663 0.294141
O O3 0.897027 0.864010 0.297833
O O4 0.788584 0.000000 0.303756
O O5 0.142564 0.234785 0.436104
O O6 0.230150 0.139525 0.293143
O O7 0.297655 0.326012 0.348937
O O8 0.306776 0.361916 0.587448
O O9 0.026036 0.368566 0.365169
O O10 0.832486 0.715365 0.907516
O O11 0.568951 0.626036 0.809921
O O12 0.546196 0.769147 0.726680
O O13 0.039890 0.620224 0.893181
O O14 0.418001 0.500000 0.681128
O O15 0.267683 0.582556 0.794739
O O16 0.997236 0.500000 0.254221
O O17 0.500000 0.844838 0.500000
#
# Coordination Sequence:
#
# PCOD9144236 Si02
#       8
#     4   4   4   4   2   4   4   4
#     4  10  19  28  46  78 112 151 182 209 265 338
#     4   9  18  29  46  73 110 152 182 212 260 325
#     4  10  20  34  54  80 110 147 181 219 280 332
#     4  10  21  37  55  76 104 143 187 227 280 334
#     4  10  23  42  56  70 101 142 192 238 279 330
#     4  11  22  33  52  82 109 136 180 233 281 336
#     4  10  22  36  54  77 105 143 184 230 279 326
#     4   9  18  33  52  78 112 145 180 224 276 330
#
# _framework density 19.895230999999999
#
# number of rings (size 3 to 8) (size 9 to 14) (size 15 to 20)
#    0.000    2.133    0.000    4.600    5.600    8.267 
#    0.000    1.333    0.000    0.000    0.000    0.467 
#    0.000   11.733    0.000    1.067    0.000    0.000 
#
# Total GULP energy -167044.879121 kJ/mol
# GULP energy per Si atom -5568.162637 kJ/mol
# Density = 1.984995 g / cm^3
# Si number density = 19.895231 Si / 1000 Ang^3
#
#
#
# Elastic Constant Matrix: (Units=GPa)
#
#
# Indices 1 2 3 4 5 6 
#
# 1 99.8686 31.8887 6.3383 0.0000 6.7805 0.0000
# 2 31.8887 84.6439 4.3329 0.0000 2.7688 0.0000
# 3 6.3383 4.3329 41.6329 0.0000 0.5903 0.0000
# 4 0.0000 0.0000 0.0000 20.4227 0.0000 11.6263
# 5 6.7805 2.7688 0.5903 0.0000 10.4976 0.0000
# 6 0.0000 0.0000 0.0000 11.6263 0.0000 33.6924
#
#
#
# Elastic Compliance Matrix: (Units=1/GPa)
#
#
# Indices 1 2 3 4 5 6 
#
# 1 0.011875 -0.004196 -0.001279 0.000000 -0.006491 0.000000
# 2 -0.004196 0.013459 -0.000751 0.000000 -0.000798 0.000000
# 3 -0.001279 -0.000751 0.024297 0.000000 -0.000342 0.000000
# 4 0.000000 0.000000 0.000000 0.060936 0.000000 -0.021027
# 5 -0.006491 -0.000798 -0.000342 0.000000 0.099683 0.000000
# 6 0.000000 0.000000 0.000000 -0.021027 0.000000 0.036936
#
#
# Mechanical properties :
#
#
# Convention : Reuss Voigt Hill
#
# Bulk Modulus (GPa) = 26.89611 34.58503 30.74057
# Shear Modulus (GPa) = 18.38028 25.16156 21.77092
#
# Velocity S-wave (km/s) = 3.04279 3.56012 3.31158
# Velocity P-wave (km/s) = 5.08852 5.85838 5.48697
#
# Compressibility (1/GPa) = 0.03718010
#
# Stress axis : x y z
#
# Youngs Moduli (GPa) = 84.21156 74.29700 41.15701
#
# Poissons Ratio (x) = 0.31174 0.05265
# Poissons Ratio (y) = 0.35334 0.03090
# Poissons Ratio (z) = 0.10772 0.05577
#
# Static dielectric constant tensor:
#      x y z
#    x 1.821810 0.000000 0.051680 
#    y 0.000000 1.727860 0.000000 
#    z 0.051680 0.000000 1.680720 
# 
# From -- ./inp_files/43420.got.cif
#   From: 2010.05.17/outbox.cif.g08.bks.cpg/sg10_22_cif.got.tgz:43420.got - 2010.06.03 11:33:40.
