data_PCOD9144499
_publ_section_title
;
Structure prediction by ZEFSAII (Michael W. Deem and Ramdas Pophale) SiO2 
 PCOD9144499
Probable space group: P 2/M
;
_chemical_formula_sum "Si O2"
_cell_formula_units_Z 32
_cell_length_a 13.157592
_cell_length_b 7.973192
_cell_length_c 33.272625
_cell_angle_alpha 90.000000
_cell_angle_beta 25.959195
_cell_angle_gamma 90.000000
_cell_volume 1527.928174
_symmetry_space_group_name_H-M "P 2/M"
_symmetry_group_IT_number 10
_symmetry_cell_setting 'monoclinic'
loop_
_space_group_symop_operation_xyz
x,y,z
-x,y,-z
-x,-y,-z
x,-y,z
loop_
_atom_site_type_symbol
_atom_site_label
_atom_site_fract_x
_atom_site_fract_y
_atom_site_fract_z
Si Si1 0.572205 0.690740 0.247523
Si Si2 0.758973 0.193517 0.566857
Si Si3 0.187118 0.193750 0.593595
Si Si4 0.018832 0.704567 0.040286
Si Si5 0.995318 0.308757 0.744462
Si Si6 0.525274 0.698394 0.408373
Si Si7 0.464682 0.704075 0.129058
Si Si8 0.719414 0.806382 0.718758
O O1 0.614106 0.500000 0.246879
O O2 0.443395 0.790873 0.328069
O O3 0.391681 0.690649 0.274922
O O4 0.806467 0.760537 0.143849
O O5 0.649031 0.272526 0.566226
O O6 0.000000 0.264238 0.500000
O O7 0.808330 0.000000 0.539401
O O8 0.105188 0.303977 0.660277
O O9 0.422341 0.224432 0.485883
O O10 0.989693 0.221805 0.630050
O O11 0.170353 0.000000 0.612540
O O12 0.005182 0.500000 0.043802
O O13 0.266629 0.750398 0.971433
O O14 0.000000 0.759738 0.000000
O O15 0.961116 0.500000 0.770359
O O16 0.211624 0.234982 0.692616
O O17 0.736866 0.235540 0.829945
O O18 0.543294 0.500000 0.408468
O O19 0.451030 0.500000 0.135014
O O20 0.397166 0.771780 0.196892
O O21 0.682684 0.000000 0.720072
#
# Coordination Sequence:
#
# PCOD9144499 Si02
#       8
#     4   4   4   4   4   4   4   4
#     4  11  21  34  55  80 107 141 181 221 264 315
#     4  11  25  43  59  77 104 139 180 223 267 316
#     4  10  20  32  49  75 107 143 179 215 264 319
#     4   9  16  29  52  83 112 139 175 216 261 316
#     4   9  19  33  52  78 106 138 176 220 264 312
#     4  11  22  36  54  77 103 133 178 226 267 314
#     4   9  16  31  52  74 106 143 173 207 259 313
#     4  10  19  30  45  72 109 142 175 214 256 311
#
# _framework density 20.943393
#
# number of rings (size 3 to 8) (size 9 to 14) (size 15 to 20)
#    0.000    2.000    1.250    3.000    0.000    8.000 
#    0.000    1.875    0.000    0.750    0.000    5.250 
#    0.000    0.000    0.000    0.000    0.000    0.000 
#
# Total GULP energy -178475.311835 kJ/mol
# GULP energy per Si atom -5577.353495 kJ/mol
# Density = 2.089573 g / cm^3
# Si number density = 20.943393 Si / 1000 Ang^3
#
#
#
# Elastic Constant Matrix: (Units=GPa)
#
#
# Indices 1 2 3 4 5 6 
#
# 1 86.2314 12.1820 31.7741 0.0000 -22.4478 0.0000
# 2 12.1820 20.5736 6.1547 0.0000 -9.8675 0.0000
# 3 31.7741 6.1547 99.8925 0.0000 -18.3863 0.0000
# 4 0.0000 0.0000 0.0000 10.9715 0.0000 9.2099
# 5 -22.4478 -9.8675 -18.3863 0.0000 31.8179 0.0000
# 6 0.0000 0.0000 0.0000 9.2099 0.0000 4.7364
#
#
#
# Elastic Compliance Matrix: (Units=1/GPa)
#
#
# Indices 1 2 3 4 5 6 
#
# 1 0.015400 -0.004507 -0.003221 0.000000 0.007606 0.000000
# 2 -0.004507 0.058426 0.000653 0.000000 0.015317 0.000000
# 3 -0.003221 0.000653 0.011877 0.000000 0.004794 0.000000
# 4 0.000000 0.000000 0.000000 -0.144150 0.000000 0.280301
# 5 0.007606 0.015317 0.004794 0.000000 0.044315 0.000000
# 6 0.000000 0.000000 0.000000 0.280301 0.000000 -0.333916
#
#
# Mechanical properties :
#
#
# Convention : Reuss Voigt Hill
#
# Bulk Modulus (GPa) = 13.97561 34.10210 24.03886
# Shear Modulus (GPa) = -16.12661 19.94429 1.90884
#
# Velocity S-wave (km/s) = -2.77791 3.08928 0.95572
# Velocity P-wave (km/s) = 1.89777 5.38917 3.56662
#
# Compressibility (1/GPa) = 0.07155321
#
# Stress axis : x y z
#
# Youngs Moduli (GPa) = 64.93405 17.11578 84.19385
#
# Poissons Ratio (x) = 0.07714 0.27118
# Poissons Ratio (y) = 0.29267 -0.05499
# Poissons Ratio (z) = 0.20915 -0.01118
#
# Static dielectric constant tensor:
#      x y z
#    x 1.781620 0.000000 -0.066640 
#    y 0.000000 1.743000 0.000000 
#    z -0.066640 0.000000 1.786160 
# 
# From -- ./inp_files/95000.got.cif
#   From: 2010.05.17/outbox.cif.g08.bks.cpg/sg10_48_cif.got.tgz:95000.got - 2010.06.03 11:33:40.
