data_PCOD9144181
_publ_section_title
;
Structure prediction by ZEFSAII (Michael W. Deem and Ramdas Pophale) SiO2 
 PCOD9144181
Probable space group: P 2/M
;
_chemical_formula_sum "Si O2"
_cell_formula_units_Z 32
_cell_length_a 8.999324
_cell_length_b 22.872425
_cell_length_c 15.080546
_cell_angle_alpha 90.000000
_cell_angle_beta 29.749239
_cell_angle_gamma 90.000000
_cell_volume 1540.282133
_symmetry_space_group_name_H-M "P 2/M"
_symmetry_group_IT_number 10
_symmetry_cell_setting 'monoclinic'
loop_
_space_group_symop_operation_xyz
x,y,z
-x,y,-z
-x,-y,-z
x,-y,z
loop_
_atom_site_type_symbol
_atom_site_label
_atom_site_fract_x
_atom_site_fract_y
_atom_site_fract_z
Si Si1 0.176788 0.877510 0.184637
Si Si2 0.659318 0.432887 0.149415
Si Si3 0.375179 0.605769 0.473287
Si Si4 0.147666 0.844680 0.830908
Si Si5 0.911452 0.771666 0.639879
Si Si6 0.319390 0.350314 0.186079
Si Si7 0.449409 0.265982 0.626128
Si Si8 0.621629 0.936229 0.537932
O O1 0.197495 0.818582 0.232497
O O2 0.032985 0.862261 0.163677
O O3 0.966740 0.921049 0.347593
O O4 0.500000 0.902828 0.000000
O O5 0.672608 0.500000 0.110915
O O6 0.455358 0.429125 0.343465
O O7 0.504300 0.392414 0.155867
O O8 0.000000 0.415742 0.000000
O O9 0.500000 0.578076 0.500000
O O10 0.580850 0.664833 0.359770
O O11 0.021090 0.624436 0.656060
O O12 0.206248 0.775334 0.795577
O O13 0.454466 0.881513 0.667651
O O14 0.000000 0.859659 0.000000
O O15 0.707925 0.713387 0.751858
O O16 0.000000 0.799677 0.500000
O O17 0.233723 0.745900 0.495808
O O18 0.500000 0.344312 0.000000
O O19 0.500000 0.244093 0.500000
O O20 0.500000 0.938330 0.500000
O O21 0.565367 0.000000 0.607824
#
# Coordination Sequence:
#
# PCOD9144181 Si02
#       8
#     4   4   4   4   4   4   4   4
#     4  11  23  38  60  94 130 162 211 264 320 378
#     4  11  25  46  68  94 129 170 220 271 318 380
#     4  10  22  39  66  97 129 169 212 265 320 389
#     4  11  22  38  62  93 126 169 215 259 315 379
#     4  11  22  38  63  89 129 165 203 259 320 380
#     4  11  23  42  65  97 131 168 215 264 325 382
#     4  10  18  38  60  86 124 165 206 254 312 375
#     4   9  19  40  65  86 122 172 215 263 312 370
#
# _framework density 20.775414999999999
#
# number of rings (size 3 to 8) (size 9 to 14) (size 15 to 20)
#    0.000    1.500    2.500    3.375    1.750    2.500 
#    4.500    0.000    0.000    2.625    0.000    0.000 
#    0.000    0.000    0.000    0.000    0.000    0.000 
#
# Total GULP energy -178494.743114 kJ/mol
# GULP energy per Si atom -5577.960722 kJ/mol
# Density = 2.072813 g / cm^3
# Si number density = 20.775415 Si / 1000 Ang^3
#
#
#
# Elastic Constant Matrix: (Units=GPa)
#
#
# Indices 1 2 3 4 5 6 
#
# 1 70.0865 29.4173 33.4959 0.0000 6.1308 0.0000
# 2 29.4173 61.4289 13.1542 0.0000 2.0371 0.0000
# 3 33.4959 13.1542 106.4669 0.0000 5.0460 0.0000
# 4 0.0000 0.0000 0.0000 2.8356 0.0000 26.0240
# 5 6.1308 2.0371 5.0460 0.0000 36.5995 0.0000
# 6 0.0000 0.0000 0.0000 26.0240 0.0000 91.5512
#
#
#
# Elastic Compliance Matrix: (Units=1/GPa)
#
#
# Indices 1 2 3 4 5 6 
#
# 1 0.020646 -0.008674 -0.005318 0.000000 -0.002243 0.000000
# 2 -0.008674 0.020381 0.000197 0.000000 0.000291 0.000000
# 3 -0.005318 0.000197 0.011072 0.000000 -0.000647 0.000000
# 4 0.000000 0.000000 0.000000 -0.219209 0.000000 0.062312
# 5 -0.002243 0.000291 -0.000647 0.000000 0.027771 0.000000
# 6 0.000000 0.000000 0.000000 0.062312 0.000000 -0.006790
#
#
# Mechanical properties :
#
#
# Convention : Reuss Voigt Hill
#
# Bulk Modulus (GPa) = 40.79985 43.34635 42.07310
# Shear Modulus (GPa) = -45.30265 36.99160 -4.15552
#
# Velocity S-wave (km/s) = -4.67474 4.22423 -1.41582
# Velocity P-wave (km/s) = 3.07514 6.68593 4.19793
#
# Compressibility (1/GPa) = 0.02450989
#
# Stress axis : x y z
#
# Youngs Moduli (GPa) = 48.43438 49.06522 90.31873
#
# Poissons Ratio (x) = 0.42560 0.48029
# Poissons Ratio (y) = 0.42013 -0.01780
# Poissons Ratio (z) = 0.25756 -0.00967
#
# Static dielectric constant tensor:
#      x y z
#    x 1.733590 0.000000 0.002420 
#    y 0.000000 1.750140 0.000000 
#    z 0.002420 0.000000 1.749920 
# 
# From -- ./inp_files/62695.got.cif
#   From: 2010.05.17/outbox.cif.g08.bks.cpg/sg10_32_cif.got.tgz:62695.got - 2010.06.03 11:33:40.
