data_PCOD9144851
_publ_section_title
;
Structure prediction by ZEFSAII (Michael W. Deem and Ramdas Pophale) SiO2 
 PCOD9144851
Probable space group: P 2/M
;
_chemical_formula_sum "Si O2"
_cell_formula_units_Z 32
_cell_length_a 34.705588
_cell_length_b 7.474844
_cell_length_c 12.343406
_cell_angle_alpha 90.000000
_cell_angle_beta 24.942475
_cell_angle_gamma 90.000000
_cell_volume 1350.356729
_symmetry_space_group_name_H-M "P 2/M"
_symmetry_group_IT_number 10
_symmetry_cell_setting 'monoclinic'
loop_
_space_group_symop_operation_xyz
x,y,z
-x,y,-z
-x,-y,-z
x,-y,z
loop_
_atom_site_type_symbol
_atom_site_label
_atom_site_fract_x
_atom_site_fract_y
_atom_site_fract_z
Si Si1 0.503681 0.785758 0.168432
Si Si2 0.768388 0.713510 0.816902
Si Si3 0.900192 0.215428 0.291167
Si Si4 0.062680 0.715937 0.186494
Si Si5 0.137674 0.282641 0.216144
Si Si6 0.640915 0.782917 0.621054
Si Si7 0.810064 0.795516 0.314762
Si Si8 0.424609 0.288354 0.775351
O O1 0.406327 0.718395 0.369444
O O2 0.540321 0.729559 0.191369
O O3 0.499146 0.000000 0.184634
O O4 0.574595 0.741631 0.891604
O O5 0.759937 0.500000 0.847289
O O6 0.858207 0.743835 0.514679
O O7 0.786317 0.781457 0.893322
O O8 0.676827 0.784138 0.992433
O O9 0.827280 0.285368 0.387986
O O10 0.903081 0.000000 0.274380
O O11 0.000000 0.281871 0.000000
O O12 0.065388 0.500000 0.172184
O O13 0.130670 0.777453 0.109820
O O14 0.960801 0.764528 0.481548
O O15 0.094449 0.793348 0.992078
O O16 0.141451 0.500000 0.202232
O O17 0.737793 0.713330 0.415895
O O18 0.645322 0.000000 0.599205
O O19 0.779856 0.000000 0.409962
O O20 0.500000 0.213944 0.500000
O O21 0.418914 0.500000 0.769277
#
# Coordination Sequence:
#
# PCOD9144851 Si02
#       8
#     4   4   4   4   4   4   4   4
#     4   9  17  34  57  74  92 125 170 209 247 303
#     4  10  20  35  55  75 100 139 180 211 247 306
#     4  10  21  35  52  78 111 141 168 207 258 303
#     4   9  17  31  51  72  95 125 164 206 242 286
#     4   8  16  32  51  70  94 127 166 206 246 286
#     4   8  16  31  52  75  97 125 159 202 254 301
#     4  10  19  31  47  71 104 132 156 195 250 302
#     4  10  22  37  51  73 107 140 169 211 265 308
#
# _framework density 23.697441999999999
#
# number of rings (size 3 to 8) (size 9 to 14) (size 15 to 20)
#    0.000    2.750    0.000    3.000    0.000    3.500 
#    0.000    5.625    0.000    0.000    0.000    0.000 
#    0.000    0.000    0.000    0.000    0.000    0.000 
#
# Total GULP energy -178579.127909 kJ/mol
# GULP energy per Si atom -5580.597747 kJ/mol
# Density = 2.364351 g / cm^3
# Si number density = 23.697442 Si / 1000 Ang^3
#
#
#
# Elastic Constant Matrix: (Units=GPa)
#
#
# Indices 1 2 3 4 5 6 
#
# 1 158.1736 0.8186 27.1641 0.0000 -16.7952 0.0000
# 2 0.8186 67.3890 1.3825 0.0000 -7.8831 0.0000
# 3 27.1641 1.3825 44.8939 0.0000 -11.2863 0.0000
# 4 0.0000 0.0000 0.0000 -5.6616 0.0000 -12.5759
# 5 -16.7952 -7.8831 -11.2863 0.0000 34.8085 0.0000
# 6 0.0000 0.0000 0.0000 -12.5759 0.0000 -3.5314
#
#
#
# Elastic Compliance Matrix: (Units=1/GPa)
#
#
# Indices 1 2 3 4 5 6 
#
# 1 0.007218 0.000261 -0.003794 0.000000 0.002311 0.000000
# 2 0.000261 0.015260 0.000297 0.000000 0.003678 0.000000
# 3 -0.003794 0.000297 0.026258 0.000000 0.006751 0.000000
# 4 0.000000 0.000000 0.000000 0.025560 0.000000 -0.091025
# 5 0.002311 0.003678 0.006751 0.000000 0.032866 0.000000
# 6 0.000000 0.000000 0.000000 -0.091025 0.000000 0.040979
#
#
# Mechanical properties :
#
#
# Convention : Reuss Voigt Hill
#
# Bulk Modulus (GPa) = 23.66120 36.57631 30.11876
# Shear Modulus (GPa) = 29.63800 21.19585 25.41693
#
# Velocity S-wave (km/s) = 3.54034 2.99396 3.27855
# Velocity P-wave (km/s) = 5.16898 5.23640 5.20280
#
# Compressibility (1/GPa) = 0.04226328
#
# Stress axis : x y z
#
# Youngs Moduli (GPa) = 138.54517 65.52988 38.08291
#
# Poissons Ratio (x) = -0.01707 0.14450
# Poissons Ratio (y) = -0.03610 -0.01131
# Poissons Ratio (z) = 0.52568 -0.01947
#
# Static dielectric constant tensor:
#      x y z
#    x 1.943350 0.000000 -0.064830 
#    y 0.000000 1.901790 0.000000 
#    z -0.064830 0.000000 1.906540 
# 
# From -- ./inp_files/58136.got.cif
#   From: 2010.05.17/outbox.cif.g08.bks.cpg/sg10_30_cif.got.tgz:58136.got - 2010.06.03 11:33:40.
