data_PCOD9144277
_publ_section_title
;
Structure prediction by ZEFSAII (Michael W. Deem and Ramdas Pophale) SiO2 
 PCOD9144277
Probable space group: P 2/M
;
_chemical_formula_sum "Si O2"
_cell_formula_units_Z 32
_cell_length_a 9.177466
_cell_length_b 13.309067
_cell_length_c 29.314678
_cell_angle_alpha 90.000000
_cell_angle_beta 141.233000
_cell_angle_gamma 90.000000
_cell_volume 2242.008560
_symmetry_space_group_name_H-M "P 2/M"
_symmetry_group_IT_number 10
_symmetry_cell_setting 'monoclinic'
loop_
_space_group_symop_operation_xyz
x,y,z
-x,y,-z
-x,-y,-z
x,-y,z
loop_
_atom_site_type_symbol
_atom_site_label
_atom_site_fract_x
_atom_site_fract_y
_atom_site_fract_z
Si Si1 0.990906 0.195746 0.364454
Si Si2 0.132718 0.879684 0.223476
Si Si3 0.401273 0.877988 0.927209
Si Si4 0.182533 0.881402 0.505873
Si Si5 0.310320 0.211324 0.359972
Si Si6 0.522069 0.879632 0.777001
Si Si7 0.264333 0.877757 0.073382
Si Si8 0.736030 0.382802 0.587289
O O1 0.074123 0.140138 0.430081
O O2 0.144582 0.161306 0.358298
O O3 0.064130 0.313162 0.386321
O O4 0.721675 0.175630 0.290036
O O5 0.217353 0.818362 0.287979
O O6 0.302102 0.862565 0.221930
O O7 0.868033 0.852359 0.146203
O O8 0.139628 0.000000 0.235449
O O9 0.563318 0.844490 0.924875
O O10 0.411067 0.000000 0.930205
O O11 0.500000 0.843189 0.000000
O O12 0.427784 0.826529 0.570579
O O13 0.000000 0.848493 0.500000
O O14 0.222102 0.000000 0.521471
O O15 0.301287 0.328176 0.372997
O O16 0.639779 0.849439 0.853548
O O17 0.476158 0.000000 0.767661
O O18 0.261135 0.000000 0.071803
O O19 0.000000 0.844284 0.000000
O O20 0.500000 0.369894 0.500000
O O21 0.789525 0.500000 0.603235
#
# Coordination Sequence:
#
# PCOD9144277 Si02
#       8
#     4   4   4   4   4   4   4   4
#     4  10  19  32  47  70  84 120 153 193 227 276
#     4  10  19  29  42  64  98 133 158 188 227 268
#     4   9  16  26  40  59  87 128 171 199 222 257
#     4  11  21  31  43  64  98 130 153 181 219 267
#     4  10  19  32  47  70  84 120 153 193 227 276
#     4  10  19  29  42  64  98 133 158 188 227 268
#     4   9  16  26  40  59  87 128 171 199 222 257
#     4   9  18  36  56  70  86 112 150 200 254 288
#
# _framework density 14.272917
#
# number of rings (size 3 to 8) (size 9 to 14) (size 15 to 20)
#    0.750    1.500    1.250    3.375    0.000    8.500 
#    0.000    0.000    0.000    3.750    0.000    0.000 
#    0.000    1.000    0.000    0.000    0.000    0.000 
#
# Total GULP energy -178178.729547 kJ/mol
# GULP energy per Si atom -5568.085298 kJ/mol
# Density = 1.424043 g / cm^3
# Si number density = 14.272917 Si / 1000 Ang^3
#
#
#
# Elastic Constant Matrix: (Units=GPa)
#
#
# Indices 1 2 3 4 5 6 
#
# 1 107.2939 17.6522 51.9670 0.0000 5.1412 0.0000
# 2 17.6522 27.6101 10.5879 0.0000 5.1625 0.0000
# 3 51.9670 10.5879 110.3810 0.0000 4.5605 0.0000
# 4 0.0000 0.0000 0.0000 -0.6756 0.0000 3.1247
# 5 5.1412 5.1625 4.5605 0.0000 33.7736 0.0000
# 6 0.0000 0.0000 0.0000 3.1247 0.0000 3.6639
#
#
#
# Elastic Compliance Matrix: (Units=1/GPa)
#
#
# Indices 1 2 3 4 5 6 
#
# 1 0.013025 -0.006151 -0.005530 0.000000 -0.000296 0.000000
# 2 -0.006151 0.041471 -0.000864 0.000000 -0.005286 0.000000
# 3 -0.005530 -0.000864 0.011771 0.000000 -0.000616 0.000000
# 4 0.000000 0.000000 0.000000 -0.299360 0.000000 0.255304
# 5 -0.000296 -0.005286 -0.000616 0.000000 0.030545 0.000000
# 6 0.000000 0.000000 0.000000 0.255304 0.000000 0.055204
#
#
# Mechanical properties :
#
#
# Convention : Reuss Voigt Hill
#
# Bulk Modulus (GPa) = 24.28505 45.07769 34.68137
# Shear Modulus (GPa) = -46.07073 18.35757 -13.85658
#
# Velocity S-wave (km/s) = -5.68757 3.59023 -3.11920
# Velocity P-wave (km/s) = 5.10682 6.98839 3.37327
#
# Compressibility (1/GPa) = 0.04117760
#
# Stress axis : x y z
#
# Youngs Moduli (GPa) = 76.77736 24.11330 84.95335
#
# Poissons Ratio (x) = 0.14833 0.46977
# Poissons Ratio (y) = 0.47228 0.07336
# Poissons Ratio (z) = 0.42456 0.02082
#
# Static dielectric constant tensor:
#      x y z
#    x 1.476850 0.000000 -0.004000 
#    y 0.000000 1.442720 0.000000 
#    z -0.004000 0.000000 1.462300 
# 
# From -- ./inp_files/92328.got.cif
#   From: 2010.05.17/outbox.cif.g08.bks.cpg/sg10_47_cif.got.tgz:92328.got - 2010.06.03 11:33:40.
