data_PCOD9144421
_publ_section_title
;
Structure prediction by ZEFSAII (Michael W. Deem and Ramdas Pophale) SiO2 
 PCOD9144421
Probable space group: P 2/M
;
_chemical_formula_sum "Si O2"
_cell_formula_units_Z 32
_cell_length_a 16.971545
_cell_length_b 14.216376
_cell_length_c 18.047179
_cell_angle_alpha 90.000000
_cell_angle_beta 23.771043
_cell_angle_gamma 90.000000
_cell_volume 1755.148652
_symmetry_space_group_name_H-M "P 2/M"
_symmetry_group_IT_number 10
_symmetry_cell_setting 'monoclinic'
loop_
_space_group_symop_operation_xyz
x,y,z
-x,y,-z
-x,-y,-z
x,-y,z
loop_
_atom_site_type_symbol
_atom_site_label
_atom_site_fract_x
_atom_site_fract_y
_atom_site_fract_z
Si Si1 0.304097 0.392154 0.761697
Si Si2 0.736252 0.890113 0.358472
Si Si3 0.742994 0.391579 0.376205
Si Si4 0.016849 0.250672 0.088105
Si Si5 0.009271 0.887058 0.268963
Si Si6 0.625848 0.890613 0.231556
Si Si7 0.852812 0.884800 0.562346
Si Si8 0.553819 0.888424 0.128811
O O1 0.277437 0.500000 0.808654
O O2 0.526753 0.363797 0.591016
O O3 0.283532 0.391696 0.690489
O O4 0.137627 0.328732 0.939302
O O5 0.517721 0.871197 0.575949
O O6 0.831002 0.813668 0.222041
O O7 0.874317 0.876281 0.312574
O O8 0.748411 0.000000 0.325099
O O9 0.784221 0.500000 0.362548
O O10 0.914008 0.315614 0.240476
O O11 0.186162 0.172165 0.944373
O O12 0.925386 0.853325 0.419086
O O13 0.023688 0.000000 0.263226
O O14 0.229736 0.848998 0.069859
O O15 0.506360 0.881412 0.257287
O O16 0.685815 0.000000 0.185527
O O17 0.627991 0.852362 0.762192
O O18 0.000000 0.854916 0.500000
O O19 0.850855 0.000000 0.564622
O O20 0.566959 0.000000 0.102243
#
# Coordination Sequence:
#
# PCOD9144421 Si02
#       8
#     4   4   4   4   4   4   4   4
#     4   9  19  36  55  74  96 118 140 173 222 280
#     4  10  19  30  43  61  89 125 161 196 229 262
#     4   9  19  36  55  74  96 118 140 173 222 280
#     4  12  19  27  48  77  93 111 154 193 222 264
#     4   9  15  25  39  53  74 109 150 191 231 265
#     4  10  19  30  43  61  89 125 161 196 229 262
#     4   9  16  24  36  54  76 106 150 201 240 268
#     4   9  15  25  39  53  74 109 150 191 231 265
#
# _framework density 18.232074000000001
#
# number of rings (size 3 to 8) (size 9 to 14) (size 15 to 20)
#    0.000    2.375    2.500    2.625    0.000    1.500 
#    0.000    2.500    0.000    6.000    0.000   14.000 
#    0.000    0.000    0.000    0.000    0.000   15.000 
#
# Total GULP energy -178170.389137 kJ/mol
# GULP energy per Si atom -5567.824661 kJ/mol
# Density = 1.819058 g / cm^3
# Si number density = 18.232074 Si / 1000 Ang^3
#
#
#
# Elastic Constant Matrix: (Units=GPa)
#
#
# Indices 1 2 3 4 5 6 
#
# 1 47.6565 3.6442 23.8472 0.0000 -14.1870 0.0000
# 2 3.6442 90.2037 52.0604 0.0000 -8.9144 0.0000
# 3 23.8472 52.0604 130.3991 0.0000 -22.8119 0.0000
# 4 0.0000 0.0000 0.0000 26.2420 0.0000 -6.9980
# 5 -14.1870 -8.9144 -22.8119 0.0000 21.9140 0.0000
# 6 0.0000 0.0000 0.0000 -6.9980 0.0000 -0.3046
#
#
#
# Elastic Compliance Matrix: (Units=1/GPa)
#
#
# Indices 1 2 3 4 5 6 
#
# 1 0.026867 0.002233 -0.003183 0.000000 0.014989 0.000000
# 2 0.002233 0.014591 -0.006043 0.000000 0.001090 0.000000
# 3 -0.003183 -0.006043 0.012071 0.000000 0.008047 0.000000
# 4 0.000000 0.000000 0.000000 0.005347 0.000000 -0.122848
# 5 0.014989 0.001090 0.008047 0.000000 0.064157 0.000000
# 6 0.000000 0.000000 0.000000 -0.122848 0.000000 -0.460675
#
#
# Mechanical properties :
#
#
# Convention : Reuss Voigt Hill
#
# Bulk Modulus (GPa) = 25.28829 47.48476 36.38653
# Shear Modulus (GPa) = -16.10438 22.15079 3.02320
#
# Velocity S-wave (km/s) = -2.97526 3.48937 1.28910
# Velocity P-wave (km/s) = 1.44825 6.50657 4.71343
#
# Compressibility (1/GPa) = 0.03954399
#
# Stress axis : x y z
#
# Youngs Moduli (GPa) = 37.21971 68.53432 82.84220
#
# Poissons Ratio (x) = -0.15302 0.26366
# Poissons Ratio (y) = -0.08310 0.50061
# Poissons Ratio (z) = 0.11846 0.41415
#
# Static dielectric constant tensor:
#      x y z
#    x 1.700210 0.000000 0.007760 
#    y 0.000000 1.674940 0.000000 
#    z 0.007760 0.000000 1.706770 
# 
# From -- ./inp_files/86242.got.cif
#   From: 2010.05.17/outbox.cif.g08.bks.cpg/sg10_44_cif.got.tgz:86242.got - 2010.06.03 11:33:40.
