data_PCOD9144240
_publ_section_title
;
Structure prediction by ZEFSAII (Michael W. Deem and Ramdas Pophale) SiO2 
 PCOD9144240
Probable space group: P 2/M
;
_chemical_formula_sum "Si O2"
_cell_formula_units_Z 32
_cell_length_a 12.077420
_cell_length_b 20.779081
_cell_length_c 8.290539
_cell_angle_alpha 90.000000
_cell_angle_beta 51.396601
_cell_angle_gamma 90.000000
_cell_volume 1625.934562
_symmetry_space_group_name_H-M "P 2/M"
_symmetry_group_IT_number 10
_symmetry_cell_setting 'monoclinic'
loop_
_space_group_symop_operation_xyz
x,y,z
-x,y,-z
-x,-y,-z
x,-y,z
loop_
_atom_site_type_symbol
_atom_site_label
_atom_site_fract_x
_atom_site_fract_y
_atom_site_fract_z
Si Si1 0.797878 0.929771 0.585696
Si Si2 0.058483 0.644167 0.782655
Si Si3 0.022062 0.882742 0.156421
Si Si4 0.702421 0.835778 0.955031
Si Si5 0.819060 0.763188 0.413394
Si Si6 0.832600 0.428244 0.602240
Si Si7 0.426657 0.138759 0.393803
Si Si8 0.807961 0.300039 0.778070
O O1 0.952512 0.923965 0.363313
O O2 0.759557 0.871633 0.741769
O O3 0.683833 0.917944 0.546579
O O4 0.778234 0.000000 0.677392
O O5 0.160359 0.704196 0.725728
O O6 0.149100 0.593661 0.598428
O O7 0.931869 0.677322 0.789827
O O8 0.000000 0.616193 0.000000
O O9 0.934504 0.816628 0.262284
O O10 0.184764 0.863624 0.021227
O O11 0.000000 0.910918 0.000000
O O12 0.716508 0.758213 0.935199
O O13 0.547534 0.856938 0.148153
O O14 0.667963 0.796682 0.532021
O O15 0.844999 0.734196 0.570520
O O16 0.777045 0.500000 0.676501
O O17 0.754418 0.370410 0.767832
O O18 0.000000 0.428114 0.500000
O O19 0.500000 0.132820 0.500000
#
# Coordination Sequence:
#
# PCOD9144240 Si02
#       8
#     4   4   4   4   4   4   4   4
#     4  11  26  44  61  83 114 152 191 232 285 352
#     4  10  19  28  52  88 115 154 192 240 293 334
#     4  11  22  37  62  87 115 143 186 241 290 342
#     4  12  22  37  62  88 114 148 194 242 284 340
#     4  10  19  35  53  81 116 148 183 231 288 344
#     4   8  16  30  47  75 120 162 192 229 284 343
#     4  11  25  40  59  86 114 149 187 241 297 343
#     4  10  19  31  57  83 113 151 193 234 285 331
#
# _framework density 19.680989
#
# number of rings (size 3 to 8) (size 9 to 14) (size 15 to 20)
#    0.000    1.625    3.750    3.750    1.750    2.750 
#    0.000    1.250    0.000    0.000    0.000    7.000 
#    0.000    8.500    0.000    0.000    0.000    0.000 
#
# Total GULP energy -178183.878061 kJ/mol
# GULP energy per Si atom -5568.246189 kJ/mol
# Density = 1.963619 g / cm^3
# Si number density = 19.680989 Si / 1000 Ang^3
#
#
#
# Elastic Constant Matrix: (Units=GPa)
#
#
# Indices 1 2 3 4 5 6 
#
# 1 50.7870 4.6795 4.8383 0.0000 2.6161 0.0000
# 2 4.6795 124.5276 9.2158 0.0000 -0.5798 0.0000
# 3 4.8383 9.2158 50.2738 0.0000 -3.3915 0.0000
# 4 0.0000 0.0000 0.0000 4.5079 0.0000 -1.4933
# 5 2.6161 -0.5798 -3.3915 0.0000 31.4366 0.0000
# 6 0.0000 0.0000 0.0000 -1.4933 0.0000 8.6673
#
#
#
# Elastic Compliance Matrix: (Units=1/GPa)
#
#
# Indices 1 2 3 4 5 6 
#
# 1 0.020029 -0.000618 -0.001942 0.000000 -0.001888 0.000000
# 2 -0.000618 0.008160 -0.001433 0.000000 0.000047 0.000000
# 3 -0.001942 -0.001433 0.020499 0.000000 0.002347 0.000000
# 4 0.000000 0.000000 0.000000 0.235260 0.000000 0.040534
# 5 -0.001888 0.000047 0.002347 0.000000 0.032221 0.000000
# 6 0.000000 0.000000 0.000000 0.040534 0.000000 0.122360
#
#
# Mechanical properties :
#
#
# Convention : Reuss Voigt Hill
#
# Bulk Modulus (GPa) = 24.56831 29.22839 26.89835
# Shear Modulus (GPa) = 10.86763 22.71267 16.79015
#
# Velocity S-wave (km/s) = 2.35242 3.40080 2.92398
# Velocity P-wave (km/s) = 4.45969 5.50490 5.00963
#
# Compressibility (1/GPa) = 0.04070285
#
# Stress axis : x y z
#
# Youngs Moduli (GPa) = 49.92711 122.55129 48.78294
#
# Poissons Ratio (x) = 0.07571 0.09472
# Poissons Ratio (y) = 0.03084 0.06991
# Poissons Ratio (z) = 0.09694 0.17564
#
# Static dielectric constant tensor:
#      x y z
#    x 1.769190 0.000000 0.052760 
#    y 0.000000 1.712350 0.000000 
#    z 0.052760 0.000000 1.712450 
# 
# From -- ./inp_files/26074.got.cif
#   From: 2010.05.17/outbox.cif.g08.bks.cpg/sg10_14_cif.got.tgz:26074.got - 2010.06.03 11:33:40.
