data_PCOD9144740
_publ_section_title
;
Structure prediction by ZEFSAII (Michael W. Deem and Ramdas Pophale) SiO2 
 PCOD9144740
Probable space group: P 2/M
;
_chemical_formula_sum "Si O2"
_cell_formula_units_Z 28
_cell_length_a 11.097719
_cell_length_b 9.269734
_cell_length_c 14.325278
_cell_angle_alpha 90.000000
_cell_angle_beta 80.700286
_cell_angle_gamma 90.000000
_cell_volume 1454.313618
_symmetry_space_group_name_H-M "P 2/M"
_symmetry_group_IT_number 10
_symmetry_cell_setting 'monoclinic'
loop_
_space_group_symop_operation_xyz
x,y,z
-x,y,-z
-x,-y,-z
x,-y,z
loop_
_atom_site_type_symbol
_atom_site_label
_atom_site_fract_x
_atom_site_fract_y
_atom_site_fract_z
Si Si1 0.014810 0.330462 0.387964
Si Si2 0.258934 0.671594 0.887871
Si Si3 0.713948 0.328788 0.613408
Si Si4 0.880423 0.834427 0.947274
Si Si5 0.069094 0.827740 0.774174
Si Si6 0.639006 0.836472 0.443222
Si Si7 0.451922 0.327932 0.721925
O O1 0.987409 0.500000 0.374542
O O2 0.158413 0.303159 0.351992
O O3 0.935987 0.232252 0.329551
O O4 0.000000 0.304006 0.500000
O O5 0.240080 0.500000 0.890546
O O6 0.221188 0.735637 0.992472
O O7 0.393492 0.702676 0.830027
O O8 0.168481 0.745743 0.824217
O O9 0.707028 0.500000 0.594119
O O10 0.710519 0.246240 0.515362
O O11 0.593421 0.288652 0.687484
O O12 0.838604 0.000000 0.951501
O O13 0.938278 0.795986 0.840450
O O14 0.000000 0.828254 0.000000
O O15 0.088043 0.000000 0.776487
O O16 0.500000 0.841672 0.500000
O O17 0.626131 0.752406 0.347915
O O18 0.682280 0.000000 0.424346
O O19 0.441216 0.500000 0.707548
#
# Coordination Sequence:
#
# PCOD9144740 Si02
#       7
#     4   4   4   4   4   4   4
#     4  10  22  37  53  74  99 131 174 217 247 285
#     4  10  19  30  51  81 106 128 164 209 249 298
#     4   9  18  34  51  66  95 135 168 203 251 297
#     4   8  16  32  51  73 102 132 162 200 252 306
#     4  10  21  36  53  74 103 137 167 201 252 306
#     4   9  17  28  44  68  95 125 164 205 242 287
#     4   9  18  31  48  71  99 132 164 199 250 303
#
# _framework density 19.253070000000001
#
# number of rings (size 3 to 8) (size 9 to 14) (size 15 to 20)
#    0.000    2.714    0.000    2.143    2.000    6.857 
#    0.000    0.000    0.000    0.857    0.000    6.000 
#    0.000    0.000    0.000    0.000    0.000    0.000 
#
# Total GULP energy -156141.326141 kJ/mol
# GULP energy per Si atom -5576.475934 kJ/mol
# Density = 1.920925 g / cm^3
# Si number density = 19.253070 Si / 1000 Ang^3
#
#
#
# Elastic Constant Matrix: (Units=GPa)
#
#
# Indices 1 2 3 4 5 6 
#
# 1 38.5068 21.0170 14.3132 0.0000 -15.2779 0.0000
# 2 21.0170 35.2384 25.9419 0.0000 -10.7381 0.0000
# 3 14.3132 25.9419 78.0607 0.0000 -25.0349 0.0000
# 4 0.0000 0.0000 0.0000 17.9472 0.0000 -2.3265
# 5 -15.2779 -10.7381 -25.0349 0.0000 30.2963 0.0000
# 6 0.0000 0.0000 0.0000 -2.3265 0.0000 3.1025
#
#
#
# Elastic Compliance Matrix: (Units=1/GPa)
#
#
# Indices 1 2 3 4 5 6 
#
# 1 0.045246 -0.025923 0.006381 0.000000 0.018901 0.000000
# 2 -0.025923 0.052797 -0.014944 0.000000 -0.006708 0.000000
# 3 0.006381 -0.014944 0.021688 0.000000 0.015842 0.000000
# 4 0.000000 0.000000 0.000000 0.061719 0.000000 0.046282
# 5 0.018901 -0.006708 0.015842 0.000000 0.053252 0.000000
# 6 0.000000 0.000000 0.000000 0.046282 0.000000 0.357023
#
#
# Mechanical properties :
#
#
# Convention : Reuss Voigt Hill
#
# Bulk Modulus (GPa) = 19.70188 30.48334 25.09261
# Shear Modulus (GPa) = 7.37881 16.30480 11.84181
#
# Velocity S-wave (km/s) = 1.95981 2.91326 2.48273
# Velocity P-wave (km/s) = 3.92128 5.21377 4.61302
#
# Compressibility (1/GPa) = 0.05075658
#
# Stress axis : x y z
#
# Youngs Moduli (GPa) = 22.10157 18.94056 46.10895
#
# Poissons Ratio (x) = 0.49100 -0.29420
# Poissons Ratio (y) = 0.57294 0.68906
# Poissons Ratio (z) = -0.14102 0.28305
#
# Static dielectric constant tensor:
#      x y z
#    x 1.685950 0.000000 -0.060750 
#    y 0.000000 1.648930 0.000000 
#    z -0.060750 0.000000 1.704540 
# 
# From -- ./inp_files/63387.got.cif
#   From: 2010.05.17/outbox.cif.g08.bks.cpg/sg10_32_cif.got.tgz:63387.got - 2010.06.03 11:33:40.
