data_PCOD9144576
_publ_section_title
;
Structure prediction by ZEFSAII (Michael W. Deem and Ramdas Pophale) SiO2 
 PCOD9144576
Probable space group: P 2/M
;
_chemical_formula_sum "Si O2"
_cell_formula_units_Z 28
_cell_length_a 16.449531
_cell_length_b 21.412772
_cell_length_c 9.627693
_cell_angle_alpha 90.000000
_cell_angle_beta 159.263538
_cell_angle_gamma 90.000000
_cell_volume 1200.709275
_symmetry_space_group_name_H-M "P 2/M"
_symmetry_group_IT_number 10
_symmetry_cell_setting 'monoclinic'
loop_
_space_group_symop_operation_xyz
x,y,z
-x,y,-z
-x,-y,-z
x,-y,z
loop_
_atom_site_type_symbol
_atom_site_label
_atom_site_fract_x
_atom_site_fract_y
_atom_site_fract_z
Si Si1 0.299649 0.147407 0.566213
Si Si2 0.614094 0.500000 0.379166
Si Si3 0.884114 0.636520 0.123703
Si Si4 0.385378 0.926936 0.123870
Si Si5 0.518752 0.366550 0.755323
Si Si6 0.982863 0.927878 0.246298
Si Si7 0.196489 0.293422 0.423966
Si Si8 0.988534 0.500000 0.748863
O O1 0.412947 0.117395 0.609810
O O2 0.078735 0.112024 0.273280
O O3 0.240606 0.220255 0.475704
O O4 0.500000 0.138208 0.000000
O O5 0.472717 0.437834 0.181358
O O6 0.748228 0.500000 0.447677
O O7 0.815793 0.500000 0.818026
O O8 0.972720 0.565051 0.268099
O O9 0.083192 0.682109 0.385298
O O10 0.679317 0.637247 0.680408
O O11 0.753406 0.653317 0.056468
O O12 0.456794 0.000000 0.246606
O O13 0.182484 0.925245 0.683370
O O14 0.252488 0.908998 0.052870
O O15 0.423888 0.327047 0.731978
O O16 0.962572 0.000000 0.172376
O O17 0.000000 0.312015 0.000000
#
# Coordination Sequence:
#
# PCOD9144576 Si02
#       8
#     4   2   4   4   4   4   4   2
#     4  10  19  30  47  69  91 117 150 182 216 258
#     4   9  13  21  39  62  87 110 138 186 236 266
#     4   9  16  26  41  61  86 116 148 183 225 267
#     4   8  14  26  46  71  93 111 139 184 229 261
#     4   9  16  26  41  61  86 116 148 183 225 267
#     4   8  14  26  46  71  93 111 139 184 229 261
#     4  10  20  32  43  61  92 125 152 178 212 261
#     4   9  13  21  39  62  87 110 138 186 236 266
#
# _framework density 23.31955
#
# number of rings (size 3 to 8) (size 9 to 14) (size 15 to 20)
#    0.000    3.000    1.429    1.714    0.000    4.571 
#    0.000    0.000    0.000    1.714    0.000    4.000 
#    0.000    2.286    0.000    0.000    0.000    0.000 
#
# Total GULP energy -156548.764381 kJ/mol
# GULP energy per Si atom -5591.027299 kJ/mol
# Density = 2.326647 g / cm^3
# Si number density = 23.319550 Si / 1000 Ang^3
#
#
#
# Elastic Constant Matrix: (Units=GPa)
#
#
# Indices 1 2 3 4 5 6 
#
# 1 177.1631 95.5391 68.3270 0.0000 62.2581 0.0000
# 2 95.5391 135.3538 46.1088 0.0000 64.4918 0.0000
# 3 68.3270 46.1088 148.6806 0.0000 38.0036 0.0000
# 4 0.0000 0.0000 0.0000 25.6529 0.0000 4.8497
# 5 62.2581 64.4918 38.0036 0.0000 67.1179 0.0000
# 6 0.0000 0.0000 0.0000 4.8497 0.0000 -3.9095
#
#
#
# Elastic Compliance Matrix: (Units=1/GPa)
#
#
# Indices 1 2 3 4 5 6 
#
# 1 0.010458 -0.004782 -0.002359 0.000000 -0.003770 0.000000
# 2 -0.004782 0.015949 0.000041 0.000000 -0.010912 0.000000
# 3 -0.002359 0.000041 0.008475 0.000000 -0.002649 0.000000
# 4 0.000000 0.000000 0.000000 0.031577 0.000000 0.039171
# 5 -0.003770 -0.010912 -0.002649 0.000000 0.030382 0.000000
# 6 0.000000 0.000000 0.000000 0.039171 0.000000 -0.207199
#
#
# Mechanical properties :
#
#
# Convention : Reuss Voigt Hill
#
# Bulk Modulus (GPa) = 48.35479 97.90527 73.13003
# Shear Modulus (GPa) = -56.01306 34.52044 -10.74631
#
# Velocity S-wave (km/s) = -4.90632 3.85167 -2.14902
# Velocity P-wave (km/s) = 3.36380 7.86485 5.02696
#
# Compressibility (1/GPa) = 0.02068048
#
# Stress axis : x y z
#
# Youngs Moduli (GPa) = 95.62038 62.70146 117.99953
#
# Poissons Ratio (x) = 0.29981 0.27842
# Poissons Ratio (y) = 0.45721 -0.00480
# Poissons Ratio (z) = 0.22561 -0.00255
#
# Static dielectric constant tensor:
#      x y z
#    x 1.891910 0.000000 -0.074120 
#    y 0.000000 1.799050 0.000000 
#    z -0.074120 0.000000 1.963180 
# 
# From -- ./inp_files/54259.got.cif
#   From: 2010.05.17/outbox.cif.g08.bks.cpg/sg10_28_cif.got.tgz:54259.got - 2010.06.03 11:33:40.
