data_PCOD9144688
_publ_section_title
;
Structure prediction by ZEFSAII (Michael W. Deem and Ramdas Pophale) SiO2 
 PCOD9144688
Probable space group: P 2/M
;
_chemical_formula_sum "Si O2"
_cell_formula_units_Z 32
_cell_length_a 14.982912
_cell_length_b 9.407971
_cell_length_c 22.484321
_cell_angle_alpha 90.000000
_cell_angle_beta 153.468365
_cell_angle_gamma 90.000000
_cell_volume 1415.728658
_symmetry_space_group_name_H-M "P 2/M"
_symmetry_group_IT_number 10
_symmetry_cell_setting 'monoclinic'
loop_
_space_group_symop_operation_xyz
x,y,z
-x,y,-z
-x,-y,-z
x,-y,z
loop_
_atom_site_type_symbol
_atom_site_label
_atom_site_fract_x
_atom_site_fract_y
_atom_site_fract_z
Si Si1 0.322843 0.160267 0.353124
Si Si2 0.646682 0.167077 0.842728
Si Si3 0.626653 0.335260 0.412021
Si Si4 0.782823 0.339173 0.107026
Si Si5 0.052529 0.341952 0.600298
Si Si6 0.998092 0.661801 0.892376
Si Si7 0.434629 0.164162 0.845963
Si Si8 0.881243 0.842074 0.646735
O O1 0.500000 0.217865 0.500000
O O2 0.156852 0.140293 0.305737
O O3 0.218734 0.265781 0.245215
O O4 0.373357 0.000000 0.361200
O O5 0.531033 0.258763 0.724629
O O6 0.521824 0.175966 0.830349
O O7 0.663458 0.000000 0.837154
O O8 0.860205 0.238615 0.983676
O O9 0.576620 0.500000 0.396356
O O10 0.688245 0.234835 0.503586
O O11 0.840657 0.336519 0.506209
O O12 0.748712 0.500000 0.106170
O O13 0.894829 0.346058 0.109053
O O14 0.926553 0.258901 0.238979
O O15 0.581104 0.254343 0.974798
O O16 0.141465 0.500000 0.661839
O O17 0.213188 0.225854 0.713933
O O18 0.000000 0.324555 0.500000
O O19 0.983930 0.500000 0.905955
O O20 0.440933 0.000000 0.866820
O O21 0.908416 0.000000 0.637061
#
# Coordination Sequence:
#
# PCOD9144688 Si02
#       8
#     4   4   4   4   4   4   4   4
#     4   9  18  34  57  83 109 137 167 202 248 302
#     4  10  19  31  49  74 103 136 174 214 257 302
#     4  11  22  35  52  73 102 139 176 213 257 308
#     4   9  17  31  51  72  99 134 171 210 255 306
#     4  10  20  34  50  70  99 135 175 217 261 307
#     4   9  17  29  49  78 107 134 168 210 252 296
#     4  10  19  30  49  75 101 129 169 221 267 303
#     4  10  20  35  54  77 106 135 169 209 251 304
#
# _framework density 22.603200999999999
#
# number of rings (size 3 to 8) (size 9 to 14) (size 15 to 20)
#    0.000    2.250    1.250    2.250    0.000    6.000 
#    0.000    0.625    0.000    4.500    0.000    5.250 
#    0.000    0.000    0.000    0.000    0.000    0.000 
#
# Total GULP energy -178798.669984 kJ/mol
# GULP energy per Si atom -5587.458437 kJ/mol
# Density = 2.255176 g / cm^3
# Si number density = 22.603201 Si / 1000 Ang^3
#
#
#
# Elastic Constant Matrix: (Units=GPa)
#
#
# Indices 1 2 3 4 5 6 
#
# 1 40.6041 11.6746 0.7650 0.0000 -5.1351 0.0000
# 2 11.6746 212.6270 123.9574 0.0000 -3.5355 0.0000
# 3 0.7650 123.9574 164.3007 0.0000 3.8732 0.0000
# 4 0.0000 0.0000 0.0000 44.8125 0.0000 3.3971
# 5 -5.1351 -3.5355 3.8732 0.0000 22.1350 0.0000
# 6 0.0000 0.0000 0.0000 3.3971 0.0000 12.8910
#
#
#
# Elastic Compliance Matrix: (Units=1/GPa)
#
#
# Indices 1 2 3 4 5 6 
#
# 1 0.025899 -0.002118 0.001350 0.000000 0.005434 0.000000
# 2 -0.002118 0.008705 -0.006606 0.000000 0.002055 0.000000
# 3 0.001350 -0.006606 0.011127 0.000000 -0.002689 0.000000
# 4 0.000000 0.000000 0.000000 0.022770 0.000000 -0.006001
# 5 0.005434 0.002055 -0.002689 0.000000 0.047237 0.000000
# 6 0.000000 0.000000 0.000000 -0.006001 0.000000 0.079155
#
#
# Mechanical properties :
#
#
# Convention : Reuss Voigt Hill
#
# Bulk Modulus (GPa) = 32.27735 76.70287 54.49011
# Shear Modulus (GPa) = 22.73047 34.71001 28.72024
#
# Velocity S-wave (km/s) = 3.17461 3.92295 3.56845
# Velocity P-wave (km/s) = 5.26768 7.38428 6.41390
#
# Compressibility (1/GPa) = 0.03098148
#
# Stress axis : x y z
#
# Youngs Moduli (GPa) = 38.61166 114.88158 89.86907
#
# Poissons Ratio (x) = 0.24337 -0.12129
# Poissons Ratio (y) = 0.08180 0.59366
# Poissons Ratio (z) = -0.05211 0.75889
#
# Static dielectric constant tensor:
#      x y z
#    x 1.980940 0.000000 0.007240 
#    y 0.000000 1.825430 0.000000 
#    z 0.007240 0.000000 1.772470 
# 
# From -- ./inp_files/49906.got.cif
#   From: 2010.05.17/outbox.cif.g08.bks.cpg/sg10_25_cif.got.tgz:49906.got - 2010.06.03 11:33:40.
