data_PCOD9144967
_publ_section_title
;
Structure prediction by ZEFSAII (Michael W. Deem and Ramdas Pophale) SiO2 
 PCOD9144967
Probable space group: P 2/M
;
_chemical_formula_sum "Si O2"
_cell_formula_units_Z 24
_cell_length_a 16.382410
_cell_length_b 8.958145
_cell_length_c 11.571177
_cell_angle_alpha 90.000000
_cell_angle_beta 121.541904
_cell_angle_gamma 90.000000
_cell_volume 1447.252806
_symmetry_space_group_name_H-M "P 2/M"
_symmetry_group_IT_number 10
_symmetry_cell_setting 'monoclinic'
loop_
_space_group_symop_operation_xyz
x,y,z
-x,y,-z
-x,-y,-z
x,-y,z
loop_
_atom_site_type_symbol
_atom_site_label
_atom_site_fract_x
_atom_site_fract_y
_atom_site_fract_z
Si Si1 0.674005 0.821282 0.955988
Si Si2 0.478748 0.672051 0.846230
Si Si3 0.952447 0.679271 0.800026
Si Si4 0.905120 0.679070 0.499814
Si Si5 0.138634 0.820225 0.047528
Si Si6 0.283903 0.178222 0.746817
O O1 0.708649 0.780173 0.111469
O O2 0.660149 0.000000 0.945071
O O3 0.572379 0.743969 0.858308
O O4 0.758014 0.783735 0.928930
O O5 0.467684 0.500000 0.804844
O O6 0.379683 0.759289 0.757239
O O7 0.500000 0.678432 0.000000
O O8 0.958451 0.500000 0.819055
O O9 0.920513 0.712254 0.646274
O O10 0.881212 0.748947 0.842189
O O11 0.055366 0.752194 0.904706
O O12 0.895403 0.500000 0.480131
O O13 0.811189 0.755082 0.379069
O O14 0.000000 0.725436 0.500000
O O15 0.128394 0.000000 0.044639
O O16 0.282818 0.000000 0.738953
#
# Coordination Sequence:
#
# PCOD9144967 Si02
#       6
#     4   4   4   4   4   4
#     4   9  18  31  48  73 100 126 159 198 240 283
#     4   9  17  29  47  71  98 128 160 195 237 284
#     4  10  20  33  49  70  97 128 162 199 239 283
#     4  10  21  35  50  70  98 130 162 197 237 284
#     4  10  19  32  51  72  97 127 160 200 240 282
#     4  10  19  31  49  72 100 130 159 196 239 285
#
# _framework density 16.583143
#
# number of rings (size 3 to 8) (size 9 to 14) (size 15 to 20)
#    0.000    2.333    0.000    4.000    0.000    5.667 
#    0.000    0.000    0.000    1.000    0.000    7.000 
#    0.000    0.000    0.000    0.000    0.000    0.000 
#
# Total GULP energy -133886.342903 kJ/mol
# GULP energy per Si atom -5578.597621 kJ/mol
# Density = 1.654540 g / cm^3
# Si number density = 16.583143 Si / 1000 Ang^3
#
#
#
# Elastic Constant Matrix: (Units=GPa)
#
#
# Indices 1 2 3 4 5 6 
#
# 1 165.7053 64.0897 69.7205 0.0000 24.2637 0.0000
# 2 64.0897 60.2544 48.7354 0.0000 9.6104 0.0000
# 3 69.7205 48.7354 93.5754 0.0000 16.6333 0.0000
# 4 0.0000 0.0000 0.0000 22.5799 0.0000 15.2424
# 5 24.2637 9.6104 16.6333 0.0000 19.5889 0.0000
# 6 0.0000 0.0000 0.0000 15.2424 0.0000 14.5696
#
#
#
# Elastic Compliance Matrix: (Units=1/GPa)
#
#
# Indices 1 2 3 4 5 6 
#
# 1 0.011878 -0.009246 -0.002621 0.000000 -0.007951 0.000000
# 2 -0.009246 0.035917 -0.012627 0.000000 0.004552 0.000000
# 3 -0.002621 -0.012627 0.020655 0.000000 -0.008097 0.000000
# 4 0.000000 0.000000 0.000000 0.150744 0.000000 -0.157705
# 5 -0.007951 0.004552 -0.008097 0.000000 0.065539 0.000000
# 6 0.000000 0.000000 0.000000 -0.157705 0.000000 0.233623
#
#
# Mechanical properties :
#
#
# Convention : Reuss Voigt Hill
#
# Bulk Modulus (GPa) = 51.38031 76.06959 63.72495
# Shear Modulus (GPa) = 8.71337 20.48032 14.59685
#
# Velocity S-wave (km/s) = 2.29472 3.51808 2.97007
# Velocity P-wave (km/s) = 6.17023 7.90403 7.09033
#
# Compressibility (1/GPa) = 0.01946271
#
# Stress axis : x y z
#
# Youngs Moduli (GPa) = 84.19034 27.84194 48.41410
#
# Poissons Ratio (x) = 0.25741 0.12691
# Poissons Ratio (y) = 0.77838 0.61131
# Poissons Ratio (z) = 0.22070 0.35155
#
# Static dielectric constant tensor:
#      x y z
#    x 1.553240 0.000000 -0.008290 
#    y 0.000000 1.557170 0.000000 
#    z -0.008290 0.000000 1.530540 
# 
# From -- ./inp_files/52869.got.cif
#   From: 2010.05.17/outbox.cif.g08.bks.cpg/sg10_27_cif.got.tgz:52869.got - 2010.06.03 11:33:40.
