data_PCOD9144469
_publ_section_title
;
Structure prediction by ZEFSAII (Michael W. Deem and Ramdas Pophale) SiO2 
 PCOD9144469
Probable space group: P 2/M
;
_chemical_formula_sum "Si O2"
_cell_formula_units_Z 28
_cell_length_a 20.002350
_cell_length_b 7.538775
_cell_length_c 18.698758
_cell_angle_alpha 90.000000
_cell_angle_beta 29.543943
_cell_angle_gamma 90.000000
_cell_volume 1390.341810
_symmetry_space_group_name_H-M "P 2/M"
_symmetry_group_IT_number 10
_symmetry_cell_setting 'monoclinic'
loop_
_space_group_symop_operation_xyz
x,y,z
-x,y,-z
-x,-y,-z
x,-y,z
loop_
_atom_site_type_symbol
_atom_site_label
_atom_site_fract_x
_atom_site_fract_y
_atom_site_fract_z
Si Si1 0.721346 0.794977 0.482115
Si Si2 0.106048 0.796915 0.802264
Si Si3 0.604683 0.792077 0.969683
Si Si4 0.361136 0.217771 0.286242
Si Si5 0.842835 0.216767 0.651566
Si Si6 0.816519 0.702415 0.112872
Si Si7 0.520422 0.715908 0.398570
O O1 0.841116 0.718785 0.321212
O O2 0.681669 0.718564 0.595608
O O3 0.593645 0.784308 0.547999
O O4 0.757758 0.000000 0.462836
O O5 0.163079 0.703543 0.819968
O O6 0.154408 0.000000 0.762304
O O7 0.944946 0.796699 0.959744
O O8 0.748998 0.721953 0.806194
O O9 0.628267 0.000000 0.963329
O O10 0.500000 0.783554 0.000000
O O11 0.510283 0.719575 0.121331
O O12 0.245735 0.265873 0.335837
O O13 0.367693 0.000000 0.279991
O O14 0.000000 0.274165 0.500000
O O15 0.844435 0.000000 0.652805
O O16 0.822597 0.500000 0.082836
O O17 0.668674 0.775891 0.235857
O O18 0.500000 0.770091 0.500000
O O19 0.517377 0.500000 0.400360
#
# Coordination Sequence:
#
# PCOD9144469 Si02
#       7
#     4   4   4   4   4   4   4
#     4  10  20  31  46  68  96 128 153 187 240 287
#     4  10  19  30  45  67  93 119 148 183 230 284
#     4   7  10  18  33  51  75 109 145 178 209 250
#     4   8  14  25  37  55  87 120 150 180 220 273
#     4   8  12  19  35  58  82 113 152 187 215 251
#     4  10  19  32  50  67  84 112 153 196 237 271
#     4  10  20  34  50  68  88 114 156 204 236 269
#
# _framework density 20.138933000000002
#
# number of rings (size 3 to 8) (size 9 to 14) (size 15 to 20)
#    0.000    3.000    1.429    3.429    0.000    2.000 
#    0.000    1.429    0.000    5.143    0.000    0.000 
#    0.000    5.714    0.000    0.000    0.000    3.571 
#
# Total GULP energy -155972.498396 kJ/mol
# GULP energy per Si atom -5570.446371 kJ/mol
# Density = 2.009310 g / cm^3
# Si number density = 20.138933 Si / 1000 Ang^3
#
#
#
# Elastic Constant Matrix: (Units=GPa)
#
#
# Indices 1 2 3 4 5 6 
#
# 1 52.5399 -2.3643 67.0326 0.0000 10.3009 0.0000
# 2 -2.3643 48.4564 5.9635 0.0000 -0.1951 0.0000
# 3 67.0326 5.9635 211.3996 0.0000 8.6625 0.0000
# 4 0.0000 0.0000 0.0000 -13.9908 0.0000 -15.0597
# 5 10.3009 -0.1951 8.6625 0.0000 38.5576 0.0000
# 6 0.0000 0.0000 0.0000 -15.0597 0.0000 -12.4120
#
#
#
# Elastic Compliance Matrix: (Units=1/GPa)
#
#
# Indices 1 2 3 4 5 6 
#
# 1 0.033978 0.002933 -0.010583 0.000000 -0.006685 0.000000
# 2 0.002933 0.020964 -0.001508 0.000000 -0.000339 0.000000
# 3 -0.010583 -0.001508 0.008088 0.000000 0.001003 0.000000
# 4 0.000000 0.000000 0.000000 0.233567 0.000000 -0.283391
# 5 -0.006685 -0.000339 0.001003 0.000000 0.027494 0.000000
# 6 0.000000 0.000000 0.000000 -0.283391 0.000000 0.263277
#
#
# Mechanical properties :
#
#
# Convention : Reuss Voigt Hill
#
# Bulk Modulus (GPa) = 22.36355 50.40662 36.38508
# Shear Modulus (GPa) = 8.05689 18.54858 13.30273
#
# Velocity S-wave (km/s) = 2.00233 3.03814 2.57290
# Velocity P-wave (km/s) = 4.05888 6.11481 5.18967
#
# Compressibility (1/GPa) = 0.04471562
#
# Stress axis : x y z
#
# Youngs Moduli (GPa) = 29.43091 47.69984 123.64708
#
# Poissons Ratio (x) = -0.13992 1.30854
# Poissons Ratio (y) = -0.08633 0.18642
# Poissons Ratio (z) = 0.31146 0.07192
#
# Static dielectric constant tensor:
#      x y z
#    x 1.719820 0.000000 -0.008400 
#    y 0.000000 1.737700 0.000000 
#    z -0.008400 0.000000 1.786190 
# 
# From -- ./inp_files/79241.got.cif
#   From: 2010.05.17/outbox.cif.g08.bks.cpg/sg10_40_cif.got.tgz:79241.got - 2010.06.03 11:33:40.
