data_PCOD9144766
_publ_section_title
;
Structure prediction by ZEFSAII (Michael W. Deem and Ramdas Pophale) SiO2 
 PCOD9144766
Probable space group: P 2/M
;
_chemical_formula_sum "Si O2"
_cell_formula_units_Z 32
_cell_length_a 26.463714
_cell_length_b 14.488893
_cell_length_c 9.571465
_cell_angle_alpha 90.000000
_cell_angle_beta 29.661632
_cell_angle_gamma 90.000000
_cell_volume 1816.191253
_symmetry_space_group_name_H-M "P 2/M"
_symmetry_group_IT_number 10
_symmetry_cell_setting 'monoclinic'
loop_
_space_group_symop_operation_xyz
x,y,z
-x,y,-z
-x,-y,-z
x,-y,z
loop_
_atom_site_type_symbol
_atom_site_label
_atom_site_fract_x
_atom_site_fract_y
_atom_site_fract_z
Si Si1 0.766631 0.764726 0.420286
Si Si2 0.598509 0.393286 0.171634
Si Si3 0.604137 0.391668 0.824200
Si Si4 0.395859 0.104961 0.338452
Si Si5 0.473707 0.893537 0.725608
Si Si6 0.906374 0.893487 0.921346
Si Si7 0.854260 0.103804 0.727653
Si Si8 0.274068 0.225869 0.169902
O O1 0.705056 0.667974 0.545047
O O2 0.684351 0.836519 0.554702
O O3 0.785027 0.766158 0.542135
O O4 0.867460 0.807203 0.105833
O O5 0.500000 0.366325 0.500000
O O6 0.621031 0.500000 0.149947
O O7 0.582742 0.385864 0.042102
O O8 0.690297 0.323486 0.976765
O O9 0.618481 0.500000 0.754401
O O10 0.500000 0.357891 0.000000
O O11 0.431951 0.138544 0.404747
O O12 0.358720 0.000000 0.442346
O O13 0.500000 0.104881 0.000000
O O14 0.500000 0.894150 0.500000
O O15 0.451215 0.000000 0.822737
O O16 0.376160 0.828840 0.971958
O O17 0.853379 0.884251 0.896573
O O18 0.027669 0.888707 0.602959
O O19 0.886511 0.000000 0.020737
O O20 0.785908 0.171670 0.803418
O O21 0.818245 0.000000 0.783714
#
# Coordination Sequence:
#
# PCOD9144766 Si02
#       8
#     4   4   4   4   4   4   4   4
#     4  11  21  31  52  76 100 133 174 209 252 308
#     4   9  19  35  53  75 105 138 172 211 255 304
#     4   9  19  34  52  75 105 138 172 213 255 298
#     4  10  19  31  44  65 102 137 164 200 245 299
#     4  10  21  32  43  67 102 135 168 204 245 296
#     4   9  20  38  56  76 101 134 172 212 260 309
#     4   9  20  38  56  75 103 133 169 216 260 305
#     4  11  21  32  51  77 102 132 171 214 254 300
#
# _framework density 17.619288999999998
#
# number of rings (size 3 to 8) (size 9 to 14) (size 15 to 20)
#    0.000    2.250    1.250    2.250    3.500    3.000 
#    0.000    1.250    0.000    0.750    0.000    5.250 
#    0.000    0.000    0.000    0.000    0.000    0.000 
#
# Total GULP energy -178368.215078 kJ/mol
# GULP energy per Si atom -5574.006721 kJ/mol
# Density = 1.757919 g / cm^3
# Si number density = 17.619289 Si / 1000 Ang^3
#
#
#
# Elastic Constant Matrix: (Units=GPa)
#
#
# Indices 1 2 3 4 5 6 
#
# 1 66.9013 33.9570 1.2997 0.0000 4.0909 0.0000
# 2 33.9570 79.2293 33.9880 0.0000 6.9297 0.0000
# 3 1.2997 33.9880 59.3499 0.0000 17.4888 0.0000
# 4 0.0000 0.0000 0.0000 28.0818 0.0000 -2.6119
# 5 4.0909 6.9297 17.4888 0.0000 14.4261 0.0000
# 6 0.0000 0.0000 0.0000 -2.6119 0.0000 -0.1481
#
#
#
# Elastic Compliance Matrix: (Units=1/GPa)
#
#
# Indices 1 2 3 4 5 6 
#
# 1 0.022129 -0.012977 0.010827 0.000000 -0.013167 0.000000
# 2 -0.012977 0.024635 -0.017768 0.000000 0.013387 0.000000
# 3 0.010827 -0.017768 0.039170 0.000000 -0.042021 0.000000
# 4 0.000000 0.000000 0.000000 0.013488 0.000000 -0.237847
# 5 -0.013167 0.013387 -0.042021 0.000000 0.117565 0.000000
# 6 0.000000 0.000000 0.000000 -0.237847 0.000000 -2.557201
#
#
# Mechanical properties :
#
#
# Convention : Reuss Voigt Hill
#
# Bulk Modulus (GPa) = 21.69334 38.21889 29.95611
# Shear Modulus (GPa) = -2.18817 17.55435 7.68309
#
# Velocity S-wave (km/s) = -1.11562 3.15987 2.09047
# Velocity P-wave (km/s) = 3.26795 5.92044 4.78180
#
# Compressibility (1/GPa) = 0.04609710
#
# Stress axis : x y z
#
# Youngs Moduli (GPa) = 45.18935 40.59261 25.52970
#
# Poissons Ratio (x) = 0.52679 -0.27642
# Poissons Ratio (y) = 0.58644 0.45362
# Poissons Ratio (z) = -0.48928 0.72127
#
# Static dielectric constant tensor:
#      x y z
#    x 1.601260 0.000000 0.016780 
#    y 0.000000 1.622040 0.000000 
#    z 0.016780 0.000000 1.648710 
# 
# From -- ./inp_files/37716.got.cif
#   From: 2010.05.17/outbox.cif.g08.bks.cpg/sg10_19_cif.got.tgz:37716.got - 2010.06.03 11:33:40.
