data_PCOD9144799
_publ_section_title
;
Structure prediction by ZEFSAII (Michael W. Deem and Ramdas Pophale) SiO2 
 PCOD9144799
Probable space group: P 2/M
;
_chemical_formula_sum "Si O2"
_cell_formula_units_Z 28
_cell_length_a 26.184562
_cell_length_b 16.211562
_cell_length_c 23.438477
_cell_angle_alpha 90.000000
_cell_angle_beta 10.304958
_cell_angle_gamma 90.000000
_cell_volume 1779.832785
_symmetry_space_group_name_H-M "P 2/M"
_symmetry_group_IT_number 10
_symmetry_cell_setting 'monoclinic'
loop_
_space_group_symop_operation_xyz
x,y,z
-x,y,-z
-x,-y,-z
x,-y,z
loop_
_atom_site_type_symbol
_atom_site_label
_atom_site_fract_x
_atom_site_fract_y
_atom_site_fract_z
Si Si1 0.798180 0.153034 0.553139
Si Si2 0.041546 0.244465 0.187322
Si Si3 0.988860 0.000000 0.266314
Si Si4 0.663703 0.000000 0.503719
Si Si5 0.844130 0.653941 0.231413
Si Si6 0.198254 0.405588 0.950621
Si Si7 0.689917 0.183456 0.464367
Si Si8 0.845751 0.901627 0.730541
O O1 0.890022 0.231612 0.414618
O O2 0.898097 0.078702 0.402419
O O3 0.965419 0.140628 0.428153
O O4 0.463183 0.140564 0.931170
O O5 0.854524 0.202466 0.342631
O O6 0.087582 0.339077 0.118230
O O7 0.354767 0.202405 0.842777
O O8 0.825257 0.000000 0.386475
O O9 0.325789 0.000000 0.886199
O O10 0.733116 0.088333 0.399343
O O11 0.531421 0.613565 0.574077
O O12 0.801075 0.749711 0.296761
O O13 0.000000 0.646249 0.000000
O O14 0.028272 0.612497 0.079143
O O15 0.159222 0.500000 0.010902
O O16 0.000000 0.895865 0.500000
O O17 0.812978 0.000000 0.779624
#
# Coordination Sequence:
#
# PCOD9144799 Si02
#       8
#     4   4   2   2   4   4   4   4
#     4  12  19  31  47  67  93 125 165 196 235 276
#     4  10  20  32  49  72  96 121 154 203 248 282
#     4  12  20  26  47  72  91 120 170 210 226 284
#     4  12  18  30  45  68  95 124 164 204 242 278
#     4  10  21  35  51  72  99 130 161 192 232 289
#     4  10  21  36  54  76 100 122 150 196 250 298
#     4  10  19  31  46  69  97 123 158 205 243 272
#     4  11  22  32  43  64  98 135 166 196 225 261
#
# _framework density 15.731814999999999
#
# number of rings (size 3 to 8) (size 9 to 14) (size 15 to 20)
#    0.000    1.286    4.286    3.000    0.000    2.857 
#    0.000    0.357    0.000    0.000    0.000    7.000 
#    0.000    3.429    0.000    0.000    0.000    0.000 
#
# Total GULP energy -156306.056040 kJ/mol
# GULP energy per Si atom -5582.359144 kJ/mol
# Density = 1.569601 g / cm^3
# Si number density = 15.731815 Si / 1000 Ang^3
#
#
#
# Elastic Constant Matrix: (Units=GPa)
#
#
# Indices 1 2 3 4 5 6 
#
# 1 62.2911 33.4543 69.5892 0.0000 -3.4063 0.0000
# 2 33.4543 126.1137 38.9268 0.0000 5.6841 0.0000
# 3 69.5892 38.9268 105.9288 0.0000 -21.8214 0.0000
# 4 0.0000 0.0000 0.0000 36.0623 0.0000 -10.8129
# 5 -3.4063 5.6841 -21.8214 0.0000 33.8302 0.0000
# 6 0.0000 0.0000 0.0000 -10.8129 0.0000 18.5625
#
#
#
# Elastic Compliance Matrix: (Units=1/GPa)
#
#
# Indices 1 2 3 4 5 6 
#
# 1 0.080451 -0.002119 -0.058044 0.000000 -0.028983 0.000000
# 2 -0.002119 0.009543 -0.002870 0.000000 -0.003668 0.000000
# 3 -0.058044 -0.002870 0.054804 0.000000 0.029988 0.000000
# 4 0.000000 0.000000 0.000000 0.033598 0.000000 0.019571
# 5 -0.028983 -0.003668 0.029988 0.000000 0.046601 0.000000
# 6 0.000000 0.000000 0.000000 0.019571 0.000000 0.065273
#
#
# Mechanical properties :
#
#
# Convention : Reuss Voigt Hill
#
# Bulk Modulus (GPa) = 53.38511 64.25270 58.81890
# Shear Modulus (GPa) = 11.83207 27.84854 19.84031
#
# Velocity S-wave (km/s) = 2.74544 4.21195 3.55513
# Velocity P-wave (km/s) = 6.63763 8.03649 7.37032
#
# Compressibility (1/GPa) = 0.01873182
#
# Stress axis : x y z
#
# Youngs Moduli (GPa) = 12.42989 104.79125 18.24676
#
# Poissons Ratio (x) = 0.22205 1.05911
# Poissons Ratio (y) = 0.02634 0.05237
# Poissons Ratio (z) = 0.72148 0.30079
#
# Static dielectric constant tensor:
#      x y z
#    x 1.507610 0.000000 -0.015780 
#    y 0.000000 1.548660 0.000000 
#    z -0.015780 0.000000 1.516640 
# 
# From -- ./inp_files/91282.got.cif
#   From: 2010.05.17/outbox.cif.g08.bks.cpg/sg10_46_cif.got.tgz:91282.got - 2010.06.03 11:33:40.
