data_PCOD9144293
_publ_section_title
;
Structure prediction by ZEFSAII (Michael W. Deem and Ramdas Pophale) SiO2 
 PCOD9144293
Probable space group: P 2/M
;
_chemical_formula_sum "Si O2"
_cell_formula_units_Z 30
_cell_length_a 12.929941
_cell_length_b 14.260709
_cell_length_c 11.540906
_cell_angle_alpha 90.000000
_cell_angle_beta 116.827220
_cell_angle_gamma 90.000000
_cell_volume 1898.992563
_symmetry_space_group_name_H-M "P 2/M"
_symmetry_group_IT_number 10
_symmetry_cell_setting 'monoclinic'
loop_
_space_group_symop_operation_xyz
x,y,z
-x,y,-z
-x,-y,-z
x,-y,z
loop_
_atom_site_type_symbol
_atom_site_label
_atom_site_fract_x
_atom_site_fract_y
_atom_site_fract_z
Si Si1 0.372535 0.887307 0.406341
Si Si2 0.760190 0.888327 0.891362
Si Si3 0.153783 0.110384 0.452020
Si Si4 0.800382 0.765313 0.309430
Si Si5 0.873296 0.607541 0.498968
Si Si6 0.000000 0.222389 0.000000
Si Si7 0.981810 0.735960 0.738005
Si Si8 0.361871 0.109199 0.922318
O O1 0.500000 0.849666 0.500000
O O2 0.315266 0.853796 0.257035
O O3 0.282615 0.873032 0.465822
O O4 0.383743 0.000000 0.398323
O O5 0.776575 0.000000 0.885283
O O6 0.694315 0.874109 0.979687
O O7 0.884739 0.839821 0.955602
O O8 0.143317 0.161861 0.569887
O O9 0.070191 0.161493 0.318374
O O10 0.132448 0.000000 0.449252
O O11 0.786842 0.670898 0.378468
O O12 0.892142 0.738245 0.256693
O O13 0.693778 0.818739 0.196942
O O14 0.838137 0.500000 0.494240
O O15 0.000000 0.609196 0.500000
O O16 0.899852 0.661974 0.631157
O O17 0.987058 0.280265 0.876053
O O18 0.336192 0.000000 0.876404
O O19 0.500000 0.118668 0.000000
#
# Coordination Sequence:
#
# PCOD9144293 Si02
#       8
#     4   4   4   4   4   2   4   4
#     4   9  18  30  43  60  86 124 172 210 233 270
#     4  10  20  32  46  64  94 141 179 205 241 284
#     4  10  19  29  43  65  94 126 160 200 242 282
#     4  10  19  32  48  71  94 125 164 205 245 293
#     4   8  16  33  55  74  94 119 155 203 257 308
#     4  12  19  32  47  68 104 132 160 206 242 308
#     4  10  20  31  47  71  98 125 159 200 245 297
#     4  10  21  33  46  68 103 142 175 206 239 282
#
# _framework density 15.79785
#
# number of rings (size 3 to 8) (size 9 to 14) (size 15 to 20)
#    0.000    2.267    2.667    1.800    1.867    2.133 
#    0.000    0.333    0.000    0.400    0.000    0.000 
#    0.000   10.667    0.000    0.000    0.000    0.000 
#
# Total GULP energy -167164.633383 kJ/mol
# GULP energy per Si atom -5572.154446 kJ/mol
# Density = 1.576189 g / cm^3
# Si number density = 15.797850 Si / 1000 Ang^3
#
#
#
# Elastic Constant Matrix: (Units=GPa)
#
#
# Indices 1 2 3 4 5 6 
#
# 1 54.3215 23.2307 41.7847 0.0000 2.4132 0.0000
# 2 23.2307 86.3629 44.0040 0.0000 -4.8747 0.0000
# 3 41.7847 44.0040 104.4880 0.0000 -8.5231 0.0000
# 4 0.0000 0.0000 0.0000 12.7179 0.0000 3.3273
# 5 2.4132 -4.8747 -8.5231 0.0000 28.7731 0.0000
# 6 0.0000 0.0000 0.0000 3.3273 0.0000 5.8027
#
#
#
# Elastic Compliance Matrix: (Units=1/GPa)
#
#
# Indices 1 2 3 4 5 6 
#
# 1 0.027862 -0.002426 -0.010601 0.000000 -0.005888 0.000000
# 2 -0.002426 0.014966 -0.005236 0.000000 0.001188 0.000000
# 3 -0.010601 -0.005236 0.016412 0.000000 0.004863 0.000000
# 4 0.000000 0.000000 0.000000 0.092507 0.000000 -0.053044
# 5 -0.005888 0.001188 0.004863 0.000000 0.036890 0.000000
# 6 0.000000 0.000000 0.000000 -0.053044 0.000000 0.202748
#
#
# Mechanical properties :
#
#
# Convention : Reuss Voigt Hill
#
# Bulk Modulus (GPa) = 44.02339 51.46790 47.74565
# Shear Modulus (GPa) = 11.48153 18.53562 15.00857
#
# Velocity S-wave (km/s) = 2.69881 3.42906 3.08561
# Velocity P-wave (km/s) = 6.13503 6.95182 6.55616
#
# Compressibility (1/GPa) = 0.02271520
#
# Stress axis : x y z
#
# Youngs Moduli (GPa) = 35.89115 66.81605 60.93272
#
# Poissons Ratio (x) = 0.16207 0.64593
# Poissons Ratio (y) = 0.08706 0.31905
# Poissons Ratio (z) = 0.38047 0.34985
#
# Static dielectric constant tensor:
#      x y z
#    x 1.539810 0.000000 -0.013370 
#    y 0.000000 1.510820 0.000000 
#    z -0.013370 0.000000 1.547620 
# 
# From -- ./inp_files/47441.got.cif
#   From: 2010.05.17/outbox.cif.g08.bks.cpg/sg10_24_cif.got.tgz:47441.got - 2010.06.03 11:33:40.
