data_PCOD9144225
_publ_section_title
;
Structure prediction by ZEFSAII (Michael W. Deem and Ramdas Pophale) SiO2 
 PCOD9144225
Probable space group: P 2/M
;
_chemical_formula_sum "Si O2"
_cell_formula_units_Z 30
_cell_length_a 6.416819
_cell_length_b 12.994012
_cell_length_c 17.811110
_cell_angle_alpha 90.000000
_cell_angle_beta 89.009738
_cell_angle_gamma 90.000000
_cell_volume 1484.872522
_symmetry_space_group_name_H-M "P 2/M"
_symmetry_group_IT_number 10
_symmetry_cell_setting 'monoclinic'
loop_
_space_group_symop_operation_xyz
x,y,z
-x,y,-z
-x,-y,-z
x,-y,z
loop_
_atom_site_type_symbol
_atom_site_label
_atom_site_fract_x
_atom_site_fract_y
_atom_site_fract_z
Si Si1 0.510984 0.384597 0.230302
Si Si2 0.848281 0.280052 0.673379
Si Si3 0.342437 0.116256 0.894456
Si Si4 0.229980 0.815831 0.732320
Si Si5 0.477952 0.804156 0.581764
Si Si6 0.000000 0.773619 0.000000
Si Si7 0.620745 0.309306 0.925203
Si Si8 0.835460 0.615761 0.433232
O O1 0.572558 0.500000 0.250649
O O2 0.310249 0.345516 0.276715
O O3 0.682392 0.298202 0.247244
O O4 0.443390 0.377657 0.144311
O O5 0.705352 0.224751 0.611835
O O6 0.985351 0.196419 0.717109
O O7 0.017298 0.355931 0.636971
O O8 0.278234 0.121451 0.807132
O O9 0.532187 0.195184 0.906058
O O10 0.395188 0.000000 0.914223
O O11 0.156323 0.159121 0.948152
O O12 0.350614 0.849703 0.654729
O O13 0.500000 0.857978 0.500000
O O14 0.346124 0.700019 0.564768
O O15 0.860694 0.704136 0.945316
O O16 0.500000 0.344642 0.000000
O O17 0.751923 0.500000 0.431843
O O18 0.000000 0.624363 0.500000
#
# Coordination Sequence:
#
# PCOD9144225 Si02
#       8
#     4   4   4   4   4   2   4   4
#     4  10  20  34  51  71 101 143 182 211 246 293
#     4  10  19  32  48  67  98 132 176 214 258 299
#     4  10  20  36  57  82 107 133 163 203 259 316
#     4   9  21  35  51  74 104 134 171 217 258 302
#     4  10  19  32  48  69  94 133 175 208 256 309
#     4  10  19  34  57  82 110 134 161 204 253 314
#     4   9  20  36  53  78 109 136 167 211 250 294
#     4  10  19  28  41  65  96 127 165 214 257 295
#
# _framework density 20.203752999999999
#
# number of rings (size 3 to 8) (size 9 to 14) (size 15 to 20)
#    0.000    2.267    1.333    1.400    0.000    9.333 
#    0.000    0.333    0.000    0.400    0.000    0.933 
#    0.000    0.000    0.000    0.000    0.000    0.000 
#
# Total GULP energy -167351.046731 kJ/mol
# GULP energy per Si atom -5578.368224 kJ/mol
# Density = 2.015777 g / cm^3
# Si number density = 20.203753 Si / 1000 Ang^3
#
#
#
# Elastic Constant Matrix: (Units=GPa)
#
#
# Indices 1 2 3 4 5 6 
#
# 1 78.6888 15.2133 8.6152 0.0000 25.5562 0.0000
# 2 15.2133 23.8621 5.1936 0.0000 -1.5977 0.0000
# 3 8.6152 5.1936 120.4874 0.0000 17.1103 0.0000
# 4 0.0000 0.0000 0.0000 521.1084 0.0000 -268.5413
# 5 25.5562 -1.5977 17.1103 0.0000 28.3432 0.0000
# 6 0.0000 0.0000 0.0000 -268.5413 0.0000 142.5792
#
#
#
# Elastic Compliance Matrix: (Units=1/GPa)
#
#
# Indices 1 2 3 4 5 6 
#
# 1 0.023344 -0.016974 0.002393 0.000000 -0.023449 0.000000
# 2 -0.016974 0.055026 -0.004126 0.000000 0.020897 0.000000
# 3 0.002393 -0.004126 0.009456 0.000000 -0.008099 0.000000
# 4 0.000000 0.000000 0.000000 0.065261 0.000000 0.122916
# 5 -0.023449 0.020897 -0.008099 0.000000 0.062492 0.000000
# 6 0.000000 0.000000 0.000000 0.122916 0.000000 0.238520
#
#
# Mechanical properties :
#
#
# Convention : Reuss Voigt Hill
#
# Bulk Modulus (GPa) = 19.83632 31.23139 25.53386
# Shear Modulus (GPa) = 9.83639 151.34059 80.58849
#
# Velocity S-wave (km/s) = 2.20888 8.66428 6.32254
# Velocity P-wave (km/s) = 4.04290 10.75104 8.12188
#
# Compressibility (1/GPa) = 0.05041257
#
# Stress axis : x y z
#
# Youngs Moduli (GPa) = 42.83816 18.17322 105.74782
#
# Poissons Ratio (x) = 0.30846 -0.25300
# Poissons Ratio (y) = 0.72711 0.43629
# Poissons Ratio (z) = -0.10249 0.07498
#
# Static dielectric constant tensor:
#      x y z
#    x 1.701510 0.000000 0.009890 
#    y 0.000000 1.683850 0.000000 
#    z 0.009890 0.000000 1.787910 
# 
# From -- ./inp_files/73434.got.cif
#   From: 2010.05.17/outbox.cif.g08.bks.cpg/sg10_37_cif.got.tgz:73434.got - 2010.06.03 11:33:40.
