data_PCOD9144736
_publ_section_title
;
Structure prediction by ZEFSAII (Michael W. Deem and Ramdas Pophale) SiO2 
 PCOD9144736
Probable space group: P 2/M
;
_chemical_formula_sum "Si O2"
_cell_formula_units_Z 32
_cell_length_a 11.949897
_cell_length_b 7.323111
_cell_length_c 19.429227
_cell_angle_alpha 90.000000
_cell_angle_beta 125.444300
_cell_angle_gamma 90.000000
_cell_volume 1385.167127
_symmetry_space_group_name_H-M "P 2/M"
_symmetry_group_IT_number 10
_symmetry_cell_setting 'monoclinic'
loop_
_space_group_symop_operation_xyz
x,y,z
-x,y,-z
-x,-y,-z
x,-y,z
loop_
_atom_site_type_symbol
_atom_site_label
_atom_site_fract_x
_atom_site_fract_y
_atom_site_fract_z
Si Si1 0.067006 0.222502 0.387095
Si Si2 0.493508 0.223140 0.917576
Si Si3 0.777262 0.793361 0.429331
Si Si4 0.775947 0.779666 0.688650
Si Si5 0.941062 0.777779 0.876646
Si Si6 0.219137 0.222122 0.045208
Si Si7 0.474539 0.710040 0.567293
Si Si8 0.242533 0.222282 0.732101
O O1 0.109472 0.287298 0.478249
O O2 0.178196 0.281775 0.370541
O O3 0.914964 0.273128 0.308586
O O4 0.071537 0.000000 0.390792
O O5 0.631976 0.281294 0.927171
O O6 0.358799 0.283616 0.827004
O O7 0.492094 0.000000 0.917448
O O8 0.500000 0.279185 0.000000
O O9 0.640582 0.799167 0.427077
O O10 0.740517 0.716085 0.341468
O O11 0.824461 0.000000 0.431317
O O12 0.886303 0.718696 0.783789
O O13 0.624327 0.718621 0.654362
O O14 0.774610 0.000000 0.687759
O O15 0.834508 0.722315 0.898538
O O16 0.942678 0.000000 0.877855
O O17 0.094876 0.721062 0.950626
O O18 0.222338 0.000000 0.046569
O O19 0.500000 0.789374 0.500000
O O20 0.432842 0.500000 0.544226
O O21 0.250760 0.000000 0.736545
#
# Coordination Sequence:
#
# PCOD9144736 Si02
#       8
#     4   4   4   4   4   4   4   4
#     4   9  17  29  46  71 100 129 166 208 249 289
#     4   9  17  25  36  58  97 140 166 191 242 305
#     4  10  19  33  54  75  99 132 170 210 248 299
#     4  10  19  30  51  77 100 131 171 208 245 298
#     4   8  15  25  41  64  94 128 162 202 241 288
#     4   8  14  25  37  58  95 132 161 194 245 294
#     4  11  23  37  51  71 103 135 163 204 260 310
#     4   9  18  29  45  71 102 136 168 205 252 297
#
# _framework density 23.101906
#
# number of rings (size 3 to 8) (size 9 to 14) (size 15 to 20)
#    0.000    2.750    1.250    1.500    3.500    2.000 
#    0.000    0.000    0.000    2.250    0.000    1.750 
#    0.000    0.500    0.000    0.125    0.000    0.000 
#
# Total GULP energy -178711.992680 kJ/mol
# GULP energy per Si atom -5584.749771 kJ/mol
# Density = 2.304932 g / cm^3
# Si number density = 23.101906 Si / 1000 Ang^3
#
#
#
# Elastic Constant Matrix: (Units=GPa)
#
#
# Indices 1 2 3 4 5 6 
#
# 1 109.7061 0.7831 61.4773 0.0000 25.2635 0.0000
# 2 0.7831 93.7438 5.9336 0.0000 -1.4020 0.0000
# 3 61.4773 5.9336 188.7965 0.0000 11.0379 0.0000
# 4 0.0000 0.0000 0.0000 -105.0929 0.0000 -76.2599
# 5 25.2635 -1.4020 11.0379 0.0000 31.6120 0.0000
# 6 0.0000 0.0000 0.0000 -76.2599 0.0000 -87.3649
#
#
#
# Elastic Compliance Matrix: (Units=1/GPa)
#
#
# Indices 1 2 3 4 5 6 
#
# 1 0.013418 -0.000011 -0.003820 0.000000 -0.009390 0.000000
# 2 -0.000011 0.010700 -0.000369 0.000000 0.000612 0.000000
# 3 -0.003820 -0.000369 0.006508 0.000000 0.000764 0.000000
# 4 0.000000 0.000000 0.000000 -0.025956 0.000000 0.022657
# 5 -0.009390 0.000612 0.000764 0.000000 0.038898 0.000000
# 6 0.000000 0.000000 0.000000 0.022657 0.000000 -0.031223
#
#
# Mechanical properties :
#
#
# Convention : Reuss Voigt Hill
#
# Bulk Modulus (GPa) = 44.98995 58.73716 51.86355
# Shear Modulus (GPa) = 177.60368 -10.56566 83.51901
#
# Velocity S-wave (km/s) = 8.77754 -2.14089 6.01921
# Velocity P-wave (km/s) = 11.05639 4.40105 8.41466
#
# Compressibility (1/GPa) = 0.02222719
#
# Stress axis : x y z
#
# Youngs Moduli (GPa) = 74.52404 93.45844 153.66810
#
# Poissons Ratio (x) = 0.00100 0.58703
# Poissons Ratio (y) = 0.00080 0.05664
# Poissons Ratio (z) = 0.28469 0.03444
#
# Static dielectric constant tensor:
#      x y z
#    x 1.820630 0.000000 -0.007250 
#    y 0.000000 1.908600 0.000000 
#    z -0.007250 0.000000 1.850240 
# 
# From -- ./inp_files/83608.got.cif
#   From: 2010.05.17/outbox.cif.g08.bks.cpg/sg10_42_cif.got.tgz:83608.got - 2010.06.03 11:33:40.
