data_PCOD9144638
_publ_section_title
;
Structure prediction by ZEFSAII (Michael W. Deem and Ramdas Pophale) SiO2 
 PCOD9144638
Probable space group: P 2/M
;
_chemical_formula_sum "Si O2"
_cell_formula_units_Z 32
_cell_length_a 18.981447
_cell_length_b 7.985799
_cell_length_c 13.031919
_cell_angle_alpha 90.000000
_cell_angle_beta 62.173517
_cell_angle_gamma 90.000000
_cell_volume 1746.979312
_symmetry_space_group_name_H-M "P 2/M"
_symmetry_group_IT_number 10
_symmetry_cell_setting 'monoclinic'
loop_
_space_group_symop_operation_xyz
x,y,z
-x,y,-z
-x,-y,-z
x,-y,z
loop_
_atom_site_type_symbol
_atom_site_label
_atom_site_fract_x
_atom_site_fract_y
_atom_site_fract_z
Si Si1 0.677805 0.205335 0.482720
Si Si2 0.161539 0.303204 0.242940
Si Si3 0.493689 0.197978 0.331389
Si Si4 0.462321 0.297018 0.918333
Si Si5 0.328954 0.798276 0.739606
Si Si6 0.011847 0.192597 0.615350
Si Si7 0.283031 0.701383 0.990524
Si Si8 0.183664 0.798890 0.462209
O O1 0.587547 0.264541 0.564748
O O2 0.701725 0.254332 0.351052
O O3 0.739848 0.262411 0.527120
O O4 0.676447 0.000000 0.487832
O O5 0.176284 0.500000 0.239673
O O6 0.067580 0.276069 0.287840
O O7 0.184241 0.234016 0.339975
O O8 0.215397 0.234087 0.113687
O O9 0.491570 0.225777 0.210873
O O10 0.579671 0.266102 0.308623
O O11 0.495364 0.000000 0.353309
O O12 0.464961 0.500000 0.910936
O O13 0.370386 0.243146 0.969992
O O14 0.500000 0.244647 0.000000
O O15 0.279269 0.748523 0.873496
O O16 0.332810 0.000000 0.737238
O O17 0.000000 0.191544 0.500000
O O18 0.100238 0.267097 0.566788
O O19 0.011768 0.000000 0.650670
O O20 0.281843 0.500000 0.995430
O O21 0.180216 0.000000 0.475655
#
# Coordination Sequence:
#
# PCOD9144638 Si02
#       8
#     4   4   4   4   4   4   4   4
#     4   9  17  30  49  71  95 121 151 193 236 270
#     4  10  19  30  48  71  95 121 152 189 227 274
#     4   9  17  29  46  69  92 118 154 193 230 267
#     4   9  18  31  45  60  89 128 155 183 226 271
#     4   9  17  31  50  69  90 121 160 194 227 269
#     4   8  15  29  47  67  93 122 150 182 225 276
#     4   9  19  33  46  65  92 122 155 191 229 268
#     4   9  18  31  47  70  98 124 148 182 231 279
#
# _framework density 18.317330999999999
#
# number of rings (size 3 to 8) (size 9 to 14) (size 15 to 20)
#    0.000    3.000    0.000    1.500    1.750    5.000 
#    0.000    1.250    0.000    3.750    0.000    5.250 
#    0.000    0.000    0.000    0.000    0.000    0.000 
#
# Total GULP energy -178251.670790 kJ/mol
# GULP energy per Si atom -5570.364712 kJ/mol
# Density = 1.827564 g / cm^3
# Si number density = 18.317331 Si / 1000 Ang^3
#
#
#
# Elastic Constant Matrix: (Units=GPa)
#
#
# Indices 1 2 3 4 5 6 
#
# 1 59.0679 5.4562 60.5505 0.0000 -4.0716 0.0000
# 2 5.4562 10.0244 3.5833 0.0000 -1.9226 0.0000
# 3 60.5505 3.5833 139.2478 0.0000 -14.5265 0.0000
# 4 0.0000 0.0000 0.0000 25.4550 0.0000 0.7687
# 5 -4.0716 -1.9226 -14.5265 0.0000 20.2720 0.0000
# 6 0.0000 0.0000 0.0000 0.7687 0.0000 12.7351
#
#
#
# Elastic Compliance Matrix: (Units=1/GPa)
#
#
# Indices 1 2 3 4 5 6 
#
# 1 0.032501 -0.013537 -0.014307 0.000000 -0.005008 0.000000
# 2 -0.013537 0.107634 0.004213 0.000000 0.010508 0.000000
# 3 -0.014307 0.004213 0.014089 0.000000 0.007622 0.000000
# 4 0.000000 0.000000 0.000000 0.039357 0.000000 -0.002376
# 5 -0.005008 0.010508 0.007622 0.000000 0.054782 0.000000
# 6 0.000000 0.000000 0.000000 -0.002376 0.000000 0.078666
#
#
# Mechanical properties :
#
#
# Convention : Reuss Voigt Hill
#
# Bulk Modulus (GPa) = 9.34900 38.61335 23.98117
# Shear Modulus (GPa) = 12.19677 20.94243 16.56960
#
# Velocity S-wave (km/s) = 2.58322 3.38496 3.01090
# Velocity P-wave (km/s) = 3.74331 6.03351 5.02074
#
# Compressibility (1/GPa) = 0.10696335
#
# Stress axis : x y z
#
# Youngs Moduli (GPa) = 30.76860 9.29070 70.97577
#
# Poissons Ratio (x) = 0.12576 1.01543
# Poissons Ratio (y) = 0.41650 -0.29900
# Poissons Ratio (z) = 0.44020 -0.03914
#
# Static dielectric constant tensor:
#      x y z
#    x 1.643560 0.000000 -0.017250 
#    y 0.000000 1.659170 0.000000 
#    z -0.017250 0.000000 1.630860 
# 
# From -- ./inp_files/54764.got.cif
#   From: 2010.05.17/outbox.cif.g08.bks.cpg/sg10_28_cif.got.tgz:54764.got - 2010.06.03 11:33:40.
