data_PCOD9144019
_publ_section_title
;
Structure prediction by ZEFSAII (Michael W. Deem and Ramdas Pophale) SiO2 
 PCOD9144019
Probable space group: P 2/M
;
_chemical_formula_sum "Si O2"
_cell_formula_units_Z 28
_cell_length_a 10.167863
_cell_length_b 7.464774
_cell_length_c 27.009486
_cell_angle_alpha 90.000000
_cell_angle_beta 141.357339
_cell_angle_gamma 90.000000
_cell_volume 1280.171678
_symmetry_space_group_name_H-M "P 2/M"
_symmetry_group_IT_number 10
_symmetry_cell_setting 'monoclinic'
loop_
_space_group_symop_operation_xyz
x,y,z
-x,y,-z
-x,-y,-z
x,-y,z
loop_
_atom_site_type_symbol
_atom_site_label
_atom_site_fract_x
_atom_site_fract_y
_atom_site_fract_z
Si Si1 0.532125 0.283846 0.565411
Si Si2 0.540855 0.791316 0.741204
Si Si3 0.987780 0.295846 0.135011
Si Si4 0.974520 0.280397 0.742365
Si Si5 0.187438 0.280735 0.017994
Si Si6 0.764992 0.211412 0.433456
Si Si7 0.384564 0.283587 0.803034
O O1 0.500000 0.219899 0.500000
O O2 0.541438 0.500000 0.566715
O O3 0.749798 0.221466 0.654598
O O4 0.338968 0.233041 0.543718
O O5 0.768669 0.701365 0.810613
O O6 0.397939 0.714984 0.655053
O O7 0.419162 0.775576 0.757003
O O8 0.584927 0.000000 0.744103
O O9 0.910860 0.500000 0.118020
O O10 0.987940 0.217837 0.190266
O O11 0.859070 0.216275 0.051327
O O12 0.968814 0.500000 0.741864
O O13 0.167062 0.225574 0.763987
O O14 0.183131 0.500000 0.015725
O O15 0.412124 0.225334 0.105622
O O16 0.000000 0.225490 0.000000
O O17 0.000000 0.286814 0.500000
O O18 0.781330 0.000000 0.426669
O O19 0.384604 0.500000 0.802874
#
# Coordination Sequence:
#
# PCOD9144019 Si02
#       7
#     4   4   4   4   4   4   4
#     4  10  21  37  57  85 116 140 174 223 275 330
#     4  11  22  36  55  81 108 141 185 226 267 319
#     4  10  18  34  58  79 107 145 182 223 271 323
#     4   9  19  34  54  81 110 143 179 219 270 324
#     4   9  16  28  51  83 109 138 183 226 265 319
#     4  10  23  41  58  80 110 143 184 226 266 322
#     4  10  20  35  55  80 112 145 181 225 272 321
#
# _framework density 21.872066
#
# number of rings (size 3 to 8) (size 9 to 14) (size 15 to 20)
#    0.000    2.143    2.857    0.429    2.000    1.714 
#    0.000    5.714    0.000    0.000    0.000    2.000 
#    0.000    0.000    0.000    0.000    0.000    0.000 
#
# Total GULP energy -156468.093197 kJ/mol
# GULP energy per Si atom -5588.146186 kJ/mol
# Density = 2.182228 g / cm^3
# Si number density = 21.872066 Si / 1000 Ang^3
#
#
#
# Elastic Constant Matrix: (Units=GPa)
#
#
# Indices 1 2 3 4 5 6 
#
# 1 117.1072 -22.0801 34.8507 0.0000 -4.3049 0.0000
# 2 -22.0801 65.0061 -4.9709 0.0000 0.7005 0.0000
# 3 34.8507 -4.9709 95.6710 0.0000 -12.3466 0.0000
# 4 0.0000 0.0000 0.0000 -8.6801 0.0000 -6.1130
# 5 -4.3049 0.7005 -12.3466 0.0000 46.3390 0.0000
# 6 0.0000 0.0000 0.0000 -6.1130 0.0000 -10.5245
#
#
#
# Elastic Compliance Matrix: (Units=1/GPa)
#
#
# Indices 1 2 3 4 5 6 
#
# 1 0.010197 0.003192 -0.003555 0.000000 -0.000048 0.000000
# 2 0.003192 0.016444 -0.000313 0.000000 -0.000035 0.000000
# 3 -0.003555 -0.000313 0.012105 0.000000 0.002900 0.000000
# 4 0.000000 0.000000 0.000000 -0.194952 0.000000 0.113236
# 5 -0.000048 -0.000035 0.002900 0.000000 0.022349 0.000000
# 6 0.000000 0.000000 0.000000 0.113236 0.000000 -0.160788
#
#
# Mechanical properties :
#
#
# Convention : Reuss Voigt Hill
#
# Bulk Modulus (GPa) = 26.74140 32.59818 29.66979
# Shear Modulus (GPa) = -17.80446 23.42584 2.81069
#
# Velocity S-wave (km/s) = -2.85621 3.27622 1.13483
# Velocity P-wave (km/s) = 1.17284 5.40813 3.91302
#
# Compressibility (1/GPa) = 0.03739520
#
# Stress axis : x y z
#
# Youngs Moduli (GPa) = 98.06555 60.81271 82.60738
#
# Poissons Ratio (x) = -0.19413 0.29367
# Poissons Ratio (y) = -0.31305 0.02586
# Poissons Ratio (z) = 0.34862 0.01904
#
# Static dielectric constant tensor:
#      x y z
#    x 1.743150 0.000000 -0.013640 
#    y 0.000000 1.876830 0.000000 
#    z -0.013640 0.000000 1.784950 
# 
# From -- ./inp_files/79262.got.cif
#   From: 2010.05.17/outbox.cif.g08.bks.cpg/sg10_40_cif.got.tgz:79262.got - 2010.06.03 11:33:40.
