data_PCOD9144456
_publ_section_title
;
Structure prediction by ZEFSAII (Michael W. Deem and Ramdas Pophale) SiO2 
 PCOD9144456
Probable space group: P 2/M
;
_chemical_formula_sum "Si O2"
_cell_formula_units_Z 20
_cell_length_a 7.600103
_cell_length_b 25.095932
_cell_length_c 6.299059
_cell_angle_alpha 90.000000
_cell_angle_beta 136.689396
_cell_angle_gamma 90.000000
_cell_volume 824.124574
_symmetry_space_group_name_H-M "P 2/M"
_symmetry_group_IT_number 10
_symmetry_cell_setting 'monoclinic'
loop_
_space_group_symop_operation_xyz
x,y,z
-x,y,-z
-x,-y,-z
x,-y,z
loop_
_atom_site_type_symbol
_atom_site_label
_atom_site_fract_x
_atom_site_fract_y
_atom_site_fract_z
Si Si1 0.600575 0.166699 0.340762
Si Si2 0.776069 0.557188 0.124966
Si Si3 0.223336 0.058384 0.371782
Si Si4 0.774553 0.328136 0.126786
Si Si5 0.091782 0.786566 0.853606
O O1 0.500000 0.171179 0.500000
O O2 0.741869 0.109739 0.449693
O O3 0.817401 0.211920 0.495672
O O4 0.325671 0.175605 0.989619
O O5 0.794259 0.500000 0.024304
O O6 0.791785 0.614545 0.024449
O O7 0.000000 0.557156 0.500000
O O8 0.500000 0.557293 0.000000
O O9 0.500000 0.055641 0.500000
O O10 0.179515 0.000000 0.434111
O O11 0.000000 0.065915 0.000000
O O12 0.806287 0.273289 0.029371
O O13 0.000000 0.328067 0.500000
O O14 0.500000 0.326134 0.000000
O O15 0.000000 0.807561 0.000000
#
# Coordination Sequence:
#
# PCOD9144456 Si02
#       5
#     4   4   4   4   4
#     4   9  16  27  41  60  87 119 149 176 217 269
#     4   8  14  25  42  63  85 110 141 179 222 262
#     4   9  15  23  37  58  85 115 145 180 222 263
#     4  10  19  31  47  68  92 116 149 190 223 258
#     4  10  19  30  45  64  91 123 150 178 219 271
#
# _framework density 24.268176
#
# number of rings (size 3 to 8) (size 9 to 14) (size 15 to 20)
#    0.000    2.800    0.000    4.200    0.000    0.000 
#    0.000    0.000    0.000    0.600    0.000    0.000 
#    0.000   36.800    0.000    0.000    0.000    3.800 
#
# Total GULP energy -111489.212273 kJ/mol
# GULP energy per Si atom -5574.460614 kJ/mol
# Density = 2.421294 g / cm^3
# Si number density = 24.268176 Si / 1000 Ang^3
#
#
#
# Elastic Constant Matrix: (Units=GPa)
#
#
# Indices 1 2 3 4 5 6 
#
# 1 52.6105 20.7433 33.9223 0.0000 34.4370 0.0000
# 2 20.7433 238.1916 25.8372 0.0000 30.8005 0.0000
# 3 33.9223 25.8372 170.1137 0.0000 38.7387 0.0000
# 4 0.0000 0.0000 0.0000 95.6213 0.0000 67.5091
# 5 34.4370 30.8005 38.7387 0.0000 36.2630 0.0000
# 6 0.0000 0.0000 0.0000 67.5091 0.0000 48.5606
#
#
#
# Elastic Compliance Matrix: (Units=1/GPa)
#
#
# Indices 1 2 3 4 5 6 
#
# 1 0.051311 0.002100 0.001258 0.000000 -0.051855 0.000000
# 2 0.002100 0.004811 0.000311 0.000000 -0.006413 0.000000
# 3 0.001258 0.000311 0.007813 0.000000 -0.009805 0.000000
# 4 0.000000 0.000000 0.000000 0.564984 0.000000 -0.785443
# 5 -0.051855 -0.006413 -0.009805 0.000000 0.092741 0.000000
# 6 0.000000 0.000000 0.000000 -0.785443 0.000000 1.112517
#
#
# Mechanical properties :
#
#
# Convention : Reuss Voigt Hill
#
# Bulk Modulus (GPa) = 14.03059 69.10237 41.56648
# Shear Modulus (GPa) = 2.70183 61.44984 32.07584
#
# Velocity S-wave (km/s) = 1.05629 5.03747 3.63950
# Velocity P-wave (km/s) = 2.69846 7.89754 5.90139
#
# Compressibility (1/GPa) = 0.07127282
#
# Stress axis : x y z
#
# Youngs Moduli (GPa) = 19.48901 207.86046 127.98777
#
# Poissons Ratio (x) = -0.43659 -0.16096
# Poissons Ratio (y) = -0.04093 -0.03978
# Poissons Ratio (z) = -0.02451 -0.06461
#
# Static dielectric constant tensor:
#      x y z
#    x 2.043690 0.000000 -0.088900 
#    y 0.000000 2.014790 0.000000 
#    z -0.088900 0.000000 1.984720 
# 
# From -- ./inp_files/20793.got.cif
#   From: 2010.05.17/outbox.cif.g08.bks.cpg/sg10_11_cif.got.tgz:20793.got - 2010.06.03 11:33:40.
