data_PCOD9144100
_publ_section_title
;
Structure prediction by ZEFSAII (Michael W. Deem and Ramdas Pophale) SiO2 
 PCOD9144100
Probable space group: P 2/M
;
_chemical_formula_sum "Si O2"
_cell_formula_units_Z 32
_cell_length_a 14.110769
_cell_length_b 15.769711
_cell_length_c 12.081793
_cell_angle_alpha 90.000000
_cell_angle_beta 140.508768
_cell_angle_gamma 90.000000
_cell_volume 1709.762145
_symmetry_space_group_name_H-M "P 2/M"
_symmetry_group_IT_number 10
_symmetry_cell_setting 'monoclinic'
loop_
_space_group_symop_operation_xyz
x,y,z
-x,y,-z
-x,-y,-z
x,-y,z
loop_
_atom_site_type_symbol
_atom_site_label
_atom_site_fract_x
_atom_site_fract_y
_atom_site_fract_z
Si Si1 0.743814 0.693702 0.560256
Si Si2 0.329106 0.404013 0.299828
Si Si3 0.656177 0.188044 0.090502
Si Si4 0.638592 0.090486 0.709277
Si Si5 0.949204 0.097166 0.276604
Si Si6 0.905996 0.149709 0.815693
Si Si7 0.875693 0.258849 0.465054
Si Si8 0.401454 0.264545 0.195644
O O1 0.758966 0.625050 0.670210
O O2 0.805621 0.780366 0.666994
O O3 0.835374 0.682386 0.531145
O O4 0.573364 0.710806 0.371862
O O5 0.500000 0.400668 0.500000
O O6 0.296898 0.500000 0.236822
O O7 0.313817 0.336501 0.186459
O O8 0.780119 0.121167 0.158022
O O9 0.734961 0.236224 0.263102
O O10 0.500000 0.154506 0.000000
O O11 0.629457 0.250635 0.961864
O O12 0.500000 0.096364 0.500000
O O13 0.788127 0.090403 0.771198
O O14 0.632092 0.173596 0.778524
O O15 0.627007 0.000000 0.759834
O O16 0.987305 0.108459 0.180467
O O17 0.052827 0.169137 0.427599
O O18 0.982732 0.000000 0.338135
O O19 0.000000 0.189339 0.000000
O O20 0.000000 0.299054 0.500000
#
# Coordination Sequence:
#
# PCOD9144100 Si02
#       8
#     4   4   4   4   4   4   4   4
#     4  10  18  35  59  82 115 148 183 233 292 336
#     4   9  18  33  60  93 117 144 181 229 295 356
#     4  11  22  36  58  82 105 148 200 239 288 338
#     4  11  21  34  53  80 114 152 191 232 286 344
#     4  10  23  39  54  77 112 153 198 251 290 332
#     4  11  21  35  54  81 113 154 192 231 288 349
#     4   9  20  38  57  80 106 154 200 231 281 341
#     4  11  19  35  58  84 121 145 185 242 290 338
#
# _framework density 18.716054
#
# number of rings (size 3 to 8) (size 9 to 14) (size 15 to 20)
#    0.000    1.750    3.750    1.500    0.000    5.000 
#    0.000    0.000    0.000    1.875    0.000    0.000 
#    0.000    0.000    0.000    0.000    0.000    0.000 
#
# Total GULP energy -178367.815528 kJ/mol
# GULP energy per Si atom -5573.994235 kJ/mol
# Density = 1.867346 g / cm^3
# Si number density = 18.716054 Si / 1000 Ang^3
#
#
#
# Elastic Constant Matrix: (Units=GPa)
#
#
# Indices 1 2 3 4 5 6 
#
# 1 130.5387 33.3643 31.5748 0.0000 -11.7956 0.0000
# 2 33.3643 88.4069 10.7320 0.0000 -14.3008 0.0000
# 3 31.5748 10.7320 70.0729 0.0000 -9.1332 0.0000
# 4 0.0000 0.0000 0.0000 -3.1787 0.0000 -2.4048
# 5 -11.7956 -14.3008 -9.1332 0.0000 29.7254 0.0000
# 6 0.0000 0.0000 0.0000 -2.4048 0.0000 7.6106
#
#
#
# Elastic Compliance Matrix: (Units=1/GPa)
#
#
# Indices 1 2 3 4 5 6 
#
# 1 0.009391 -0.002907 -0.003628 0.000000 0.001213 0.000000
# 2 -0.002907 0.013257 -0.000041 0.000000 0.005211 0.000000
# 3 -0.003628 -0.000041 0.016378 0.000000 0.003573 0.000000
# 4 0.000000 0.000000 0.000000 -0.253901 0.000000 -0.080227
# 5 0.001213 0.005211 0.003573 0.000000 0.037728 0.000000
# 6 0.000000 0.000000 0.000000 -0.080227 0.000000 0.106045
#
#
# Mechanical properties :
#
#
# Convention : Reuss Voigt Hill
#
# Bulk Modulus (GPa) = 38.65188 48.92897 43.79042
# Shear Modulus (GPa) = -101.36692 21.05462 -40.15615
#
# Velocity S-wave (km/s) = -7.36736 3.35767 -4.63703
# Velocity P-wave (km/s) = 7.18847 6.42117 2.28502
#
# Compressibility (1/GPa) = 0.02587196
#
# Stress axis : x y z
#
# Youngs Moduli (GPa) = 106.48665 75.43444 61.05892
#
# Poissons Ratio (x) = 0.21932 0.22153
# Poissons Ratio (y) = 0.30960 0.00250
# Poissons Ratio (z) = 0.38635 0.00309
#
# Static dielectric constant tensor:
#      x y z
#    x 1.704730 0.000000 0.004530 
#    y 0.000000 1.622800 0.000000 
#    z 0.004530 0.000000 1.673900 
# 
# From -- ./inp_files/51650.got.cif
#   From: 2010.05.17/outbox.cif.g08.bks.cpg/sg10_26_cif.got.tgz:51650.got - 2010.06.03 11:33:40.
