data_PCOD9144542
_publ_section_title
;
Structure prediction by ZEFSAII (Michael W. Deem and Ramdas Pophale) SiO2 
 PCOD9144542
Probable space group: P 2/M
;
_chemical_formula_sum "Si O2"
_cell_formula_units_Z 24
_cell_length_a 12.176535
_cell_length_b 9.040005
_cell_length_c 21.230573
_cell_angle_alpha 90.000000
_cell_angle_beta 39.247090
_cell_angle_gamma 90.000000
_cell_volume 1478.524759
_symmetry_space_group_name_H-M "P 2/M"
_symmetry_group_IT_number 10
_symmetry_cell_setting 'monoclinic'
loop_
_space_group_symop_operation_xyz
x,y,z
-x,y,-z
-x,-y,-z
x,-y,z
loop_
_atom_site_type_symbol
_atom_site_label
_atom_site_fract_x
_atom_site_fract_y
_atom_site_fract_z
Si Si1 0.646221 0.821495 0.884276
Si Si2 0.041402 0.828018 0.575533
Si Si3 0.671835 0.676141 0.740138
Si Si4 0.615780 0.677887 0.388132
Si Si5 0.384091 0.322237 0.372230
Si Si6 0.038286 0.171687 0.726699
O O1 0.610505 0.752496 0.831701
O O2 0.839255 0.774512 0.821198
O O3 0.653085 0.000000 0.874119
O O4 0.500000 0.783892 0.000000
O O5 0.205074 0.758906 0.468183
O O6 0.075247 0.821057 0.635446
O O7 0.866868 0.735822 0.642128
O O8 0.014654 0.000000 0.570846
O O9 0.674966 0.500000 0.747470
O O10 0.569204 0.710207 0.721142
O O11 0.500000 0.727420 0.500000
O O12 0.622607 0.500000 0.387768
O O13 0.521842 0.720461 0.364714
O O14 0.809339 0.740102 0.307414
O O15 0.357294 0.500000 0.388856
O O16 0.044576 0.000000 0.743314
#
# Coordination Sequence:
#
# PCOD9144542 Si02
#       6
#     4   4   4   4   4   4
#     4   9  19  37  58  77  98 123 156 205 258 301
#     4  10  19  30  46  69  99 133 168 203 241 290
#     4  10  20  32  48  71 100 128 161 204 247 296
#     4  10  19  31  48  68  97 138 174 200 232 281
#     4  10  20  32  45  67 100 136 168 201 242 284
#     4   9  18  31  48  73  99 125 161 204 245 285
#
# _framework density 16.232396999999999
#
# number of rings (size 3 to 8) (size 9 to 14) (size 15 to 20)
#    0.000    2.333    1.667    2.500    0.000    7.333 
#    0.000    0.000    0.000    1.000    0.000    7.000 
#    0.000    0.000    0.000    0.000    0.000    0.000 
#
# Total GULP energy -133798.434635 kJ/mol
# GULP energy per Si atom -5574.934776 kJ/mol
# Density = 1.619545 g / cm^3
# Si number density = 16.232397 Si / 1000 Ang^3
#
#
#
# Elastic Constant Matrix: (Units=GPa)
#
#
# Indices 1 2 3 4 5 6 
#
# 1 124.7194 36.5785 68.7395 0.0000 17.7320 0.0000
# 2 36.5785 23.8474 33.5894 0.0000 6.3469 0.0000
# 3 68.7395 33.5894 114.0765 0.0000 7.4042 0.0000
# 4 0.0000 0.0000 0.0000 14.9037 0.0000 -6.5674
# 5 17.7320 6.3469 7.4042 0.0000 9.0972 0.0000
# 6 0.0000 0.0000 0.0000 -6.5674 0.0000 16.5029
#
#
#
# Elastic Compliance Matrix: (Units=1/GPa)
#
#
# Indices 1 2 3 4 5 6 
#
# 1 0.018309 -0.015210 -0.005201 0.000000 -0.020842 0.000000
# 2 -0.015210 0.096373 -0.017707 0.000000 -0.023179 0.000000
# 3 -0.005201 -0.017707 0.016527 0.000000 0.009040 0.000000
# 4 0.000000 0.000000 0.000000 0.081365 0.000000 0.032380
# 5 -0.020842 -0.023179 0.009040 0.000000 0.159362 0.000000
# 6 0.000000 0.000000 0.000000 0.032380 0.000000 0.073481
#
#
# Mechanical properties :
#
#
# Convention : Reuss Voigt Hill
#
# Bulk Modulus (GPa) = 18.19091 60.05092 39.12091
# Shear Modulus (GPa) = 9.25964 16.34983 12.80473
#
# Velocity S-wave (km/s) = 2.39098 3.17714 2.81167
# Velocity P-wave (km/s) = 4.34204 7.10871 5.89012
#
# Compressibility (1/GPa) = 0.05497250
#
# Stress axis : x y z
#
# Youngs Moduli (GPa) = 54.61891 10.37630 60.50688
#
# Poissons Ratio (x) = 0.15783 0.31469
# Poissons Ratio (y) = 0.83077 1.07140
# Poissons Ratio (z) = 0.28407 0.18373
#
# Static dielectric constant tensor:
#      x y z
#    x 1.562570 0.000000 0.016520 
#    y 0.000000 1.545080 0.000000 
#    z 0.016520 0.000000 1.523960 
# 
# From -- ./inp_files/45140.got.cif
#   From: 2010.05.17/outbox.cif.g08.bks.cpg/sg10_23_cif.got.tgz:45140.got - 2010.06.03 11:33:40.
