data_PCOD9144107
_publ_section_title
;
Structure prediction by ZEFSAII (Michael W. Deem and Ramdas Pophale) SiO2 
 PCOD9144107
Probable space group: P 2/M
;
_chemical_formula_sum "Si O2"
_cell_formula_units_Z 32
_cell_length_a 10.281786
_cell_length_b 7.543339
_cell_length_c 19.363483
_cell_angle_alpha 90.000000
_cell_angle_beta 85.532803
_cell_angle_gamma 90.000000
_cell_volume 1497.249955
_symmetry_space_group_name_H-M "P 2/M"
_symmetry_group_IT_number 10
_symmetry_cell_setting 'monoclinic'
loop_
_space_group_symop_operation_xyz
x,y,z
-x,y,-z
-x,-y,-z
x,-y,z
loop_
_atom_site_type_symbol
_atom_site_label
_atom_site_fract_x
_atom_site_fract_y
_atom_site_fract_z
Si Si1 0.867695 0.285608 0.591856
Si Si2 0.314598 0.296790 0.684694
Si Si3 0.787915 0.795572 0.745213
Si Si4 0.889655 0.714555 0.057524
Si Si5 0.831726 0.716732 0.439504
Si Si6 0.066378 0.208163 0.784096
Si Si7 0.500309 0.294199 0.791381
Si Si8 0.595411 0.282911 0.056658
O O1 0.864433 0.500000 0.594418
O O2 0.795688 0.217164 0.662159
O O3 0.811836 0.230108 0.519752
O O4 0.020340 0.231582 0.587096
O O5 0.353525 0.500000 0.667779
O O6 0.270007 0.218039 0.613330
O O7 0.427247 0.214504 0.727727
O O8 0.184501 0.295774 0.737461
O O9 0.924495 0.720122 0.767971
O O10 0.655124 0.711731 0.777471
O O11 0.782866 0.000000 0.766980
O O12 0.892085 0.500000 0.057617
O O13 0.745158 0.770324 0.040678
O O14 0.914168 0.771880 0.135061
O O15 0.000000 0.776950 0.000000
O O16 0.830974 0.500000 0.438128
O O17 0.070554 0.000000 0.765637
O O18 0.458376 0.500000 0.794268
O O19 0.452891 0.219925 0.866328
O O20 0.591750 0.500000 0.056696
O O21 0.500000 0.223255 0.000000
#
# Coordination Sequence:
#
# PCOD9144107 Si02
#       8
#     4   4   4   4   4   4   4   4
#     4   9  16  31  55  83 110 141 181 227 283 329
#     4  10  18  35  60  85 109 139 186 235 276 327
#     4  11  24  38  52  78 115 152 189 227 270 325
#     4  10  21  37  60  87 111 140 181 230 278 322
#     4   8  15  28  54  86 111 136 175 233 284 327
#     4  11  23  37  55  80 114 150 185 227 275 325
#     4  10  21  36  58  82 108 146 186 227 277 326
#     4   9  18  34  55  84 114 137 173 224 273 326
#
# _framework density 21.372515
#
# number of rings (size 3 to 8) (size 9 to 14) (size 15 to 20)
#    0.000    2.250    2.500    1.500    1.750    2.250 
#    0.000    2.500    0.000    4.500    0.000    0.000 
#    0.000    0.000    0.000    0.000    0.000    0.000 
#
# Total GULP energy -178701.023237 kJ/mol
# GULP energy per Si atom -5584.406976 kJ/mol
# Density = 2.132387 g / cm^3
# Si number density = 21.372515 Si / 1000 Ang^3
#
#
#
# Elastic Constant Matrix: (Units=GPa)
#
#
# Indices 1 2 3 4 5 6 
#
# 1 111.8512 -1.6561 41.0702 0.0000 11.3762 0.0000
# 2 -1.6561 54.5989 -5.7766 0.0000 4.7399 0.0000
# 3 41.0702 -5.7766 92.9356 0.0000 20.0322 0.0000
# 4 0.0000 0.0000 0.0000 -191.4479 0.0000 169.1487
# 5 11.3762 4.7399 20.0322 0.0000 35.7145 0.0000
# 6 0.0000 0.0000 0.0000 169.1487 0.0000 -137.0452
#
#
#
# Elastic Compliance Matrix: (Units=1/GPa)
#
#
# Indices 1 2 3 4 5 6 
#
# 1 0.010696 -0.000084 -0.004550 0.000000 -0.000844 0.000000
# 2 -0.000084 0.018833 0.001980 0.000000 -0.003583 0.000000
# 3 -0.004550 0.001980 0.014376 0.000000 -0.006877 0.000000
# 4 0.000000 0.000000 0.000000 0.057721 0.000000 0.071242
# 5 -0.000844 -0.003583 -0.006877 0.000000 0.032602 0.000000
# 6 0.000000 0.000000 0.000000 0.071242 0.000000 0.080634
#
#
# Mechanical properties :
#
#
# Convention : Reuss Voigt Hill
#
# Bulk Modulus (GPa) = 25.90802 36.29564 31.10183
# Shear Modulus (GPa) = 21.45596 -43.50585 -11.02494
#
# Velocity S-wave (km/s) = 3.17188 -4.51665 -2.27369
# Velocity P-wave (km/s) = 5.05598 3.19076 2.77326
#
# Compressibility (1/GPa) = 0.03859808
#
# Stress axis : x y z
#
# Youngs Moduli (GPa) = 93.49537 53.09709 69.55888
#
# Poissons Ratio (x) = 0.00445 0.31649
# Poissons Ratio (y) = 0.00783 -0.13773
# Poissons Ratio (z) = 0.42540 -0.10513
#
# Static dielectric constant tensor:
#      x y z
#    x 1.743710 0.000000 0.035250 
#    y 0.000000 1.868300 0.000000 
#    z 0.035250 0.000000 1.754990 
# 
# From -- ./inp_files/82011.got.cif
#   From: 2010.05.17/outbox.cif.g08.bks.cpg/sg10_42_cif.got.tgz:82011.got - 2010.06.03 11:33:40.
