data_PCOD9144924
_publ_section_title
;
Structure prediction by ZEFSAII (Michael W. Deem and Ramdas Pophale) SiO2 
 PCOD9144924
Probable space group: P 2/M
;
_chemical_formula_sum "Si O2"
_cell_formula_units_Z 26
_cell_length_a 7.996899
_cell_length_b 31.549997
_cell_length_c 5.321907
_cell_angle_alpha 90.000000
_cell_angle_beta 60.620331
_cell_angle_gamma 90.000000
_cell_volume 1170.037454
_symmetry_space_group_name_H-M "P 2/M"
_symmetry_group_IT_number 10
_symmetry_cell_setting 'monoclinic'
loop_
_space_group_symop_operation_xyz
x,y,z
-x,y,-z
-x,-y,-z
x,-y,z
loop_
_atom_site_type_symbol
_atom_site_label
_atom_site_fract_x
_atom_site_fract_y
_atom_site_fract_z
Si Si1 0.229977 0.548118 0.785339
Si Si2 0.725710 0.274659 0.343651
Si Si3 0.866398 0.000000 0.348402
Si Si4 0.133139 0.091248 0.651444
Si Si5 0.869869 0.817036 0.344968
Si Si6 0.733495 0.680692 0.834504
Si Si7 0.782069 0.416088 0.706574
O O1 0.265590 0.500000 0.677587
O O2 0.299069 0.579296 0.514204
O O3 0.309823 0.557053 0.002929
O O4 0.000000 0.553286 0.000000
O O5 0.500000 0.283185 0.500000
O O6 0.750747 0.225468 0.393857
O O7 0.804806 0.301517 0.516741
O O8 0.799191 0.290202 0.019012
O O9 0.000000 0.000000 0.500000
O O10 0.760992 0.045648 0.426843
O O11 0.000000 0.000000 0.000000
O O12 0.000000 0.091263 0.500000
O O13 0.235409 0.137077 0.567166
O O14 0.000000 0.091128 0.000000
O O15 0.000000 0.813172 0.500000
O O16 0.000000 0.818764 0.000000
O O17 0.787627 0.631605 0.806905
O O18 0.500000 0.682116 0.000000
O O19 0.000000 0.431297 0.500000
#
# Coordination Sequence:
#
# PCOD9144924 Si02
#       7
#     4   4   2   4   4   4   4
#     4   9  17  30  49  73  99 124 150 183 225 273
#     4  10  21  36  51  68  93 129 165 193 236 296
#     4   8  12  20  34  54  83 118 147 178 224 280
#     4   8  14  23  37  59  88 117 148 186 232 279
#     4  10  19  31  48  72  97 122 156 203 247 278
#     4  10  21  36  52  69  94 127 160 195 235 281
#     4  10  19  31  50  74  95 119 154 192 228 269
#
# _framework density 22.221511
#
# number of rings (size 3 to 8) (size 9 to 14) (size 15 to 20)
#    0.000    2.615    0.000    2.308    0.000    3.692 
#    0.000    0.000    0.000    2.769    0.000    0.538 
#    0.000    0.000    0.000   41.385    0.000    1.538 
#
# Total GULP energy -144941.067065 kJ/mol
# GULP energy per Si atom -5574.656426 kJ/mol
# Density = 2.217093 g / cm^3
# Si number density = 22.221511 Si / 1000 Ang^3
#
#
#
# Elastic Constant Matrix: (Units=GPa)
#
#
# Indices 1 2 3 4 5 6 
#
# 1 60.1125 -10.2367 42.4750 0.0000 19.1080 0.0000
# 2 -10.2367 107.8360 14.1881 0.0000 26.4240 0.0000
# 3 42.4750 14.1881 112.0082 0.0000 39.3241 0.0000
# 4 0.0000 0.0000 0.0000 26.8824 0.0000 12.9094
# 5 19.1080 26.4240 39.3241 0.0000 40.5886 0.0000
# 6 0.0000 0.0000 0.0000 12.9094 0.0000 0.6813
#
#
#
# Elastic Compliance Matrix: (Units=1/GPa)
#
#
# Indices 1 2 3 4 5 6 
#
# 1 0.025448 0.005434 -0.007411 0.000000 -0.008337 0.000000
# 2 0.005434 0.012412 0.000155 0.000000 -0.010789 0.000000
# 3 -0.007411 0.000155 0.015957 0.000000 -0.012072 0.000000
# 4 0.000000 0.000000 0.000000 -0.004593 0.000000 0.087026
# 5 -0.008337 -0.010789 -0.012072 0.000000 0.047282 0.000000
# 6 0.000000 0.000000 0.000000 0.087026 0.000000 -0.181222
#
#
# Mechanical properties :
#
#
# Convention : Reuss Voigt Hill
#
# Bulk Modulus (GPa) = 19.93155 41.42328 30.67741
# Shear Modulus (GPa) = -77.70384 29.19912 -24.25236
#
# Velocity S-wave (km/s) = -5.91978 3.62885 -3.30720
# Velocity P-wave (km/s) = 6.14297 6.01993 0.86500
#
# Compressibility (1/GPa) = 0.05017171
#
# Stress axis : x y z
#
# Youngs Moduli (GPa) = 39.29626 80.56402 62.66875
#
# Poissons Ratio (x) = -0.43776 0.46446
# Poissons Ratio (y) = -0.21353 -0.00971
# Poissons Ratio (z) = 0.29124 -0.01249
#
# Static dielectric constant tensor:
#      x y z
#    x 1.915000 0.000000 0.011090 
#    y 0.000000 1.859990 0.000000 
#    z 0.011090 0.000000 1.803520 
# 
# From -- ./inp_files/5438.got.cif
#   From: 2010.05.17/outbox.cif.g08.bks.cpg/sg10_3_cif.got.tgz:5438.got - 2010.06.03 11:33:40.
