data_PCOD9144460
_publ_section_title
;
Structure prediction by ZEFSAII (Michael W. Deem and Ramdas Pophale) SiO2 
 PCOD9144460
Probable space group: P 2/M
;
_chemical_formula_sum "Si O2"
_cell_formula_units_Z 32
_cell_length_a 16.242346
_cell_length_b 7.441934
_cell_length_c 11.939450
_cell_angle_alpha 90.000000
_cell_angle_beta 117.050395
_cell_angle_gamma 90.000000
_cell_volume 1285.301259
_symmetry_space_group_name_H-M "P 2/M"
_symmetry_group_IT_number 10
_symmetry_cell_setting 'monoclinic'
loop_
_space_group_symop_operation_xyz
x,y,z
-x,y,-z
-x,-y,-z
x,-y,z
loop_
_atom_site_type_symbol
_atom_site_label
_atom_site_fract_x
_atom_site_fract_y
_atom_site_fract_z
Si Si1 0.764889 0.787729 0.399395
Si Si2 0.332165 0.204657 0.457570
Si Si3 0.841864 0.704535 0.968188
Si Si4 0.763723 0.282841 0.137359
Si Si5 0.363810 0.212931 0.241715
Si Si6 0.963098 0.699816 0.590979
Si Si7 0.877536 0.720574 0.752738
Si Si8 0.563052 0.716050 0.937313
O O1 0.678657 0.722659 0.422331
O O2 0.766655 0.767930 0.267920
O O3 0.855009 0.686322 0.496655
O O4 0.775089 0.000000 0.429637
O O5 0.383134 0.281929 0.379656
O O6 0.224082 0.212033 0.348715
O O7 0.365739 0.000000 0.489799
O O8 0.876138 0.500000 0.000668
O O9 0.732625 0.701078 0.862074
O O10 0.891121 0.781417 0.888966
O O11 0.836916 0.783096 0.090093
O O12 0.766066 0.500000 0.134194
O O13 0.664612 0.220007 0.033544
O O14 0.345685 0.000000 0.239102
O O15 0.443296 0.236771 0.197813
O O16 0.007170 0.500000 0.624534
O O17 0.955154 0.777376 0.710816
O O18 0.000000 0.790496 0.500000
O O19 0.875204 0.500000 0.750143
O O20 0.559553 0.500000 0.938978
O O21 0.500000 0.782852 0.000000
#
# Coordination Sequence:
#
# PCOD9144460 Si02
#       8
#     4   4   4   4   4   4   4   4
#     4  10  19  30  45  65  90 119 149 179 215 261
#     4   8  15  26  39  59  86 112 139 176 217 252
#     4   8  14  25  41  61  85 112 142 178 218 257
#     4   9  17  29  45  65  88 113 143 180 219 257
#     4   9  15  24  41  64  87 109 139 179 217 253
#     4   9  17  29  46  68  92 116 144 181 222 262
#     4   8  13  23  41  63  84 108 141 178 216 258
#     4   9  18  32  48  66  90 118 145 177 219 262
#
# _framework density 24.896885999999999
#
# number of rings (size 3 to 8) (size 9 to 14) (size 15 to 20)
#    0.000    3.250    0.000    1.500    0.000    3.500 
#    0.000    0.000    0.000    1.500    0.000   10.500 
#    0.000    0.000    0.000    0.000    0.000    0.000 
#
# Total GULP energy -178173.949209 kJ/mol
# GULP energy per Si atom -5567.935913 kJ/mol
# Density = 2.484022 g / cm^3
# Si number density = 24.896886 Si / 1000 Ang^3
#
#
#
# Elastic Constant Matrix: (Units=GPa)
#
#
# Indices 1 2 3 4 5 6 
#
# 1 72.3973 0.7879 69.3352 0.0000 -50.4741 0.0000
# 2 0.7879 95.4732 3.1399 0.0000 -4.8984 0.0000
# 3 69.3352 3.1399 199.6138 0.0000 -95.9119 0.0000
# 4 0.0000 0.0000 0.0000 37.0970 0.0000 -4.7731
# 5 -50.4741 -4.8984 -95.9119 0.0000 68.2901 0.0000
# 6 0.0000 0.0000 0.0000 -4.7731 0.0000 -4.8783
#
#
#
# Elastic Compliance Matrix: (Units=1/GPa)
#
#
# Indices 1 2 3 4 5 6 
#
# 1 0.028601 0.000881 0.000736 0.000000 0.022236 0.000000
# 2 0.000881 0.010564 0.000630 0.000000 0.002293 0.000000
# 3 0.000736 0.000630 0.015460 0.000000 0.022303 0.000000
# 4 0.000000 0.000000 0.000000 0.023942 0.000000 -0.023426
# 5 0.022236 0.002293 0.022303 0.000000 0.062566 0.000000
# 6 0.000000 0.000000 0.000000 -0.023426 0.000000 -0.182068
#
#
# Mechanical properties :
#
#
# Convention : Reuss Voigt Hill
#
# Bulk Modulus (GPa) = 16.91553 57.11225 37.01389
# Shear Modulus (GPa) = -194.39455 39.71651 -77.33902
#
# Velocity S-wave (km/s) = -8.84587 3.99838 -5.57953
# Velocity P-wave (km/s) = 9.87540 6.65623 5.15840
#
# Compressibility (1/GPa) = 0.05911726
#
# Stress axis : x y z
#
# Youngs Moduli (GPa) = 34.96403 94.66276 64.68134
#
# Poissons Ratio (x) = -0.08336 -0.04759
# Poissons Ratio (y) = -0.03079 -0.04073
# Poissons Ratio (z) = -0.02572 -0.05961
#
# Static dielectric constant tensor:
#      x y z
#    x 2.005650 0.000000 -0.076480 
#    y 0.000000 2.234570 0.000000 
#    z -0.076480 0.000000 2.133410 
# 
# From -- ./inp_files/52697.got.cif
#   From: 2010.05.17/outbox.cif.g08.bks.cpg/sg10_27_cif.got.tgz:52697.got - 2010.06.03 11:33:40.
