data_PCOD9144382
_publ_section_title
;
Structure prediction by ZEFSAII (Michael W. Deem and Ramdas Pophale) SiO2 
 PCOD9144382
Probable space group: P 2/M
;
_chemical_formula_sum "Si O2"
_cell_formula_units_Z 28
_cell_length_a 5.684249
_cell_length_b 24.612540
_cell_length_c 11.719081
_cell_angle_alpha 90.000000
_cell_angle_beta 93.884092
_cell_angle_gamma 90.000000
_cell_volume 1635.778205
_symmetry_space_group_name_H-M "P 2/M"
_symmetry_group_IT_number 10
_symmetry_cell_setting 'monoclinic'
loop_
_space_group_symop_operation_xyz
x,y,z
-x,y,-z
-x,-y,-z
x,-y,z
loop_
_atom_site_type_symbol
_atom_site_label
_atom_site_fract_x
_atom_site_fract_y
_atom_site_fract_z
Si Si1 0.058029 0.223631 0.628051
Si Si2 0.000000 0.789071 0.000000
Si Si3 0.517349 0.389387 0.134343
Si Si4 0.255761 0.000000 0.568530
Si Si5 0.018753 0.564642 0.137210
Si Si6 0.295110 0.176445 0.210164
Si Si7 0.660921 0.732576 0.161753
Si Si8 0.613472 0.883549 0.377034
O O1 0.193919 0.264945 0.715052
O O2 0.209087 0.167586 0.624338
O O3 0.000000 0.243307 0.500000
O O4 0.823788 0.207234 0.687648
O O5 0.827502 0.748323 0.061943
O O6 0.108041 0.827294 0.102333
O O7 0.272548 0.410345 0.181507
O O8 0.534518 0.324467 0.143255
O O9 0.773990 0.412208 0.181468
O O10 0.500000 0.405284 0.000000
O O11 0.500000 0.000000 0.500000
O O12 0.268757 0.057703 0.632759
O O13 0.000000 0.000000 0.500000
O O14 0.025623 0.500000 0.153752
O O15 0.000000 0.575634 0.000000
O O16 0.485430 0.217082 0.164666
O O17 0.420739 0.125307 0.271453
O O18 0.500000 0.881246 0.500000
#
# Coordination Sequence:
#
# PCOD9144382 Si02
#       8
#     4   2   4   2   4   4   4   4
#     4  10  19  33  53  74 108 141 174 216 272 328
#     4  10  20  34  50  73 109 140 192 216 262 320
#     4  10  19  29  48  68 101 136 175 218 259 313
#     4  10  22  34  56  83 113 139 178 234 269 323
#     4   9  18  30  45  67  97 137 175 214 262 313
#     4  10  20  33  52  76 107 144 178 223 262 329
#     4  10  22  31  50  76 104 142 181 224 262 321
#     4  10  19  33  53  79 108 140 180 219 275 321
#
# _framework density 17.117234
#
# number of rings (size 3 to 8) (size 9 to 14) (size 15 to 20)
#    0.000    2.143    1.429    2.143    9.000    1.714 
#    0.000    0.000    0.000    0.429    0.000   13.000 
#    0.000    3.429    0.000    0.000    0.000    0.000 
#
# Total GULP energy -155912.877475 kJ/mol
# GULP energy per Si atom -5568.317053 kJ/mol
# Density = 1.707827 g / cm^3
# Si number density = 17.117234 Si / 1000 Ang^3
#
#
#
# Elastic Constant Matrix: (Units=GPa)
#
#
# Indices 1 2 3 4 5 6 
#
# 1 90.3938 45.6082 25.6565 0.0000 2.9067 0.0000
# 2 45.6082 48.1914 5.6186 0.0000 1.8264 0.0000
# 3 25.6565 5.6186 78.3807 0.0000 6.0831 0.0000
# 4 0.0000 0.0000 0.0000 5.4309 0.0000 13.7815
# 5 2.9067 1.8264 6.0831 0.0000 28.3904 0.0000
# 6 0.0000 0.0000 0.0000 13.7815 0.0000 23.6240
#
#
#
# Elastic Compliance Matrix: (Units=1/GPa)
#
#
# Indices 1 2 3 4 5 6 
#
# 1 0.023864 -0.021866 -0.006268 0.000000 0.000306 0.000000
# 2 -0.021866 0.040991 0.004322 0.000000 -0.001324 0.000000
# 3 -0.006268 0.004322 0.014717 0.000000 -0.002790 0.000000
# 4 0.000000 0.000000 0.000000 -0.383323 0.000000 0.223618
# 5 0.000306 -0.001324 -0.002790 0.000000 0.035875 0.000000
# 6 0.000000 0.000000 0.000000 0.223618 0.000000 -0.088122
#
#
# Mechanical properties :
#
#
# Convention : Reuss Voigt Hill
#
# Bulk Modulus (GPa) = 31.30115 41.19249 36.24682
# Shear Modulus (GPa) = -16.79403 20.82791 2.01694
#
# Velocity S-wave (km/s) = -3.13568 3.49202 1.08668
# Velocity P-wave (km/s) = 2.28387 6.35422 4.77453
#
# Compressibility (1/GPa) = 0.03194771
#
# Stress axis : x y z
#
# Youngs Moduli (GPa) = 41.90348 24.39568 67.95041
#
# Poissons Ratio (x) = 0.53344 0.42591
# Poissons Ratio (y) = 0.91626 -0.29367
# Poissons Ratio (z) = 0.26265 -0.10543
#
# Static dielectric constant tensor:
#      x y z
#    x 1.907220 0.000000 -0.093080 
#    y 0.000000 1.559700 0.000000 
#    z -0.093080 0.000000 1.640460 
# 
# From -- ./inp_files/39884.got.cif
#   From: 2010.05.17/outbox.cif.g08.bks.cpg/sg10_20_cif.got.tgz:39884.got - 2010.06.03 11:33:40.
