data_PCOD9144792
_publ_section_title
;
Structure prediction by ZEFSAII (Michael W. Deem and Ramdas Pophale) SiO2 
 PCOD9144792
Probable space group: P 2/M
;
_chemical_formula_sum "Si O2"
_cell_formula_units_Z 29
_cell_length_a 13.811066
_cell_length_b 7.438811
_cell_length_c 12.215056
_cell_angle_alpha 90.000000
_cell_angle_beta 56.377872
_cell_angle_gamma 90.000000
_cell_volume 1045.005655
_symmetry_space_group_name_H-M "P 2/M"
_symmetry_group_IT_number 10
_symmetry_cell_setting 'monoclinic'
loop_
_space_group_symop_operation_xyz
x,y,z
-x,y,-z
-x,-y,-z
x,-y,z
loop_
_atom_site_type_symbol
_atom_site_label
_atom_site_fract_x
_atom_site_fract_y
_atom_site_fract_z
Si Si1 0.380838 0.294622 0.970204
Si Si2 0.696944 0.712991 0.526466
Si Si3 0.736210 0.722174 0.747299
Si Si4 0.555480 0.719809 0.301910
Si Si5 0.991791 0.203785 0.676461
Si Si6 0.191491 0.203304 0.763448
Si Si7 0.873359 0.219301 0.964995
Si Si8 0.000000 0.500000 0.500000
O O1 0.420326 0.500000 0.953871
O O2 0.365899 0.226233 0.103407
O O3 0.247266 0.290622 0.009813
O O4 0.447428 0.219564 0.823789
O O5 0.685542 0.500000 0.546005
O O6 0.718649 0.783030 0.634688
O O7 0.567918 0.774201 0.570972
O O8 0.791750 0.742012 0.373167
O O9 0.748875 0.500000 0.741441
O O10 0.856501 0.794832 0.719657
O O11 0.565369 0.500000 0.300394
O O12 0.673953 0.789733 0.279193
O O13 0.974365 0.263650 0.814578
O O14 0.043425 0.345387 0.560071
O O15 0.034037 0.000000 0.639181
O O16 0.149750 0.000000 0.787248
O O17 0.125671 0.284898 0.910181
O O18 0.866770 0.000000 0.969104
#
# Coordination Sequence:
#
# PCOD9144792 Si02
#       8
#     4   4   4   4   4   4   4   1
#     4   8  14  25  45  65  87 128 171 212 262 307
#     4  10  20  30  43  66  99 137 177 223 267 306
#     4   9  17  32  49  70 102 137 176 214 253 312
#     4   9  17  29  43  64  94 129 176 230 276 309
#     4  10  20  36  58  85 115 140 161 199 251 304
#     4  10  19  31  46  66  94 132 181 229 265 298
#     4   8  16  30  48  70  97 129 167 209 252 296
#     4  12  22  36  60  94 118 134 158 192 244 322
#
# _framework density 27.751047
#
# number of rings (size 3 to 8) (size 9 to 14) (size 15 to 20)
#    0.000    2.759    0.690    1.034    0.966    3.862 
#    0.000    2.759    0.000    0.000    0.000   12.552 
#    0.000    4.414    0.000    0.000    0.000    0.000 
#
# Total GULP energy -162000.398682 kJ/mol
# GULP energy per Si atom -5586.220644 kJ/mol
# Density = 2.768788 g / cm^3
# Si number density = 27.751047 Si / 1000 Ang^3
#
#
#
# Elastic Constant Matrix: (Units=GPa)
#
#
# Indices 1 2 3 4 5 6 
#
# 1 84.3799 7.9468 58.4596 0.0000 12.7958 0.0000
# 2 7.9468 118.6385 24.3502 0.0000 10.4342 0.0000
# 3 58.4596 24.3502 235.4813 0.0000 27.2281 0.0000
# 4 0.0000 0.0000 0.0000 31.4472 0.0000 13.1494
# 5 12.7958 10.4342 27.2281 0.0000 76.1298 0.0000
# 6 0.0000 0.0000 0.0000 13.1494 0.0000 28.2175
#
#
#
# Elastic Compliance Matrix: (Units=1/GPa)
#
#
# Indices 1 2 3 4 5 6 
#
# 1 0.014419 -0.000159 -0.003427 0.000000 -0.001176 0.000000
# 2 -0.000159 0.008673 -0.000754 0.000000 -0.000892 0.000000
# 3 -0.003427 -0.000754 0.005317 0.000000 -0.001222 0.000000
# 4 0.000000 0.000000 0.000000 0.039495 0.000000 -0.018405
# 5 -0.001176 -0.000892 -0.001222 0.000000 0.013893 0.000000
# 6 0.000000 0.000000 0.000000 -0.018405 0.000000 0.044016
#
#
# Mechanical properties :
#
#
# Convention : Reuss Voigt Hill
#
# Bulk Modulus (GPa) = 50.68987 68.89032 59.79009
# Shear Modulus (GPa) = 35.44378 50.34176 42.89277
#
# Velocity S-wave (km/s) = 3.57768 4.26379 3.93571
# Velocity P-wave (km/s) = 5.94743 7.00843 6.49962
#
# Compressibility (1/GPa) = 0.01972781
#
# Stress axis : x y z
#
# Youngs Moduli (GPa) = 69.35376 115.30190 188.08549
#
# Poissons Ratio (x) = 0.01833 0.64460
# Poissons Ratio (y) = 0.01103 0.14185
# Poissons Ratio (z) = 0.23769 0.08696
#
# Static dielectric constant tensor:
#      x y z
#    x 2.271720 0.000000 -0.013070 
#    y 0.000000 1.975150 0.000000 
#    z -0.013070 0.000000 2.221740 
# 
# From -- ./inp_files/54737.got.cif
#   From: 2010.05.17/outbox.cif.g08.bks.cpg/sg10_28_cif.got.tgz:54737.got - 2010.06.03 11:33:40.
