data_PCOD9144536
_publ_section_title
;
Structure prediction by ZEFSAII (Michael W. Deem and Ramdas Pophale) SiO2 
 PCOD9144536
Probable space group: P 2/M
;
_chemical_formula_sum "Si O2"
_cell_formula_units_Z 32
_cell_length_a 31.389666
_cell_length_b 14.469375
_cell_length_c 9.009346
_cell_angle_alpha 90.000000
_cell_angle_beta 150.859815
_cell_angle_gamma 90.000000
_cell_volume 1992.564552
_symmetry_space_group_name_H-M "P 2/M"
_symmetry_group_IT_number 10
_symmetry_cell_setting 'monoclinic'
loop_
_space_group_symop_operation_xyz
x,y,z
-x,y,-z
-x,-y,-z
x,-y,z
loop_
_atom_site_type_symbol
_atom_site_label
_atom_site_fract_x
_atom_site_fract_y
_atom_site_fract_z
Si Si1 0.036914 0.397149 0.851570
Si Si2 0.009615 0.203497 0.191909
Si Si3 0.145219 0.397516 0.888698
Si Si4 0.133253 0.889373 0.045117
Si Si5 0.340002 0.888471 0.190448
Si Si6 0.520293 0.887865 0.894635
Si Si7 0.187458 0.793202 0.905434
Si Si8 0.692838 0.112226 0.249230
O O1 0.046129 0.500000 0.946793
O O2 0.030787 0.307196 0.933917
O O3 0.112848 0.384748 0.959594
O O4 0.945470 0.396510 0.481507
O O5 0.109866 0.206326 0.548111
O O6 0.954395 0.149521 0.147772
O O7 0.000000 0.160844 0.000000
O O8 0.183812 0.500000 0.990524
O O9 0.200953 0.312136 0.000036
O O10 0.214582 0.861465 0.398439
O O11 0.129716 0.000000 0.025374
O O12 0.151949 0.847693 0.940813
O O13 0.438786 0.866041 0.540086
O O14 0.329980 0.000000 0.170374
O O15 0.272262 0.840971 0.095727
O O16 0.320268 0.859835 0.961312
O O17 0.525498 0.000000 0.917137
O O18 0.500000 0.855654 0.000000
O O19 0.611979 0.855407 0.105063
O O20 0.690343 0.000000 0.242112
#
# Coordination Sequence:
#
# PCOD9144536 Si02
#       8
#     4   4   4   4   4   4   4   4
#     4   8  14  28  48  67  86 110 145 190 238 278
#     4  11  22  33  45  65  93 124 157 192 231 273
#     4   8  14  27  48  68  86 111 146 190 234 273
#     4  11  22  34  47  63  87 124 166 198 224 263
#     4  10  19  30  46  69  97 126 153 185 229 274
#     4   9  16  28  47  69  92 119 154 192 229 270
#     4  11  20  32  48  67  91 121 158 193 225 271
#     4   9  18  32  47  65  92 124 155 193 236 269
#
# _framework density 16.059705999999998
#
# number of rings (size 3 to 8) (size 9 to 14) (size 15 to 20)
#    0.000    2.375    1.250    3.375    0.000    5.500 
#    0.000    0.000    0.000    0.000    0.000    0.000 
#    0.000    7.500    0.000    0.000    0.000    0.375 
#
# Total GULP energy -178377.356302 kJ/mol
# GULP energy per Si atom -5574.292384 kJ/mol
# Density = 1.602315 g / cm^3
# Si number density = 16.059706 Si / 1000 Ang^3
#
#
#
# Elastic Constant Matrix: (Units=GPa)
#
#
# Indices 1 2 3 4 5 6 
#
# 1 48.5223 4.7941 -10.5035 0.0000 -0.7615 0.0000
# 2 4.7941 48.2667 -0.0501 0.0000 3.5087 0.0000
# 3 -10.5035 -0.0501 28.6253 0.0000 0.9899 0.0000
# 4 0.0000 0.0000 0.0000 0.4266 0.0000 0.6948
# 5 -0.7615 3.5087 0.9899 0.0000 26.7866 0.0000
# 6 0.0000 0.0000 0.0000 0.6948 0.0000 16.9405
#
#
#
# Elastic Compliance Matrix: (Units=1/GPa)
#
#
# Indices 1 2 3 4 5 6 
#
# 1 0.022637 -0.002286 0.008280 0.000000 0.000637 0.000000
# 2 -0.002286 0.021149 -0.000705 0.000000 -0.002809 0.000000
# 3 0.008280 -0.000705 0.038008 0.000000 -0.001077 0.000000
# 4 0.000000 0.000000 0.000000 2.511846 0.000000 -0.103023
# 5 0.000637 -0.002809 -0.001077 0.000000 0.037758 0.000000
# 6 0.000000 0.000000 0.000000 -0.103023 0.000000 0.063256
#
#
# Mechanical properties :
#
#
# Convention : Reuss Voigt Hill
#
# Bulk Modulus (GPa) = 10.82563 12.65504 11.74034
# Shear Modulus (GPa) = 1.84171 17.57566 9.70868
#
# Velocity S-wave (km/s) = 1.07204 3.31175 2.46140
# Velocity P-wave (km/s) = 2.87887 4.74560 3.92483
#
# Compressibility (1/GPa) = 0.09237335
#
# Stress axis : x y z
#
# Youngs Moduli (GPa) = 44.17473 47.28412 26.30998
#
# Poissons Ratio (x) = 0.10810 -0.21785
# Poissons Ratio (y) = 0.10099 0.01854
# Poissons Ratio (z) = -0.36578 0.03332
#
# Static dielectric constant tensor:
#      x y z
#    x 1.540240 0.000000 -0.017900 
#    y 0.000000 1.548460 0.000000 
#    z -0.017900 0.000000 1.526850 
# 
# From -- ./inp_files/29022.got.cif
#   From: 2010.05.17/outbox.cif.g08.bks.cpg/sg10_15_cif.got.tgz:29022.got - 2010.06.03 11:33:40.
