data_PCOD9144631
_publ_section_title
;
Structure prediction by ZEFSAII (Michael W. Deem and Ramdas Pophale) SiO2 
 PCOD9144631
Probable space group: P 2/M
;
_chemical_formula_sum "Si O2"
_cell_formula_units_Z 32
_cell_length_a 11.738021
_cell_length_b 14.189186
_cell_length_c 14.774971
_cell_angle_alpha 90.000000
_cell_angle_beta 135.297928
_cell_angle_gamma 90.000000
_cell_volume 1730.987631
_symmetry_space_group_name_H-M "P 2/M"
_symmetry_group_IT_number 10
_symmetry_cell_setting 'monoclinic'
loop_
_space_group_symop_operation_xyz
x,y,z
-x,y,-z
-x,-y,-z
x,-y,z
loop_
_atom_site_type_symbol
_atom_site_label
_atom_site_fract_x
_atom_site_fract_y
_atom_site_fract_z
Si Si1 0.769077 0.296846 0.532524
Si Si2 0.701580 0.607698 0.679540
Si Si3 0.663614 0.282092 0.834887
Si Si4 0.629064 0.612034 0.271849
Si Si5 0.691465 0.889478 0.585359
Si Si6 0.106424 0.392632 0.733642
Si Si7 0.911979 0.603091 0.072117
Si Si8 0.820585 0.889619 0.856704
O O1 0.686469 0.351063 0.570738
O O2 0.710755 0.342073 0.406309
O O3 0.734667 0.187050 0.533184
O O4 0.960297 0.319719 0.642410
O O5 0.646008 0.500000 0.654552
O O6 0.629410 0.671606 0.717722
O O7 0.895931 0.608207 0.806814
O O8 0.533473 0.326680 0.828711
O O9 0.687443 0.172034 0.834106
O O10 0.836117 0.319524 0.966250
O O11 0.595685 0.500000 0.265453
O O12 0.750471 0.621546 0.256281
O O13 0.500000 0.880377 0.500000
O O14 0.795940 0.866293 0.735710
O O15 0.720309 0.000000 0.578850
O O16 0.040605 0.500000 0.681756
O O17 0.160767 0.389611 0.868358
O O18 0.869888 0.500000 0.010025
O O19 0.786660 0.000000 0.845842
O O20 0.000000 0.873463 0.000000
#
# Coordination Sequence:
#
# PCOD9144631 Si02
#       8
#     4   4   4   4   4   4   4   4
#     4  11  20  34  58  78 105 147 187 228 279 329
#     4  10  19  30  47  77 111 140 171 214 273 336
#     4  12  21  32  51  79 115 144 175 227 283 337
#     4  11  23  36  53  79 111 150 192 232 273 328
#     4  10  21  38  58  85 119 149 183 233 291 346
#     4   9  20  38  56  76 104 146 198 235 265 320
#     4   9  18  32  51  73 103 144 182 219 269 327
#     4  10  21  37  58  84 114 151 193 232 277 345
#
# _framework density 18.486557000000001
#
# number of rings (size 3 to 8) (size 9 to 14) (size 15 to 20)
#    0.000    1.750    1.250    5.250    1.750    2.500 
#    0.000    3.125    0.000    2.250    0.000    0.875 
#    0.000    0.000    0.000    0.000    0.000    0.000 
#
# Total GULP energy -178668.102412 kJ/mol
# GULP energy per Si atom -5583.378200 kJ/mol
# Density = 1.844448 g / cm^3
# Si number density = 18.486557 Si / 1000 Ang^3
#
#
#
# Elastic Constant Matrix: (Units=GPa)
#
#
# Indices 1 2 3 4 5 6 
#
# 1 98.9854 43.4298 12.9161 0.0000 -4.0291 0.0000
# 2 43.4298 105.2308 11.2405 0.0000 4.6522 0.0000
# 3 12.9161 11.2405 63.7117 0.0000 -1.4569 0.0000
# 4 0.0000 0.0000 0.0000 -20.7662 0.0000 15.0501
# 5 -4.0291 4.6522 -1.4569 0.0000 20.0203 0.0000
# 6 0.0000 0.0000 0.0000 15.0501 0.0000 21.2302
#
#
#
# Elastic Compliance Matrix: (Units=1/GPa)
#
#
# Indices 1 2 3 4 5 6 
#
# 1 0.012767 -0.005263 -0.001576 0.000000 0.003678 0.000000
# 2 -0.005263 0.011970 -0.001134 0.000000 -0.003923 0.000000
# 3 -0.001576 -0.001134 0.016241 0.000000 0.001128 0.000000
# 4 0.000000 0.000000 0.000000 -0.031812 0.000000 0.022551
# 5 0.003678 -0.003923 0.001128 0.000000 0.051683 0.000000
# 6 0.000000 0.000000 0.000000 0.022551 0.000000 0.031116
#
#
# Mechanical properties :
#
#
# Convention : Reuss Voigt Hill
#
# Bulk Modulus (GPa) = 39.95025 44.78899 42.36962
# Shear Modulus (GPa) = 43.00834 17.45296 30.23065
#
# Velocity S-wave (km/s) = 4.82858 3.07594 4.04824
# Velocity P-wave (km/s) = 7.26252 6.07418 6.69477
#
# Compressibility (1/GPa) = 0.02503113
#
# Stress axis : x y z
#
# Youngs Moduli (GPa) = 78.32628 83.54341 61.57228
#
# Poissons Ratio (x) = 0.43972 0.09701
# Poissons Ratio (y) = 0.41226 0.06985
# Poissons Ratio (z) = 0.12341 0.09478
#
# Static dielectric constant tensor:
#      x y z
#    x 1.633310 0.000000 0.017760 
#    y 0.000000 1.637830 0.000000 
#    z 0.017760 0.000000 1.708590 
# 
# From -- ./inp_files/65147.got.cif
#   From: 2010.05.17/outbox.cif.g08.bks.cpg/sg10_33_cif.got.tgz:65147.got - 2010.06.03 11:33:40.
