data_PCOD9144649
_publ_section_title
;
Structure prediction by ZEFSAII (Michael W. Deem and Ramdas Pophale) SiO2 
 PCOD9144649
Probable space group: P 2/M
;
_chemical_formula_sum "Si O2"
_cell_formula_units_Z 32
_cell_length_a 14.588619
_cell_length_b 8.747785
_cell_length_c 15.988262
_cell_angle_alpha 90.000000
_cell_angle_beta 89.529053
_cell_angle_gamma 90.000000
_cell_volume 2040.322733
_symmetry_space_group_name_H-M "P 2/M"
_symmetry_group_IT_number 10
_symmetry_cell_setting 'monoclinic'
loop_
_space_group_symop_operation_xyz
x,y,z
-x,y,-z
-x,-y,-z
x,-y,z
loop_
_atom_site_type_symbol
_atom_site_label
_atom_site_fract_x
_atom_site_fract_y
_atom_site_fract_z
Si Si1 0.598051 0.682398 0.407125
Si Si2 0.097314 0.182127 0.819012
Si Si3 0.221035 0.683002 0.338126
Si Si4 0.107158 0.816462 0.492459
Si Si5 0.219585 0.815978 0.660317
Si Si6 0.596980 0.182669 0.593509
Si Si7 0.111168 0.323825 0.992995
Si Si8 0.106258 0.315164 0.176342
O O1 0.592952 0.500000 0.413503
O O2 0.683040 0.735000 0.350574
O O3 0.500760 0.749425 0.378304
O O4 0.613578 0.752382 0.499727
O O5 0.163839 0.230056 0.743291
O O6 0.996169 0.252977 0.808814
O O7 0.088122 0.000000 0.816012
O O8 0.134348 0.231660 0.909639
O O9 0.232218 0.500000 0.339456
O O10 0.156352 0.733647 0.415363
O O11 0.318780 0.762084 0.351119
O O12 0.171912 0.727863 0.251981
O O13 0.159020 0.780532 0.578532
O O14 0.000000 0.776821 0.500000
O O15 0.113811 0.000000 0.479180
O O16 0.232766 0.000000 0.661820
O O17 0.592768 0.000000 0.589441
O O18 0.140117 0.500000 0.982342
O O19 0.140893 0.264927 0.084040
O O20 0.000000 0.323017 0.000000
O O21 0.100271 0.500000 0.173116
#
# Coordination Sequence:
#
# PCOD9144649 Si02
#       8
#     4   4   4   4   4   4   4   4
#     4  11  21  34  53  74  94 121 163 207 241 283
#     4  10  19  30  48  73  99 129 166 205 240 284
#     4  11  21  33  49  72  97 126 167 207 238 282
#     4  10  20  33  47  64  94 136 169 194 234 287
#     4  10  20  33  47  68 100 133 162 196 244 292
#     4  11  21  35  53  71  96 127 157 198 252 296
#     4   8  15  30  48  66  93 129 163 199 247 291
#     4   9  19  33  48  68  99 134 164 201 247 288
#
# _framework density 15.683793
#
# number of rings (size 3 to 8) (size 9 to 14) (size 15 to 20)
#    0.000    2.000    1.250    5.250    0.000    5.500 
#    0.000    0.000    0.000    0.000    0.000    0.875 
#    0.000    7.000    0.000    0.000    0.000    0.000 
#
# Total GULP energy -178558.113076 kJ/mol
# GULP energy per Si atom -5579.941034 kJ/mol
# Density = 1.564810 g / cm^3
# Si number density = 15.683793 Si / 1000 Ang^3
#
#
#
# Elastic Constant Matrix: (Units=GPa)
#
#
# Indices 1 2 3 4 5 6 
#
# 1 115.2476 46.6733 69.9428 0.0000 5.6453 0.0000
# 2 46.6733 62.8409 45.2295 0.0000 3.9216 0.0000
# 3 69.9428 45.2295 128.4847 0.0000 9.3044 0.0000
# 4 0.0000 0.0000 0.0000 21.9743 0.0000 -4.4653
# 5 5.6453 3.9216 9.3044 0.0000 8.5122 0.0000
# 6 0.0000 0.0000 0.0000 -4.4653 0.0000 34.8615
#
#
#
# Elastic Compliance Matrix: (Units=1/GPa)
#
#
# Indices 1 2 3 4 5 6 
#
# 1 0.014970 -0.007029 -0.005637 0.000000 -0.000529 0.000000
# 2 -0.007029 0.024638 -0.004737 0.000000 -0.001511 0.000000
# 3 -0.005637 -0.004737 0.013130 0.000000 -0.008431 0.000000
# 4 0.000000 0.000000 0.000000 0.046724 0.000000 0.005985
# 5 -0.000529 -0.001511 -0.008431 0.000000 0.127740 0.000000
# 6 0.000000 0.000000 0.000000 0.005985 0.000000 0.029452
#
#
# Mechanical properties :
#
#
# Convention : Reuss Voigt Hill
#
# Bulk Modulus (GPa) = 55.76672 70.02938 62.89805
# Shear Modulus (GPa) = 16.81033 22.71812 19.76423
#
# Velocity S-wave (km/s) = 3.27743 3.81006 3.55374
# Velocity P-wave (km/s) = 7.06797 8.00644 7.55180
#
# Compressibility (1/GPa) = 0.01793184
#
# Stress axis : x y z
#
# Youngs Moduli (GPa) = 66.79898 40.58843 76.16326
#
# Poissons Ratio (x) = 0.28528 0.42932
# Poissons Ratio (y) = 0.46951 0.36081
# Poissons Ratio (z) = 0.37653 0.19228
#
# Static dielectric constant tensor:
#      x y z
#    x 1.507500 0.000000 0.007860 
#    y 0.000000 1.528320 0.000000 
#    z 0.007860 0.000000 1.528960 
# 
# From -- ./inp_files/66115.got.cif
#   From: 2010.05.17/outbox.cif.g08.bks.cpg/sg10_34_cif.got.tgz:66115.got - 2010.06.03 11:33:40.
