data_PCOD9144200
_publ_section_title
;
Structure prediction by ZEFSAII (Michael W. Deem and Ramdas Pophale) SiO2 
 PCOD9144200
Probable space group: P 2/M
;
_chemical_formula_sum "Si O2"
_cell_formula_units_Z 32
_cell_length_a 24.588645
_cell_length_b 7.480444
_cell_length_c 16.990106
_cell_angle_alpha 90.000000
_cell_angle_beta 150.766304
_cell_angle_gamma 90.000000
_cell_volume 1526.193708
_symmetry_space_group_name_H-M "P 2/M"
_symmetry_group_IT_number 10
_symmetry_cell_setting 'monoclinic'
loop_
_space_group_symop_operation_xyz
x,y,z
-x,y,-z
-x,-y,-z
x,-y,z
loop_
_atom_site_type_symbol
_atom_site_label
_atom_site_fract_x
_atom_site_fract_y
_atom_site_fract_z
Si Si1 0.813758 0.703028 0.273052
Si Si2 0.303786 0.709004 0.030655
Si Si3 0.425105 0.784055 0.979454
Si Si4 0.536225 0.703255 0.283174
Si Si5 0.097680 0.715123 0.458780
Si Si6 0.988183 0.216648 0.895890
Si Si7 0.877580 0.211447 0.080200
Si Si8 0.767599 0.710766 0.519355
O O1 0.851948 0.500000 0.303805
O O2 0.772674 0.784575 0.137874
O O3 0.698080 0.704923 0.176180
O O4 0.895217 0.783136 0.442271
O O5 0.318758 0.500000 0.028417
O O6 0.234149 0.718023 0.021926
O O7 0.429380 0.784118 0.193985
O O8 0.416559 0.000000 0.975113
O O9 0.500000 0.740168 0.000000
O O10 0.486466 0.707133 0.132613
O O11 0.553549 0.500000 0.334623
O O12 0.657767 0.787387 0.422927
O O13 0.109464 0.500000 0.478455
O O14 0.190751 0.782555 0.513259
O O15 0.979932 0.751501 0.268885
O O16 0.872201 0.269911 0.709281
O O17 0.083715 0.279817 0.956114
O O18 0.991200 0.000000 0.900406
O O19 0.000000 0.279600 0.000000
O O20 0.864734 0.000000 0.058080
O O21 0.745023 0.500000 0.478276
#
# Coordination Sequence:
#
# PCOD9144200 Si02
#       8
#     4   4   4   4   4   4   4   4
#     4   9  18  31  46  63  87 127 172 206 238 279
#     4   9  18  32  48  67  94 130 169 202 232 272
#     4  10  19  27  38  61  92 125 163 208 250 281
#     4   9  18  32  49  68  93 128 165 198 234 281
#     4   9  17  30  48  69  94 125 162 204 246 284
#     4   9  19  36  56  77 100 124 150 185 235 294
#     4  10  20  33  50  71  95 124 157 195 240 288
#     4   9  17  30  51  78 101 121 154 200 243 282
#
# _framework density 20.967195
#
# number of rings (size 3 to 8) (size 9 to 14) (size 15 to 20)
#    0.000    2.750    0.000    2.250    0.000    6.250 
#    0.000    5.000    0.000    0.750    0.000    5.250 
#    0.000    0.000    0.000    0.000    0.000    0.000 
#
# Total GULP energy -178337.676119 kJ/mol
# GULP energy per Si atom -5573.052379 kJ/mol
# Density = 2.091947 g / cm^3
# Si number density = 20.967195 Si / 1000 Ang^3
#
#
#
# Elastic Constant Matrix: (Units=GPa)
#
#
# Indices 1 2 3 4 5 6 
#
# 1 130.8170 4.2814 46.3565 0.0000 28.9331 0.0000
# 2 4.2814 66.8371 -5.3214 0.0000 2.0485 0.0000
# 3 46.3565 -5.3214 43.4022 0.0000 15.8198 0.0000
# 4 0.0000 0.0000 0.0000 150.7131 0.0000 67.5741
# 5 28.9331 2.0485 15.8198 0.0000 33.3011 0.0000
# 6 0.0000 0.0000 0.0000 67.5741 0.0000 49.4263
#
#
#
# Elastic Compliance Matrix: (Units=1/GPa)
#
#
# Indices 1 2 3 4 5 6 
#
# 1 0.013331 -0.001671 -0.012407 0.000000 -0.005585 0.000000
# 2 -0.001671 0.015452 0.004228 0.000000 -0.001508 0.000000
# 3 -0.012407 0.004228 0.039882 0.000000 -0.008426 0.000000
# 4 0.000000 0.000000 0.000000 0.017144 0.000000 -0.023439
# 5 -0.005585 -0.001508 -0.008426 0.000000 0.038978 0.000000
# 6 0.000000 0.000000 0.000000 -0.023439 0.000000 0.052278
#
#
# Mechanical properties :
#
#
# Convention : Reuss Voigt Hill
#
# Bulk Modulus (GPa) = 20.42263 36.85438 28.63850
# Shear Modulus (GPa) = 23.46476 59.73741 41.60109
#
# Velocity S-wave (km/s) = 3.34895 5.34348 4.45916
# Velocity P-wave (km/s) = 4.97146 7.46228 6.34039
#
# Compressibility (1/GPa) = 0.04896529
#
# Stress axis : x y z
#
# Youngs Moduli (GPa) = 75.01317 64.71816 25.07400
#
# Poissons Ratio (x) = 0.10812 0.31110
# Poissons Ratio (y) = 0.12532 -0.10602
# Poissons Ratio (z) = 0.93072 -0.27365
#
# Static dielectric constant tensor:
#      x y z
#    x 1.792620 0.000000 0.043050 
#    y 0.000000 1.804480 0.000000 
#    z 0.043050 0.000000 1.761090 
# 
# From -- ./inp_files/79955.got.cif
#   From: 2010.05.17/outbox.cif.g08.bks.cpg/sg10_40_cif.got.tgz:79955.got - 2010.06.03 11:33:40.
