data_PCOD9144131
_publ_section_title
;
Structure prediction by ZEFSAII (Michael W. Deem and Ramdas Pophale) SiO2 
 PCOD9144131
Probable space group: P 2/M
;
_chemical_formula_sum "Si O2"
_cell_formula_units_Z 28
_cell_length_a 21.481218
_cell_length_b 13.122500
_cell_length_c 8.854896
_cell_angle_alpha 90.000000
_cell_angle_beta 151.896202
_cell_angle_gamma 90.000000
_cell_volume 1175.830504
_symmetry_space_group_name_H-M "P 2/M"
_symmetry_group_IT_number 10
_symmetry_cell_setting 'monoclinic'
loop_
_space_group_symop_operation_xyz
x,y,z
-x,y,-z
-x,-y,-z
x,-y,z
loop_
_atom_site_type_symbol
_atom_site_label
_atom_site_fract_x
_atom_site_fract_y
_atom_site_fract_z
Si Si1 0.979089 0.827993 0.621207
Si Si2 0.069782 0.607995 0.486462
Si Si3 0.836940 0.385616 0.743238
Si Si4 0.212199 0.823641 0.544474
Si Si5 0.749230 0.886480 0.704467
Si Si6 0.512924 0.805054 0.701370
Si Si7 0.443698 0.616413 0.719084
O O1 0.886935 0.725971 0.409649
O O2 0.907306 0.872812 0.614569
O O3 0.000000 0.874606 0.500000
O O4 0.131839 0.811984 0.992289
O O5 0.146637 0.500000 0.636976
O O6 0.000000 0.600006 0.500000
O O7 0.966863 0.612057 0.125887
O O8 0.826528 0.500000 0.651028
O O9 0.823215 0.291572 0.596098
O O10 0.712544 0.379495 0.590120
O O11 0.247309 0.882516 0.467572
O O12 0.343875 0.827884 0.926057
O O13 0.607103 0.855887 0.463283
O O14 0.783173 0.000000 0.830727
O O15 0.500000 0.832903 0.500000
O O16 0.490873 0.685082 0.684182
O O17 0.487184 0.500000 0.797468
O O18 0.500000 0.657158 0.000000
#
# Coordination Sequence:
#
# PCOD9144131 Si02
#       7
#     4   4   4   4   4   4   4
#     4  11  24  44  69 102 141 178 219 275 341 404
#     4   9  18  34  59  94 138 182 220 261 317 388
#     4  10  19  34  63  98 136 182 229 273 321 389
#     4  12  24  42  70 101 133 175 227 280 338 403
#     4  12  27  49  73  97 129 174 229 286 349 415
#     4  12  25  44  69 102 140 177 222 281 345 406
#     4  10  18  35  64  96 136 181 225 270 322 392
#
# _framework density 23.812954999999999
#
# number of rings (size 3 to 8) (size 9 to 14) (size 15 to 20)
#    0.000    1.143    4.286    1.714    0.000    4.857 
#    0.000    2.857    0.000    1.714    0.000    0.000 
#    0.000    0.000    0.000    0.000    0.000    0.000 
#
# Total GULP energy -156216.504870 kJ/mol
# GULP energy per Si atom -5579.160888 kJ/mol
# Density = 2.375876 g / cm^3
# Si number density = 23.812955 Si / 1000 Ang^3
#
#
#
# Elastic Constant Matrix: (Units=GPa)
#
#
# Indices 1 2 3 4 5 6 
#
# 1 136.2876 6.8731 52.8722 0.0000 -8.5478 0.0000
# 2 6.8731 95.0482 2.1874 0.0000 -1.6174 0.0000
# 3 52.8722 2.1874 103.4938 0.0000 -0.6106 0.0000
# 4 0.0000 0.0000 0.0000 2.3517 0.0000 10.3578
# 5 -8.5478 -1.6174 -0.6106 0.0000 40.2525 0.0000
# 6 0.0000 0.0000 0.0000 10.3578 0.0000 -43.9099
#
#
#
# Elastic Compliance Matrix: (Units=1/GPa)
#
#
# Indices 1 2 3 4 5 6 
#
# 1 0.009321 -0.000533 -0.004740 0.000000 0.001886 0.000000
# 2 -0.000533 0.010564 0.000051 0.000000 0.000312 0.000000
# 3 -0.004740 0.000051 0.012078 0.000000 -0.000821 0.000000
# 4 0.000000 0.000000 0.000000 0.208551 0.000000 0.049194
# 5 0.001886 0.000312 -0.000821 0.000000 0.025244 0.000000
# 6 0.000000 0.000000 0.000000 0.049194 0.000000 -0.011170
#
#
# Mechanical properties :
#
#
# Convention : Reuss Voigt Hill
#
# Bulk Modulus (GPa) = 46.46963 50.96612 48.71787
# Shear Modulus (GPa) = 18.36856 17.93200 18.15028
#
# Velocity S-wave (km/s) = 2.78036 2.74713 2.76380
# Velocity P-wave (km/s) = 5.46480 5.61350 5.53965
#
# Compressibility (1/GPa) = 0.02151943
#
# Stress axis : x y z
#
# Youngs Moduli (GPa) = 107.28107 94.66426 82.79622
#
# Poissons Ratio (x) = 0.05044 0.39242
# Poissons Ratio (y) = 0.05717 -0.00421
# Poissons Ratio (z) = 0.50847 -0.00481
#
# Static dielectric constant tensor:
#      x y z
#    x 1.922520 0.000000 -0.012910 
#    y 0.000000 2.055960 0.000000 
#    z -0.012910 0.000000 1.909370 
# 
# From -- ./inp_files/35304.got.cif
#   From: 2010.05.17/outbox.cif.g08.bks.cpg/sg10_18_cif.got.tgz:35304.got - 2010.06.03 11:33:40.
