data_PCOD9144628
_publ_section_title
;
Structure prediction by ZEFSAII (Michael W. Deem and Ramdas Pophale) SiO2 
 PCOD9144628
Probable space group: P 2/M
;
_chemical_formula_sum "Si O2"
_cell_formula_units_Z 32
_cell_length_a 11.948281
_cell_length_b 8.289772
_cell_length_c 31.306217
_cell_angle_alpha 90.000000
_cell_angle_beta 30.262019
_cell_angle_gamma 90.000000
_cell_volume 1562.681653
_symmetry_space_group_name_H-M "P 2/M"
_symmetry_group_IT_number 10
_symmetry_cell_setting 'monoclinic'
loop_
_space_group_symop_operation_xyz
x,y,z
-x,y,-z
-x,-y,-z
x,-y,z
loop_
_atom_site_type_symbol
_atom_site_label
_atom_site_fract_x
_atom_site_fract_y
_atom_site_fract_z
Si Si1 0.959710 0.306475 0.062818
Si Si2 0.644599 0.811445 0.010806
Si Si3 0.841061 0.306480 0.375271
Si Si4 0.387329 0.310539 0.757049
Si Si5 0.577355 0.694422 0.543159
Si Si6 0.015686 0.195454 0.168036
Si Si7 0.750877 0.190514 0.576618
Si Si8 0.809428 0.806241 0.800291
O O1 0.986501 0.500000 0.061808
O O2 0.147320 0.211220 0.026497
O O3 0.721245 0.261107 0.161775
O O4 0.000000 0.277233 0.000000
O O5 0.751647 0.752429 0.931001
O O6 0.593686 0.000000 0.020448
O O7 0.430237 0.741986 0.105413
O O8 0.830676 0.500000 0.378792
O O9 0.650898 0.248956 0.404400
O O10 0.769133 0.252959 0.446341
O O11 0.079986 0.256433 0.279118
O O12 0.433819 0.500000 0.743146
O O13 0.187563 0.275828 0.789401
O O14 0.602164 0.225644 0.667210
O O15 0.570144 0.500000 0.545796
O O16 0.628456 0.747177 0.574287
O O17 0.030097 0.235376 0.212854
O O18 0.997441 0.000000 0.169560
O O19 0.000000 0.258628 0.500000
O O20 0.768140 0.000000 0.565506
O O21 0.797388 0.000000 0.801145
#
# Coordination Sequence:
#
# PCOD9144628 Si02
#       8
#     4   4   4   4   4   4   4   4
#     4   9  19  37  57  77 103 136 177 222 264 310
#     4   9  18  32  49  73 105 139 176 215 257 308
#     4   9  19  35  55  80 108 140 177 221 270 321
#     4  10  20  35  57  82 105 136 179 222 265 318
#     4   9  19  38  60  79 104 139 181 224 268 324
#     4   9  17  31  52  75 105 143 178 215 258 307
#     4  11  24  40  57  81 112 143 178 228 280 323
#     4  10  19  30  47  76 110 142 175 210 257 315
#
# _framework density 20.477620000000002
#
# number of rings (size 3 to 8) (size 9 to 14) (size 15 to 20)
#    0.000    2.500    0.000    2.625    0.000    7.250 
#    2.250    1.250    0.000    3.750    0.000    0.000 
#    0.000    0.000    0.000    0.000    0.000    0.000 
#
# Total GULP energy -178434.420199 kJ/mol
# GULP energy per Si atom -5576.075631 kJ/mol
# Density = 2.043101 g / cm^3
# Si number density = 20.477620 Si / 1000 Ang^3
#
#
#
# Elastic Constant Matrix: (Units=GPa)
#
#
# Indices 1 2 3 4 5 6 
#
# 1 27.0841 6.4101 17.2487 0.0000 14.1986 0.0000
# 2 6.4101 7.0185 5.9988 0.0000 5.5239 0.0000
# 3 17.2487 5.9988 149.1199 0.0000 16.2410 0.0000
# 4 0.0000 0.0000 0.0000 28.5192 0.0000 3.9808
# 5 14.1986 5.5239 16.2410 0.0000 27.8490 0.0000
# 6 0.0000 0.0000 0.0000 3.9808 0.0000 13.9389
#
#
#
# Elastic Compliance Matrix: (Units=1/GPa)
#
#
# Indices 1 2 3 4 5 6 
#
# 1 0.057867 -0.033683 -0.003046 0.000000 -0.021045 0.000000
# 2 -0.033683 0.190034 -0.001616 0.000000 -0.019578 0.000000
# 3 -0.003046 -0.001616 0.007389 0.000000 -0.002435 0.000000
# 4 0.000000 0.000000 0.000000 0.036520 0.000000 -0.010430
# 5 -0.021045 -0.019578 -0.002435 0.000000 0.051941 0.000000
# 6 0.000000 0.000000 0.000000 -0.010430 0.000000 0.074720
#
#
# Mechanical properties :
#
#
# Convention : Reuss Voigt Hill
#
# Bulk Modulus (GPa) = 5.59917 26.94862 16.27390
# Shear Modulus (GPa) = 9.01395 24.29907 16.65651
#
# Velocity S-wave (km/s) = 2.10034 3.44847 2.85511
# Velocity P-wave (km/s) = 2.93634 5.38929 4.33974
#
# Compressibility (1/GPa) = 0.17859789
#
# Stress axis : x y z
#
# Youngs Moduli (GPa) = 17.28103 5.26221 135.34324
#
# Poissons Ratio (x) = 0.17725 0.41230
# Poissons Ratio (y) = 0.58208 0.21875
# Poissons Ratio (z) = 0.05264 0.00851
#
# Static dielectric constant tensor:
#      x y z
#    x 1.718500 0.000000 0.002090 
#    y 0.000000 1.714390 0.000000 
#    z 0.002090 0.000000 1.795200 
# 
# From -- ./inp_files/94930.got.cif
#   From: 2010.05.17/outbox.cif.g08.bks.cpg/sg10_48_cif.got.tgz:94930.got - 2010.06.03 11:33:40.
