data_PCOD9144498
_publ_section_title
;
Structure prediction by ZEFSAII (Michael W. Deem and Ramdas Pophale) SiO2 
 PCOD9144498
Probable space group: P 2/M
;
_chemical_formula_sum "Si O2"
_cell_formula_units_Z 32
_cell_length_a 25.499049
_cell_length_b 8.242933
_cell_length_c 15.068173
_cell_angle_alpha 90.000000
_cell_angle_beta 154.911084
_cell_angle_gamma 90.000000
_cell_volume 1342.941287
_symmetry_space_group_name_H-M "P 2/M"
_symmetry_group_IT_number 10
_symmetry_cell_setting 'monoclinic'
loop_
_space_group_symop_operation_xyz
x,y,z
-x,y,-z
-x,-y,-z
x,-y,z
loop_
_atom_site_type_symbol
_atom_site_label
_atom_site_fract_x
_atom_site_fract_y
_atom_site_fract_z
Si Si1 0.261684 0.188982 0.812834
Si Si2 0.854655 0.188000 0.181421
Si Si3 0.505335 0.181035 0.291906
Si Si4 0.159308 0.809529 0.340047
Si Si5 0.046215 0.692562 0.842209
Si Si6 0.610051 0.682237 0.728965
Si Si7 0.231537 0.688191 0.277399
Si Si8 0.642647 0.801124 0.220308
O O1 0.181236 0.253255 0.774226
O O2 0.271507 0.261276 0.729669
O O3 0.223171 0.000000 0.746811
O O4 0.408885 0.187154 0.063477
O O5 0.948986 0.265442 0.255274
O O6 0.886065 0.000000 0.239668
O O7 0.727791 0.210535 0.931492
O O8 0.456728 0.322972 0.279293
O O9 0.650757 0.206125 0.513488
O O10 0.483238 0.000000 0.296061
O O11 0.139558 0.714049 0.218850
O O12 0.289158 0.758711 0.584195
O O13 0.059564 0.779283 0.263809
O O14 0.160734 0.000000 0.321715
O O15 0.031739 0.500000 0.828495
O O16 0.170150 0.735392 0.089636
O O17 0.500000 0.748473 0.500000
O O18 0.645388 0.500000 0.753533
O O19 0.265796 0.500000 0.324394
O O20 0.642547 0.000000 0.214632
O O21 0.500000 0.747795 0.000000
#
# Coordination Sequence:
#
# PCOD9144498 Si02
#       8
#     4   4   4   4   4   4   4   4
#     4   8  16  32  54  84 119 149 182 230 286 336
#     4  10  20  34  55  81 109 146 194 242 280 323
#     4  10  19  31  52  81 110 143 186 233 274 319
#     4  11  23  38  61  89 111 140 186 236 281 331
#     4  11  24  41  58  77 110 155 193 230 284 343
#     4  10  19  30  45  70 108 150 186 223 276 337
#     4  11  23  38  56  79 112 154 190 227 286 348
#     4   9  17  33  60  91 119 145 176 221 281 343
#
# _framework density 23.828295000000001
#
# number of rings (size 3 to 8) (size 9 to 14) (size 15 to 20)
#    0.000    2.000    0.000    4.875    0.000    9.500 
#    0.000    0.625    0.000   18.000    0.000    0.000 
#    0.000    0.000    0.000    0.000    0.000    0.000 
#
# Total GULP energy -178423.249702 kJ/mol
# GULP energy per Si atom -5575.726553 kJ/mol
# Density = 2.377406 g / cm^3
# Si number density = 23.828295 Si / 1000 Ang^3
#
#
#
# Elastic Constant Matrix: (Units=GPa)
#
#
# Indices 1 2 3 4 5 6 
#
# 1 146.3768 16.0533 17.9200 0.0000 -11.3067 0.0000
# 2 16.0533 38.7278 11.6344 0.0000 -4.1018 0.0000
# 3 17.9200 11.6344 28.6996 0.0000 -1.6019 0.0000
# 4 0.0000 0.0000 0.0000 24.4307 0.0000 7.6688
# 5 -11.3067 -4.1018 -1.6019 0.0000 36.5105 0.0000
# 6 0.0000 0.0000 0.0000 7.6688 0.0000 19.9500
#
#
#
# Elastic Compliance Matrix: (Units=1/GPa)
#
#
# Indices 1 2 3 4 5 6 
#
# 1 0.007665 -0.001778 -0.003954 0.000000 0.002001 0.000000
# 2 -0.001778 0.030100 -0.010961 0.000000 0.002350 0.000000
# 3 -0.003954 -0.010961 0.041721 0.000000 -0.000625 0.000000
# 4 0.000000 0.000000 0.000000 0.046549 0.000000 -0.017894
# 5 0.002001 0.002350 -0.000625 0.000000 0.028246 0.000000
# 6 0.000000 0.000000 0.000000 -0.017894 0.000000 0.057004
#
#
# Mechanical properties :
#
#
# Convention : Reuss Voigt Hill
#
# Bulk Modulus (GPa) = 21.69141 33.89106 27.79124
# Shear Modulus (GPa) = 19.22813 27.39134 23.30973
#
# Velocity S-wave (km/s) = 2.84376 3.39415 3.13107
# Velocity P-wave (km/s) = 4.46157 5.44190 4.97593
#
# Compressibility (1/GPa) = 0.04610119
#
# Stress axis : x y z
#
# Youngs Moduli (GPa) = 130.45940 33.22282 23.96884
#
# Poissons Ratio (x) = 0.05906 0.09477
# Poissons Ratio (y) = 0.23192 0.26272
# Poissons Ratio (z) = 0.51581 0.36415
#
# Static dielectric constant tensor:
#      x y z
#    x 2.026900 0.000000 -0.136470 
#    y 0.000000 1.810180 0.000000 
#    z -0.136470 0.000000 2.515410 
# 
# From -- ./inp_files/71580.got.cif
#   From: 2010.05.17/outbox.cif.g08.bks.cpg/sg10_36_cif.got.tgz:71580.got - 2010.06.03 11:33:40.
