data_PCOD9144551
_publ_section_title
;
Structure prediction by ZEFSAII (Michael W. Deem and Ramdas Pophale) SiO2 
 PCOD9144551
Probable space group: P 2/M
;
_chemical_formula_sum "Si O2"
_cell_formula_units_Z 32
_cell_length_a 16.546349
_cell_length_b 7.403814
_cell_length_c 21.799730
_cell_angle_alpha 90.000000
_cell_angle_beta 34.999799
_cell_angle_gamma 90.000000
_cell_volume 1531.785381
_symmetry_space_group_name_H-M "P 2/M"
_symmetry_group_IT_number 10
_symmetry_cell_setting 'monoclinic'
loop_
_space_group_symop_operation_xyz
x,y,z
-x,y,-z
-x,-y,-z
x,-y,z
loop_
_atom_site_type_symbol
_atom_site_label
_atom_site_fract_x
_atom_site_fract_y
_atom_site_fract_z
Si Si1 0.553234 0.721706 0.235009
Si Si2 0.844069 0.283613 0.593897
Si Si3 0.726593 0.719685 0.537203
Si Si4 0.991287 0.708092 0.702714
Si Si5 0.287508 0.714705 0.191098
Si Si6 0.547045 0.284396 0.097290
Si Si7 0.873465 0.213159 0.901524
Si Si8 0.868639 0.291654 0.045338
O O1 0.553675 0.500000 0.232100
O O2 0.437563 0.775514 0.357741
O O3 0.520845 0.778938 0.184164
O O4 0.711406 0.784725 0.151249
O O5 0.853116 0.500000 0.580728
O O6 0.771927 0.222485 0.577176
O O7 0.768043 0.258310 0.704984
O O8 0.000000 0.209023 0.500000
O O9 0.722950 0.500000 0.533717
O O10 0.857034 0.782015 0.413573
O O11 0.990380 0.500000 0.680721
O O12 0.843608 0.787289 0.767752
O O13 0.974250 0.713509 0.786080
O O14 0.299290 0.500000 0.167597
O O15 0.446901 0.783636 0.104333
O O16 0.523235 0.500000 0.113976
O O17 0.711624 0.252859 0.983557
O O18 0.896100 0.288193 0.955405
O O19 0.891491 0.000000 0.893511
O O20 0.858035 0.500000 0.072364
O O21 0.000000 0.209662 0.000000
#
# Coordination Sequence:
#
# PCOD9144551 Si02
#       8
#     4   4   4   4   4   4   4   4
#     4   8  13  23  44  76 106 124 145 189 249 298
#     4   9  12  17  32  63 100 125 154 203 255 288
#     4   9  14  21  40  71 103 129 156 199 249 291
#     4  10  19  30  46  70  99 134 174 208 241 285
#     4   9  15  23  41  69  97 127 166 213 257 288
#     4   9  16  29  49  70  95 127 166 214 257 288
#     4  11  23  37  50  67  97 134 168 200 238 289
#     4   9  18  35  61  87 104 118 143 189 247 301
#
# _framework density 20.890654999999999
#
# number of rings (size 3 to 8) (size 9 to 14) (size 15 to 20)
#    0.000    2.750    2.500    1.875    0.000    0.750 
#    0.000    3.125    0.000    3.750    0.000    6.125 
#    0.000    0.000    0.000    0.000    0.000    0.000 
#
# Total GULP energy -178207.488077 kJ/mol
# GULP energy per Si atom -5568.984002 kJ/mol
# Density = 2.084311 g / cm^3
# Si number density = 20.890655 Si / 1000 Ang^3
#
#
#
# Elastic Constant Matrix: (Units=GPa)
#
#
# Indices 1 2 3 4 5 6 
#
# 1 89.1650 0.8936 77.8997 0.0000 -26.8167 0.0000
# 2 0.8936 62.4286 -6.0835 0.0000 -3.1462 0.0000
# 3 77.8997 -6.0835 141.9795 0.0000 -9.8538 0.0000
# 4 0.0000 0.0000 0.0000 109.6074 0.0000 66.7343
# 5 -26.8167 -3.1462 -9.8538 0.0000 22.3301 0.0000
# 6 0.0000 0.0000 0.0000 66.7343 0.0000 37.1539
#
#
#
# Elastic Compliance Matrix: (Units=1/GPa)
#
#
# Indices 1 2 3 4 5 6 
#
# 1 0.039621 -0.000452 -0.019044 0.000000 0.039115 0.000000
# 2 -0.000452 0.016244 0.001099 0.000000 0.002231 0.000000
# 3 -0.019044 0.001099 0.016467 0.000000 -0.015449 0.000000
# 4 0.000000 0.000000 0.000000 -0.097485 0.000000 0.175098
# 5 0.039115 0.002231 -0.015449 0.000000 0.085253 0.000000
# 6 0.000000 0.000000 0.000000 0.175098 0.000000 -0.287589
#
#
# Mechanical properties :
#
#
# Convention : Reuss Voigt Hill
#
# Bulk Modulus (GPa) = 28.13801 48.77698 38.45750
# Shear Modulus (GPa) = -27.95668 48.54249 10.29291
#
# Velocity S-wave (km/s) = -3.66216 4.82565 2.22210
# Velocity P-wave (km/s) = 2.09368 7.37893 5.00325
#
# Compressibility (1/GPa) = 0.03553911
#
# Stress axis : x y z
#
# Youngs Moduli (GPa) = 25.23900 61.56014 60.72827
#
# Poissons Ratio (x) = 0.02781 1.15648
# Poissons Ratio (y) = 0.01140 -0.06672
# Poissons Ratio (z) = 0.48064 -0.06764
#
# Static dielectric constant tensor:
#      x y z
#    x 1.741270 0.000000 -0.053200 
#    y 0.000000 1.824360 0.000000 
#    z -0.053200 0.000000 1.813820 
# 
# From -- ./inp_files/89938.got.cif
#   From: 2010.05.17/outbox.cif.g08.bks.cpg/sg10_45_cif.got.tgz:89938.got - 2010.06.03 11:33:40.
