data_PCOD9144882
_publ_section_title
;
Structure prediction by ZEFSAII (Michael W. Deem and Ramdas Pophale) SiO2 
 PCOD9144882
Probable space group: P 2/M
;
_chemical_formula_sum "Si O2"
_cell_formula_units_Z 32
_cell_length_a 14.679250
_cell_length_b 8.175551
_cell_length_c 11.539427
_cell_angle_alpha 90.000000
_cell_angle_beta 75.589489
_cell_angle_gamma 90.000000
_cell_volume 1341.286624
_symmetry_space_group_name_H-M "P 2/M"
_symmetry_group_IT_number 10
_symmetry_cell_setting 'monoclinic'
loop_
_space_group_symop_operation_xyz
x,y,z
-x,y,-z
-x,-y,-z
x,-y,z
loop_
_atom_site_type_symbol
_atom_site_label
_atom_site_fract_x
_atom_site_fract_y
_atom_site_fract_z
Si Si1 0.738434 0.680918 0.377530
Si Si2 0.170032 0.190971 0.855718
Si Si3 0.253837 0.179284 0.384164
Si Si4 0.879004 0.798904 0.883629
Si Si5 0.327001 0.691236 0.136256
Si Si6 0.547824 0.814142 0.370692
Si Si7 0.039705 0.185400 0.369590
Si Si8 0.374604 0.304594 0.879173
O O1 0.703988 0.500000 0.357691
O O2 0.827241 0.719481 0.268514
O O3 0.752622 0.695684 0.508928
O O4 0.656974 0.807102 0.371940
O O5 0.276971 0.220280 0.869633
O O6 0.152512 0.000000 0.841221
O O7 0.107942 0.243961 0.985473
O O8 0.326611 0.220439 0.259670
O O9 0.150666 0.173346 0.361215
O O10 0.274274 0.000000 0.425795
O O11 0.780037 0.718361 0.876695
O O12 0.956972 0.750121 0.763401
O O13 0.870481 0.000000 0.881056
O O14 0.344303 0.500000 0.151234
O O15 0.389794 0.747974 0.007582
O O16 0.500000 0.735971 0.500000
O O17 0.548371 0.733812 0.243364
O O18 0.513885 0.000000 0.370970
O O19 0.000000 0.266209 0.500000
O O20 0.998193 0.000000 0.378336
O O21 0.360011 0.500000 0.887238
#
# Coordination Sequence:
#
# PCOD9144882 Si02
#       8
#     4   4   4   4   4   4   4   4
#     4  11  21  32  48  69  94 123 155 191 232 276
#     4   9  15  25  42  64  90 117 151 192 231 271
#     4  10  19  31  48  69  94 124 156 191 233 277
#     4   8  14  24  41  65  90 118 151 190 232 270
#     4   9  16  26  42  66  93 119 151 190 229 269
#     4  10  20  33  50  72  97 124 154 188 227 272
#     4   8  14  26  46  71  95 119 151 192 234 274
#     4   9  16  26  43  67  93 120 151 188 228 268
#
# _framework density 23.857690000000002
#
# number of rings (size 3 to 8) (size 9 to 14) (size 15 to 20)
#    0.000    2.750    0.000    5.250    0.000    3.000 
#    0.000    0.000    0.000   10.875    0.000   10.500 
#    0.000    0.000    0.000    0.000    0.000    0.000 
#
# Total GULP energy -178321.766696 kJ/mol
# GULP energy per Si atom -5572.555209 kJ/mol
# Density = 2.380339 g / cm^3
# Si number density = 23.857690 Si / 1000 Ang^3
#
#
#
# Elastic Constant Matrix: (Units=GPa)
#
#
# Indices 1 2 3 4 5 6 
#
# 1 51.1842 -5.6169 6.9137 0.0000 -14.0847 0.0000
# 2 -5.6169 43.1189 22.1121 0.0000 2.3351 0.0000
# 3 6.9137 22.1121 272.3463 0.0000 -12.9829 0.0000
# 4 0.0000 0.0000 0.0000 17.8520 0.0000 11.9499
# 5 -14.0847 2.3351 -12.9829 0.0000 17.6491 0.0000
# 6 0.0000 0.0000 0.0000 11.9499 0.0000 4.7223
#
#
#
# Elastic Compliance Matrix: (Units=1/GPa)
#
#
# Indices 1 2 3 4 5 6 
#
# 1 0.025248 0.002137 0.000137 0.000000 0.019967 0.000000
# 2 0.002137 0.024782 -0.002219 0.000000 -0.003206 0.000000
# 3 0.000137 -0.002219 0.004008 0.000000 0.003352 0.000000
# 4 0.000000 0.000000 0.000000 -0.080726 0.000000 0.204280
# 5 0.019967 -0.003206 0.003352 0.000000 0.075484 0.000000
# 6 0.000000 0.000000 0.000000 0.204280 0.000000 -0.305176
#
#
# Mechanical properties :
#
#
# Convention : Reuss Voigt Hill
#
# Bulk Modulus (GPa) = 18.46776 45.94081 32.20429
# Shear Modulus (GPa) = -20.96953 30.92738 4.97893
#
# Velocity S-wave (km/s) = -2.96791 3.60436 1.44619
# Velocity P-wave (km/s) = 1.99676 6.05144 4.03936
#
# Compressibility (1/GPa) = 0.05414843
#
# Stress axis : x y z
#
# Youngs Moduli (GPa) = 39.60755 40.35243 249.48480
#
# Poissons Ratio (x) = -0.08624 -0.03428
# Poissons Ratio (y) = -0.08465 0.55364
# Poissons Ratio (z) = -0.00544 0.08955
#
# Static dielectric constant tensor:
#      x y z
#    x 1.954390 0.000000 0.010320 
#    y 0.000000 1.849800 0.000000 
#    z 0.010320 0.000000 2.042050 
# 
# From -- ./inp_files/54779.got.cif
#   From: 2010.05.17/outbox.cif.g08.bks.cpg/sg10_28_cif.got.tgz:54779.got - 2010.06.03 11:33:40.
