data_PCOD9144636
_publ_section_title
;
Structure prediction by ZEFSAII (Michael W. Deem and Ramdas Pophale) SiO2 
 PCOD9144636
Probable space group: P 2/M
;
_chemical_formula_sum "Si O2"
_cell_formula_units_Z 32
_cell_length_a 23.145681
_cell_length_b 7.557200
_cell_length_c 11.806372
_cell_angle_alpha 90.000000
_cell_angle_beta 125.952660
_cell_angle_gamma 90.000000
_cell_volume 1671.727422
_symmetry_space_group_name_H-M "P 2/M"
_symmetry_group_IT_number 10
_symmetry_cell_setting 'monoclinic'
loop_
_space_group_symop_operation_xyz
x,y,z
-x,y,-z
-x,-y,-z
x,-y,z
loop_
_atom_site_type_symbol
_atom_site_label
_atom_site_fract_x
_atom_site_fract_y
_atom_site_fract_z
Si Si1 0.420096 0.708999 0.924356
Si Si2 0.341152 0.705495 0.053303
Si Si3 0.791966 0.208149 0.956887
Si Si4 0.521266 0.214265 0.650432
Si Si5 0.093230 0.210854 0.214545
Si Si6 0.943397 0.210546 0.095062
Si Si7 0.384946 0.786202 0.634674
Si Si8 0.246497 0.782693 0.338263
O O1 0.429192 0.500000 0.958879
O O2 0.380765 0.730368 0.759870
O O3 0.500000 0.784544 0.000000
O O4 0.376141 0.784545 0.979664
O O5 0.328090 0.500000 0.017210
O O6 0.266678 0.776524 0.013840
O O7 0.401678 0.725646 0.219027
O O8 0.760672 0.276559 0.800896
O O9 0.803237 0.000000 0.949495
O O10 0.871667 0.280959 0.072156
O O11 0.500000 0.271840 0.500000
O O12 0.459935 0.274065 0.666932
O O13 0.522512 0.000000 0.651586
O O14 0.174157 0.276056 0.319415
O O15 0.023810 0.283849 0.200089
O O16 0.095767 0.000000 0.239381
O O17 0.075804 0.229631 0.060523
O O18 0.949496 0.000000 0.126007
O O19 0.318498 0.724979 0.482558
O O20 0.385503 0.000000 0.632078
O O21 0.247510 0.000000 0.339471
#
# Coordination Sequence:
#
# PCOD9144636 Si02
#       8
#     4   4   4   4   4   4   4   4
#     4  10  21  38  52  61  81 114 151 195 238 267
#     4  11  22  34  48  65  86 116 154 190 227 267
#     4   9  16  28  46  68  98 125 147 180 222 264
#     4  10  20  33  49  69  94 120 143 172 217 271
#     4   7   9  16  33  60  94 123 147 171 204 255
#     4   7  10  17  34  62  91 122 151 173 203 253
#     4  10  19  30  48  71  90 113 149 185 222 265
#     4   8  14  25  42  68 100 125 142 175 223 267
#
# _framework density 19.141874999999999
#
# number of rings (size 3 to 8) (size 9 to 14) (size 15 to 20)
#    0.000    3.000    1.250    3.375    0.000    3.500 
#    0.000    1.875    0.000    0.000    0.000    8.750 
#    0.000    7.000    0.000    0.000    0.000    0.000 
#
# Total GULP energy -178251.251384 kJ/mol
# GULP energy per Si atom -5570.351606 kJ/mol
# Density = 1.909831 g / cm^3
# Si number density = 19.141875 Si / 1000 Ang^3
#
#
#
# Elastic Constant Matrix: (Units=GPa)
#
#
# Indices 1 2 3 4 5 6 
#
# 1 158.2087 5.0735 28.4490 0.0000 14.6357 0.0000
# 2 5.0735 37.8414 -1.6639 0.0000 3.0209 0.0000
# 3 28.4490 -1.6639 14.8998 0.0000 -4.7709 0.0000
# 4 0.0000 0.0000 0.0000 -14.1948 0.0000 -31.2878
# 5 14.6357 3.0209 -4.7709 0.0000 31.9895 0.0000
# 6 0.0000 0.0000 0.0000 -31.2878 0.0000 -17.9123
#
#
#
# Elastic Compliance Matrix: (Units=1/GPa)
#
#
# Indices 1 2 3 4 5 6 
#
# 1 0.011860 -0.001999 -0.025776 0.000000 -0.009082 0.000000
# 2 -0.001999 0.027037 0.006627 0.000000 -0.000651 0.000000
# 3 -0.025776 0.006627 0.126697 0.000000 0.030063 0.000000
# 4 0.000000 0.000000 0.000000 0.024718 0.000000 -0.043175
# 5 -0.009082 -0.000651 0.030063 0.000000 0.039960 0.000000
# 6 0.000000 0.000000 0.000000 -0.043175 0.000000 0.019588
#
#
# Mechanical properties :
#
#
# Convention : Reuss Voigt Hill
#
# Bulk Modulus (GPa) = 8.11037 30.51856 19.31447
# Shear Modulus (GPa) = 15.00350 11.91590 13.45970
#
# Velocity S-wave (km/s) = 2.80269 2.49771 2.65458
# Velocity P-wave (km/s) = 3.83661 4.92910 4.41677
#
# Compressibility (1/GPa) = 0.12329887
#
# Stress axis : x y z
#
# Youngs Moduli (GPa) = 84.31681 36.98584 7.89286
#
# Poissons Ratio (x) = 0.07392 0.20345
# Poissons Ratio (y) = 0.16851 -0.05231
# Poissons Ratio (z) = 2.17336 -0.24510
#
# Static dielectric constant tensor:
#      x y z
#    x 1.727710 0.000000 0.024700 
#    y 0.000000 1.744460 0.000000 
#    z 0.024700 0.000000 1.632380 
# 
# From -- ./inp_files/56430.got.cif
#   From: 2010.05.17/outbox.cif.g08.bks.cpg/sg10_29_cif.got.tgz:56430.got - 2010.06.03 11:33:40.
