data_PCOD9144166
_publ_section_title
;
Structure prediction by ZEFSAII (Michael W. Deem and Ramdas Pophale) SiO2 
 PCOD9144166
Probable space group: P 2/M
;
_chemical_formula_sum "Si O2"
_cell_formula_units_Z 32
_cell_length_a 17.254151
_cell_length_b 22.028553
_cell_length_c 5.608741
_cell_angle_alpha 90.000000
_cell_angle_beta 128.348609
_cell_angle_gamma 90.000000
_cell_volume 1671.858935
_symmetry_space_group_name_H-M "P 2/M"
_symmetry_group_IT_number 10
_symmetry_cell_setting 'monoclinic'
loop_
_space_group_symop_operation_xyz
x,y,z
-x,y,-z
-x,-y,-z
x,-y,z
loop_
_atom_site_type_symbol
_atom_site_label
_atom_site_fract_x
_atom_site_fract_y
_atom_site_fract_z
Si Si1 0.880865 0.569303 0.264567
Si Si2 0.948856 0.188946 0.150398
Si Si3 0.767391 0.758443 0.620604
Si Si4 0.596954 0.810178 0.555293
Si Si5 0.879608 0.636769 0.760138
Si Si6 0.636888 0.932660 0.403078
Si Si7 0.144949 0.068117 0.934208
Si Si8 0.260146 0.867568 0.787062
O O1 0.844128 0.500000 0.178782
O O2 0.856429 0.598313 0.476231
O O3 0.000000 0.567334 0.500000
O O4 0.855363 0.605188 0.970491
O O5 0.925338 0.117498 0.084309
O O6 0.000000 0.200571 0.500000
O O7 0.845143 0.224104 0.974044
O O8 0.000000 0.208597 0.000000
O O9 0.654849 0.763137 0.496954
O O10 0.811519 0.696533 0.606867
O O11 0.775622 0.816607 0.463542
O O12 0.500000 0.787074 0.500000
O O13 0.576786 0.874452 0.382043
O O14 0.676017 0.830825 0.901752
O O15 0.000000 0.647979 0.000000
O O16 0.666381 0.916562 0.190367
O O17 0.594724 0.000000 0.355128
O O18 0.745577 0.931777 0.736636
O O19 0.169271 0.095477 0.721339
O O20 0.107590 0.000000 0.862576
#
# Coordination Sequence:
#
# PCOD9144166 Si02
#       8
#     4   4   4   4   4   4   4   4
#     4   9  18  34  55  84 124 163 199 237 273 311
#     4  12  25  38  56  79 109 148 191 236 289 339
#     4  11  23  38  55  82 113 150 189 240 284 339
#     4  10  22  38  58  79 105 141 183 238 311 365
#     4  10  21  33  55  87 120 164 203 230 269 328
#     4   9  18  33  55  78 100 131 179 234 302 370
#     4  10  20  35  52  73  99 137 185 235 290 348
#     4  10  18  37  58  73 106 143 175 237 303 355
#
# _framework density 19.140371999999999
#
# number of rings (size 3 to 8) (size 9 to 14) (size 15 to 20)
#    0.000    1.875    3.750    1.875    1.750    6.250 
#    0.000    0.625    0.000    0.000    0.000    0.000 
#    0.000    3.000    0.000    0.000    0.000    0.000 
#
# Total GULP energy -178382.649674 kJ/mol
# GULP energy per Si atom -5574.457802 kJ/mol
# Density = 1.909681 g / cm^3
# Si number density = 19.140372 Si / 1000 Ang^3
#
#
#
# Elastic Constant Matrix: (Units=GPa)
#
#
# Indices 1 2 3 4 5 6 
#
# 1 94.1197 34.6902 17.4247 0.0000 -9.4678 0.0000
# 2 34.6902 100.3426 14.9389 0.0000 -8.9826 0.0000
# 3 17.4247 14.9389 50.2573 0.0000 -13.9054 0.0000
# 4 0.0000 0.0000 0.0000 6.5101 0.0000 -5.3976
# 5 -9.4678 -8.9826 -13.9054 0.0000 25.0997 0.0000
# 6 0.0000 0.0000 0.0000 -5.3976 0.0000 16.5542
#
#
#
# Elastic Compliance Matrix: (Units=1/GPa)
#
#
# Indices 1 2 3 4 5 6 
#
# 1 0.012735 -0.003822 -0.002750 0.000000 0.001912 0.000000
# 2 -0.003822 0.011696 -0.001644 0.000000 0.001833 0.000000
# 3 -0.002750 -0.001644 0.024672 0.000000 0.012043 0.000000
# 4 0.000000 0.000000 0.000000 0.210522 0.000000 0.068642
# 5 0.001912 0.001833 0.012043 0.000000 0.047890 0.000000
# 6 0.000000 0.000000 0.000000 0.068642 0.000000 0.082789
#
#
# Mechanical properties :
#
#
# Convention : Reuss Voigt Hill
#
# Bulk Modulus (GPa) = 30.60919 42.09190 36.35054
# Shear Modulus (GPa) = 11.97242 21.47719 16.72480
#
# Velocity S-wave (km/s) = 2.50373 3.35339 2.95921
# Velocity P-wave (km/s) = 4.93810 6.08544 5.54154
#
# Compressibility (1/GPa) = 0.03266993
#
# Stress axis : x y z
#
# Youngs Moduli (GPa) = 78.52373 85.49842 40.53201
#
# Poissons Ratio (x) = 0.32678 0.11147
# Poissons Ratio (y) = 0.30012 0.06665
# Poissons Ratio (z) = 0.21595 0.14059
#
# Static dielectric constant tensor:
#      x y z
#    x 1.736090 0.000000 -0.069210 
#    y 0.000000 1.673980 0.000000 
#    z -0.069210 0.000000 1.790540 
# 
# From -- ./inp_files/11768.got.cif
#   From: 2010.05.17/outbox.cif.g08.bks.cpg/sg10_6_cif.got.tgz:11768.got - 2010.06.03 11:33:40.
