data_PCOD9144121
_publ_section_title
;
Structure prediction by ZEFSAII (Michael W. Deem and Ramdas Pophale) SiO2 
 PCOD9144121
Probable space group: P 2/M
;
_chemical_formula_sum "Si O2"
_cell_formula_units_Z 24
_cell_length_a 15.284584
_cell_length_b 8.235202
_cell_length_c 15.654570
_cell_angle_alpha 90.000000
_cell_angle_beta 39.814224
_cell_angle_gamma 90.000000
_cell_volume 1261.690412
_symmetry_space_group_name_H-M "P 2/M"
_symmetry_group_IT_number 10
_symmetry_cell_setting 'monoclinic'
loop_
_space_group_symop_operation_xyz
x,y,z
-x,y,-z
-x,-y,-z
x,-y,z
loop_
_atom_site_type_symbol
_atom_site_label
_atom_site_fract_x
_atom_site_fract_y
_atom_site_fract_z
Si Si1 0.653882 0.692133 0.634512
Si Si2 0.848083 0.198455 0.834394
Si Si3 0.847712 0.196259 0.641254
Si Si4 0.342720 0.804172 0.867954
Si Si5 0.152575 0.196211 0.662416
Si Si6 0.152280 0.198372 0.856499
O O1 0.649757 0.500000 0.637659
O O2 0.738082 0.749657 0.654147
O O3 0.500056 0.756978 0.750624
O O4 0.735938 0.749674 0.489368
O O5 0.818319 0.250966 0.759997
O O6 0.001052 0.248725 0.746523
O O7 0.847555 0.000000 0.835106
O O8 0.739376 0.253064 0.986537
O O9 0.000000 0.250703 0.500000
O O10 0.849444 0.000000 0.639857
O O11 0.262568 0.746846 0.843423
O O12 0.334598 0.000000 0.874025
O O13 0.178861 0.251773 0.739620
O O14 0.151319 0.000000 0.663797
O O15 0.153618 0.000000 0.855214
O O16 0.000000 0.246302 0.000000
#
# Coordination Sequence:
#
# PCOD9144121 Si02
#       6
#     4   4   4   4   4   4
#     4  12  26  40  53  79 120 161 195 233 279 333
#     4   9  17  32  61  92 113 139 183 236 289 343
#     4  10  19  36  63  89 111 143 188 239 290 341
#     4  10  20  37  60  88 119 149 184 234 291 342
#     4  10  18  35  62  90 115 144 187 238 288 339
#     4   9  16  30  61  96 117 137 181 242 292 334
#
# _framework density 19.022099000000001
#
# number of rings (size 3 to 8) (size 9 to 14) (size 15 to 20)
#    0.000    2.000    3.333    1.500    0.000    1.667 
#    0.000    9.167    0.000    1.000    0.000    0.000 
#    0.000    0.000    0.000    0.000    0.000    0.000 
#
# Total GULP energy -134009.039892 kJ/mol
# GULP energy per Si atom -5583.709996 kJ/mol
# Density = 1.897880 g / cm^3
# Si number density = 19.022099 Si / 1000 Ang^3
#
#
#
# Elastic Constant Matrix: (Units=GPa)
#
#
# Indices 1 2 3 4 5 6 
#
# 1 205.0108 17.8136 131.0003 0.0000 13.4302 0.0000
# 2 17.8136 9.7274 15.8139 0.0000 5.1862 0.0000
# 3 131.0003 15.8139 199.8471 0.0000 11.0372 0.0000
# 4 0.0000 0.0000 0.0000 -21.5409 0.0000 8.8147
# 5 13.4302 5.1862 11.0372 0.0000 43.8625 0.0000
# 6 0.0000 0.0000 0.0000 8.8147 0.0000 -18.4251
#
#
#
# Elastic Compliance Matrix: (Units=1/GPa)
#
#
# Indices 1 2 3 4 5 6 
#
# 1 0.008892 -0.007548 -0.005203 0.000000 -0.000521 0.000000
# 2 -0.007548 0.130692 -0.004734 0.000000 -0.011950 0.000000
# 3 -0.005203 -0.004734 0.008792 0.000000 -0.000060 0.000000
# 4 0.000000 0.000000 0.000000 -0.057724 0.000000 -0.027615
# 5 -0.000521 -0.011950 -0.000060 0.000000 0.024386 0.000000
# 6 0.000000 0.000000 0.000000 -0.027615 0.000000 -0.067485
#
#
# Mechanical properties :
#
#
# Convention : Reuss Voigt Hill
#
# Bulk Modulus (GPa) = 8.81783 82.64899 45.73341
# Shear Modulus (GPa) = 41.55388 17.44313 29.49851
#
# Velocity S-wave (km/s) = 4.67894 3.03147 3.94223
# Velocity P-wave (km/s) = 5.81684 7.46970 6.69447
#
# Compressibility (1/GPa) = 0.11340652
#
# Stress axis : x y z
#
# Youngs Moduli (GPa) = 112.45491 7.65160 113.73646
#
# Poissons Ratio (x) = 0.05776 0.59177
# Poissons Ratio (y) = 0.84884 0.53840
# Poissons Ratio (z) = 0.58510 0.03622
#
# Static dielectric constant tensor:
#      x y z
#    x 1.650410 0.000000 0.015960 
#    y 0.000000 1.653730 0.000000 
#    z 0.015960 0.000000 1.647260 
# 
# From -- ./inp_files/66308.got.cif
#   From: 2010.05.17/outbox.cif.g08.bks.cpg/sg10_34_cif.got.tgz:66308.got - 2010.06.03 11:33:40.
