data_PCOD9144531
_publ_section_title
;
Structure prediction by ZEFSAII (Michael W. Deem and Ramdas Pophale) SiO2 
 PCOD9144531
Probable space group: P 2/M
;
_chemical_formula_sum "Si O2"
_cell_formula_units_Z 28
_cell_length_a 19.453391
_cell_length_b 7.384068
_cell_length_c 17.026171
_cell_angle_alpha 90.000000
_cell_angle_beta 156.153982
_cell_angle_gamma 90.000000
_cell_volume 988.758622
_symmetry_space_group_name_H-M "P 2/M"
_symmetry_group_IT_number 10
_symmetry_cell_setting 'monoclinic'
loop_
_space_group_symop_operation_xyz
x,y,z
-x,y,-z
-x,-y,-z
x,-y,z
loop_
_atom_site_type_symbol
_atom_site_label
_atom_site_fract_x
_atom_site_fract_y
_atom_site_fract_z
Si Si1 0.110797 0.789451 0.848682
Si Si2 0.546696 0.291717 0.705077
Si Si3 0.916141 0.718003 0.793987
Si Si4 0.653928 0.781213 0.104479
Si Si5 0.101467 0.791253 0.512374
Si Si6 0.594150 0.711869 0.284857
Si Si7 0.732071 0.720745 0.750054
O O1 0.951781 0.782134 0.743425
O O2 0.043265 0.711877 0.695597
O O3 0.267740 0.701730 0.058029
O O4 0.156210 0.000000 0.885032
O O5 0.492391 0.500000 0.637048
O O6 0.430604 0.213045 0.653354
O O7 0.590622 0.215568 0.664767
O O8 0.909580 0.500000 0.783759
O O9 0.763333 0.777020 0.692258
O O10 0.089561 0.767591 0.021317
O O11 0.823703 0.718355 0.327162
O O12 0.658998 0.000000 0.110975
O O13 0.500000 0.719475 0.000000
O O14 0.587385 0.727101 0.949710
O O15 0.267476 0.795078 0.628560
O O16 0.052149 0.000000 0.473052
O O17 0.637057 0.500000 0.336282
O O18 0.719921 0.500000 0.737502
#
# Coordination Sequence:
#
# PCOD9144531 Si02
#       7
#     4   4   4   4   4   4   4
#     4  10  19  30  46  69  94 120 152 188 225 265
#     4   9  18  32  47  67  96 123 148 183 227 272
#     4   8  13  24  43  64  86 116 151 185 223 262
#     4   8  15  30  49  65  86 119 154 185 219 264
#     4   9  19  34  49  66  91 123 155 184 219 270
#     4  10  19  30  49  74  93 113 148 192 231 265
#     4   7  11  23  43  62  84 118 152 179 214 265
#
# _framework density 28.318335999999999
#
# number of rings (size 3 to 8) (size 9 to 14) (size 15 to 20)
#    0.000    3.286    0.000    3.429    0.000    4.857 
#    0.000    6.429    0.000    5.143    0.000    6.000 
#    0.000    0.000    0.000    0.000    0.000    0.000 
#
# Total GULP energy -156605.391731 kJ/mol
# GULP energy per Si atom -5593.049705 kJ/mol
# Density = 2.825388 g / cm^3
# Si number density = 28.318336 Si / 1000 Ang^3
#
#
#
# Elastic Constant Matrix: (Units=GPa)
#
#
# Indices 1 2 3 4 5 6 
#
# 1 215.5147 0.2841 45.1751 0.0000 -28.7439 0.0000
# 2 0.2841 108.8929 -7.9780 0.0000 -2.2288 0.0000
# 3 45.1751 -7.9780 146.3174 0.0000 -22.7276 0.0000
# 4 0.0000 0.0000 0.0000 8.3356 0.0000 -6.9329
# 5 -28.7439 -2.2288 -22.7276 0.0000 83.0117 0.0000
# 6 0.0000 0.0000 0.0000 -6.9329 0.0000 20.6012
#
#
#
# Elastic Compliance Matrix: (Units=1/GPa)
#
#
# Indices 1 2 3 4 5 6 
#
# 1 0.005113 -0.000085 -0.001367 0.000000 0.001394 0.000000
# 2 -0.000085 0.009234 0.000589 0.000000 0.000380 0.000000
# 3 -0.001367 0.000589 0.007538 0.000000 0.001606 0.000000
# 4 0.000000 0.000000 0.000000 0.166598 0.000000 0.056064
# 5 0.001394 0.000380 0.001606 0.000000 0.012979 0.000000
# 6 0.000000 0.000000 0.000000 0.056064 0.000000 0.067408
#
#
# Mechanical properties :
#
#
# Convention : Reuss Voigt Hill
#
# Bulk Modulus (GPa) = 49.60474 60.63193 55.11833
# Shear Modulus (GPa) = 18.03004 51.27261 34.65132
#
# Velocity S-wave (km/s) = 2.52601 4.25971 3.50185
# Velocity P-wave (km/s) = 5.10514 6.75654 5.98804
#
# Compressibility (1/GPa) = 0.02015936
#
# Stress axis : x y z
#
# Youngs Moduli (GPa) = 195.59793 108.29006 132.66079
#
# Poissons Ratio (x) = 0.00920 0.18129
# Poissons Ratio (y) = 0.01661 -0.07810
# Poissons Ratio (z) = 0.26730 -0.06375
#
# Static dielectric constant tensor:
#      x y z
#    x 2.235620 0.000000 0.034750 
#    y 0.000000 2.027820 0.000000 
#    z 0.034750 0.000000 2.287180 
# 
# From -- ./inp_files/79312.got.cif
#   From: 2010.05.17/outbox.cif.g08.bks.cpg/sg10_40_cif.got.tgz:79312.got - 2010.06.03 11:33:40.
