data_PCOD9144310
_publ_section_title
;
Structure prediction by ZEFSAII (Michael W. Deem and Ramdas Pophale) SiO2 
 PCOD9144310
Probable space group: P 2/M
;
_chemical_formula_sum "Si O2"
_cell_formula_units_Z 32
_cell_length_a 24.573970
_cell_length_b 7.990992
_cell_length_c 17.033933
_cell_angle_alpha 90.000000
_cell_angle_beta 150.890776
_cell_angle_gamma 90.000000
_cell_volume 1627.242997
_symmetry_space_group_name_H-M "P 2/M"
_symmetry_group_IT_number 10
_symmetry_cell_setting 'monoclinic'
loop_
_space_group_symop_operation_xyz
x,y,z
-x,y,-z
-x,-y,-z
x,-y,z
loop_
_atom_site_type_symbol
_atom_site_label
_atom_site_fract_x
_atom_site_fract_y
_atom_site_fract_z
Si Si1 0.471318 0.189546 0.734657
Si Si2 0.771641 0.699566 0.523453
Si Si3 0.186502 0.689541 0.729637
Si Si4 0.410161 0.192446 0.947535
Si Si5 0.102162 0.298598 0.467301
Si Si6 0.701101 0.200304 0.968186
Si Si7 0.019796 0.299168 0.112382
Si Si8 0.110565 0.799198 0.904646
O O1 0.350442 0.267997 0.595907
O O2 0.451969 0.000000 0.681761
O O3 0.526637 0.182006 0.890328
O O4 0.574793 0.269912 0.816889
O O5 0.785708 0.500000 0.536056
O O6 0.801300 0.762405 0.472421
O O7 0.867801 0.765666 0.703209
O O8 0.152366 0.500000 0.705362
O O9 0.301626 0.696955 0.824139
O O10 0.104627 0.766561 0.560285
O O11 0.224194 0.770931 0.858958
O O12 0.378895 0.000000 0.886169
O O13 0.500000 0.259782 0.000000
O O14 0.111612 0.500000 0.486922
O O15 0.988077 0.258873 0.278164
O O16 0.773137 0.261757 0.985695
O O17 0.688059 0.000000 0.946249
O O18 0.031208 0.500000 0.121090
O O19 0.920381 0.262016 0.047836
O O20 0.000000 0.233035 0.000000
O O21 0.111096 0.000000 0.905552
#
# Coordination Sequence:
#
# PCOD9144310 Si02
#       8
#     4   4   4   4   4   4   4   4
#     4   9  17  29  45  65  93 129 164 199 241 286
#     4   9  17  30  49  73  99 125 157 197 240 289
#     4  10  19  29  44  66  92 128 174 217 249 284
#     4   9  17  28  41  59  88 127 167 208 254 296
#     4   9  19  33  46  67 101 133 163 208 261 299
#     4   9  20  36  48  65  98 136 171 207 248 288
#     4   9  19  37  59  81 106 130 148 182 244 303
#     4  10  20  34  54  76  97 126 166 207 241 286
#
# _framework density 19.665164999999998
#
# number of rings (size 3 to 8) (size 9 to 14) (size 15 to 20)
#    0.000    2.750    0.000    3.000    0.000    7.000 
#    0.000    2.500    0.000    0.750    0.000    5.250 
#    0.000    0.000    0.000    0.000    0.000    0.000 
#
# Total GULP energy -178244.183907 kJ/mol
# GULP energy per Si atom -5570.130747 kJ/mol
# Density = 1.962041 g / cm^3
# Si number density = 19.665165 Si / 1000 Ang^3
#
#
#
# Elastic Constant Matrix: (Units=GPa)
#
#
# Indices 1 2 3 4 5 6 
#
# 1 113.7927 -6.2276 45.3854 0.0000 13.0879 0.0000
# 2 -6.2276 12.5938 3.2077 0.0000 -4.7441 0.0000
# 3 45.3854 3.2077 47.2659 0.0000 5.4801 0.0000
# 4 0.0000 0.0000 0.0000 10.5805 0.0000 1.4072
# 5 13.0879 -4.7441 5.4801 0.0000 28.4177 0.0000
# 6 0.0000 0.0000 0.0000 1.4072 0.0000 20.4016
#
#
#
# Elastic Compliance Matrix: (Units=1/GPa)
#
#
# Indices 1 2 3 4 5 6 
#
# 1 0.015975 0.010991 -0.015799 0.000000 -0.002476 0.000000
# 2 0.010991 0.095019 -0.018672 0.000000 0.014401 0.000000
# 3 -0.015799 -0.018672 0.037961 0.000000 -0.003161 0.000000
# 4 0.000000 0.000000 0.000000 0.095388 0.000000 -0.006579
# 5 -0.002476 0.014401 -0.003161 0.000000 0.039343 0.000000
# 6 0.000000 0.000000 0.000000 -0.006579 0.000000 0.049470
#
#
# Mechanical properties :
#
#
# Convention : Reuss Voigt Hill
#
# Bulk Modulus (GPa) = 9.80426 28.70927 19.25677
# Shear Modulus (GPa) = 12.07396 20.63243 16.35319
#
# Velocity S-wave (km/s) = 2.48054 3.24263 2.88684
# Velocity P-wave (km/s) = 3.63326 5.35259 4.57443
#
# Compressibility (1/GPa) = 0.10199644
#
# Stress axis : x y z
#
# Youngs Moduli (GPa) = 62.59660 10.52417 26.34314
#
# Poissons Ratio (x) = -0.11567 0.41618
# Poissons Ratio (y) = -0.68799 0.49187
# Poissons Ratio (z) = 0.98893 0.19650
#
# Static dielectric constant tensor:
#      x y z
#    x 1.747670 0.000000 0.028860 
#    y 0.000000 1.713010 0.000000 
#    z 0.028860 0.000000 1.709800 
# 
# From -- ./inp_files/79965.got.cif
#   From: 2010.05.17/outbox.cif.g08.bks.cpg/sg10_40_cif.got.tgz:79965.got - 2010.06.03 11:33:40.
