data_PCOD9144744
_publ_section_title
;
Structure prediction by ZEFSAII (Michael W. Deem and Ramdas Pophale) SiO2 
 PCOD9144744
Probable space group: P 2/M
;
_chemical_formula_sum "Si O2"
_cell_formula_units_Z 28
_cell_length_a 13.166056
_cell_length_b 7.483096
_cell_length_c 15.472475
_cell_angle_alpha 90.000000
_cell_angle_beta 48.421368
_cell_angle_gamma 90.000000
_cell_volume 1140.315173
_symmetry_space_group_name_H-M "P 2/M"
_symmetry_group_IT_number 10
_symmetry_cell_setting 'monoclinic'
loop_
_space_group_symop_operation_xyz
x,y,z
-x,y,-z
-x,-y,-z
x,-y,z
loop_
_atom_site_type_symbol
_atom_site_label
_atom_site_fract_x
_atom_site_fract_y
_atom_site_fract_z
Si Si1 0.959956 0.290384 0.212150
Si Si2 0.520696 0.205509 0.386893
Si Si3 0.708866 0.284576 0.696700
Si Si4 0.399552 0.281848 0.891309
Si Si5 0.791020 0.701266 0.150383
Si Si6 0.765471 0.281698 0.857413
Si Si7 0.770530 0.790548 0.480752
O O1 0.978972 0.500000 0.183636
O O2 0.900101 0.215564 0.155430
O O3 0.859734 0.279567 0.351678
O O4 0.100914 0.216888 0.168143
O O5 0.500000 0.199054 0.500000
O O6 0.655754 0.306311 0.285748
O O7 0.380886 0.289416 0.433914
O O8 0.537399 0.000000 0.346938
O O9 0.706943 0.500000 0.698969
O O10 0.550633 0.222359 0.779976
O O11 0.759217 0.222332 0.762196
O O12 0.804900 0.230193 0.562358
O O13 0.399932 0.500000 0.884642
O O14 0.276467 0.219634 0.898228
O O15 0.361937 0.234810 0.010463
O O16 0.835840 0.500000 0.102701
O O17 0.770780 0.500000 0.852239
O O18 0.756300 0.000000 0.469727
#
# Coordination Sequence:
#
# PCOD9144744 Si02
#       7
#     4   4   4   4   4   4   4
#     4  10  21  35  52  78 111 144 175 209 256 315
#     4  10  19  32  50  74 104 139 173 211 263 318
#     4  10  19  34  58  82 104 134 177 224 262 304
#     4   9  17  31  54  83 107 132 173 221 265 305
#     4  10  19  30  51  82 109 133 167 216 262 305
#     4   9  19  35  54  77 107 143 178 213 258 312
#     4  11  22  35  54  79 108 140 174 217 268 316
#
# _framework density 24.554615999999999
#
# number of rings (size 3 to 8) (size 9 to 14) (size 15 to 20)
#    0.000    2.143    2.857    0.857    0.000    3.714 
#    0.000    6.429    0.000    4.286    0.000    2.000 
#    0.000    0.000    0.000    0.000    0.000    0.000 
#
# Total GULP energy -156286.363677 kJ/mol
# GULP energy per Si atom -5581.655846 kJ/mol
# Density = 2.449873 g / cm^3
# Si number density = 24.554616 Si / 1000 Ang^3
#
#
#
# Elastic Constant Matrix: (Units=GPa)
#
#
# Indices 1 2 3 4 5 6 
#
# 1 113.3332 4.0650 30.0036 0.0000 20.9292 0.0000
# 2 4.0650 77.9844 -0.4495 0.0000 0.4582 0.0000
# 3 30.0036 -0.4495 76.2977 0.0000 20.9868 0.0000
# 4 0.0000 0.0000 0.0000 90.6596 0.0000 19.0689
# 5 20.9292 0.4582 20.9868 0.0000 40.4862 0.0000
# 6 0.0000 0.0000 0.0000 19.0689 0.0000 0.1572
#
#
#
# Elastic Compliance Matrix: (Units=1/GPa)
#
#
# Indices 1 2 3 4 5 6 
#
# 1 0.010342 -0.000534 -0.003034 0.000000 -0.003767 0.000000
# 2 -0.000534 0.012853 0.000291 0.000000 -0.000020 0.000000
# 3 -0.003034 0.000291 0.016177 0.000000 -0.006821 0.000000
# 4 0.000000 0.000000 0.000000 -0.000450 0.000000 0.054581
# 5 -0.003767 -0.000020 -0.006821 0.000000 0.030183 0.000000
# 6 0.000000 0.000000 0.000000 0.054581 0.000000 -0.259494
#
#
# Mechanical properties :
#
#
# Convention : Reuss Voigt Hill
#
# Bulk Modulus (GPa) = 30.47057 37.20596 33.83826
# Shear Modulus (GPa) = -28.91914 41.86035 6.47060
#
# Velocity S-wave (km/s) = -3.43556 4.13338 1.62509
# Velocity P-wave (km/s) = 1.81691 6.16158 4.16317
#
# Compressibility (1/GPa) = 0.03281856
#
# Stress axis : x y z
#
# Youngs Moduli (GPa) = 96.69726 77.80449 61.81455
#
# Poissons Ratio (x) = 0.04158 0.18752
# Poissons Ratio (y) = 0.05168 -0.01802
# Poissons Ratio (z) = 0.29334 -0.02268
#
# Static dielectric constant tensor:
#      x y z
#    x 2.037030 0.000000 0.047040 
#    y 0.000000 1.956650 0.000000 
#    z 0.047040 0.000000 1.934450 
# 
# From -- ./inp_files/55785.got.cif
#   From: 2010.05.17/outbox.cif.g08.bks.cpg/sg10_28_cif.got.tgz:55785.got - 2010.06.03 11:33:40.
