data_PCOD9144926
_publ_section_title
;
Structure prediction by ZEFSAII (Michael W. Deem and Ramdas Pophale) SiO2 
 PCOD9144926
Probable space group: P 2/M
;
_chemical_formula_sum "Si O2"
_cell_formula_units_Z 28
_cell_length_a 6.698146
_cell_length_b 33.037061
_cell_length_c 5.256220
_cell_angle_alpha 90.000000
_cell_angle_beta 82.100991
_cell_angle_gamma 90.000000
_cell_volume 1152.097464
_symmetry_space_group_name_H-M "P 2/M"
_symmetry_group_IT_number 10
_symmetry_cell_setting 'monoclinic'
loop_
_space_group_symop_operation_xyz
x,y,z
-x,y,-z
-x,-y,-z
x,-y,z
loop_
_atom_site_type_symbol
_atom_site_label
_atom_site_fract_x
_atom_site_fract_y
_atom_site_fract_z
Si Si1 0.735683 0.120873 0.902824
Si Si2 0.863741 0.000000 0.272071
Si Si3 0.236190 0.794823 0.402734
Si Si4 0.357200 0.500000 0.774993
Si Si5 0.360311 0.674332 0.773456
Si Si6 0.268723 0.913324 0.591957
Si Si7 0.357651 0.586945 0.774822
Si Si8 0.229581 0.760577 0.908599
O O1 0.748525 0.162980 0.749483
O O2 0.817269 0.089045 0.679775
O O3 0.500000 0.112752 0.000000
O O4 0.819010 0.116524 0.175245
O O5 0.738216 0.958589 0.300843
O O6 0.000000 0.000000 0.500000
O O7 0.000000 0.000000 0.000000
O O8 0.319656 0.789884 0.674583
O O9 0.000000 0.787124 0.500000
O O10 0.316171 0.762903 0.179587
O O11 0.500000 0.500000 0.500000
O O12 0.245764 0.543493 0.793254
O O13 0.500000 0.500000 0.000000
O O14 0.500000 0.676242 0.500000
O O15 0.249430 0.630588 0.790429
O O16 0.231058 0.715025 0.805461
O O17 0.500000 0.674774 0.000000
O O18 0.500000 0.901345 0.500000
O O19 0.500000 0.587029 0.500000
O O20 0.500000 0.586931 0.000000
O O21 0.000000 0.773641 0.000000
#
# Coordination Sequence:
#
# PCOD9144926 Si02
#       8
#     4   2   4   2   4   4   4   4
#     4  10  21  37  59  84 107 137 177 214 253 304
#     4  12  25  40  61  92 118 144 184 222 251 292
#     4  10  21  36  54  76 103 135 170 211 256 301
#     4   8  12  20  34  54  83 118 147 186 244 300
#     4  10  19  31  48  72  97 126 166 213 254 295
#     4  10  22  41  61  83 115 149 175 208 258 308
#     4   8  14  23  37  59  88 117 152 196 246 296
#     4  10  21  36  51  71 101 136 170 204 254 313
#
# _framework density 24.303498999999999
#
# number of rings (size 3 to 8) (size 9 to 14) (size 15 to 20)
#    0.000    2.286    0.000    2.786    0.000    3.429 
#    0.000    2.857    0.000    0.000    0.000    0.500 
#    0.000    0.000    0.000   38.429    0.000    1.429 
#
# Total GULP energy -156271.002446 kJ/mol
# GULP energy per Si atom -5581.107230 kJ/mol
# Density = 2.424818 g / cm^3
# Si number density = 24.303499 Si / 1000 Ang^3
#
#
#
# Elastic Constant Matrix: (Units=GPa)
#
#
# Indices 1 2 3 4 5 6 
#
# 1 40.6470 -18.6145 34.1556 0.0000 9.5924 0.0000
# 2 -18.6145 188.4709 64.0826 0.0000 -9.3983 0.0000
# 3 34.1556 64.0826 240.6681 0.0000 13.2707 0.0000
# 4 0.0000 0.0000 0.0000 32.4557 0.0000 8.1181
# 5 9.5924 -9.3983 13.2707 0.0000 38.5082 0.0000
# 6 0.0000 0.0000 0.0000 8.1181 0.0000 4.8268
#
#
#
# Elastic Compliance Matrix: (Units=1/GPa)
#
#
# Indices 1 2 3 4 5 6 
#
# 1 0.032827 0.004929 -0.005695 0.000000 -0.005012 0.000000
# 2 0.004929 0.006729 -0.002563 0.000000 0.001298 0.000000
# 3 -0.005695 -0.002563 0.005710 0.000000 -0.001175 0.000000
# 4 0.000000 0.000000 0.000000 0.053186 0.000000 -0.089453
# 5 -0.005012 0.001298 -0.001175 0.000000 0.027938 0.000000
# 6 0.000000 0.000000 0.000000 -0.089453 0.000000 0.357630
#
#
# Mechanical properties :
#
#
# Convention : Reuss Voigt Hill
#
# Bulk Modulus (GPa) = 25.90093 69.89258 47.89676
# Shear Modulus (GPa) = 9.92954 41.16896 25.54925
#
# Velocity S-wave (km/s) = 2.02349 4.12023 3.24583
# Velocity P-wave (km/s) = 4.01743 7.17326 5.81358
#
# Compressibility (1/GPa) = 0.03860865
#
# Stress axis : x y z
#
# Youngs Moduli (GPa) = 30.46248 148.61751 175.11766
#
# Poissons Ratio (x) = -0.73248 0.99726
# Poissons Ratio (y) = -0.15014 0.44877
# Poissons Ratio (z) = 0.17348 0.38086
#
# Static dielectric constant tensor:
#      x y z
#    x 2.027020 0.000000 0.084160 
#    y 0.000000 1.994790 0.000000 
#    z 0.084160 0.000000 1.940240 
# 
# From -- ./inp_files/5510.got.cif
#   From: 2010.05.17/outbox.cif.g08.bks.cpg/sg10_3_cif.got.tgz:5510.got - 2010.06.03 11:33:40.
