data_PCOD9144235
_publ_section_title
;
Structure prediction by ZEFSAII (Michael W. Deem and Ramdas Pophale) SiO2 
 PCOD9144235
Probable space group: P 2/M
;
_chemical_formula_sum "Si O2"
_cell_formula_units_Z 32
_cell_length_a 12.930667
_cell_length_b 7.328427
_cell_length_c 19.751518
_cell_angle_alpha 90.000000
_cell_angle_beta 48.337978
_cell_angle_gamma 90.000000
_cell_volume 1398.294593
_symmetry_space_group_name_H-M "P 2/M"
_symmetry_group_IT_number 10
_symmetry_cell_setting 'monoclinic'
loop_
_space_group_symop_operation_xyz
x,y,z
-x,y,-z
-x,-y,-z
x,-y,z
loop_
_atom_site_type_symbol
_atom_site_label
_atom_site_fract_x
_atom_site_fract_y
_atom_site_fract_z
Si Si1 0.205060 0.277859 0.109902
Si Si2 0.332667 0.278194 0.914513
Si Si3 0.384619 0.291190 0.148832
Si Si4 0.126500 0.277649 0.896307
Si Si5 0.347093 0.285960 0.550266
Si Si6 0.828443 0.219125 0.501948
Si Si7 0.140536 0.220880 0.356549
Si Si8 0.099739 0.277124 0.752367
O O1 0.206441 0.500000 0.112153
O O2 0.329322 0.210554 0.102906
O O3 0.054821 0.218480 0.200854
O O4 0.231888 0.229490 0.020579
O O5 0.335884 0.500000 0.909456
O O6 0.484253 0.211747 0.869300
O O7 0.266381 0.218463 0.873145
O O8 0.424944 0.500000 0.115631
O O9 0.252028 0.290189 0.255228
O O10 0.121648 0.500000 0.896948
O O11 0.118500 0.220557 0.822212
O O12 0.000000 0.221272 0.000000
O O13 0.500000 0.210787 0.500000
O O14 0.354892 0.500000 0.563627
O O15 0.292417 0.272492 0.496989
O O16 0.223032 0.211140 0.650947
O O17 0.818142 0.276924 0.584855
O O18 0.982215 0.279827 0.411449
O O19 0.830960 0.000000 0.501525
O O20 0.142777 0.000000 0.353404
O O21 0.099774 0.500000 0.750501
#
# Coordination Sequence:
#
# PCOD9144235 Si02
#       8
#     4   4   4   4   4   4   4   4
#     4   9  15  25  41  62  92 127 164 202 237 280
#     4   9  16  25  39  63  95 129 162 200 241 284
#     4  10  19  28  44  73 103 127 155 196 252 309
#     4   9  14  23  39  59  88 126 165 200 235 279
#     4  10  21  34  49  76 113 141 160 201 264 312
#     4   9  19  37  58  74  93 129 176 216 248 295
#     4   9  19  36  55  74  97 128 168 215 259 298
#     4   9  16  26  42  63  91 130 168 197 236 291
#
# _framework density 22.885020999999998
#
# number of rings (size 3 to 8) (size 9 to 14) (size 15 to 20)
#    0.000    2.750    1.250    1.875    0.000    4.750 
#    0.000    3.750    0.000    1.500    0.000    0.000 
#    0.000    1.000    0.000    0.000    0.000    0.000 
#
# Total GULP energy -178728.382180 kJ/mol
# GULP energy per Si atom -5585.261943 kJ/mol
# Density = 2.283293 g / cm^3
# Si number density = 22.885021 Si / 1000 Ang^3
#
#
#
# Elastic Constant Matrix: (Units=GPa)
#
#
# Indices 1 2 3 4 5 6 
#
# 1 166.7818 -3.9955 18.7726 0.0000 -15.7197 0.0000
# 2 -3.9955 89.1830 -4.9773 0.0000 -4.4162 0.0000
# 3 18.7726 -4.9773 34.8817 0.0000 -6.9929 0.0000
# 4 0.0000 0.0000 0.0000 58.9807 0.0000 22.8575
# 5 -15.7197 -4.4162 -6.9929 0.0000 30.3433 0.0000
# 6 0.0000 0.0000 0.0000 22.8575 0.0000 3.4391
#
#
#
# Elastic Compliance Matrix: (Units=1/GPa)
#
#
# Indices 1 2 3 4 5 6 
#
# 1 0.006597 0.000268 -0.002955 0.000000 0.002775 0.000000
# 2 0.000268 0.011445 0.001940 0.000000 0.002252 0.000000
# 3 -0.002955 0.001940 0.031752 0.000000 0.006069 0.000000
# 4 0.000000 0.000000 0.000000 -0.010760 0.000000 0.071514
# 5 0.002775 0.002252 0.006069 0.000000 0.036120 0.000000
# 6 0.000000 0.000000 0.000000 0.071514 0.000000 -0.184532
#
#
# Mechanical properties :
#
#
# Convention : Reuss Voigt Hill
#
# Bulk Modulus (GPa) = 20.70430 34.49401 27.59916
# Shear Modulus (GPa) = -54.47571 37.28906 -8.59332
#
# Velocity S-wave (km/s) = -4.88424 4.04097 -1.93988
# Velocity P-wave (km/s) = 4.76875 6.07273 2.65868
#
# Compressibility (1/GPa) = 0.04829914
#
# Stress axis : x y z
#
# Youngs Moduli (GPa) = 151.59502 87.37677 31.49363
#
# Poissons Ratio (x) = -0.02342 0.09308
# Poissons Ratio (y) = -0.04063 -0.06110
# Poissons Ratio (z) = 0.44804 -0.16953
#
# Static dielectric constant tensor:
#      x y z
#    x 1.848500 0.000000 -0.016050 
#    y 0.000000 1.886070 0.000000 
#    z -0.016050 0.000000 1.806440 
# 
# From -- ./inp_files/83585.got.cif
#   From: 2010.05.17/outbox.cif.g08.bks.cpg/sg10_42_cif.got.tgz:83585.got - 2010.06.03 11:33:40.
