data_PCOD9144701
_publ_section_title
;
Structure prediction by ZEFSAII (Michael W. Deem and Ramdas Pophale) SiO2 
 PCOD9144701
Probable space group: P 2/M
;
_chemical_formula_sum "Si O2"
_cell_formula_units_Z 32
_cell_length_a 8.935568
_cell_length_b 13.587008
_cell_length_c 19.066830
_cell_angle_alpha 90.000000
_cell_angle_beta 134.003765
_cell_angle_gamma 90.000000
_cell_volume 1665.064336
_symmetry_space_group_name_H-M "P 2/M"
_symmetry_group_IT_number 10
_symmetry_cell_setting 'monoclinic'
loop_
_space_group_symop_operation_xyz
x,y,z
-x,y,-z
-x,-y,-z
x,-y,z
loop_
_atom_site_type_symbol
_atom_site_label
_atom_site_fract_x
_atom_site_fract_y
_atom_site_fract_z
Si Si1 0.982435 0.730138 0.227267
Si Si2 0.624076 0.610870 0.842571
Si Si3 0.720069 0.616808 0.033169
Si Si4 0.681327 0.884232 0.198515
Si Si5 0.821210 0.195922 0.393216
Si Si6 0.772318 0.115427 0.908745
Si Si7 0.643868 0.781349 0.735032
Si Si8 0.126093 0.388398 0.674387
O O1 0.893027 0.678166 0.129255
O O2 0.823982 0.817383 0.195977
O O3 0.980655 0.652341 0.290189
O O4 0.210401 0.768951 0.283896
O O5 0.690366 0.500000 0.844944
O O6 0.666040 0.687823 0.794925
O O7 0.373799 0.610099 0.770938
O O8 0.715471 0.635112 0.948530
O O9 0.753691 0.500000 0.053847
O O10 0.500000 0.639273 0.000000
O O11 0.768597 0.864383 0.305447
O O12 0.439293 0.849288 0.121357
O O13 0.689489 0.000000 0.184810
O O14 0.599671 0.206734 0.359404
O O15 0.896818 0.303961 0.391467
O O16 0.000000 0.152569 0.500000
O O17 0.725399 0.131229 0.811411
O O18 0.780646 0.000000 0.928082
O O19 0.000000 0.158084 0.000000
O O20 0.063579 0.500000 0.635768
#
# Coordination Sequence:
#
# PCOD9144701 Si02
#       8
#     4   4   4   4   4   4   4   4
#     4  11  21  31  51  79 112 146 175 220 269 324
#     4   9  18  33  50  72 105 146 190 226 254 300
#     4  10  19  30  49  76 107 148 192 222 256 312
#     4   9  20  39  59  81 110 142 177 218 267 325
#     4   9  19  38  62  83 100 133 181 228 276 323
#     4   9  19  36  56  75 102 141 181 220 258 303
#     4  10  22  34  53  80 109 140 177 229 271 316
#     4   9  17  33  53  75 107 145 179 216 265 318
#
# _framework density 19.218475999999999
#
# number of rings (size 3 to 8) (size 9 to 14) (size 15 to 20)
#    0.000    2.500    1.250    1.125    1.750    2.000 
#    0.000    3.750    0.000    4.125    0.000    0.000 
#    0.000    0.000    0.000    0.000    0.000    0.000 
#
# Total GULP energy -178535.935527 kJ/mol
# GULP energy per Si atom -5579.247985 kJ/mol
# Density = 1.917473 g / cm^3
# Si number density = 19.218476 Si / 1000 Ang^3
#
#
#
# Elastic Constant Matrix: (Units=GPa)
#
#
# Indices 1 2 3 4 5 6 
#
# 1 98.3299 11.9530 24.2176 0.0000 25.0188 0.0000
# 2 11.9530 54.1587 1.8934 0.0000 8.8318 0.0000
# 3 24.2176 1.8934 84.3685 0.0000 14.2200 0.0000
# 4 0.0000 0.0000 0.0000 10.8411 0.0000 4.1578
# 5 25.0188 8.8318 14.2200 0.0000 15.5125 0.0000
# 6 0.0000 0.0000 0.0000 4.1578 0.0000 12.6215
#
#
#
# Elastic Compliance Matrix: (Units=1/GPa)
#
#
# Indices 1 2 3 4 5 6 
#
# 1 0.017284 0.000775 -0.000244 0.000000 -0.028093 0.000000
# 2 0.000775 0.020615 0.001779 0.000000 -0.014617 0.000000
# 3 -0.000244 0.001779 0.014178 0.000000 -0.013616 0.000000
# 4 0.000000 0.000000 0.000000 0.105581 0.000000 -0.034781
# 5 -0.028093 -0.014617 -0.013616 0.000000 0.130577 0.000000
# 6 0.000000 0.000000 0.000000 -0.034781 0.000000 0.090688
#
#
# Mechanical properties :
#
#
# Convention : Reuss Voigt Hill
#
# Bulk Modulus (GPa) = 17.63780 34.77613 26.20696
# Shear Modulus (GPa) = 12.71616 21.04789 16.88203
#
# Velocity S-wave (km/s) = 2.57507 3.31296 2.96704
# Velocity P-wave (km/s) = 4.24721 5.72439 5.04021
#
# Compressibility (1/GPa) = 0.05669642
#
# Stress axis : x y z
#
# Youngs Moduli (GPa) = 57.85836 48.50912 70.53327
#
# Poissons Ratio (x) = -0.03761 0.01718
# Poissons Ratio (y) = -0.04486 -0.12544
# Poissons Ratio (z) = 0.01409 -0.08627
#
# Static dielectric constant tensor:
#      x y z
#    x 1.680830 0.000000 0.014080 
#    y 0.000000 1.715320 0.000000 
#    z 0.014080 0.000000 1.651880 
# 
# From -- ./inp_files/36371.got.cif
#   From: 2010.05.17/outbox.cif.g08.bks.cpg/sg10_19_cif.got.tgz:36371.got - 2010.06.03 11:33:40.
