data_PCOD9144716
_publ_section_title
;
Structure prediction by ZEFSAII (Michael W. Deem and Ramdas Pophale) SiO2 
 PCOD9144716
Probable space group: P 2/M
;
_chemical_formula_sum "Si O2"
_cell_formula_units_Z 32
_cell_length_a 12.173720
_cell_length_b 9.092489
_cell_length_c 20.122162
_cell_angle_alpha 90.000000
_cell_angle_beta 49.719689
_cell_angle_gamma 90.000000
_cell_volume 1699.194005
_symmetry_space_group_name_H-M "P 2/M"
_symmetry_group_IT_number 10
_symmetry_cell_setting 'monoclinic'
loop_
_space_group_symop_operation_xyz
x,y,z
-x,y,-z
-x,-y,-z
x,-y,z
loop_
_atom_site_type_symbol
_atom_site_label
_atom_site_fract_x
_atom_site_fract_y
_atom_site_fract_z
Si Si1 0.118162 0.676125 0.037694
Si Si2 0.420200 0.827269 0.676070
Si Si3 0.783690 0.828479 0.720938
Si Si4 0.183123 0.826149 0.883113
Si Si5 0.883548 0.324841 0.810712
Si Si6 0.113343 0.168164 0.542049
Si Si7 0.813237 0.174317 0.338947
Si Si8 0.689490 0.327115 0.630699
O O1 0.111659 0.500000 0.030763
O O2 0.164974 0.706007 0.094891
O O3 0.959069 0.745571 0.089647
O O4 0.211222 0.751573 0.943413
O O5 0.311033 0.810602 0.780706
O O6 0.327967 0.785601 0.647213
O O7 0.558415 0.731476 0.637552
O O8 0.460338 0.000000 0.654843
O O9 0.789685 0.751306 0.790141
O O10 0.687304 0.751234 0.703141
O O11 0.947698 0.817447 0.628637
O O12 0.748579 0.000000 0.740932
O O13 0.154448 0.000000 0.902211
O O14 0.885194 0.500000 0.800013
O O15 0.046365 0.263164 0.739235
O O16 0.200255 0.191534 0.576718
O O17 0.168152 0.276799 0.464674
O O18 0.136168 0.000000 0.509789
O O19 0.841457 0.000000 0.315278
O O20 0.685440 0.500000 0.640749
#
# Coordination Sequence:
#
# PCOD9144716 Si02
#       8
#     4   4   4   4   4   4   4   4
#     4  10  19  30  49  79 115 145 169 207 265 320
#     4  10  21  37  55  75 106 145 184 221 259 312
#     4  10  21  38  60  80 102 136 179 225 266 310
#     4  10  19  31  52  78 106 141 182 222 252 299
#     4  10  19  31  52  82 113 141 170 214 268 318
#     4   9  19  36  58  80 103 134 174 222 270 314
#     4   9  18  34  55  78 105 141 180 218 263 311
#     4  12  25  37  53  77 106 141 178 220 270 321
#
# _framework density 18.832457000000002
#
# number of rings (size 3 to 8) (size 9 to 14) (size 15 to 20)
#    0.000    2.000    1.250    4.500    0.000    7.500 
#    0.000    2.500    0.000    0.750    0.000    5.250 
#    0.000    0.000    0.000    0.000    0.000    0.000 
#
# Total GULP energy -178685.036120 kJ/mol
# GULP energy per Si atom -5583.907379 kJ/mol
# Density = 1.878959 g / cm^3
# Si number density = 18.832457 Si / 1000 Ang^3
#
#
#
# Elastic Constant Matrix: (Units=GPa)
#
#
# Indices 1 2 3 4 5 6 
#
# 1 89.7873 41.7566 11.3586 0.0000 29.8291 0.0000
# 2 41.7566 88.2875 20.6291 0.0000 21.6461 0.0000
# 3 11.3586 20.6291 25.2866 0.0000 16.6490 0.0000
# 4 0.0000 0.0000 0.0000 18.5582 0.0000 17.5335
# 5 29.8291 21.6461 16.6490 0.0000 27.8932 0.0000
# 6 0.0000 0.0000 0.0000 17.5335 0.0000 4.6045
#
#
#
# Elastic Compliance Matrix: (Units=1/GPa)
#
#
# Indices 1 2 3 4 5 6 
#
# 1 0.020780 -0.006713 0.012098 0.000000 -0.024234 0.000000
# 2 -0.006713 0.016958 -0.011336 0.000000 0.000786 0.000000
# 3 0.012098 -0.011336 0.075924 0.000000 -0.049459 0.000000
# 4 0.000000 0.000000 0.000000 -0.020744 0.000000 0.078990
# 5 -0.024234 0.000786 -0.049459 0.000000 0.090678 0.000000
# 6 0.000000 0.000000 0.000000 0.078990 0.000000 -0.083606
#
#
# Mechanical properties :
#
#
# Convention : Reuss Voigt Hill
#
# Bulk Modulus (GPa) = 9.82708 38.98332 24.40520
# Shear Modulus (GPa) = 34.29059 18.85233 26.57146
#
# Velocity S-wave (km/s) = 4.27174 3.16738 3.76032
# Velocity P-wave (km/s) = 5.43690 5.84135 5.64275
#
# Compressibility (1/GPa) = 0.10175964
#
# Stress axis : x y z
#
# Youngs Moduli (GPa) = 48.12334 58.96926 13.17098
#
# Poissons Ratio (x) = 0.39589 -0.15935
# Poissons Ratio (y) = 0.32307 0.14931
# Poissons Ratio (z) = -0.58221 0.66849
#
# Static dielectric constant tensor:
#      x y z
#    x 1.675740 0.000000 0.014730 
#    y 0.000000 1.628090 0.000000 
#    z 0.014730 0.000000 1.654400 
# 
# From -- ./inp_files/83550.got.cif
#   From: 2010.05.17/outbox.cif.g08.bks.cpg/sg10_42_cif.got.tgz:83550.got - 2010.06.03 11:33:40.
