data_PCOD9144286
_publ_section_title
;
Structure prediction by ZEFSAII (Michael W. Deem and Ramdas Pophale) SiO2 
 PCOD9144286
Probable space group: P 2/M
;
_chemical_formula_sum "Si O2"
_cell_formula_units_Z 32
_cell_length_a 11.225575
_cell_length_b 9.988142
_cell_length_c 23.140386
_cell_angle_alpha 90.000000
_cell_angle_beta 143.035639
_cell_angle_gamma 90.000000
_cell_volume 1560.156659
_symmetry_space_group_name_H-M "P 2/M"
_symmetry_group_IT_number 10
_symmetry_cell_setting 'monoclinic'
loop_
_space_group_symop_operation_xyz
x,y,z
-x,y,-z
-x,-y,-z
x,-y,z
loop_
_atom_site_type_symbol
_atom_site_label
_atom_site_fract_x
_atom_site_fract_y
_atom_site_fract_z
Si Si1 0.809448 0.344806 0.605646
Si Si2 0.274072 0.344660 0.823788
Si Si3 0.643010 0.841195 0.243302
Si Si4 0.613354 0.146718 0.745975
Si Si5 0.007080 0.659656 0.571816
Si Si6 0.150640 0.652210 0.900916
Si Si7 0.312084 0.345440 0.320261
Si Si8 0.941793 0.149854 0.041031
O O1 0.751464 0.500000 0.583526
O O2 0.690265 0.288270 0.614878
O O3 0.041263 0.337003 0.714683
O O4 0.821760 0.305168 0.542861
O O5 0.333891 0.500000 0.838361
O O6 0.385168 0.238618 0.827058
O O7 0.274182 0.313258 0.891637
O O8 0.469338 0.823653 0.222518
O O9 0.825224 0.763375 0.343633
O O10 0.677102 0.000000 0.247983
O O11 0.574591 0.257062 0.682704
O O12 0.848735 0.136990 0.845010
O O13 0.535028 0.000000 0.698586
O O14 0.050467 0.500000 0.600408
O O15 0.000000 0.670879 0.500000
O O16 0.196768 0.500000 0.935419
O O17 0.919284 0.652455 0.790310
O O18 0.177518 0.750553 0.964752
O O19 0.378974 0.500000 0.345541
O O20 0.854104 0.000000 0.000433
O O21 0.000000 0.200484 0.000000
#
# Coordination Sequence:
#
# PCOD9144286 Si02
#       8
#     4   4   4   4   4   4   4   4
#     4   7  11  22  40  62  84 103 131 174 213 242
#     4   8  14  26  43  62  85 111 141 178 216 254
#     4  10  19  29  43  64  90 116 141 175 216 256
#     4   9  18  30  42  61  89 115 141 177 217 254
#     4   9  17  30  48  67  88 115 144 175 213 256
#     4   8  14  25  42  64  87 109 137 180 224 253
#     4   8  13  23  41  62  82 106 137 173 212 251
#     4   9  17  29  45  64  87 116 148 181 217 259
#
# _framework density 20.510760999999999
#
# number of rings (size 3 to 8) (size 9 to 14) (size 15 to 20)
#    0.000    3.500    0.000    2.625    0.000    2.000 
#    0.000    6.250    0.000    1.500    0.000   10.500 
#    0.000    0.000    0.000    0.000    0.000    0.000 
#
# Total GULP energy -178143.158974 kJ/mol
# GULP energy per Si atom -5566.973718 kJ/mol
# Density = 2.046408 g / cm^3
# Si number density = 20.510761 Si / 1000 Ang^3
#
#
#
# Elastic Constant Matrix: (Units=GPa)
#
#
# Indices 1 2 3 4 5 6 
#
# 1 140.1356 104.5628 32.2478 0.0000 -57.9384 0.0000
# 2 104.5628 109.8626 37.6122 0.0000 -33.1579 0.0000
# 3 32.2478 37.6122 63.1999 0.0000 -17.8323 0.0000
# 4 0.0000 0.0000 0.0000 -62.3006 0.0000 88.5504
# 5 -57.9384 -33.1579 -17.8323 0.0000 40.7752 0.0000
# 6 0.0000 0.0000 0.0000 88.5504 0.0000 -117.3420
#
#
#
# Elastic Compliance Matrix: (Units=1/GPa)
#
#
# Indices 1 2 3 4 5 6 
#
# 1 0.061331 -0.045682 0.011408 0.000000 0.054987 0.000000
# 2 -0.045682 0.047676 -0.014191 0.000000 -0.032347 0.000000
# 3 0.011408 -0.014191 0.022547 0.000000 0.014530 0.000000
# 4 0.000000 0.000000 0.000000 0.221105 0.000000 0.166854
# 5 0.054987 -0.032347 0.014530 0.000000 0.082708 0.000000
# 6 0.000000 0.000000 0.000000 0.166854 0.000000 0.117392
#
#
# Mechanical properties :
#
#
# Convention : Reuss Voigt Hill
#
# Bulk Modulus (GPa) = 28.88211 73.56041 51.22126
# Shear Modulus (GPa) = 7.56166 -18.52179 -5.48007
#
# Velocity S-wave (km/s) = 1.92216 -3.00830 -1.63634
# Velocity P-wave (km/s) = 4.36328 4.88627 4.63216
#
# Compressibility (1/GPa) = 0.03462351
#
# Stress axis : x y z
#
# Youngs Moduli (GPa) = 16.30501 20.97482 44.35092
#
# Poissons Ratio (x) = 0.95817 -0.50594
# Poissons Ratio (y) = 0.74484 0.62940
# Poissons Ratio (z) = -0.18600 0.29766
#
# Static dielectric constant tensor:
#      x y z
#    x 1.780830 0.000000 0.023520 
#    y 0.000000 1.715500 0.000000 
#    z 0.023520 0.000000 1.824130 
# 
# From -- ./inp_files/88560.got.cif
#   From: 2010.05.17/outbox.cif.g08.bks.cpg/sg10_45_cif.got.tgz:88560.got - 2010.06.03 11:33:40.
