data_PCOD9144224
_publ_section_title
;
Structure prediction by ZEFSAII (Michael W. Deem and Ramdas Pophale) SiO2 
 PCOD9144224
Probable space group: P 2/M
;
_chemical_formula_sum "Si O2"
_cell_formula_units_Z 32
_cell_length_a 19.948985
_cell_length_b 14.579452
_cell_length_c 17.918186
_cell_angle_alpha 90.000000
_cell_angle_beta 21.277834
_cell_angle_gamma 90.000000
_cell_volume 1891.176032
_symmetry_space_group_name_H-M "P 2/M"
_symmetry_group_IT_number 10
_symmetry_cell_setting 'monoclinic'
loop_
_space_group_symop_operation_xyz
x,y,z
-x,y,-z
-x,-y,-z
x,-y,z
loop_
_atom_site_type_symbol
_atom_site_label
_atom_site_fract_x
_atom_site_fract_y
_atom_site_fract_z
Si Si1 0.239918 0.390541 0.326508
Si Si2 0.423214 0.108696 0.162356
Si Si3 0.079517 0.894861 0.598831
Si Si4 0.652775 0.827557 0.550922
Si Si5 0.766259 0.109843 0.026387
Si Si6 0.497527 0.718636 0.172421
Si Si7 0.048611 0.110183 0.864090
Si Si8 0.189586 0.608990 0.206571
O O1 0.275453 0.500000 0.294626
O O2 0.375405 0.335801 0.238995
O O3 0.252311 0.365709 0.226095
O O4 0.028614 0.373943 0.570293
O O5 0.206578 0.137003 0.398015
O O6 0.527694 0.179012 0.107934
O O7 0.440699 0.000000 0.163596
O O8 0.500000 0.119858 0.000000
O O9 0.226130 0.887557 0.515575
O O10 0.036442 0.000000 0.626089
O O11 0.893521 0.852666 0.825908
O O12 0.445399 0.861548 0.752764
O O13 0.617883 0.732983 0.632005
O O14 0.775402 0.834473 0.349841
O O15 0.877363 0.132097 0.986891
O O16 0.769559 0.000000 0.016546
O O17 0.688033 0.664519 0.978527
O O18 0.086431 0.000000 0.818257
O O19 0.000000 0.129148 0.000000
O O20 0.218234 0.500000 0.168893
#
# Coordination Sequence:
#
# PCOD9144224 Si02
#       8
#     4   4   4   4   4   4   4   4
#     4   9  18  33  52  73  97 123 155 203 257 299
#     4   9  17  28  41  58  84 123 169 209 237 261
#     4   8  15  27  41  56  77 111 155 198 234 268
#     4  10  19  28  41  65  93 120 150 185 229 284
#     4   9  16  28  46  63  84 117 153 194 242 283
#     4  11  20  29  47  68  93 129 161 193 238 291
#     4   9  18  32  49  68  89 118 161 207 244 281
#     4   9  18  32  51  75  97 119 156 205 254 302
#
# _framework density 16.920687999999998
#
# number of rings (size 3 to 8) (size 9 to 14) (size 15 to 20)
#    0.000    2.750    0.000    4.125    0.000    5.500 
#    0.000    1.875    0.000    3.000    0.000   18.375 
#    0.000    2.000    0.000    8.500    0.000    0.750 
#
# Total GULP energy -178184.582829 kJ/mol
# GULP energy per Si atom -5568.268213 kJ/mol
# Density = 1.688218 g / cm^3
# Si number density = 16.920688 Si / 1000 Ang^3
#
#
#
# Elastic Constant Matrix: (Units=GPa)
#
#
# Indices 1 2 3 4 5 6 
#
# 1 48.4564 12.7905 51.9908 0.0000 0.1055 0.0000
# 2 12.7905 32.6357 30.1084 0.0000 0.1352 0.0000
# 3 51.9908 30.1084 137.0262 0.0000 7.0150 0.0000
# 4 0.0000 0.0000 0.0000 23.4595 0.0000 -0.2885
# 5 0.1055 0.1352 7.0150 0.0000 28.5290 0.0000
# 6 0.0000 0.0000 0.0000 -0.2885 0.0000 14.0680
#
#
#
# Elastic Compliance Matrix: (Units=1/GPa)
#
#
# Indices 1 2 3 4 5 6 
#
# 1 0.035163 -0.001679 -0.013132 0.000000 0.003107 0.000000
# 2 -0.001679 0.038616 -0.007939 0.000000 0.001775 0.000000
# 3 -0.013132 -0.007939 0.014199 0.000000 -0.003405 0.000000
# 4 0.000000 0.000000 0.000000 0.042637 0.000000 0.000874
# 5 0.003107 0.001775 -0.003405 0.000000 0.035869 0.000000
# 6 0.000000 0.000000 0.000000 0.000874 0.000000 0.071101
#
#
# Mechanical properties :
#
#
# Convention : Reuss Voigt Hill
#
# Bulk Modulus (GPa) = 23.54111 45.32196 34.43154
# Shear Modulus (GPa) = 16.82112 21.42655 19.12383
#
# Velocity S-wave (km/s) = 3.15638 3.56236 3.36550
# Velocity P-wave (km/s) = 5.21790 6.61541 5.95777
#
# Compressibility (1/GPa) = 0.04247888
#
# Stress axis : x y z
#
# Youngs Moduli (GPa) = 28.43886 25.89598 70.42714
#
# Poissons Ratio (x) = 0.04348 0.92483
# Poissons Ratio (y) = 0.04775 0.55911
# Poissons Ratio (z) = 0.37345 0.20558
#
# Static dielectric constant tensor:
#      x y z
#    x 1.587960 0.000000 0.002360 
#    y 0.000000 1.592840 0.000000 
#    z 0.002360 0.000000 1.634400 
# 
# From -- ./inp_files/79725.got.cif
#   From: 2010.05.17/outbox.cif.g08.bks.cpg/sg10_40_cif.got.tgz:79725.got - 2010.06.03 11:33:40.
