data_PCOD9144511
_publ_section_title
;
Structure prediction by ZEFSAII (Michael W. Deem and Ramdas Pophale) SiO2 
 PCOD9144511
Probable space group: P 2/M
;
_chemical_formula_sum "Si O2"
_cell_formula_units_Z 24
_cell_length_a 14.496293
_cell_length_b 9.955929
_cell_length_c 19.248986
_cell_angle_alpha 90.000000
_cell_angle_beta 24.432298
_cell_angle_gamma 90.000000
_cell_volume 1149.068038
_symmetry_space_group_name_H-M "P 2/M"
_symmetry_group_IT_number 10
_symmetry_cell_setting 'monoclinic'
loop_
_space_group_symop_operation_xyz
x,y,z
-x,y,-z
-x,-y,-z
x,-y,z
loop_
_atom_site_type_symbol
_atom_site_label
_atom_site_fract_x
_atom_site_fract_y
_atom_site_fract_z
Si Si1 0.760050 0.346964 0.177666
Si Si2 0.572357 0.349832 0.150277
Si Si3 0.924634 0.848368 0.844169
Si Si4 0.256837 0.150407 0.186017
Si Si5 0.299128 0.343756 0.550286
Si Si6 0.902467 0.651548 0.469061
O O1 0.804701 0.500000 0.172571
O O2 0.657564 0.356154 0.171111
O O3 0.555871 0.296503 0.365208
O O4 0.000000 0.278805 0.000000
O O5 0.607895 0.500000 0.095210
O O6 0.310225 0.321874 0.336654
O O7 0.716008 0.234616 0.016618
O O8 0.872493 0.861384 0.798225
O O9 0.143214 0.754980 0.701300
O O10 0.946759 0.000000 0.857295
O O11 0.101967 0.244321 0.337900
O O12 0.290065 0.000000 0.192339
O O13 0.500000 0.206978 0.000000
O O14 0.295123 0.500000 0.576616
O O15 0.193359 0.345335 0.544686
O O16 0.981623 0.500000 0.427077
#
# Coordination Sequence:
#
# PCOD9144511 Si02
#       6
#     4   4   4   4   4   4
#     4   8  14  27  49  73  91 112 149 190 222 257
#     4   9  17  30  48  69  93 118 146 184 224 261
#     4  10  19  30  46  67  90 118 151 183 218 266
#     4   9  18  32  48  66  88 115 149 187 223 260
#     4   8  14  27  47  67  88 115 147 184 221 258
#     4   8  15  28  46  67  88 114 148 181 218 265
#
# _framework density 20.886490999999999
#
# number of rings (size 3 to 8) (size 9 to 14) (size 15 to 20)
#    0.000    3.333    0.000    2.500    0.000    1.667 
#    0.000    4.167    0.000   12.000    0.000    0.000 
#    0.000    0.000    0.000    0.000    0.000    0.000 
#
# Total GULP energy -133736.632766 kJ/mol
# GULP energy per Si atom -5572.359699 kJ/mol
# Density = 2.083895 g / cm^3
# Si number density = 20.886491 Si / 1000 Ang^3
#
#
#
# Elastic Constant Matrix: (Units=GPa)
#
#
# Indices 1 2 3 4 5 6 
#
# 1 37.5826 7.6587 -5.0201 0.0000 -7.3806 0.0000
# 2 7.6587 134.7657 117.2326 0.0000 9.4133 0.0000
# 3 -5.0201 117.2326 166.0804 0.0000 -7.5139 0.0000
# 4 0.0000 0.0000 0.0000 144.3106 0.0000 4.6058
# 5 -7.3806 9.4133 -7.5139 0.0000 22.8600 0.0000
# 6 0.0000 0.0000 0.0000 4.6058 0.0000 4.6926
#
#
#
# Elastic Compliance Matrix: (Units=1/GPa)
#
#
# Indices 1 2 3 4 5 6 
#
# 1 0.034855 -0.013297 0.011366 0.000000 0.020464 0.000000
# 2 -0.013297 0.028660 -0.021683 0.000000 -0.023222 0.000000
# 3 0.011366 -0.021683 0.022576 0.000000 0.020019 0.000000
# 4 0.000000 0.000000 0.000000 0.007154 0.000000 -0.007021
# 5 0.020464 -0.023222 0.020019 0.000000 0.066494 0.000000
# 6 0.000000 0.000000 0.000000 -0.007021 0.000000 0.219994
#
#
# Mechanical properties :
#
#
# Convention : Reuss Voigt Hill
#
# Bulk Modulus (GPa) = 25.73228 64.24123 44.98675
# Shear Modulus (GPa) = 11.36581 48.94314 30.15447
#
# Velocity S-wave (km/s) = 2.33528 4.84601 3.80377
# Velocity P-wave (km/s) = 4.42924 7.88263 6.39351
#
# Compressibility (1/GPa) = 0.03886169
#
# Stress axis : x y z
#
# Youngs Moduli (GPa) = 28.69042 34.89169 44.29470
#
# Poissons Ratio (x) = 0.46396 -0.50344
# Poissons Ratio (y) = 0.38150 0.96045
# Poissons Ratio (z) = -0.32608 0.75656
#
# Static dielectric constant tensor:
#      x y z
#    x 1.811930 0.000000 0.000510 
#    y 0.000000 1.753650 0.000000 
#    z 0.000510 0.000000 1.767670 
# 
# From -- ./inp_files/31189.got.cif
#   From: 2010.05.17/outbox.cif.g08.bks.cpg/sg10_16_cif.got.tgz:31189.got - 2010.06.03 11:33:40.
