data_PCOD9144124
_publ_section_title
;
Structure prediction by ZEFSAII (Michael W. Deem and Ramdas Pophale) SiO2 
 PCOD9144124
Probable space group: P 2/M
;
_chemical_formula_sum "Si O2"
_cell_formula_units_Z 20
_cell_length_a 9.534062
_cell_length_b 15.629364
_cell_length_c 10.041364
_cell_angle_alpha 90.000000
_cell_angle_beta 41.229690
_cell_angle_gamma 90.000000
_cell_volume 986.165117
_symmetry_space_group_name_H-M "P 2/M"
_symmetry_group_IT_number 10
_symmetry_cell_setting 'monoclinic'
loop_
_space_group_symop_operation_xyz
x,y,z
-x,y,-z
-x,-y,-z
x,-y,z
loop_
_atom_site_type_symbol
_atom_site_label
_atom_site_fract_x
_atom_site_fract_y
_atom_site_fract_z
Si Si1 0.868725 0.401473 0.455001
Si Si2 0.307905 0.872449 0.235065
Si Si3 0.107421 0.906968 0.641547
Si Si4 0.045359 0.265166 0.119927
Si Si5 0.477366 0.308857 0.159086
O O1 0.878268 0.500000 0.406321
O O2 0.629640 0.370897 0.659300
O O3 0.000000 0.393581 0.500000
O O4 0.961725 0.337618 0.279550
O O5 0.296620 0.901990 0.396551
O O6 0.316940 0.769755 0.244124
O O7 0.100843 0.901834 0.303774
O O8 0.500000 0.897087 0.000000
O O9 0.073048 0.824116 0.758022
O O10 0.116276 0.000000 0.702561
O O11 0.301275 0.265409 0.956341
O O12 0.000000 0.285931 0.000000
O O13 0.500000 0.354509 0.000000
#
# Coordination Sequence:
#
# PCOD9144124 Si02
#       5
#     4   4   4   4   4
#     4  11  23  42  72 101 127 161 214 267 314 381
#     4  10  18  35  62  92 121 157 211 269 313 360
#     4  11  22  36  60  93 128 167 214 263 317 378
#     4  12  26  44  63  92 136 174 208 263 325 375
#     4  11  20  39  69  92 124 170 213 258 311 387
#
# _framework density 20.280581000000002
#
# number of rings (size 3 to 8) (size 9 to 14) (size 15 to 20)
#    0.000    1.000    8.000    1.200    0.000    4.400 
#    0.000    1.000    0.000    1.200    0.000    0.000 
#    0.000    0.000    0.000    0.000    0.000    0.000 
#
# Total GULP energy -111573.514848 kJ/mol
# GULP energy per Si atom -5578.675742 kJ/mol
# Density = 2.023442 g / cm^3
# Si number density = 20.280581 Si / 1000 Ang^3
#
#
#
# Elastic Constant Matrix: (Units=GPa)
#
#
# Indices 1 2 3 4 5 6 
#
# 1 38.3751 16.2786 18.7839 0.0000 14.4993 0.0000
# 2 16.2786 164.6893 58.5389 0.0000 11.1951 0.0000
# 3 18.7839 58.5389 105.9310 0.0000 1.9590 0.0000
# 4 0.0000 0.0000 0.0000 6.9402 0.0000 -16.5550
# 5 14.4993 11.1951 1.9590 0.0000 27.8153 0.0000
# 6 0.0000 0.0000 0.0000 -16.5550 0.0000 24.6384
#
#
#
# Elastic Compliance Matrix: (Units=1/GPa)
#
#
# Indices 1 2 3 4 5 6 
#
# 1 0.035932 -0.000208 -0.005919 0.000000 -0.018230 0.000000
# 2 -0.000208 0.007774 -0.004209 0.000000 -0.002724 0.000000
# 3 -0.005919 -0.004209 0.012744 0.000000 0.003882 0.000000
# 4 0.000000 0.000000 0.000000 -0.239042 0.000000 -0.160617
# 5 -0.018230 -0.002724 0.003882 0.000000 0.046277 0.000000
# 6 0.000000 0.000000 0.000000 -0.160617 0.000000 -0.067334
#
#
# Mechanical properties :
#
#
# Convention : Reuss Voigt Hill
#
# Bulk Modulus (GPa) = 27.95097 55.13313 41.54205
# Shear Modulus (GPa) = -29.23081 26.23837 -1.49622
#
# Velocity S-wave (km/s) = -3.80059 3.60080 -0.85986
# Velocity P-wave (km/s) = 2.33394 6.67322 4.42067
#
# Compressibility (1/GPa) = 0.03577693
#
# Stress axis : x y z
#
# Youngs Moduli (GPa) = 27.83028 128.63856 78.47059
#
# Poissons Ratio (x) = 0.02682 0.46449
# Poissons Ratio (y) = 0.00580 0.33025
# Poissons Ratio (z) = 0.16473 0.54138
#
# Static dielectric constant tensor:
#      x y z
#    x 1.729740 0.000000 -0.024890 
#    y 0.000000 1.754680 0.000000 
#    z -0.024890 0.000000 1.786600 
# 
# From -- ./inp_files/19528.got.cif
#   From: 2010.05.17/outbox.cif.g08.bks.cpg/sg10_10_cif.got.tgz:19528.got - 2010.06.03 11:33:40.
