data_PCOD9144522
_publ_section_title
;
Structure prediction by ZEFSAII (Michael W. Deem and Ramdas Pophale) SiO2 
 PCOD9144522
Probable space group: P 2/M
;
_chemical_formula_sum "Si O2"
_cell_formula_units_Z 32
_cell_length_a 12.178081
_cell_length_b 8.897615
_cell_length_c 17.510559
_cell_angle_alpha 90.000000
_cell_angle_beta 95.651336
_cell_angle_gamma 90.000000
_cell_volume 1888.149915
_symmetry_space_group_name_H-M "P 2/M"
_symmetry_group_IT_number 10
_symmetry_cell_setting 'monoclinic'
loop_
_space_group_symop_operation_xyz
x,y,z
-x,y,-z
-x,-y,-z
x,-y,z
loop_
_atom_site_type_symbol
_atom_site_label
_atom_site_fract_x
_atom_site_fract_y
_atom_site_fract_z
Si Si1 0.259029 0.320657 0.410948
Si Si2 0.135182 0.819086 0.713085
Si Si3 0.522257 0.319931 0.916083
Si Si4 0.705781 0.679375 0.817856
Si Si5 0.437806 0.821823 0.325942
Si Si6 0.092300 0.678833 0.260136
Si Si7 0.123466 0.181071 0.535591
Si Si8 0.623323 0.818432 0.228705
O O1 0.263267 0.500000 0.414547
O O2 0.377755 0.258595 0.392239
O O3 0.169185 0.279118 0.338487
O O4 0.212992 0.252899 0.485796
O O5 0.136350 0.772807 0.624256
O O6 0.249846 0.770349 0.758853
O O7 0.024427 0.758393 0.743513
O O8 0.132015 0.000000 0.714207
O O9 0.506039 0.500000 0.914266
O O10 0.647038 0.291827 0.894352
O O11 0.440983 0.249970 0.847557
O O12 0.500000 0.264501 0.000000
O O13 0.690745 0.500000 0.799524
O O14 0.637567 0.774872 0.751616
O O15 0.833262 0.712233 0.809442
O O16 0.559009 0.777986 0.303276
O O17 0.435199 0.000000 0.338215
O O18 0.075335 0.500000 0.262902
O O19 0.000000 0.222900 0.500000
O O20 0.132616 0.000000 0.531378
O O21 0.618030 0.000000 0.223180
#
# Coordination Sequence:
#
# PCOD9144522 Si02
#       8
#     4   4   4   4   4   4   4   4
#     4  10  19  30  46  68  94 122 157 204 250 285
#     4  10  20  33  48  67  95 127 161 200 241 285
#     4   9  17  31  54  80 102 125 154 191 234 280
#     4   8  15  28  45  70 100 123 150 192 236 277
#     4   9  16  28  47  67  89 120 159 196 235 284
#     4   9  17  28  44  67  93 123 157 194 236 280
#     4  10  19  31  47  68  92 123 164 207 247 284
#     4   9  19  34  50  71  98 128 158 193 237 285
#
# _framework density 16.947807000000001
#
# number of rings (size 3 to 8) (size 9 to 14) (size 15 to 20)
#    0.000    2.750    1.250    1.500    0.000    4.000 
#    0.000    0.625    0.000    4.500    0.000    5.250 
#    0.000    0.000    0.000    0.000    0.000    0.000 
#
# Total GULP energy -178217.221704 kJ/mol
# GULP energy per Si atom -5569.288178 kJ/mol
# Density = 1.690923 g / cm^3
# Si number density = 16.947807 Si / 1000 Ang^3
#
#
#
# Elastic Constant Matrix: (Units=GPa)
#
#
# Indices 1 2 3 4 5 6 
#
# 1 128.0851 29.8804 56.9725 0.0000 -23.0857 0.0000
# 2 29.8804 13.7536 18.6215 0.0000 -8.1693 0.0000
# 3 56.9725 18.6215 82.1140 0.0000 -24.9796 0.0000
# 4 0.0000 0.0000 0.0000 13.3683 0.0000 -6.5682
# 5 -23.0857 -8.1693 -24.9796 0.0000 25.6134 0.0000
# 6 0.0000 0.0000 0.0000 -6.5682 0.0000 23.6618
#
#
#
# Elastic Compliance Matrix: (Units=1/GPa)
#
#
# Indices 1 2 3 4 5 6 
#
# 1 0.017159 -0.030199 -0.004667 0.000000 0.001283 0.000000
# 2 -0.030199 0.162049 -0.011877 0.000000 0.012883 0.000000
# 3 -0.004667 -0.011877 0.022291 0.000000 0.013745 0.000000
# 4 0.000000 0.000000 0.000000 0.086617 0.000000 0.024044
# 5 0.001283 0.012883 0.013745 0.000000 0.057712 0.000000
# 6 0.000000 0.000000 0.000000 0.024044 0.000000 0.048937
#
#
# Mechanical properties :
#
#
# Convention : Reuss Voigt Hill
#
# Bulk Modulus (GPa) = 9.25809 48.32238 28.79024
# Shear Modulus (GPa) = 9.53733 20.42724 14.98229
#
# Velocity S-wave (km/s) = 2.37480 3.47551 2.97648
# Velocity P-wave (km/s) = 3.60474 6.68431 5.37001
#
# Compressibility (1/GPa) = 0.10801368
#
# Stress axis : x y z
#
# Youngs Moduli (GPa) = 58.27760 6.17097 44.86119
#
# Poissons Ratio (x) = 0.18635 0.20937
# Poissons Ratio (y) = 1.75990 0.53283
# Poissons Ratio (z) = 0.27198 0.07329
#
# Static dielectric constant tensor:
#      x y z
#    x 1.593350 0.000000 -0.027090 
#    y 0.000000 1.573180 0.000000 
#    z -0.027090 0.000000 1.566080 
# 
# From -- ./inp_files/52721.got.cif
#   From: 2010.05.17/outbox.cif.g08.bks.cpg/sg10_27_cif.got.tgz:52721.got - 2010.06.03 11:33:40.
