data_PCOD9144993
_publ_section_title
;
Structure prediction by ZEFSAII (Michael W. Deem and Ramdas Pophale) SiO2 
 PCOD9144993
Probable space group: P 2/M
;
_chemical_formula_sum "Si O2"
_cell_formula_units_Z 24
_cell_length_a 19.349326
_cell_length_b 9.129226
_cell_length_c 25.356299
_cell_angle_alpha 90.000000
_cell_angle_beta 18.846980
_cell_angle_gamma 90.000000
_cell_volume 1446.919542
_symmetry_space_group_name_H-M "P 2/M"
_symmetry_group_IT_number 10
_symmetry_cell_setting 'monoclinic'
loop_
_space_group_symop_operation_xyz
x,y,z
-x,y,-z
-x,-y,-z
x,-y,z
loop_
_atom_site_type_symbol
_atom_site_label
_atom_site_fract_x
_atom_site_fract_y
_atom_site_fract_z
Si Si1 0.691932 0.675037 0.321549
Si Si2 0.633377 0.676662 0.851944
Si Si3 0.741717 0.167923 0.179282
Si Si4 0.506588 0.174534 0.834660
Si Si5 0.091216 0.667437 0.494134
Si Si6 0.144801 0.176723 0.015875
O O1 0.500000 0.712890 0.500000
O O2 0.714402 0.500000 0.303692
O O3 0.650442 0.735500 0.292466
O O4 0.915114 0.746489 0.179352
O O5 0.629705 0.500000 0.847332
O O6 0.537091 0.750472 0.869327
O O7 0.884102 0.717740 0.676359
O O8 0.500000 0.714125 0.000000
O O9 0.667303 0.000000 0.238437
O O10 0.720347 0.217900 0.134247
O O11 0.000000 0.167510 0.000000
O O12 0.702038 0.231639 0.657229
O O13 0.520674 0.000000 0.829891
O O14 0.284934 0.211775 0.965803
O O15 0.148124 0.500000 0.467000
O O16 0.000000 0.665061 0.500000
O O17 0.114458 0.000000 0.034799
#
# Coordination Sequence:
#
# PCOD9144993 Si02
#       6
#     4   4   4   4   4   4
#     4  10  20  32  48  73 100 124 156 197 237 280
#     4   9  18  33  51  70  96 130 163 194 233 285
#     4   8  15  30  50  68  89 121 158 190 226 278
#     4  10  19  31  49  73  98 122 156 202 242 278
#     4   8  15  29  48  68  90 121 159 190 226 281
#     4   9  19  34  50  70  95 125 160 196 238 286
#
# _framework density 16.586960999999999
#
# number of rings (size 3 to 8) (size 9 to 14) (size 15 to 20)
#    0.000    3.000    0.000    3.000    0.000    9.000 
#    0.000    1.667    0.000    8.000    0.000    0.000 
#    0.000    0.000    0.000    0.000    0.000    0.000 
#
# Total GULP energy -133634.320401 kJ/mol
# GULP energy per Si atom -5568.096683 kJ/mol
# Density = 1.654921 g / cm^3
# Si number density = 16.586961 Si / 1000 Ang^3
#
#
#
# Elastic Constant Matrix: (Units=GPa)
#
#
# Indices 1 2 3 4 5 6 
#
# 1 84.5430 40.0639 56.5696 0.0000 6.4691 0.0000
# 2 40.0639 44.8264 47.2311 0.0000 5.1748 0.0000
# 3 56.5696 47.2311 114.2133 0.0000 21.2107 0.0000
# 4 0.0000 0.0000 0.0000 -5.1992 0.0000 1.0079
# 5 6.4691 5.1748 21.2107 0.0000 25.8334 0.0000
# 6 0.0000 0.0000 0.0000 1.0079 0.0000 10.2666
#
#
#
# Elastic Compliance Matrix: (Units=1/GPa)
#
#
# Indices 1 2 3 4 5 6 
#
# 1 0.022023 -0.014270 -0.005325 0.000000 0.001716 0.000000
# 2 -0.014270 0.049726 -0.014524 0.000000 0.005537 0.000000
# 3 -0.005325 -0.014524 0.019600 0.000000 -0.011850 0.000000
# 4 0.000000 0.000000 0.000000 -0.188745 0.000000 0.018529
# 5 0.001716 0.005537 -0.011850 0.000000 0.046900 0.000000
# 6 0.000000 0.000000 0.000000 0.018529 0.000000 0.095585
#
#
# Mechanical properties :
#
#
# Convention : Reuss Voigt Hill
#
# Bulk Modulus (GPa) = 43.27109 59.03467 51.15288
# Shear Modulus (GPa) = 41.31216 12.82802 27.07009
#
# Velocity S-wave (km/s) = 4.99605 2.78399 4.04420
# Velocity P-wave (km/s) = 7.70874 6.78251 7.26041
#
# Compressibility (1/GPa) = 0.02311012
#
# Stress axis : x y z
#
# Youngs Moduli (GPa) = 45.40777 20.11028 51.02065
#
# Poissons Ratio (x) = 0.28697 0.27170
# Poissons Ratio (y) = 0.64797 0.74101
# Poissons Ratio (z) = 0.24181 0.29208
#
# Static dielectric constant tensor:
#      x y z
#    x 1.572220 0.000000 0.010410 
#    y 0.000000 1.554980 0.000000 
#    z 0.010410 0.000000 1.565090 
# 
# From -- ./inp_files/33437.got.cif
#   From: 2010.05.17/outbox.cif.g08.bks.cpg/sg10_17_cif.got.tgz:33437.got - 2010.06.03 11:33:40.
