data_PCOD9144723
_publ_section_title
;
Structure prediction by ZEFSAII (Michael W. Deem and Ramdas Pophale) SiO2 
 PCOD9144723
Probable space group: P 2/M
;
_chemical_formula_sum "Si O2"
_cell_formula_units_Z 32
_cell_length_a 32.564657
_cell_length_b 7.524136
_cell_length_c 12.433840
_cell_angle_alpha 90.000000
_cell_angle_beta 29.985048
_cell_angle_gamma 90.000000
_cell_volume 1522.586813
_symmetry_space_group_name_H-M "P 2/M"
_symmetry_group_IT_number 10
_symmetry_cell_setting 'monoclinic'
loop_
_space_group_symop_operation_xyz
x,y,z
-x,y,-z
-x,-y,-z
x,-y,z
loop_
_atom_site_type_symbol
_atom_site_label
_atom_site_fract_x
_atom_site_fract_y
_atom_site_fract_z
Si Si1 0.906130 0.282112 0.200398
Si Si2 0.581144 0.716408 0.679648
Si Si3 0.246583 0.292097 0.323488
Si Si4 0.132590 0.707483 0.947192
Si Si5 0.270124 0.285294 0.800343
Si Si6 0.211191 0.791419 0.171242
Si Si7 0.973277 0.215324 0.440948
Si Si8 0.604277 0.282717 0.871159
O O1 0.909812 0.500000 0.191332
O O2 0.842642 0.223153 0.436495
O O3 0.869448 0.221473 0.169013
O O4 0.000000 0.221475 0.000000
O O5 0.580710 0.500000 0.679242
O O6 0.644031 0.775524 0.445577
O O7 0.612846 0.768289 0.726557
O O8 0.486574 0.773825 0.884753
O O9 0.244680 0.500000 0.355368
O O10 0.256648 0.278449 0.173231
O O11 0.322062 0.217310 0.221154
O O12 0.154204 0.500000 0.887180
O O13 0.041526 0.722929 0.202362
O O14 0.196709 0.781585 0.888893
O O15 0.268817 0.500000 0.800635
O O16 0.254041 0.235838 0.959644
O O17 0.118223 0.718140 0.375453
O O18 0.203390 0.000000 0.206392
O O19 0.000000 0.271716 0.500000
O O20 0.973178 0.000000 0.440124
O O21 0.603832 0.500000 0.874078
#
# Coordination Sequence:
#
# PCOD9144723 Si02
#       8
#     4   4   4   4   4   4   4   4
#     4   9  17  29  46  72 104 130 154 197 252 297
#     4   8  14  27  50  81 111 130 155 201 254 302
#     4  10  19  33  54  76 101 134 172 206 245 297
#     4  10  19  30  50  78 102 126 162 207 253 297
#     4  10  19  31  50  77 103 127 163 209 251 294
#     4  11  23  37  51  68  98 137 174 210 251 296
#     4  10  20  35  50  66  94 134 173 207 246 293
#     4   8  14  27  51  81 107 132 160 199 251 301
#
# _framework density 21.016864000000002
#
# number of rings (size 3 to 8) (size 9 to 14) (size 15 to 20)
#    0.000    2.500    1.250    2.625    0.000    5.250 
#    0.000    1.250    0.000    9.000    0.000    1.750 
#    0.000    0.000    0.000    0.000    0.000    0.000 
#
# Total GULP energy -178678.105679 kJ/mol
# GULP energy per Si atom -5583.690802 kJ/mol
# Density = 2.096903 g / cm^3
# Si number density = 21.016864 Si / 1000 Ang^3
#
#
#
# Elastic Constant Matrix: (Units=GPa)
#
#
# Indices 1 2 3 4 5 6 
#
# 1 140.0395 -0.8332 71.3484 0.0000 -5.2559 0.0000
# 2 -0.8332 48.8942 -8.5246 0.0000 -7.5519 0.0000
# 3 71.3484 -8.5246 127.9798 0.0000 2.6850 0.0000
# 4 0.0000 0.0000 0.0000 56.1117 0.0000 52.2037
# 5 -5.2559 -7.5519 2.6850 0.0000 31.8318 0.0000
# 6 0.0000 0.0000 0.0000 52.2037 0.0000 42.1677
#
#
#
# Elastic Compliance Matrix: (Units=1/GPa)
#
#
# Indices 1 2 3 4 5 6 
#
# 1 0.010131 -0.000511 -0.005725 0.000000 0.002034 0.000000
# 2 -0.000511 0.021478 0.001613 0.000000 0.004875 0.000000
# 3 -0.005725 0.001613 0.011144 0.000000 -0.001502 0.000000
# 4 0.000000 0.000000 0.000000 -0.117419 0.000000 0.145365
# 5 0.002034 0.004875 -0.001502 0.000000 0.033034 0.000000
# 6 0.000000 0.000000 0.000000 0.145365 0.000000 -0.156247
#
#
# Mechanical properties :
#
#
# Convention : Reuss Voigt Hill
#
# Bulk Modulus (GPa) = 29.84377 48.98829 39.41603
# Shear Modulus (GPa) = -28.17466 43.01712 7.42123
#
# Velocity S-wave (km/s) = -3.66536 4.52906 1.88116
# Velocity P-wave (km/s) = 1.91895 7.12106 4.84907
#
# Compressibility (1/GPa) = 0.03350783
#
# Stress axis : x y z
#
# Youngs Moduli (GPa) = 98.70921 46.55960 89.73299
#
# Poissons Ratio (x) = 0.02380 0.51369
# Poissons Ratio (y) = 0.05046 -0.14477
# Poissons Ratio (z) = 0.56507 -0.07512
#
# Static dielectric constant tensor:
#      x y z
#    x 1.742400 0.000000 -0.013120 
#    y 0.000000 1.788840 0.000000 
#    z -0.013120 0.000000 1.737010 
# 
# From -- ./inp_files/58098.got.cif
#   From: 2010.05.17/outbox.cif.g08.bks.cpg/sg10_30_cif.got.tgz:58098.got - 2010.06.03 11:33:40.
