data_PCOD9144822
_publ_section_title
;
Structure prediction by ZEFSAII (Michael W. Deem and Ramdas Pophale) SiO2 
 PCOD9144822
Probable space group: P 2/M
;
_chemical_formula_sum "Si O2"
_cell_formula_units_Z 32
_cell_length_a 21.573964
_cell_length_b 7.407553
_cell_length_c 19.483120
_cell_angle_alpha 90.000000
_cell_angle_beta 158.071651
_cell_angle_gamma 90.000000
_cell_volume 1162.765084
_symmetry_space_group_name_H-M "P 2/M"
_symmetry_group_IT_number 10
_symmetry_cell_setting 'monoclinic'
loop_
_space_group_symop_operation_xyz
x,y,z
-x,y,-z
-x,-y,-z
x,-y,z
loop_
_atom_site_type_symbol
_atom_site_label
_atom_site_fract_x
_atom_site_fract_y
_atom_site_fract_z
Si Si1 0.609399 0.208812 0.309007
Si Si2 0.846139 0.716657 0.389515
Si Si3 0.367133 0.786333 0.951494
Si Si4 0.294468 0.718047 0.081189
Si Si5 0.049583 0.707964 0.719329
Si Si6 0.873677 0.208990 0.959283
Si Si7 0.655869 0.220328 0.616774
Si Si8 0.194683 0.220869 0.366569
O O1 0.452724 0.217074 0.201100
O O2 0.755486 0.286819 0.506782
O O3 0.646196 0.000000 0.334682
O O4 0.531003 0.288893 0.158435
O O5 0.853807 0.500000 0.399860
O O6 0.681017 0.762720 0.177617
O O7 0.000000 0.781461 0.500000
O O8 0.896320 0.783574 0.517027
O O9 0.208174 0.711175 0.829822
O O10 0.370209 0.000000 0.966332
O O11 0.295115 0.500000 0.080353
O O12 0.131246 0.788448 0.871482
O O13 0.277674 0.781938 0.141814
O O14 0.014550 0.500000 0.696917
O O15 0.025759 0.288497 0.158274
O O16 0.917428 0.000000 0.992827
O O17 0.813487 0.279624 0.824514
O O18 0.500000 0.283863 0.500000
O O19 0.671368 0.273785 0.553931
O O20 0.654636 0.000000 0.616415
O O21 0.191445 0.000000 0.367160
#
# Coordination Sequence:
#
# PCOD9144822 Si02
#       8
#     4   4   4   4   4   4   4   4
#     4   9  17  30  47  67  92 122 157 194 230 272
#     4   8  13  22  35  52  79 114 147 179 221 272
#     4   9  15  21  34  59  87 112 141 183 230 270
#     4  10  19  31  47  67  93 124 157 193 233 276
#     4   8  15  26  38  54  80 116 152 183 220 269
#     4  10  19  31  49  72  96 122 154 191 230 273
#     4   9  16  27  48  76  99 119 149 190 229 267
#     4   9  17  30  49  72  96 123 155 190 227 269
#
# _framework density 27.520606000000001
#
# number of rings (size 3 to 8) (size 9 to 14) (size 15 to 20)
#    0.000    3.000    0.000    2.625    0.000    6.750 
#    0.000    0.625    0.000    4.875    0.000    0.875 
#    0.000    7.000    0.000    0.000    0.000    0.000 
#
# Total GULP energy -178959.328191 kJ/mol
# GULP energy per Si atom -5592.479006 kJ/mol
# Density = 2.745797 g / cm^3
# Si number density = 27.520606 Si / 1000 Ang^3
#
#
#
# Elastic Constant Matrix: (Units=GPa)
#
#
# Indices 1 2 3 4 5 6 
#
# 1 128.3854 11.3237 41.2660 0.0000 -33.1303 0.0000
# 2 11.3237 126.4757 13.1450 0.0000 0.9959 0.0000
# 3 41.2660 13.1450 212.5935 0.0000 -34.2857 0.0000
# 4 0.0000 0.0000 0.0000 0.9085 0.0000 26.1453
# 5 -33.1303 0.9959 -34.2857 0.0000 61.0500 0.0000
# 6 0.0000 0.0000 0.0000 26.1453 0.0000 -7.8841
#
#
#
# Elastic Compliance Matrix: (Units=1/GPa)
#
#
# Indices 1 2 3 4 5 6 
#
# 1 0.009353 -0.000765 -0.001042 0.000000 0.004503 0.000000
# 2 -0.000765 0.008031 -0.000480 0.000000 -0.000815 0.000000
# 3 -0.001042 -0.000480 0.005328 0.000000 0.002435 0.000000
# 4 0.000000 0.000000 0.000000 0.011414 0.000000 0.037851
# 5 0.004503 -0.000815 0.002435 0.000000 0.020204 0.000000
# 6 0.000000 0.000000 0.000000 0.037851 0.000000 -0.001315
#
#
# Mechanical properties :
#
#
# Convention : Reuss Voigt Hill
#
# Bulk Modulus (GPa) = 55.12489 66.54709 60.83599
# Shear Modulus (GPa) = 78.57192 37.59622 58.08407
#
# Velocity S-wave (km/s) = 5.34904 3.70010 4.59907
# Velocity P-wave (km/s) = 7.63043 6.51826 7.09617
#
# Compressibility (1/GPa) = 0.01814063
#
# Stress axis : x y z
#
# Youngs Moduli (GPa) = 106.91201 124.51156 187.67340
#
# Poissons Ratio (x) = 0.09520 0.19557
# Poissons Ratio (y) = 0.08174 0.09002
# Poissons Ratio (z) = 0.11141 0.05972
#
# Static dielectric constant tensor:
#      x y z
#    x 2.147720 0.000000 0.058340 
#    y 0.000000 2.001130 0.000000 
#    z 0.058340 0.000000 2.233190 
# 
# From -- ./inp_files/87047.got.cif
#   From: 2010.05.17/outbox.cif.g08.bks.cpg/sg10_44_cif.got.tgz:87047.got - 2010.06.03 11:33:40.
