data_PCOD9144589
_publ_section_title
;
Structure prediction by ZEFSAII (Michael W. Deem and Ramdas Pophale) SiO2 
 PCOD9144589
Probable space group: P 2/M
;
_chemical_formula_sum "Si O2"
_cell_formula_units_Z 24
_cell_length_a 20.592445
_cell_length_b 9.626983
_cell_length_c 15.094829
_cell_angle_alpha 90.000000
_cell_angle_beta 156.874856
_cell_angle_gamma 90.000000
_cell_volume 1175.255438
_symmetry_space_group_name_H-M "P 2/M"
_symmetry_group_IT_number 10
_symmetry_cell_setting 'monoclinic'
loop_
_space_group_symop_operation_xyz
x,y,z
-x,y,-z
-x,-y,-z
x,-y,z
loop_
_atom_site_type_symbol
_atom_site_label
_atom_site_fract_x
_atom_site_fract_y
_atom_site_fract_z
Si Si1 0.522044 0.158163 0.136020
Si Si2 0.173553 0.839128 0.669953
Si Si3 0.809614 0.342369 0.774921
Si Si4 0.175317 0.334829 0.496302
Si Si5 0.192622 0.656769 0.016819
Si Si6 0.500393 0.159168 0.609191
O O1 0.664804 0.261283 0.345009
O O2 0.567893 0.000000 0.214196
O O3 0.500000 0.168301 0.000000
O O4 0.335278 0.185661 0.933070
O O5 0.172459 0.726645 0.591414
O O6 0.000000 0.830974 0.500000
O O7 0.190392 0.000000 0.657820
O O8 0.795127 0.500000 0.718926
O O9 0.784239 0.352835 0.848619
O O10 0.663342 0.239533 0.563027
O O11 0.000000 0.296507 0.000000
O O12 0.192704 0.500000 0.515366
O O13 0.996377 0.296534 0.233146
O O14 0.209555 0.500000 0.001259
O O15 0.333443 0.758010 0.157502
O O16 0.500000 0.156770 0.500000
O O17 0.502681 0.000000 0.642181
#
# Coordination Sequence:
#
# PCOD9144589 Si02
#       6
#     4   4   4   4   4   4
#     4   8  15  29  48  67  88 119 156 188 223 273
#     4   9  18  33  51  69  92 123 157 191 228 275
#     4   9  17  31  51  70  91 124 160 191 229 278
#     4  10  19  30  47  71  96 121 152 192 233 274
#     4   9  18  32  48  68  94 123 155 190 231 279
#     4   9  17  29  47  70  93 120 156 195 232 272
#
# _framework density 20.421092999999999
#
# number of rings (size 3 to 8) (size 9 to 14) (size 15 to 20)
#    0.000    3.000    0.000    2.000    0.000    7.000 
#    0.000    1.667    0.000    6.000    0.000    0.000 
#    0.000    0.000    0.000    0.000    0.000    0.000 
#
# Total GULP energy -133763.783075 kJ/mol
# GULP energy per Si atom -5573.490961 kJ/mol
# Density = 2.037461 g / cm^3
# Si number density = 20.421093 Si / 1000 Ang^3
#
#
#
# Elastic Constant Matrix: (Units=GPa)
#
#
# Indices 1 2 3 4 5 6 
#
# 1 36.4813 17.8077 22.1872 0.0000 16.7314 0.0000
# 2 17.8077 108.8370 106.3377 0.0000 27.2028 0.0000
# 3 22.1872 106.3377 173.9808 0.0000 49.5988 0.0000
# 4 0.0000 0.0000 0.0000 30.5065 0.0000 3.1070
# 5 16.7314 27.2028 49.5988 0.0000 38.3292 0.0000
# 6 0.0000 0.0000 0.0000 3.1070 0.0000 -7.5093
#
#
#
# Elastic Compliance Matrix: (Units=1/GPa)
#
#
# Indices 1 2 3 4 5 6 
#
# 1 0.035141 -0.004518 0.002756 0.000000 -0.015699 0.000000
# 2 -0.004518 0.023600 -0.015268 0.000000 0.004980 0.000000
# 3 0.002756 -0.015268 0.018986 0.000000 -0.014935 0.000000
# 4 0.000000 0.000000 0.000000 0.031454 0.000000 0.013014
# 5 -0.015699 0.004980 -0.014935 0.000000 0.048735 0.000000
# 6 0.000000 0.000000 0.000000 0.013014 0.000000 -0.127783
#
#
# Mechanical properties :
#
#
# Convention : Reuss Voigt Hill
#
# Bulk Modulus (GPa) = 22.90128 67.99602 45.44865
# Shear Modulus (GPa) = 63.49285 23.79636 43.64461
#
# Velocity S-wave (km/s) = 5.58205 3.41733 4.62804
# Velocity P-wave (km/s) = 7.26530 6.99572 7.13178
#
# Compressibility (1/GPa) = 0.04366568
#
# Stress axis : x y z
#
# Youngs Moduli (GPa) = 28.45688 42.37318 52.67068
#
# Poissons Ratio (x) = 0.19145 -0.14514
# Poissons Ratio (y) = 0.12858 0.80417
# Poissons Ratio (z) = -0.07842 0.64695
#
# Static dielectric constant tensor:
#      x y z
#    x 1.786840 0.000000 0.008660 
#    y 0.000000 1.705610 0.000000 
#    z 0.008660 0.000000 1.757350 
# 
# From -- ./inp_files/74201.got.cif
#   From: 2010.05.17/outbox.cif.g08.bks.cpg/sg10_38_cif.got.tgz:74201.got - 2010.06.03 11:33:40.
