data_PCOD9144278
_publ_section_title
;
Structure prediction by ZEFSAII (Michael W. Deem and Ramdas Pophale) SiO2 
 PCOD9144278
Probable space group: P 2/M
;
_chemical_formula_sum "Si O2"
_cell_formula_units_Z 24
_cell_length_a 5.015241
_cell_length_b 17.959947
_cell_length_c 17.186458
_cell_angle_alpha 90.000000
_cell_angle_beta 75.622913
_cell_angle_gamma 90.000000
_cell_volume 1499.562977
_symmetry_space_group_name_H-M "P 2/M"
_symmetry_group_IT_number 10
_symmetry_cell_setting 'monoclinic'
loop_
_space_group_symop_operation_xyz
x,y,z
-x,y,-z
-x,-y,-z
x,-y,z
loop_
_atom_site_type_symbol
_atom_site_label
_atom_site_fract_x
_atom_site_fract_y
_atom_site_fract_z
Si Si1 0.918714 0.702000 0.916016
Si Si2 0.311415 0.339302 0.280847
Si Si3 0.879354 0.412495 0.206434
Si Si4 0.302478 0.585104 0.442183
Si Si5 0.708402 0.914990 0.056939
Si Si6 0.523386 0.776380 0.157199
O O1 0.954266 0.619091 0.879828
O O2 0.166415 0.746753 0.857101
O O3 0.636854 0.737770 0.904499
O O4 0.000000 0.705041 0.000000
O O5 0.562278 0.387192 0.225410
O O6 0.327122 0.356464 0.370666
O O7 0.360702 0.256119 0.243632
O O8 0.026729 0.371727 0.268293
O O9 0.900232 0.500000 0.213001
O O10 0.500000 0.600422 0.500000
O O11 0.361003 0.500000 0.408713
O O12 0.000000 0.585322 0.500000
O O13 0.571115 0.862068 0.131356
O O14 0.754174 0.000000 0.080758
O O15 0.500000 0.916264 0.000000
O O16 0.000000 0.886630 0.000000
#
# Coordination Sequence:
#
# PCOD9144278 Si02
#       6
#     4   4   4   4   4   4
#     4  10  19  29  43  61  82 114 151 185 218 251
#     4  10  20  32  46  64  86 114 147 180 220 270
#     4  10  19  30  44  60  82 114 148 185 222 254
#     4  10  19  30  46  66  87 111 140 180 226 269
#     4  10  19  30  47  70  94 119 147 182 220 259
#     4  10  19  31  46  63  87 117 147 179 218 264
#
# _framework density 16.004663000000001
#
# number of rings (size 3 to 8) (size 9 to 14) (size 15 to 20)
#    0.000    2.000    0.000    5.500    0.000    1.667 
#    0.000    0.000    0.000    6.000    0.000    0.000 
#    0.000    1.333    0.000    0.000    0.000    4.000 
#
# Total GULP energy -133711.852521 kJ/mol
# GULP energy per Si atom -5571.327188 kJ/mol
# Density = 1.596824 g / cm^3
# Si number density = 16.004663 Si / 1000 Ang^3
#
#
#
# Elastic Constant Matrix: (Units=GPa)
#
#
# Indices 1 2 3 4 5 6 
#
# 1 83.3082 1.8392 4.9111 0.0000 9.6526 0.0000
# 2 1.8392 75.3982 38.2668 0.0000 -1.8724 0.0000
# 3 4.9111 38.2668 74.1576 0.0000 12.9407 0.0000
# 4 0.0000 0.0000 0.0000 9.5656 0.0000 -12.1210
# 5 9.6526 -1.8724 12.9407 0.0000 17.9601 0.0000
# 6 0.0000 0.0000 0.0000 -12.1210 0.0000 10.4299
#
#
#
# Elastic Compliance Matrix: (Units=1/GPa)
#
#
# Indices 1 2 3 4 5 6 
#
# 1 0.012865 -0.001033 0.001037 0.000000 -0.007769 0.000000
# 2 -0.001033 0.019692 -0.012065 0.000000 0.011302 0.000000
# 3 0.001037 -0.012065 0.022829 0.000000 -0.018264 0.000000
# 4 0.000000 0.000000 0.000000 -0.221206 0.000000 -0.257073
# 5 -0.007769 0.011302 -0.018264 0.000000 0.074192 0.000000
# 6 0.000000 0.000000 0.000000 -0.257073 0.000000 -0.202876
#
#
# Mechanical properties :
#
#
# Convention : Reuss Voigt Hill
#
# Bulk Modulus (GPa) = 31.98577 35.87757 33.93167
# Shear Modulus (GPa) = -19.23386 20.11424 0.44019
#
# Velocity S-wave (km/s) = -3.47041 3.54895 0.52501
# Velocity P-wave (km/s) = 1.99257 6.26570 4.64916
#
# Compressibility (1/GPa) = 0.03126391
#
# Stress axis : x y z
#
# Youngs Moduli (GPa) = 77.72727 50.78126 43.80349
#
# Poissons Ratio (x) = 0.05245 -0.04541
# Poissons Ratio (y) = 0.08029 0.52850
# Poissons Ratio (z) = -0.08058 0.61269
#
# Static dielectric constant tensor:
#      x y z
#    x 1.544750 0.000000 -0.005620 
#    y 0.000000 1.569340 0.000000 
#    z -0.005620 0.000000 1.557550 
# 
# From -- ./inp_files/59205.got.cif
#   From: 2010.05.17/outbox.cif.g08.bks.cpg/sg10_30_cif.got.tgz:59205.got - 2010.06.03 11:33:40.
