data_PCOD9144762
_publ_section_title
;
Structure prediction by ZEFSAII (Michael W. Deem and Ramdas Pophale) SiO2 
 PCOD9144762
Probable space group: P 2/M
;
_chemical_formula_sum "Si O2"
_cell_formula_units_Z 26
_cell_length_a 21.631171
_cell_length_b 18.654459
_cell_length_c 21.610515
_cell_angle_alpha 90.000000
_cell_angle_beta 166.062725
_cell_angle_gamma 90.000000
_cell_volume 2100.349695
_symmetry_space_group_name_H-M "P 2/M"
_symmetry_group_IT_number 10
_symmetry_cell_setting 'monoclinic'
loop_
_space_group_symop_operation_xyz
x,y,z
-x,y,-z
-x,-y,-z
x,-y,z
loop_
_atom_site_type_symbol
_atom_site_label
_atom_site_fract_x
_atom_site_fract_y
_atom_site_fract_z
Si Si1 0.228644 0.763634 0.772890
Si Si2 0.795779 0.631456 0.159125
Si Si3 0.005509 0.587463 0.076894
Si Si4 0.328519 0.587314 0.617959
Si Si5 0.771077 0.923171 0.227659
Si Si6 0.229280 0.500000 0.771263
Si Si7 0.470033 0.586926 0.614577
O O1 0.207703 0.705377 0.806494
O O2 0.213447 0.844235 0.786464
O O3 0.000000 0.754999 0.500000
O O4 0.500000 0.755801 0.000000
O O5 0.791437 0.569402 0.206323
O O6 0.053626 0.618605 0.370303
O O7 0.547975 0.618795 0.875585
O O8 0.007595 0.500000 0.078623
O O9 0.750456 0.610700 0.865265
O O10 0.000000 0.610007 0.000000
O O11 0.256344 0.610968 0.357896
O O12 0.323180 0.500000 0.619098
O O13 0.396373 0.605417 0.612990
O O14 0.000000 0.923843 0.500000
O O15 0.787706 0.000000 0.208985
O O16 0.500000 0.923623 0.000000
O O17 0.000000 0.500000 0.500000
O O18 0.500000 0.500000 0.000000
O O19 0.472486 0.500000 0.615045
#
# Coordination Sequence:
#
# PCOD9144762 Si02
#       7
#     4   4   4   4   4   2   4
#     4  10  19  31  43  58  76  92 115 150 194 238
#     4  12  21  32  43  54  70  94 124 160 194 228
#     4   9  15  24  37  56  74  88 106 137 183 227
#     4  11  20  33  42  53  69  95 131 160 186 219
#     4   8  14  25  42  60  76  92 108 131 173 231
#     4  12  22  32  42  52  66  86 117 156 199 234
#     4   9  17  26  39  52  68  91 115 145 179 216
#
# _framework density 12.378890999999999
#
# number of rings (size 3 to 8) (size 9 to 14) (size 15 to 20)
#    0.000    2.000    1.538    4.154    0.000    4.308 
#    0.000    0.000    0.000    0.000    0.000    0.000 
#    0.000    0.000    0.000    0.000    0.000    0.000 
#
# Total GULP energy -144853.873162 kJ/mol
# GULP energy per Si atom -5571.302814 kJ/mol
# Density = 1.235072 g / cm^3
# Si number density = 12.378891 Si / 1000 Ang^3
#
#
#
# Elastic Constant Matrix: (Units=GPa)
#
#
# Indices 1 2 3 4 5 6 
#
# 1 28.5142 10.6735 -14.1480 0.0000 5.5255 0.0000
# 2 10.6735 75.0513 -8.1426 0.0000 0.1098 0.0000
# 3 -14.1480 -8.1426 49.6158 0.0000 7.2380 0.0000
# 4 0.0000 0.0000 0.0000 10.9380 0.0000 -0.7523
# 5 5.5255 0.1098 7.2380 0.0000 23.6928 0.0000
# 6 0.0000 0.0000 0.0000 -0.7523 0.0000 16.8940
#
#
#
# Elastic Compliance Matrix: (Units=1/GPa)
#
#
# Indices 1 2 3 4 5 6 
#
# 1 0.047429 -0.005099 0.014965 0.000000 -0.015609 0.000000
# 2 -0.005099 0.014128 0.000733 0.000000 0.000900 0.000000
# 3 0.014965 0.000733 0.026221 0.000000 -0.011504 0.000000
# 4 0.000000 0.000000 0.000000 0.091706 0.000000 0.004083
# 5 -0.015609 0.000900 -0.011504 0.000000 0.049357 0.000000
# 6 0.000000 0.000000 0.000000 0.004083 0.000000 0.059375
#
#
# Mechanical properties :
#
#
# Convention : Reuss Voigt Hill
#
# Bulk Modulus (GPa) = 9.17639 14.43856 11.80747
# Shear Modulus (GPa) = 16.48312 21.29151 18.88731
#
# Velocity S-wave (km/s) = 3.65300 4.15177 3.91035
# Velocity P-wave (km/s) = 5.02211 5.88830 5.47237
#
# Compressibility (1/GPa) = 0.10897534
#
# Stress axis : x y z
#
# Youngs Moduli (GPa) = 21.08434 70.78349 38.13804
#
# Poissons Ratio (x) = 0.36090 -0.57072
# Poissons Ratio (y) = 0.10750 -0.02797
# Poissons Ratio (z) = -0.31552 -0.05191
#
# Static dielectric constant tensor:
#      x y z
#    x 1.383060 0.000000 0.010410 
#    y 0.000000 1.404760 0.000000 
#    z 0.010410 0.000000 1.438230 
# 
# From -- ./inp_files/11535.got.cif
#   From: 2010.05.17/outbox.cif.g08.bks.cpg/sg10_6_cif.got.tgz:11535.got - 2010.06.03 11:33:40.
