data_PCOD9144532
_publ_section_title
;
Structure prediction by ZEFSAII (Michael W. Deem and Ramdas Pophale) SiO2 
 PCOD9144532
Probable space group: P 2/M
;
_chemical_formula_sum "Si O2"
_cell_formula_units_Z 32
_cell_length_a 26.446673
_cell_length_b 8.892085
_cell_length_c 14.823930
_cell_angle_alpha 90.000000
_cell_angle_beta 146.878031
_cell_angle_gamma 90.000000
_cell_volume 1904.877622
_symmetry_space_group_name_H-M "P 2/M"
_symmetry_group_IT_number 10
_symmetry_cell_setting 'monoclinic'
loop_
_space_group_symop_operation_xyz
x,y,z
-x,y,-z
-x,-y,-z
x,-y,z
loop_
_atom_site_type_symbol
_atom_site_label
_atom_site_fract_x
_atom_site_fract_y
_atom_site_fract_z
Si Si1 0.280767 0.318356 0.708028
Si Si2 0.107856 0.681884 0.765697
Si Si3 0.722794 0.819600 0.875055
Si Si4 0.352533 0.681113 0.619761
Si Si5 0.340463 0.678025 0.405957
Si Si6 0.461920 0.829429 0.045729
Si Si7 0.897845 0.682548 0.451891
Si Si8 0.472994 0.170414 0.354059
O O1 0.283592 0.500000 0.714674
O O2 0.299505 0.272025 0.632030
O O3 0.183098 0.266357 0.602515
O O4 0.365035 0.256618 0.894422
O O5 0.113650 0.500000 0.780346
O O6 0.122088 0.724511 0.681800
O O7 0.002553 0.728339 0.631986
O O8 0.184919 0.754466 0.943551
O O9 0.705418 0.759898 0.747743
O O10 0.633042 0.776341 0.802077
O O11 0.723845 0.000000 0.874421
O O12 0.359627 0.500000 0.632115
O O13 0.306843 0.723104 0.455906
O O14 0.455737 0.748070 0.778924
O O15 0.329098 0.500000 0.377230
O O16 0.449398 0.720521 0.568466
O O17 0.448607 0.000000 0.057057
O O18 0.500000 0.833335 0.000000
O O19 0.898176 0.500000 0.453974
O O20 0.500000 0.159451 0.500000
O O21 0.480048 0.000000 0.327386
#
# Coordination Sequence:
#
# PCOD9144532 Si02
#       8
#     4   4   4   4   4   4   4   4
#     4   9  16  30  50  69  93 124 155 188 229 274
#     4   9  17  32  52  73  94 115 147 190 233 278
#     4  10  20  33  48  68  94 124 155 187 230 278
#     4   9  18  30  45  67  95 126 159 192 224 264
#     4  10  19  30  46  69  94 123 160 195 225 262
#     4   9  17  28  42  63  91 122 156 190 223 261
#     4   8  16  31  52  74  93 116 147 187 235 280
#     4   8  16  30  44  61  89 121 151 185 224 265
#
# _framework density 16.79898
#
# number of rings (size 3 to 8) (size 9 to 14) (size 15 to 20)
#    0.000    3.000    0.000    2.625    0.000    6.250 
#    0.000    6.250    0.000    0.750    0.000    5.250 
#    0.000    0.000    0.000    0.000    0.000    0.000 
#
# Total GULP energy -178205.238084 kJ/mol
# GULP energy per Si atom -5568.913690 kJ/mol
# Density = 1.676075 g / cm^3
# Si number density = 16.798980 Si / 1000 Ang^3
#
#
#
# Elastic Constant Matrix: (Units=GPa)
#
#
# Indices 1 2 3 4 5 6 
#
# 1 91.6694 25.8277 70.1495 0.0000 8.2847 0.0000
# 2 25.8277 23.3825 30.1981 0.0000 -0.5365 0.0000
# 3 70.1495 30.1981 134.0916 0.0000 4.5805 0.0000
# 4 0.0000 0.0000 0.0000 3.3662 0.0000 5.7009
# 5 8.2847 -0.5365 4.5805 0.0000 23.9319 0.0000
# 6 0.0000 0.0000 0.0000 5.7009 0.0000 4.2079
#
#
#
# Elastic Compliance Matrix: (Units=1/GPa)
#
#
# Indices 1 2 3 4 5 6 
#
# 1 0.021310 -0.013473 -0.007904 0.000000 -0.006166 0.000000
# 2 -0.013473 0.069203 -0.008807 0.000000 0.007901 0.000000
# 3 -0.007904 -0.008807 0.013578 0.000000 -0.000060 0.000000
# 4 0.000000 0.000000 0.000000 -0.229495 0.000000 0.310920
# 5 -0.006166 0.007901 -0.000060 0.000000 0.044108 0.000000
# 6 0.000000 0.000000 0.000000 0.310920 0.000000 -0.183589
#
#
# Mechanical properties :
#
#
# Convention : Reuss Voigt Hill
#
# Bulk Modulus (GPa) = 22.87001 55.72157 39.29579
# Shear Modulus (GPa) = -26.32360 14.49911 -5.91225
#
# Velocity S-wave (km/s) = -3.96280 2.94103 -1.87804
# Velocity P-wave (km/s) = 2.70091 6.69138 4.32895
#
# Compressibility (1/GPa) = 0.04372538
#
# Stress axis : x y z
#
# Youngs Moduli (GPa) = 46.92615 14.45015 73.65054
#
# Poissons Ratio (x) = 0.19468 0.58210
# Poissons Ratio (y) = 0.63222 0.64861
# Poissons Ratio (z) = 0.37088 0.12726
#
# Static dielectric constant tensor:
#      x y z
#    x 1.601590 0.000000 -0.009170 
#    y 0.000000 1.562600 0.000000 
#    z -0.009170 0.000000 1.550950 
# 
# From -- ./inp_files/72234.got.cif
#   From: 2010.05.17/outbox.cif.g08.bks.cpg/sg10_37_cif.got.tgz:72234.got - 2010.06.03 11:33:40.
