data_PCOD9144832
_publ_section_title
;
Structure prediction by ZEFSAII (Michael W. Deem and Ramdas Pophale) SiO2 
 PCOD9144832
Probable space group: P 2/M
;
_chemical_formula_sum "Si O2"
_cell_formula_units_Z 32
_cell_length_a 24.649057
_cell_length_b 8.090442
_cell_length_c 17.019555
_cell_angle_alpha 90.000000
_cell_angle_beta 28.800926
_cell_angle_gamma 90.000000
_cell_volume 1635.153624
_symmetry_space_group_name_H-M "P 2/M"
_symmetry_group_IT_number 10
_symmetry_cell_setting 'monoclinic'
loop_
_space_group_symop_operation_xyz
x,y,z
-x,y,-z
-x,-y,-z
x,-y,z
loop_
_atom_site_type_symbol
_atom_site_label
_atom_site_fract_x
_atom_site_fract_y
_atom_site_fract_z
Si Si1 0.090207 0.310214 0.447406
Si Si2 0.728281 0.700630 0.021025
Si Si3 0.315205 0.189480 0.225131
Si Si4 0.372515 0.695615 0.427518
Si Si5 0.411983 0.198414 0.946250
Si Si6 0.199917 0.807362 0.526609
Si Si7 0.967261 0.685414 0.770784
Si Si8 0.509371 0.701665 0.398956
O O1 0.123841 0.500000 0.382624
O O2 0.197908 0.198244 0.325464
O O3 0.024584 0.320877 0.612523
O O4 0.000000 0.247410 0.500000
O O5 0.734977 0.500000 0.008117
O O6 0.692136 0.758680 0.979836
O O7 0.626250 0.747140 0.208456
O O8 0.845731 0.764652 0.907915
O O9 0.276488 0.268290 0.357485
O O10 0.351266 0.000000 0.193858
O O11 0.399180 0.260982 0.052465
O O12 0.354942 0.500000 0.453813
O O13 0.478617 0.730528 0.235767
O O14 0.264167 0.774615 0.525397
O O15 0.410676 0.756452 0.465002
O O16 0.421877 0.000000 0.937023
O O17 0.069915 0.754633 0.691659
O O18 0.198579 0.000000 0.510163
O O19 0.944997 0.500000 0.828062
O O20 0.500000 0.760076 0.500000
O O21 0.506552 0.500000 0.403585
#
# Coordination Sequence:
#
# PCOD9144832 Si02
#       8
#     4   4   4   4   4   4   4   4
#     4   9  16  25  39  59  85 119 158 201 244 280
#     4   9  17  30  50  75 101 127 157 197 242 285
#     4   9  19  31  42  60  88 125 165 202 237 275
#     4  10  20  34  52  73  96 123 157 196 239 287
#     4  10  19  31  47  68  96 128 163 203 245 285
#     4  10  20  34  49  66  93 130 170 204 236 276
#     4   9  17  29  45  67  95 126 161 199 238 281
#     4   8  15  30  54  81 102 119 144 185 237 289
#
# _framework density 19.570027
#
# number of rings (size 3 to 8) (size 9 to 14) (size 15 to 20)
#    0.000    2.750    0.000    2.625    0.000    3.750 
#    0.000    5.000    0.000   10.125    0.000    5.250 
#    0.000    0.000    0.000    0.000    0.000    0.000 
#
# Total GULP energy -178253.811516 kJ/mol
# GULP energy per Si atom -5570.431610 kJ/mol
# Density = 1.952548 g / cm^3
# Si number density = 19.570027 Si / 1000 Ang^3
#
#
#
# Elastic Constant Matrix: (Units=GPa)
#
#
# Indices 1 2 3 4 5 6 
#
# 1 121.7624 -3.3093 34.0629 0.0000 -13.5312 0.0000
# 2 -3.3093 9.6140 -0.9858 0.0000 -0.5338 0.0000
# 3 34.0629 -0.9858 36.6395 0.0000 1.5485 0.0000
# 4 0.0000 0.0000 0.0000 -55.6530 0.0000 91.2085
# 5 -13.5312 -0.5338 1.5485 0.0000 30.1693 0.0000
# 6 0.0000 0.0000 0.0000 91.2085 0.0000 -126.0763
#
#
#
# Elastic Compliance Matrix: (Units=1/GPa)
#
#
# Indices 1 2 3 4 5 6 
#
# 1 0.012207 0.003361 -0.011517 0.000000 0.006125 0.000000
# 2 0.003361 0.105315 -0.000435 0.000000 0.003393 0.000000
# 3 -0.011517 -0.000435 0.038290 0.000000 -0.007138 0.000000
# 4 0.000000 0.000000 0.000000 0.096798 0.000000 0.070027
# 5 0.006125 0.003393 -0.007138 0.000000 0.036320 0.000000
# 6 0.000000 0.000000 0.000000 0.070027 0.000000 0.042729
#
#
# Mechanical properties :
#
#
# Convention : Reuss Voigt Hill
#
# Bulk Modulus (GPa) = 7.21338 25.28352 16.24845
# Shear Modulus (GPa) = 12.65665 -21.09546 -4.21940
#
# Velocity S-wave (km/s) = 2.54586 -3.28677 -1.46994
# Velocity P-wave (km/s) = 3.51224 1.20676 2.33233
#
# Compressibility (1/GPa) = 0.13863133
#
# Stress axis : x y z
#
# Youngs Moduli (GPa) = 81.92356 9.49528 26.11673
#
# Poissons Ratio (x) = -0.03191 0.30078
# Poissons Ratio (y) = -0.27534 0.01135
# Poissons Ratio (z) = 0.94348 0.00413
#
# Static dielectric constant tensor:
#      x y z
#    x 1.720650 0.000000 -0.014510 
#    y 0.000000 1.717460 0.000000 
#    z -0.014510 0.000000 1.701660 
# 
# From -- ./inp_files/69973.got.cif
#   From: 2010.05.17/outbox.cif.g08.bks.cpg/sg10_35_cif.got.tgz:69973.got - 2010.06.03 11:33:40.
