data_PCOD9144513
_publ_section_title
;
Structure prediction by ZEFSAII (Michael W. Deem and Ramdas Pophale) SiO2 
 PCOD9144513
Probable space group: P 2/M
;
_chemical_formula_sum "Si O2"
_cell_formula_units_Z 32
_cell_length_a 14.265625
_cell_length_b 9.748969
_cell_length_c 11.443556
_cell_angle_alpha 90.000000
_cell_angle_beta 67.940108
_cell_angle_gamma 90.000000
_cell_volume 1475.002170
_symmetry_space_group_name_H-M "P 2/M"
_symmetry_group_IT_number 10
_symmetry_cell_setting 'monoclinic'
loop_
_space_group_symop_operation_xyz
x,y,z
-x,y,-z
-x,-y,-z
x,-y,z
loop_
_atom_site_type_symbol
_atom_site_label
_atom_site_fract_x
_atom_site_fract_y
_atom_site_fract_z
Si Si1 0.652189 0.842210 0.849284
Si Si2 0.205757 0.845586 0.621945
Si Si3 0.847812 0.657789 0.150715
Si Si4 0.022352 0.154214 0.361080
Si Si5 0.081437 0.656862 0.133356
Si Si6 0.418563 0.156862 0.866644
Si Si7 0.522352 0.654214 0.361080
Si Si8 0.705757 0.345586 0.621945
O O1 0.535950 0.843592 0.855787
O O2 0.710966 0.735992 0.740815
O O3 0.688154 0.000000 0.822496
O O4 0.644822 0.802983 0.988819
O O5 0.210965 0.764008 0.740815
O O6 0.087385 0.858135 0.646659
O O7 0.250000 0.750000 0.500000
O O8 0.248960 0.000000 0.603951
O O9 0.811847 0.500000 0.177504
O O10 0.964050 0.656408 0.144213
O O11 0.855178 0.697015 0.011181
O O12 0.000000 0.214805 0.500000
O O13 0.086355 0.243783 0.241340
O O14 0.064152 0.000000 0.358527
O O15 0.106783 0.500000 0.152496
O O16 0.413646 0.256217 0.758660
O O17 0.393216 0.000000 0.847505
O O18 0.500000 0.714805 0.500000
O O19 0.564152 0.500000 0.358527
O O20 0.412615 0.641865 0.353341
O O21 0.748959 0.500000 0.603951
#
# Coordination Sequence:
#
# PCOD9144513 Si02
#       8
#     4   4   4   4   4   4   4   4
#     4   8  14  26  43  64  90 115 143 181 222 262
#     4  10  19  30  46  67  91 119 149 182 220 262
#     4   8  14  26  43  64  90 115 143 181 222 262
#     4   9  18  31  46  66  92 120 148 180 220 263
#     4   8  14  25  43  66  89 114 144 181 222 260
#     4   8  14  25  43  66  89 114 144 181 222 260
#     4   9  18  31  46  66  92 120 148 180 220 263
#     4  10  19  30  46  67  91 119 149 182 220 262
#
# _framework density 21.694883999999998
#
# number of rings (size 3 to 8) (size 9 to 14) (size 15 to 20)
#    0.000    3.250    0.000    2.250    0.000    2.500 
#    0.000    5.000    0.000    1.500    0.000    0.000 
#    0.000    0.000    0.000    0.000    0.000    0.000 
#
# Total GULP energy -178580.552829 kJ/mol
# GULP energy per Si atom -5580.642276 kJ/mol
# Density = 2.164551 g / cm^3
# Si number density = 21.694884 Si / 1000 Ang^3
#
#
#
# Elastic Constant Matrix: (Units=GPa)
#
#
# Indices 1 2 3 4 5 6 
#
# 1 58.6429 2.7322 1.7472 0.0000 4.7844 0.0000
# 2 2.7322 158.7054 148.5368 0.0000 1.1116 0.0000
# 3 1.7472 148.5368 228.4627 0.0000 11.4510 0.0000
# 4 0.0000 0.0000 0.0000 38.4016 0.0000 3.1131
# 5 4.7844 1.1116 11.4510 0.0000 20.8692 0.0000
# 6 0.0000 0.0000 0.0000 3.1131 0.0000 1.7298
#
#
#
# Elastic Compliance Matrix: (Units=1/GPa)
#
#
# Indices 1 2 3 4 5 6 
#
# 1 0.017426 -0.000887 0.000659 0.000000 -0.004309 0.000000
# 2 -0.000887 0.016668 -0.011101 0.000000 0.005407 0.000000
# 3 0.000659 -0.011101 0.011895 0.000000 -0.006087 0.000000
# 4 0.000000 0.000000 0.000000 0.030489 0.000000 -0.054868
# 5 -0.004309 0.005407 -0.006087 0.000000 0.051957 0.000000
# 6 0.000000 0.000000 0.000000 -0.054868 0.000000 0.676831
#
#
# Mechanical properties :
#
#
# Convention : Reuss Voigt Hill
#
# Bulk Modulus (GPa) = 42.86141 83.53815 63.19978
# Shear Modulus (GPa) = 5.98300 31.71978 18.85139
#
# Velocity S-wave (km/s) = 1.66246 3.82787 2.95096
# Velocity P-wave (km/s) = 4.84607 7.62406 6.38791
#
# Compressibility (1/GPa) = 0.02333101
#
# Stress axis : x y z
#
# Youngs Moduli (GPa) = 57.38676 59.99362 84.07083
#
# Poissons Ratio (x) = 0.05321 -0.05544
# Poissons Ratio (y) = 0.05090 0.93330
# Poissons Ratio (z) = -0.03784 0.66601
#
# Static dielectric constant tensor:
#      x y z
#    x 1.870870 0.000000 -0.013570 
#    y 0.000000 1.783750 0.000000 
#    z -0.013570 0.000000 1.768830 
# 
# From -- ./inp_files/54798.got.cif
#   From: 2010.05.17/outbox.cif.g08.bks.cpg/sg10_28_cif.got.tgz:54798.got - 2010.06.03 11:33:40.
