data_PCOD9144347
_publ_section_title
;
Structure prediction by ZEFSAII (Michael W. Deem and Ramdas Pophale) SiO2 
 PCOD9144347
Probable space group: P 2/M
;
_chemical_formula_sum "Si O2"
_cell_formula_units_Z 32
_cell_length_a 16.964570
_cell_length_b 7.693831
_cell_length_c 30.794428
_cell_angle_alpha 90.000000
_cell_angle_beta 26.428680
_cell_angle_gamma 90.000000
_cell_volume 1788.953765
_symmetry_space_group_name_H-M "P 2/M"
_symmetry_group_IT_number 10
_symmetry_cell_setting 'monoclinic'
loop_
_space_group_symop_operation_xyz
x,y,z
-x,y,-z
-x,-y,-z
x,-y,z
loop_
_atom_site_type_symbol
_atom_site_label
_atom_site_fract_x
_atom_site_fract_y
_atom_site_fract_z
Si Si1 0.767165 0.299841 0.654622
Si Si2 0.408408 0.286863 0.999641
Si Si3 0.668368 0.289608 0.794728
Si Si4 0.998796 0.204332 0.688605
Si Si5 0.355113 0.210014 0.465554
Si Si6 0.630790 0.296135 0.397957
Si Si7 0.024609 0.302185 0.205087
Si Si8 0.166509 0.799309 0.472699
O O1 0.717829 0.500000 0.672225
O O2 0.661296 0.228632 0.748372
O O3 0.752075 0.209441 0.615576
O O4 0.976304 0.293146 0.564027
O O5 0.405530 0.500000 0.001931
O O6 0.205286 0.224558 0.097114
O O7 0.500000 0.232491 0.000000
O O8 0.522353 0.232388 0.901683
O O9 0.665070 0.500000 0.795095
O O10 0.856285 0.233753 0.721625
O O11 0.942435 0.303554 0.759438
O O12 0.190452 0.261494 0.577479
O O13 0.006376 0.000000 0.695068
O O14 0.530035 0.280151 0.402041
O O15 0.297237 0.265952 0.445828
O O16 0.367795 0.000000 0.459446
O O17 0.500000 0.221758 0.500000
O O18 0.654515 0.500000 0.397389
O O19 0.829077 0.220464 0.297309
O O20 0.012712 0.500000 0.194160
O O21 0.125412 0.000000 0.503519
#
# Coordination Sequence:
#
# PCOD9144347 Si02
#       8
#     4   4   4   4   4   4   4   4
#     4  10  19  29  45  70  95 119 152 192 232 268
#     4   9  16  28  49  69  89 124 160 187 225 275
#     4  10  19  31  47  68  93 126 160 190 225 273
#     4  11  20  29  44  67  95 125 158 192 228 266
#     4  10  21  33  46  66  92 127 160 186 225 278
#     4  10  20  31  47  70  93 119 155 197 232 267
#     4  10  19  33  48  66  93 124 160 194 229 272
#     4  10  19  32  47  65  93 125 155 184 227 282
#
# _framework density 17.887549
#
# number of rings (size 3 to 8) (size 9 to 14) (size 15 to 20)
#    0.000    2.000    3.750    1.875    0.000    2.750 
#    0.000    1.250    0.000    0.000    0.000    0.875 
#    0.000    7.000    0.000    0.000    0.000    0.000 
#
# Total GULP energy -178471.265668 kJ/mol
# GULP energy per Si atom -5577.227052 kJ/mol
# Density = 1.784684 g / cm^3
# Si number density = 17.887549 Si / 1000 Ang^3
#
#
#
# Elastic Constant Matrix: (Units=GPa)
#
#
# Indices 1 2 3 4 5 6 
#
# 1 77.1574 -3.5020 32.2930 0.0000 9.1890 0.0000
# 2 -3.5020 33.8630 1.9908 0.0000 1.5825 0.0000
# 3 32.2930 1.9908 109.7574 0.0000 3.7916 0.0000
# 4 0.0000 0.0000 0.0000 -1.2347 0.0000 -1.3145
# 5 9.1890 1.5825 3.7916 0.0000 30.2644 0.0000
# 6 0.0000 0.0000 0.0000 -1.3145 0.0000 18.5779
#
#
#
# Elastic Compliance Matrix: (Units=1/GPa)
#
#
# Indices 1 2 3 4 5 6 
#
# 1 0.015410 0.002052 -0.004425 0.000000 -0.004232 0.000000
# 2 0.002052 0.029902 -0.001075 0.000000 -0.002052 0.000000
# 3 -0.004425 -0.001075 0.010429 0.000000 0.000093 0.000000
# 4 0.000000 0.000000 0.000000 -0.753147 0.000000 -0.053291
# 5 -0.004232 -0.002052 0.000093 0.000000 0.034423 0.000000
# 6 0.000000 0.000000 0.000000 -0.053291 0.000000 0.050057
#
#
# Mechanical properties :
#
#
# Convention : Reuss Voigt Hill
#
# Bulk Modulus (GPa) = 20.47339 31.37125 25.92232
# Shear Modulus (GPa) = -8.47819 22.18791 6.85486
#
# Velocity S-wave (km/s) = -2.17945 3.52577 1.95972
# Velocity P-wave (km/s) = 2.26652 5.84387 4.43215
#
# Compressibility (1/GPa) = 0.04884390
#
# Stress axis : x y z
#
# Youngs Moduli (GPa) = 64.89485 33.44254 95.88489
#
# Poissons Ratio (x) = -0.06861 0.42428
# Poissons Ratio (y) = -0.13313 0.10308
# Poissons Ratio (z) = 0.28715 0.03595
#
# Static dielectric constant tensor:
#      x y z
#    x 1.612830 0.000000 0.012670 
#    y 0.000000 1.658360 0.000000 
#    z 0.012670 0.000000 1.629860 
# 
# From -- ./inp_files/95244.got.cif
#   From: 2010.05.17/outbox.cif.g08.bks.cpg/sg10_48_cif.got.tgz:95244.got - 2010.06.03 11:33:40.
