data_PCOD9144096
_publ_section_title
;
Structure prediction by ZEFSAII (Michael W. Deem and Ramdas Pophale) SiO2 
 PCOD9144096
Probable space group: P 2/M
;
_chemical_formula_sum "Si O2"
_cell_formula_units_Z 32
_cell_length_a 25.938657
_cell_length_b 8.860646
_cell_length_c 20.845767
_cell_angle_alpha 90.000000
_cell_angle_beta 22.766871
_cell_angle_gamma 90.000000
_cell_volume 1854.052670
_symmetry_space_group_name_H-M "P 2/M"
_symmetry_group_IT_number 10
_symmetry_cell_setting 'monoclinic'
loop_
_space_group_symop_operation_xyz
x,y,z
-x,y,-z
-x,-y,-z
x,-y,z
loop_
_atom_site_type_symbol
_atom_site_label
_atom_site_fract_x
_atom_site_fract_y
_atom_site_fract_z
Si Si1 0.657652 0.676691 0.334764
Si Si2 0.127469 0.816886 0.166668
Si Si3 0.402691 0.181047 0.466524
Si Si4 0.821751 0.183378 0.530475
Si Si5 0.291500 0.818945 0.854070
Si Si6 0.383958 0.183020 0.343067
Si Si7 0.348420 0.818775 0.151153
Si Si8 0.662929 0.680069 0.975144
O O1 0.500000 0.698815 0.500000
O O2 0.684724 0.500000 0.306039
O O3 0.676036 0.749094 0.383459
O O4 0.731590 0.750515 0.189605
O O5 0.974482 0.768875 0.349645
O O6 0.134778 0.000000 0.163194
O O7 0.187806 0.774663 0.028052
O O8 0.220381 0.746134 0.114396
O O9 0.559180 0.224739 0.293935
O O10 0.356250 0.224312 0.448715
O O11 0.396602 0.000000 0.478959
O O12 0.731122 0.229978 0.574201
O O13 0.750249 0.228969 0.678536
O O14 0.821346 0.000000 0.530658
O O15 0.290246 0.000000 0.849965
O O16 0.523291 0.253368 0.161087
O O17 0.397304 0.000000 0.324958
O O18 0.335963 0.000000 0.155829
O O19 0.500000 0.790459 0.000000
O O20 0.320963 0.736125 0.116218
O O21 0.661037 0.500000 0.980483
#
# Coordination Sequence:
#
# PCOD9144096 Si02
#       8
#     4   4   4   4   4   4   4   4
#     4   9  17  27  42  69 105 137 169 213 257 307
#     4  10  20  37  57  80 108 140 180 223 267 317
#     4   9  16  27  48  75 102 132 169 217 265 310
#     4   9  19  35  60  85 103 133 180 227 270 318
#     4   9  16  28  48  72 101 136 171 213 263 312
#     4  10  18  35  58  82 107 137 180 226 270 315
#     4  10  19  36  61  82 105 138 178 225 270 316
#     4  12  24  35  53  81 111 145 179 217 265 320
#
# _framework density 17.259488999999999
#
# number of rings (size 3 to 8) (size 9 to 14) (size 15 to 20)
#    0.000    2.250    2.500    1.500    0.000    3.250 
#    0.000    3.750    0.000    0.750    0.000    5.250 
#    0.000    0.000    0.000    0.000    0.000    0.000 
#
# Total GULP energy -178495.355808 kJ/mol
# GULP energy per Si atom -5577.979869 kJ/mol
# Density = 1.722021 g / cm^3
# Si number density = 17.259489 Si / 1000 Ang^3
#
#
#
# Elastic Constant Matrix: (Units=GPa)
#
#
# Indices 1 2 3 4 5 6 
#
# 1 170.4912 49.3220 96.5409 0.0000 25.9614 0.0000
# 2 49.3220 24.3372 37.9862 0.0000 8.1864 0.0000
# 3 96.5409 37.9862 122.0363 0.0000 12.2750 0.0000
# 4 0.0000 0.0000 0.0000 0.1422 0.0000 -2.2415
# 5 25.9614 8.1864 12.2750 0.0000 34.1036 0.0000
# 6 0.0000 0.0000 0.0000 -2.2415 0.0000 -3.9275
#
#
#
# Elastic Compliance Matrix: (Units=1/GPa)
#
#
# Indices 1 2 3 4 5 6 
#
# 1 0.016249 -0.023302 -0.005104 0.000000 -0.004939 0.000000
# 2 -0.023302 0.117214 -0.017644 0.000000 -0.004047 0.000000
# 3 -0.005104 -0.017644 0.017543 0.000000 0.001807 0.000000
# 4 0.000000 0.000000 0.000000 0.703493 0.000000 -0.401494
# 5 -0.004939 -0.004047 0.001807 0.000000 0.033403 0.000000
# 6 0.000000 0.000000 0.000000 -0.401494 0.000000 -0.025477
#
#
# Mechanical properties :
#
#
# Convention : Reuss Voigt Hill
#
# Bulk Modulus (GPa) = 16.97656 76.06254 46.51955
# Shear Modulus (GPa) = 5.13262 14.93138 10.03200
#
# Velocity S-wave (km/s) = 1.72634 2.94447 2.41352
# Velocity P-wave (km/s) = 3.71902 7.46495 5.89731
#
# Compressibility (1/GPa) = 0.05890475
#
# Stress axis : x y z
#
# Youngs Moduli (GPa) = 61.54291 8.53137 57.00411
#
# Poissons Ratio (x) = 0.19880 0.29096
# Poissons Ratio (y) = 1.43407 1.00580
# Poissons Ratio (z) = 0.31413 0.15053
#
# Static dielectric constant tensor:
#      x y z
#    x 1.579200 0.000000 0.011380 
#    y 0.000000 1.572400 0.000000 
#    z 0.011380 0.000000 1.573950 
# 
# From -- ./inp_files/86913.got.cif
#   From: 2010.05.17/outbox.cif.g08.bks.cpg/sg10_44_cif.got.tgz:86913.got - 2010.06.03 11:33:40.
