data_PCOD9144574
_publ_section_title
;
Structure prediction by ZEFSAII (Michael W. Deem and Ramdas Pophale) SiO2 
 PCOD9144574
Probable space group: P 2/M
;
_chemical_formula_sum "Si O2"
_cell_formula_units_Z 32
_cell_length_a 21.606848
_cell_length_b 14.758439
_cell_length_c 5.203438
_cell_angle_alpha 90.000000
_cell_angle_beta 61.391830
_cell_angle_gamma 90.000000
_cell_volume 1456.714860
_symmetry_space_group_name_H-M "P 2/M"
_symmetry_group_IT_number 10
_symmetry_cell_setting 'monoclinic'
loop_
_space_group_symop_operation_xyz
x,y,z
-x,y,-z
-x,-y,-z
x,-y,z
loop_
_atom_site_type_symbol
_atom_site_label
_atom_site_fract_x
_atom_site_fract_y
_atom_site_fract_z
Si Si1 0.293825 0.643027 0.673689
Si Si2 0.458424 0.890835 0.329265
Si Si3 0.458531 0.609183 0.335788
Si Si4 0.923752 0.184044 0.674707
Si Si5 0.076777 0.312571 0.814716
Si Si6 0.293367 0.142821 0.642554
Si Si7 0.219283 0.360424 0.332437
Si Si8 0.781926 0.859970 0.717842
O O1 0.376990 0.632874 0.538243
O O2 0.278539 0.750040 0.687934
O O3 0.274217 0.606206 0.433859
O O4 0.244736 0.606953 0.002656
O O5 0.500000 0.858919 0.500000
O O6 0.376696 0.867722 0.450929
O O7 0.461392 0.000000 0.329266
O O8 0.500000 0.857281 0.000000
O O9 0.500000 0.642663 0.500000
O O10 0.461256 0.500000 0.324490
O O11 0.500000 0.641088 0.000000
O O12 0.931177 0.258274 0.435544
O O13 0.858123 0.125136 0.700644
O O14 0.000000 0.135846 0.500000
O O15 0.911022 0.239577 0.971178
O O16 0.143332 0.375742 0.618266
O O17 0.000000 0.357042 0.000000
O O18 0.244321 0.106935 0.508065
O O19 0.272433 0.106115 0.961814
O O20 0.221503 0.250157 0.301942
#
# Coordination Sequence:
#
# PCOD9144574 Si02
#       8
#     4   4   4   4   4   4   4   4
#     4  10  19  30  47  68  91 118 147 183 226 269
#     4  10  21  36  51  67  89 116 147 186 228 270
#     4  10  21  36  51  67  89 116 147 186 228 270
#     4   9  15  23  37  58  88 126 158 182 217 267
#     4   9  15  23  37  58  88 126 158 182 217 267
#     4  10  19  30  47  68  91 118 147 183 226 269
#     4   9  16  27  41  63  93 120 148 183 223 263
#     4   9  16  27  41  63  93 120 148 183 223 263
#
# _framework density 21.967236
#
# number of rings (size 3 to 8) (size 9 to 14) (size 15 to 20)
#    0.000    2.500    0.000    5.250    0.000    1.000 
#    0.000    0.000    0.000    0.000    0.000    0.000 
#    0.000    6.000    0.000    0.000    0.000   42.500 
#
# Total GULP energy -178191.872228 kJ/mol
# GULP energy per Si atom -5568.496007 kJ/mol
# Density = 2.191724 g / cm^3
# Si number density = 21.967236 Si / 1000 Ang^3
#
#
#
# Elastic Constant Matrix: (Units=GPa)
#
#
# Indices 1 2 3 4 5 6 
#
# 1 161.5085 -0.7682 80.0093 0.0000 -4.1171 0.0000
# 2 -0.7682 59.5952 3.6192 0.0000 9.0641 0.0000
# 3 80.0093 3.6192 169.3716 0.0000 1.9867 0.0000
# 4 0.0000 0.0000 0.0000 1.2671 0.0000 -32.7419
# 5 -4.1171 9.0641 1.9867 0.0000 54.5530 0.0000
# 6 0.0000 0.0000 0.0000 -32.7419 0.0000 16.7870
#
#
#
# Elastic Compliance Matrix: (Units=1/GPa)
#
#
# Indices 1 2 3 4 5 6 
#
# 1 0.008117 0.000230 -0.003848 0.000000 0.000715 0.000000
# 2 0.000230 0.017240 -0.000444 0.000000 -0.002831 0.000000
# 3 -0.003848 -0.000444 0.007737 0.000000 -0.000498 0.000000
# 4 0.000000 0.000000 0.000000 -0.015976 0.000000 -0.031160
# 5 0.000715 -0.002831 -0.000498 0.000000 0.018873 0.000000
# 6 0.000000 0.000000 0.000000 -0.031160 0.000000 -0.001206
#
#
# Mechanical properties :
#
#
# Convention : Reuss Voigt Hill
#
# Bulk Modulus (GPa) = 40.04640 61.79955 50.92298
# Shear Modulus (GPa) = 97.59333 35.02908 66.31121
#
# Velocity S-wave (km/s) = 6.67257 3.99758 5.50018
# Velocity P-wave (km/s) = 8.81101 7.03571 7.97293
#
# Compressibility (1/GPa) = 0.02497103
#
# Stress axis : x y z
#
# Youngs Moduli (GPa) = 123.19781 58.00345 129.24728
#
# Poissons Ratio (x) = -0.01332 0.49730
# Poissons Ratio (y) = -0.02829 0.05734
# Poissons Ratio (z) = 0.47403 0.02573
#
# Static dielectric constant tensor:
#      x y z
#    x 1.853220 0.000000 -0.030400 
#    y 0.000000 1.879580 0.000000 
#    z -0.030400 0.000000 1.819430 
# 
# From -- ./inp_files/12895.got.cif
#   From: 2010.05.17/outbox.cif.g08.bks.cpg/sg10_7_cif.got.tgz:12895.got - 2010.06.03 11:33:40.
