data_PCOD9144582
_publ_section_title
;
Structure prediction by ZEFSAII (Michael W. Deem and Ramdas Pophale) SiO2 
 PCOD9144582
Probable space group: P 2/M
;
_chemical_formula_sum "Si O2"
_cell_formula_units_Z 32
_cell_length_a 25.893456
_cell_length_b 11.186733
_cell_length_c 13.980524
_cell_angle_alpha 90.000000
_cell_angle_beta 26.126203
_cell_angle_gamma 90.000000
_cell_volume 1783.259566
_symmetry_space_group_name_H-M "P 2/M"
_symmetry_group_IT_number 10
_symmetry_cell_setting 'monoclinic'
loop_
_space_group_symop_operation_xyz
x,y,z
-x,y,-z
-x,-y,-z
x,-y,z
loop_
_atom_site_type_symbol
_atom_site_label
_atom_site_fract_x
_atom_site_fract_y
_atom_site_fract_z
Si Si1 0.411941 0.140707 0.570271
Si Si2 0.150633 0.139379 0.970257
Si Si3 0.975066 0.705147 0.144597
Si Si4 0.853617 0.371416 0.538239
Si Si5 0.531095 0.134950 0.739232
Si Si6 0.254010 0.137072 0.493180
Si Si7 0.395477 0.294594 0.109855
Si Si8 0.039395 0.863072 0.545014
O O1 0.500000 0.196469 0.500000
O O2 0.474467 0.145968 0.364276
O O3 0.395585 0.000000 0.623004
O O4 0.279909 0.187210 0.779964
O O5 0.084779 0.218499 0.000961
O O6 0.070719 0.140706 0.198874
O O7 0.158803 0.000000 0.924966
O O8 0.928473 0.634209 0.314895
O O9 0.867003 0.794060 0.303471
O O10 0.000000 0.645649 0.000000
O O11 0.879530 0.500000 0.542768
O O12 0.716807 0.368298 0.736530
O O13 0.882411 0.249984 0.549801
O O14 0.667517 0.147163 0.542367
O O15 0.496235 0.000000 0.826531
O O16 0.456099 0.231735 0.919277
O O17 0.338034 0.192698 0.272626
O O18 0.230451 0.000000 0.511292
O O19 0.500000 0.351365 0.000000
O O20 0.000000 0.849334 0.500000
O O21 0.089859 0.000000 0.470688
#
# Coordination Sequence:
#
# PCOD9144582 Si02
#       8
#     4   4   4   4   4   4   4   4
#     4   9  17  27  39  60  93 131 166 199 240 294
#     4   9  17  29  45  70 104 135 166 206 253 306
#     4  10  19  30  47  69  96 133 173 210 252 302
#     4  10  22  37  53  77 107 138 175 217 260 310
#     4   9  16  26  42  65  94 128 166 208 254 303
#     4   9  16  26  42  68  99 127 161 209 261 307
#     4   9  18  31  47  68  96 132 173 213 255 302
#     4   9  19  36  58  82 107 136 171 215 266 315
#
# _framework density 17.944669000000001
#
# number of rings (size 3 to 8) (size 9 to 14) (size 15 to 20)
#    0.000    2.750    0.000    1.500    0.000    8.750 
#    0.000    2.500    0.000    0.000    0.000    0.875 
#    0.000    9.500    0.000    0.000    0.000    0.000 
#
# Total GULP energy -178181.028518 kJ/mol
# GULP energy per Si atom -5568.157141 kJ/mol
# Density = 1.790383 g / cm^3
# Si number density = 17.944669 Si / 1000 Ang^3
#
#
#
# Elastic Constant Matrix: (Units=GPa)
#
#
# Indices 1 2 3 4 5 6 
#
# 1 89.6723 38.7504 28.2886 0.0000 -4.6710 0.0000
# 2 38.7504 91.2649 20.8694 0.0000 -5.8772 0.0000
# 3 28.2886 20.8694 54.4000 0.0000 -18.1117 0.0000
# 4 0.0000 0.0000 0.0000 -12.3708 0.0000 1.1544
# 5 -4.6710 -5.8772 -18.1117 0.0000 24.2925 0.0000
# 6 0.0000 0.0000 0.0000 1.1544 0.0000 3.5142
#
#
#
# Elastic Compliance Matrix: (Units=1/GPa)
#
#
# Indices 1 2 3 4 5 6 
#
# 1 0.015490 -0.005142 -0.007322 0.000000 -0.003725 0.000000
# 2 -0.005142 0.013727 -0.002415 0.000000 0.000532 0.000000
# 3 -0.007322 -0.002415 0.029867 0.000000 0.020276 0.000000
# 4 0.000000 0.000000 0.000000 -0.078431 0.000000 0.025764
# 5 -0.003725 0.000532 0.020276 0.000000 0.055694 0.000000
# 6 0.000000 0.000000 0.000000 0.025764 0.000000 0.276097
#
#
# Mechanical properties :
#
#
# Convention : Reuss Voigt Hill
#
# Bulk Modulus (GPa) = 34.10110 45.68379 39.89245
# Shear Modulus (GPa) = 14.20546 12.91576 13.56061
#
# Velocity S-wave (km/s) = 2.81664 2.68573 2.75196
# Velocity P-wave (km/s) = 5.44267 5.92714 5.69006
#
# Compressibility (1/GPa) = 0.02932456
#
# Stress axis : x y z
#
# Youngs Moduli (GPa) = 64.55857 72.84912 33.48178
#
# Poissons Ratio (x) = 0.37462 0.24516
# Poissons Ratio (y) = 0.33198 0.08086
# Poissons Ratio (z) = 0.47272 0.17593
#
# Static dielectric constant tensor:
#      x y z
#    x 1.637190 0.000000 -0.000690 
#    y 0.000000 1.627770 0.000000 
#    z -0.000690 0.000000 1.617870 
# 
# From -- ./inp_files/55730.got.cif
#   From: 2010.05.17/outbox.cif.g08.bks.cpg/sg10_28_cif.got.tgz:55730.got - 2010.06.03 11:33:40.
