data_PCOD9144054
_publ_section_title
;
Structure prediction by ZEFSAII (Michael W. Deem and Ramdas Pophale) SiO2 
 PCOD9144054
Probable space group: P 2/M
;
_chemical_formula_sum "Si O2"
_cell_formula_units_Z 24
_cell_length_a 10.381074
_cell_length_b 8.696626
_cell_length_c 20.671863
_cell_angle_alpha 90.000000
_cell_angle_beta 141.768543
_cell_angle_gamma 90.000000
_cell_volume 1154.917354
_symmetry_space_group_name_H-M "P 2/M"
_symmetry_group_IT_number 10
_symmetry_cell_setting 'monoclinic'
loop_
_space_group_symop_operation_xyz
x,y,z
-x,y,-z
-x,-y,-z
x,-y,z
loop_
_atom_site_type_symbol
_atom_site_label
_atom_site_fract_x
_atom_site_fract_y
_atom_site_fract_z
Si Si1 0.951468 0.500000 0.055615
Si Si2 0.483288 0.500000 0.915043
Si Si3 0.847833 0.822481 0.684590
Si Si4 0.914620 0.187665 0.568385
Si Si5 0.336981 0.828546 0.875926
Si Si6 0.682023 0.816145 0.344774
Si Si7 0.691974 0.671621 0.748430
O O1 0.712363 0.500000 0.976654
O O2 0.072488 0.644793 0.134266
O O3 0.000000 0.500000 0.000000
O O4 0.382097 0.665722 0.858606
O O5 0.500000 0.500000 0.000000
O O6 0.710778 0.745855 0.685694
O O7 0.840115 0.756153 0.608803
O O8 0.094024 0.818627 0.799827
O O9 0.782989 0.000000 0.656048
O O10 0.149122 0.235972 0.641339
O O11 0.772962 0.229177 0.451374
O O12 0.916380 0.000000 0.572501
O O13 0.357233 0.000000 0.851263
O O14 0.500000 0.832492 0.000000
O O15 0.447916 0.757136 0.254200
O O16 0.680547 0.000000 0.341810
O O17 0.603674 0.500000 0.708055
#
# Coordination Sequence:
#
# PCOD9144054 Si02
#       7
#     2   2   4   4   4   4   4
#     4  10  24  42  56  75 113 153 185 224 283 353
#     4  10  18  34  60  77 105 148 183 228 290 332
#     4  10  19  34  55  85 116 145 185 240 283 333
#     4   8  17  33  58  84 112 147 189 230 281 336
#     4   9  18  30  51  82 111 140 187 238 284 338
#     4   9  17  36  59  82 111 150 188 229 277 337
#     4  10  22  36  55  78 112 146 190 223 282 338
#
# _framework density 20.780705999999999
#
# number of rings (size 3 to 8) (size 9 to 14) (size 15 to 20)
#    0.500    2.167    0.000    3.500    1.167    2.000 
#    0.000    7.500    0.000    3.500    0.000    0.000 
#    0.000    0.000    0.000    0.000    0.000    0.000 
#
# Total GULP energy -133658.797111 kJ/mol
# GULP energy per Si atom -5569.116546 kJ/mol
# Density = 2.073341 g / cm^3
# Si number density = 20.780706 Si / 1000 Ang^3
#
#
#
# Elastic Constant Matrix: (Units=GPa)
#
#
# Indices 1 2 3 4 5 6 
#
# 1 88.0570 29.8760 -12.2094 0.0000 -3.4989 0.0000
# 2 29.8760 86.5889 8.8868 0.0000 8.6925 0.0000
# 3 -12.2094 8.8868 22.4430 0.0000 -9.7214 0.0000
# 4 0.0000 0.0000 0.0000 5.3897 0.0000 0.9897
# 5 -3.4989 8.6925 -9.7214 0.0000 33.4213 0.0000
# 6 0.0000 0.0000 0.0000 0.9897 0.0000 3.9582
#
#
#
# Elastic Compliance Matrix: (Units=1/GPa)
#
#
# Indices 1 2 3 4 5 6 
#
# 1 0.016748 -0.008297 0.016122 0.000000 0.008601 0.000000
# 2 -0.008297 0.016983 -0.015478 0.000000 -0.009788 0.000000
# 3 0.016122 -0.015478 0.070860 0.000000 0.026325 0.000000
# 4 0.000000 0.000000 0.000000 0.194466 0.000000 -0.048623
# 5 0.008601 -0.009788 0.026325 0.000000 0.041024 0.000000
# 6 0.000000 0.000000 0.000000 -0.048623 0.000000 0.264796
#
#
# Mechanical properties :
#
#
# Convention : Reuss Voigt Hill
#
# Bulk Modulus (GPa) = 11.19999 27.79952 19.49976
# Shear Modulus (GPa) = 7.69297 19.92288 13.80792
#
# Velocity S-wave (km/s) = 1.92614 3.09968 2.58051
# Velocity P-wave (km/s) = 3.21683 5.12028 4.27582
#
# Compressibility (1/GPa) = 0.08928576
#
# Stress axis : x y z
#
# Youngs Moduli (GPa) = 59.70715 58.88370 14.11241
#
# Poissons Ratio (x) = 0.48855 -0.22752
# Poissons Ratio (y) = 0.49538 0.21843
# Poissons Ratio (z) = -0.96262 0.91140
#
# Static dielectric constant tensor:
#      x y z
#    x 1.711390 0.000000 -0.015200 
#    y 0.000000 1.770500 0.000000 
#    z -0.015200 0.000000 1.783340 
# 
# From -- ./inp_files/82072.got.cif
#   From: 2010.05.17/outbox.cif.g08.bks.cpg/sg10_42_cif.got.tgz:82072.got - 2010.06.03 11:33:40.
