data_PCOD9144354
_publ_section_title
;
Structure prediction by ZEFSAII (Michael W. Deem and Ramdas Pophale) SiO2 
 PCOD9144354
Probable space group: P 2/M
;
_chemical_formula_sum "Si O2"
_cell_formula_units_Z 32
_cell_length_a 18.138773
_cell_length_b 14.562835
_cell_length_c 13.641582
_cell_angle_alpha 90.000000
_cell_angle_beta 152.104602
_cell_angle_gamma 90.000000
_cell_volume 1685.906177
_symmetry_space_group_name_H-M "P 2/M"
_symmetry_group_IT_number 10
_symmetry_cell_setting 'monoclinic'
loop_
_space_group_symop_operation_xyz
x,y,z
-x,y,-z
-x,-y,-z
x,-y,z
loop_
_atom_site_type_symbol
_atom_site_label
_atom_site_fract_x
_atom_site_fract_y
_atom_site_fract_z
Si Si1 0.750364 0.241916 0.566869
Si Si2 0.903267 0.104768 0.597174
Si Si3 0.667490 0.104047 0.140670
Si Si4 0.401762 0.246085 0.107216
Si Si5 0.330723 0.105526 0.353834
Si Si6 0.248212 0.896918 0.052213
Si Si7 0.651901 0.607395 0.809363
Si Si8 0.275122 0.392422 0.320270
O O1 0.856087 0.184624 0.616622
O O2 0.707225 0.173560 0.604604
O O3 0.808083 0.331793 0.693932
O O4 0.587957 0.264250 0.317749
O O5 0.805023 0.113880 0.382085
O O6 0.090238 0.110548 0.803729
O O7 0.870304 0.000000 0.595840
O O8 0.662507 0.190070 0.061150
O O9 0.681366 0.000000 0.112234
O O10 0.500000 0.104588 0.000000
O O11 0.375041 0.172741 0.162200
O O12 0.318747 0.334971 0.057365
O O13 0.500000 0.119861 0.500000
O O14 0.322943 0.000000 0.377668
O O15 0.210488 0.118581 0.121846
O O16 0.310823 0.000000 0.119710
O O17 0.686949 0.500000 0.863346
O O18 0.736172 0.638805 0.807043
O O19 0.463338 0.615065 0.566055
O O20 0.233239 0.500000 0.275873
#
# Coordination Sequence:
#
# PCOD9144354 Si02
#       8
#     4   4   4   4   4   4   4   4
#     4  11  19  29  52  74  99 135 172 202 247 305
#     4  10  22  37  49  69 104 140 172 211 258 299
#     4  10  20  34  52  74  99 130 173 219 256 294
#     4  11  19  30  54  77  95 129 175 212 250 299
#     4  10  19  29  45  72 102 129 163 202 239 292
#     4  10  21  34  48  73 106 134 166 208 251 300
#     4   8  15  28  47  75 106 129 158 208 259 300
#     4   8  15  27  46  74 105 132 162 204 252 301
#
# _framework density 18.980889999999999
#
# number of rings (size 3 to 8) (size 9 to 14) (size 15 to 20)
#    0.000    2.250    2.500    2.250    1.750    2.000 
#    0.000    3.750    0.000    1.875    0.000    3.500 
#    0.000    0.000    0.000    0.000    0.000    0.000 
#
# Total GULP energy -178325.266942 kJ/mol
# GULP energy per Si atom -5572.664592 kJ/mol
# Density = 1.893769 g / cm^3
# Si number density = 18.980890 Si / 1000 Ang^3
#
#
#
# Elastic Constant Matrix: (Units=GPa)
#
#
# Indices 1 2 3 4 5 6 
#
# 1 40.7285 35.5343 6.0105 0.0000 -15.7193 0.0000
# 2 35.5343 85.1684 9.5096 0.0000 -14.3930 0.0000
# 3 6.0105 9.5096 64.5794 0.0000 -9.7243 0.0000
# 4 0.0000 0.0000 0.0000 16.3978 0.0000 -14.8360
# 5 -15.7193 -14.3930 -9.7243 0.0000 17.0344 0.0000
# 6 0.0000 0.0000 0.0000 -14.8360 0.0000 43.9227
#
#
#
# Elastic Compliance Matrix: (Units=1/GPa)
#
#
# Indices 1 2 3 4 5 6 
#
# 1 0.051950 -0.015887 0.002956 0.000000 0.036204 0.000000
# 2 -0.015887 0.018561 -0.001204 0.000000 0.000335 0.000000
# 3 0.002956 -0.001204 0.017116 0.000000 0.011481 0.000000
# 4 0.000000 0.000000 0.000000 0.087823 0.000000 0.029664
# 5 0.036204 0.000335 0.011481 0.000000 0.098951 0.000000
# 6 0.000000 0.000000 0.000000 0.029664 0.000000 0.032787
#
#
# Mechanical properties :
#
#
# Convention : Reuss Voigt Hill
#
# Bulk Modulus (GPa) = 16.84722 32.50947 24.67834
# Shear Modulus (GPa) = 14.07486 24.76577 19.42031
#
# Velocity S-wave (km/s) = 2.72605 3.61608 3.20214
# Velocity P-wave (km/s) = 4.33632 5.88213 5.16735
#
# Compressibility (1/GPa) = 0.05935699
#
# Stress axis : x y z
#
# Youngs Moduli (GPa) = 19.24918 53.87690 58.42549
#
# Poissons Ratio (x) = 0.85592 -0.17269
# Poissons Ratio (y) = 0.30581 0.07035
# Poissons Ratio (z) = -0.05690 0.06487
#
# Static dielectric constant tensor:
#      x y z
#    x 1.675540 0.000000 -0.008640 
#    y 0.000000 1.696290 0.000000 
#    z -0.008640 0.000000 1.694490 
# 
# From -- ./inp_files/29515.got.cif
#   From: 2010.05.17/outbox.cif.g08.bks.cpg/sg10_15_cif.got.tgz:29515.got - 2010.06.03 11:33:40.
