data_PCOD9144212
_publ_section_title
;
Structure prediction by ZEFSAII (Michael W. Deem and Ramdas Pophale) SiO2 
 PCOD9144212
Probable space group: P 2/M
;
_chemical_formula_sum "Si O2"
_cell_formula_units_Z 28
_cell_length_a 17.436656
_cell_length_b 14.203623
_cell_length_c 11.137351
_cell_angle_alpha 90.000000
_cell_angle_beta 143.576568
_cell_angle_gamma 90.000000
_cell_volume 1637.745485
_symmetry_space_group_name_H-M "P 2/M"
_symmetry_group_IT_number 10
_symmetry_cell_setting 'monoclinic'
loop_
_space_group_symop_operation_xyz
x,y,z
-x,y,-z
-x,-y,-z
x,-y,z
loop_
_atom_site_type_symbol
_atom_site_label
_atom_site_fract_x
_atom_site_fract_y
_atom_site_fract_z
Si Si1 0.570272 0.773956 0.703828
Si Si2 0.754195 0.109641 0.318714
Si Si3 0.263740 0.265542 0.880478
Si Si4 0.010204 0.786689 0.711035
Si Si5 0.806556 0.888176 0.884582
Si Si6 0.894041 0.605793 0.474238
Si Si7 0.342484 0.109487 0.534394
O O1 0.500000 0.729021 0.500000
O O2 0.678046 0.847113 0.788695
O O3 0.459926 0.828574 0.636527
O O4 0.644132 0.709936 0.892997
O O5 0.689201 0.176748 0.138338
O O6 0.902397 0.143775 0.521653
O O7 0.692551 0.124590 0.371938
O O8 0.746714 0.000000 0.277341
O O9 0.230338 0.349626 0.748067
O O10 0.129689 0.229414 0.771057
O O11 0.942980 0.683769 0.630989
O O12 0.073453 0.831257 0.909192
O O13 0.778260 0.873684 0.707828
O O14 0.820854 0.000000 0.925305
O O15 0.876463 0.500000 0.497644
O O16 0.000000 0.601840 0.500000
O O17 0.377096 0.000000 0.561745
#
# Coordination Sequence:
#
# PCOD9144212 Si02
#       7
#     4   4   4   4   4   4   4
#     4   9  17  30  45  60  83 115 151 185 210 243
#     4  10  19  28  39  60  91 119 144 179 215 250
#     4   9  18  29  44  66  85 110 146 175 214 262
#     4   9  17  28  43  66  88 110 144 175 212 263
#     4   9  16  27  44  63  87 119 150 180 210 245
#     4   8  14  27  46  67  90 109 132 174 220 264
#     4   9  18  29  40  59  86 121 158 181 206 244
#
# _framework density 17.096674
#
# number of rings (size 3 to 8) (size 9 to 14) (size 15 to 20)
#    0.000    3.000    0.000    2.143    0.000    6.857 
#    0.000    3.571    0.000    0.429    0.000   19.000 
#    0.000    0.000    0.000    0.000    0.000    0.000 
#
# Total GULP energy -155881.851754 kJ/mol
# GULP energy per Si atom -5567.208991 kJ/mol
# Density = 1.705776 g / cm^3
# Si number density = 17.096674 Si / 1000 Ang^3
#
#
#
# Elastic Constant Matrix: (Units=GPa)
#
#
# Indices 1 2 3 4 5 6 
#
# 1 14.3270 8.0871 6.8236 0.0000 0.4886 0.0000
# 2 8.0871 84.1209 36.5734 0.0000 -8.8578 0.0000
# 3 6.8236 36.5734 94.0089 0.0000 1.7786 0.0000
# 4 0.0000 0.0000 0.0000 14.0256 0.0000 -3.2796
# 5 0.4886 -8.8578 1.7786 0.0000 10.9886 0.0000
# 6 0.0000 0.0000 0.0000 -3.2796 0.0000 3.7276
#
#
#
# Elastic Compliance Matrix: (Units=1/GPa)
#
#
# Indices 1 2 3 4 5 6 
#
# 1 0.075280 -0.007026 -0.002568 0.000000 -0.008595 0.000000
# 2 -0.007026 0.016898 -0.006347 0.000000 0.014961 0.000000
# 3 -0.002568 -0.006347 0.013429 0.000000 -0.007176 0.000000
# 4 0.000000 0.000000 0.000000 0.089766 0.000000 0.078977
# 5 -0.008595 0.014961 -0.007176 0.000000 0.104607 0.000000
# 6 0.000000 0.000000 0.000000 0.078977 0.000000 0.337752
#
#
# Mechanical properties :
#
#
# Convention : Reuss Voigt Hill
#
# Bulk Modulus (GPa) = 13.56390 32.82499 23.19445
# Shear Modulus (GPa) = 7.20265 15.14654 11.17460
#
# Velocity S-wave (km/s) = 2.05476 2.97970 2.55936
# Velocity P-wave (km/s) = 3.68514 5.57489 4.72545
#
# Compressibility (1/GPa) = 0.07372508
#
# Stress axis : x y z
#
# Youngs Moduli (GPa) = 13.28366 59.17844 74.46687
#
# Poissons Ratio (x) = 0.41577 0.19125
# Poissons Ratio (y) = 0.09333 0.47265
# Poissons Ratio (z) = 0.03412 0.37562
#
# Static dielectric constant tensor:
#      x y z
#    x 1.584300 0.000000 0.002900 
#    y 0.000000 1.556250 0.000000 
#    z 0.002900 0.000000 1.634010 
# 
# From -- ./inp_files/29604.got.cif
#   From: 2010.05.17/outbox.cif.g08.bks.cpg/sg10_15_cif.got.tgz:29604.got - 2010.06.03 11:33:40.
