data_PCOD9144241
_publ_section_title
;
Structure prediction by ZEFSAII (Michael W. Deem and Ramdas Pophale) SiO2 
 PCOD9144241
Probable space group: P 2/M
;
_chemical_formula_sum "Si O2"
_cell_formula_units_Z 32
_cell_length_a 26.978478
_cell_length_b 19.454924
_cell_length_c 26.481073
_cell_angle_alpha 90.000000
_cell_angle_beta 168.979226
_cell_angle_gamma 90.000000
_cell_volume 2656.994817
_symmetry_space_group_name_H-M "P 2/M"
_symmetry_group_IT_number 10
_symmetry_cell_setting 'monoclinic'
loop_
_space_group_symop_operation_xyz
x,y,z
-x,y,-z
-x,-y,-z
x,-y,z
loop_
_atom_site_type_symbol
_atom_site_label
_atom_site_fract_x
_atom_site_fract_y
_atom_site_fract_z
Si Si1 0.858671 0.080959 0.307234
Si Si2 0.560939 0.916332 0.617772
Si Si3 0.939505 0.916109 0.821319
Si Si4 0.749728 0.725406 0.286367
Si Si5 0.750222 0.573677 0.286358
Si Si6 0.478559 0.918079 0.181332
Si Si7 0.345482 0.140414 0.747253
Si Si8 0.006345 0.081367 0.238489
O O1 0.000000 0.104404 0.500000
O O2 0.081822 0.096072 0.489408
O O3 0.810102 0.000000 0.262465
O O4 0.584447 0.115694 0.021683
O O5 0.500000 0.893151 0.500000
O O6 0.335942 0.895314 0.431394
O O7 0.562050 0.000000 0.617400
O O8 0.836040 0.895154 0.915468
O O9 0.991298 0.891205 0.816258
O O10 0.938741 0.000000 0.818948
O O11 0.754056 0.648847 0.315118
O O12 0.730570 0.783986 0.309524
O O13 0.000000 0.733075 0.500000
O O14 0.500000 0.730358 0.000000
O O15 0.748891 0.500000 0.313468
O O16 0.000000 0.573111 0.500000
O O17 0.500000 0.573687 0.000000
O O18 0.546895 0.873322 0.200829
O O19 0.714174 0.912359 0.456396
O O20 0.455164 0.000000 0.143479
O O21 0.217595 0.893518 0.947978
O O22 0.948946 0.000000 0.176317
#
# Coordination Sequence:
#
# PCOD9144241 Si02
#       8
#     4   4   4   4   4   4   4   4
#     4  11  22  33  43  53  66  86 111 136 165 206
#     4   9  15  21  30  46  65  81  95 113 144 189
#     4   9  15  23  34  45  59  78  98 122 151 185
#     4  10  19  30  43  58  75  92 108 128 158 200
#     4   8  14  25  41  59  76  92 108 124 144 178
#     4  10  19  29  39  49  61  78 105 140 171 197
#     4  12  21  31  43  55  70  87 108 138 174 205
#     4   9  17  28  39  49  59  76 105 137 166 193
#
# _framework density 12.043682
#
# number of rings (size 3 to 8) (size 9 to 14) (size 15 to 20)
#    0.000    2.250    0.000    5.250    0.000    6.500 
#    0.000    0.000    0.000    0.000    0.000    0.000 
#    0.000    0.000    0.000    0.000    0.000    0.000 
#
# Total GULP energy -178221.839119 kJ/mol
# GULP energy per Si atom -5569.432472 kJ/mol
# Density = 1.201627 g / cm^3
# Si number density = 12.043682 Si / 1000 Ang^3
#
#
#
# Elastic Constant Matrix: (Units=GPa)
#
#
# Indices 1 2 3 4 5 6 
#
# 1 38.9191 11.6778 -9.2539 0.0000 3.0376 0.0000
# 2 11.6778 54.8805 3.5070 0.0000 -1.4761 0.0000
# 3 -9.2539 3.5070 47.3926 0.0000 11.2676 0.0000
# 4 0.0000 0.0000 0.0000 7.6617 0.0000 1.1171
# 5 3.0376 -1.4761 11.2676 0.0000 15.1833 0.0000
# 6 0.0000 0.0000 0.0000 1.1171 0.0000 1.5657
#
#
#
# Elastic Compliance Matrix: (Units=1/GPa)
#
#
# Indices 1 2 3 4 5 6 
#
# 1 0.031606 -0.007774 0.010236 0.000000 -0.014675 0.000000
# 2 -0.007774 0.020364 -0.004694 0.000000 0.007018 0.000000
# 3 0.010236 -0.004694 0.029192 0.000000 -0.024168 0.000000
# 4 0.000000 0.000000 0.000000 0.145674 0.000000 -0.103940
# 5 -0.014675 0.007018 -0.024168 0.000000 0.087415 0.000000
# 6 0.000000 0.000000 0.000000 -0.103940 0.000000 0.712868
#
#
# Mechanical properties :
#
#
# Convention : Reuss Voigt Hill
#
# Bulk Modulus (GPa) = 13.03801 17.00599 15.02200
# Shear Modulus (GPa) = 4.72970 13.89956 9.31463
#
# Velocity S-wave (km/s) = 1.98385 3.40088 2.78403
# Velocity P-wave (km/s) = 4.01206 5.43804 4.77854
#
# Compressibility (1/GPa) = 0.07669882
#
# Stress axis : x y z
#
# Youngs Moduli (GPa) = 31.63940 49.10549 34.25574
#
# Poissons Ratio (x) = 0.38175 -0.35063
# Poissons Ratio (y) = 0.24597 0.16078
# Poissons Ratio (z) = -0.32385 0.23048
#
# Static dielectric constant tensor:
#      x y z
#    x 1.400370 0.000000 0.010310 
#    y 0.000000 1.394820 0.000000 
#    z 0.010310 0.000000 1.411080 
# 
# From -- ./inp_files/94180.got.cif
#   From: 2010.05.17/outbox.cif.g08.bks.cpg/sg10_48_cif.got.tgz:94180.got - 2010.06.03 11:33:40.
