data_PCOD9144077
_publ_section_title
;
Structure prediction by ZEFSAII (Michael W. Deem and Ramdas Pophale) SiO2 
 PCOD9144077
Probable space group: P 2/M
;
_chemical_formula_sum "Si O2"
_cell_formula_units_Z 20
_cell_length_a 7.844756
_cell_length_b 22.052476
_cell_length_c 7.018365
_cell_angle_alpha 90.000000
_cell_angle_beta 137.539150
_cell_angle_gamma 90.000000
_cell_volume 819.656759
_symmetry_space_group_name_H-M "P 2/M"
_symmetry_group_IT_number 10
_symmetry_cell_setting 'monoclinic'
loop_
_space_group_symop_operation_xyz
x,y,z
-x,y,-z
-x,-y,-z
x,-y,z
loop_
_atom_site_type_symbol
_atom_site_label
_atom_site_fract_x
_atom_site_fract_y
_atom_site_fract_z
Si Si1 0.423379 0.630184 0.712826
Si Si2 0.550282 0.862928 0.814023
Si Si3 0.053763 0.070066 0.315947
Si Si4 0.000000 0.288441 0.500000
Si Si5 0.292097 0.500000 0.658117
Si Si6 0.756034 0.740208 0.927269
O O1 0.169612 0.669018 0.506933
O O2 0.353222 0.562054 0.595574
O O3 0.500000 0.626310 0.000000
O O4 0.636925 0.673221 0.799599
O O5 0.323206 0.897662 0.524758
O O6 0.500000 0.863435 0.000000
O O7 0.559369 0.794282 0.746375
O O8 0.823215 0.895156 0.024957
O O9 0.000000 0.070546 0.500000
O O10 0.064500 0.000000 0.266695
O O11 0.834102 0.252746 0.214129
O O12 0.000000 0.500000 0.500000
O O13 0.500000 0.500000 0.000000
O O14 0.000000 0.748853 0.000000
#
# Coordination Sequence:
#
# PCOD9144077 Si02
#       6
#     4   4   4   2   2   4
#     4   9  19  36  60  93 124 164 215 266 317 388
#     4  10  20  35  60  88 125 165 212 263 317 383
#     4   9  18  33  58  91 123 160 209 263 319 382
#     4  10  20  39  66  84 125 164 212 268 328 372
#     4  10  18  34  63  97 125 168 220 267 325 388
#     4  11  25  40  60  94 130 170 217 266 323 385
#
# _framework density 24.400458
#
# number of rings (size 3 to 8) (size 9 to 14) (size 15 to 20)
#    0.000    2.200    1.000    2.400    7.000    3.200 
#    0.000    0.500    0.000    4.800    0.000    0.000 
#    0.000    0.000    0.000    0.000    0.000    0.000 
#
# Total GULP energy -111911.723400 kJ/mol
# GULP energy per Si atom -5595.586170 kJ/mol
# Density = 2.434492 g / cm^3
# Si number density = 24.400458 Si / 1000 Ang^3
#
#
#
# Elastic Constant Matrix: (Units=GPa)
#
#
# Indices 1 2 3 4 5 6 
#
# 1 118.1802 53.2574 40.8394 0.0000 21.9595 0.0000
# 2 53.2574 168.7205 46.1710 0.0000 24.2755 0.0000
# 3 40.8394 46.1710 139.8760 0.0000 8.3940 0.0000
# 4 0.0000 0.0000 0.0000 -12.0204 0.0000 44.4809
# 5 21.9595 24.2755 8.3940 0.0000 50.5660 0.0000
# 6 0.0000 0.0000 0.0000 44.4809 0.0000 -40.3478
#
#
#
# Elastic Compliance Matrix: (Units=1/GPa)
#
#
# Indices 1 2 3 4 5 6 
#
# 1 0.010891 -0.002371 -0.002204 0.000000 -0.003226 0.000000
# 2 -0.002371 0.007449 -0.001630 0.000000 -0.002276 0.000000
# 3 -0.002204 -0.001630 0.008309 0.000000 0.000360 0.000000
# 4 0.000000 0.000000 0.000000 0.027015 0.000000 0.029782
# 5 -0.003226 -0.002276 0.000360 0.000000 0.022210 0.000000
# 6 0.000000 0.000000 0.000000 0.029782 0.000000 0.008048
#
#
# Mechanical properties :
#
#
# Convention : Reuss Voigt Hill
#
# Bulk Modulus (GPa) = 70.22455 78.59026 74.40740
# Shear Modulus (GPa) = 49.46737 18.74015 34.10376
#
# Velocity S-wave (km/s) = 4.50745 2.77433 3.74260
# Velocity P-wave (km/s) = 7.47877 6.52235 7.01687
#
# Compressibility (1/GPa) = 0.01424003
#
# Stress axis : x y z
#
# Youngs Moduli (GPa) = 91.82001 134.25050 120.35098
#
# Poissons Ratio (x) = 0.31825 0.26522
# Poissons Ratio (y) = 0.21767 0.19617
# Poissons Ratio (z) = 0.20235 0.21883
#
# Static dielectric constant tensor:
#      x y z
#    x 1.890790 0.000000 0.439240 
#    y 0.000000 1.927570 0.000000 
#    z 0.439240 0.000000 -1.086700 
# 
# From -- ./inp_files/20340.got.cif
#   From: 2010.05.17/outbox.cif.g08.bks.cpg/sg10_11_cif.got.tgz:20340.got - 2010.06.03 11:33:40.
