data_PCOD9144161
_publ_section_title
;
Structure prediction by ZEFSAII (Michael W. Deem and Ramdas Pophale) SiO2 
 PCOD9144161
Probable space group: P 2/M
;
_chemical_formula_sum "Si O2"
_cell_formula_units_Z 26
_cell_length_a 26.488791
_cell_length_b 9.231012
_cell_length_c 11.890319
_cell_angle_alpha 90.000000
_cell_angle_beta 23.631105
_cell_angle_gamma 90.000000
_cell_volume 1165.421440
_symmetry_space_group_name_H-M "P 2/M"
_symmetry_group_IT_number 10
_symmetry_cell_setting 'monoclinic'
loop_
_space_group_symop_operation_xyz
x,y,z
-x,y,-z
-x,-y,-z
x,-y,z
loop_
_atom_site_type_symbol
_atom_site_label
_atom_site_fract_x
_atom_site_fract_y
_atom_site_fract_z
Si Si1 0.530231 0.669507 0.114605
Si Si2 0.263953 0.165436 0.869182
Si Si3 0.000000 0.249905 0.500000
Si Si4 0.715711 0.173359 0.425343
Si Si5 0.134381 0.663513 0.442211
Si Si6 0.190508 0.665344 0.565229
Si Si7 0.371188 0.827020 0.877302
O O1 0.496915 0.500000 0.187295
O O2 0.421799 0.757809 0.272995
O O3 0.539706 0.741881 0.218901
O O4 0.668265 0.679574 0.776638
O O5 0.125078 0.166505 0.207076
O O6 0.305713 0.000000 0.769726
O O7 0.254055 0.225875 0.763702
O O8 0.355858 0.225162 0.779394
O O9 0.036554 0.334151 0.539670
O O10 0.810103 0.230461 0.327504
O O11 0.711654 0.000000 0.437350
O O12 0.192347 0.500000 0.323248
O O13 0.099287 0.689309 0.644045
O O14 0.234314 0.787252 0.207637
O O15 0.174528 0.500000 0.636141
O O16 0.392874 0.000000 0.835602
#
# Coordination Sequence:
#
# PCOD9144161 Si02
#       7
#     4   4   2   4   4   4   4
#     4  10  20  35  55  79 110 146 181 218 262 312
#     4   9  20  36  54  79 109 139 174 225 276 315
#     4  10  18  36  64  82  99 136 181 216 267 334
#     4  11  22  35  52  78 110 142 182 224 261 310
#     4   9  18  33  55  83 111 135 170 222 269 314
#     4   9  19  36  54  75 109 147 177 211 260 314
#     4   9  17  32  54  79 107 141 180 218 263 316
#
# _framework density 22.309526000000002
#
# number of rings (size 3 to 8) (size 9 to 14) (size 15 to 20)
#    0.000    2.462    0.000    3.231    0.000    6.154 
#    0.000   13.077    0.000    3.692    0.000    0.000 
#    0.000    0.000    0.000    0.000    0.000    0.000 
#
# Total GULP energy -144914.146042 kJ/mol
# GULP energy per Si atom -5573.621002 kJ/mol
# Density = 2.225875 g / cm^3
# Si number density = 22.309526 Si / 1000 Ang^3
#
#
#
# Elastic Constant Matrix: (Units=GPa)
#
#
# Indices 1 2 3 4 5 6 
#
# 1 208.7452 60.3028 20.3105 0.0000 19.1820 0.0000
# 2 60.3028 83.6011 19.9492 0.0000 11.5121 0.0000
# 3 20.3105 19.9492 57.9210 0.0000 2.7431 0.0000
# 4 0.0000 0.0000 0.0000 -17.6023 0.0000 9.8151
# 5 19.1820 11.5121 2.7431 0.0000 27.4998 0.0000
# 6 0.0000 0.0000 0.0000 9.8151 0.0000 17.4701
#
#
#
# Elastic Compliance Matrix: (Units=1/GPa)
#
#
# Indices 1 2 3 4 5 6 
#
# 1 0.006249 -0.003980 -0.000696 0.000000 -0.002623 0.000000
# 2 -0.003980 0.016300 -0.004046 0.000000 -0.003644 0.000000
# 3 -0.000696 -0.004046 0.018888 0.000000 0.000295 0.000000
# 4 0.000000 0.000000 0.000000 -0.043259 0.000000 0.024304
# 5 -0.002623 -0.003644 0.000295 0.000000 0.039690 0.000000
# 6 0.000000 0.000000 0.000000 0.024304 0.000000 0.043586
#
#
# Mechanical properties :
#
#
# Convention : Reuss Voigt Hill
#
# Bulk Modulus (GPa) = 41.67877 61.26581 51.47229
# Shear Modulus (GPa) = 46.77424 22.12049 34.44737
#
# Velocity S-wave (km/s) = 4.58384 3.15227 3.93372
# Velocity P-wave (km/s) = 6.83652 6.38517 6.61470
#
# Compressibility (1/GPa) = 0.02399303
#
# Stress axis : x y z
#
# Youngs Moduli (GPa) = 160.02182 61.35078 52.94238
#
# Poissons Ratio (x) = 0.24419 0.03686
# Poissons Ratio (y) = 0.63693 0.21419
# Poissons Ratio (z) = 0.11141 0.24821
#
# Static dielectric constant tensor:
#      x y z
#    x 1.915550 0.000000 -0.004990 
#    y 0.000000 1.764450 0.000000 
#    z -0.004990 0.000000 1.896470 
# 
# From -- ./inp_files/57436.got.cif
#   From: 2010.05.17/outbox.cif.g08.bks.cpg/sg10_29_cif.got.tgz:57436.got - 2010.06.03 11:33:40.
