data_PCOD9144621
_publ_section_title
;
Structure prediction by ZEFSAII (Michael W. Deem and Ramdas Pophale) SiO2 
 PCOD9144621
Probable space group: P 2/M
;
_chemical_formula_sum "Si O2"
_cell_formula_units_Z 28
_cell_length_a 14.488131
_cell_length_b 15.588536
_cell_length_c 8.434917
_cell_angle_alpha 90.000000
_cell_angle_beta 38.880901
_cell_angle_gamma 90.000000
_cell_volume 1195.785077
_symmetry_space_group_name_H-M "P 2/M"
_symmetry_group_IT_number 10
_symmetry_cell_setting 'monoclinic'
loop_
_space_group_symop_operation_xyz
x,y,z
-x,y,-z
-x,-y,-z
x,-y,z
loop_
_atom_site_type_symbol
_atom_site_label
_atom_site_fract_x
_atom_site_fract_y
_atom_site_fract_z
Si Si1 0.090016 0.401799 0.047704
Si Si2 0.578715 0.278434 0.050137
Si Si3 0.866833 0.720084 0.478900
Si Si4 0.069272 0.908082 0.581774
Si Si5 0.323498 0.906851 0.718908
Si Si6 0.681441 0.282009 0.405851
Si Si7 0.361960 0.091324 0.018834
O O1 0.121804 0.500000 0.045553
O O2 0.984856 0.355243 0.314458
O O3 0.235055 0.345760 0.823283
O O4 0.000000 0.401006 0.000000
O O5 0.754082 0.281539 0.780250
O O6 0.544314 0.176159 0.099026
O O7 0.500000 0.317331 0.000000
O O8 0.489429 0.304702 0.326596
O O9 0.952266 0.810465 0.334637
O O10 0.761977 0.709532 0.467448
O O11 0.245232 0.908481 0.315524
O O12 0.000000 0.911707 0.500000
O O13 0.032481 0.000000 0.711682
O O14 0.500000 0.908723 0.500000
O O15 0.290681 0.816586 0.683245
O O16 0.278140 0.000000 0.711276
O O17 0.274842 0.904025 0.967832
O O18 0.441657 0.000000 0.910466
#
# Coordination Sequence:
#
# PCOD9144621 Si02
#       7
#     4   4   4   4   4   4   4
#     4   9  19  37  58  78 100 128 167 215 269 325
#     4   9  17  30  48  73 102 130 168 213 251 295
#     4   9  19  34  52  76 103 135 172 212 258 305
#     4   9  18  31  48  71 103 142 179 209 245 301
#     4  10  19  30  47  74 108 142 177 209 246 302
#     4  10  19  32  53  78 103 134 172 214 259 300
#     4   9  17  29  43  67 101 139 179 209 243 295
#
# _framework density 23.415576999999999
#
# number of rings (size 3 to 8) (size 9 to 14) (size 15 to 20)
#    0.000    2.714    1.429    0.000    2.000    0.857 
#    0.000    3.571    0.000    7.714    0.000    0.000 
#    0.000    0.000    0.000    0.000    0.000    0.000 
#
# Total GULP energy -156042.663642 kJ/mol
# GULP energy per Si atom -5572.952273 kJ/mol
# Density = 2.336228 g / cm^3
# Si number density = 23.415577 Si / 1000 Ang^3
#
#
#
# Elastic Constant Matrix: (Units=GPa)
#
#
# Indices 1 2 3 4 5 6 
#
# 1 43.6280 9.6254 15.1079 0.0000 -2.9453 0.0000
# 2 9.6254 164.1543 87.2534 0.0000 -6.2675 0.0000
# 3 15.1079 87.2534 165.1050 0.0000 -0.9181 0.0000
# 4 0.0000 0.0000 0.0000 22.4010 0.0000 -9.7251
# 5 -2.9453 -6.2675 -0.9181 0.0000 19.8915 0.0000
# 6 0.0000 0.0000 0.0000 -9.7251 0.0000 15.3628
#
#
#
# Elastic Compliance Matrix: (Units=1/GPa)
#
#
# Indices 1 2 3 4 5 6 
#
# 1 0.023907 -0.000166 -0.002081 0.000000 0.003391 0.000000
# 2 -0.000166 0.008595 -0.004513 0.000000 0.002475 0.000000
# 3 -0.002081 -0.004513 0.008625 0.000000 -0.001332 0.000000
# 4 0.000000 0.000000 0.000000 0.061559 0.000000 0.038969
# 5 0.003391 0.002475 -0.001332 0.000000 0.051493 0.000000
# 6 0.000000 0.000000 0.000000 0.038969 0.000000 0.089761
#
#
# Mechanical properties :
#
#
# Convention : Reuss Voigt Hill
#
# Bulk Modulus (GPa) = 36.22354 66.31784 51.27069
# Shear Modulus (GPa) = 18.75027 28.92443 23.83735
#
# Velocity S-wave (km/s) = 2.83284 3.51845 3.19409
# Velocity P-wave (km/s) = 5.11893 6.69997 5.96209
#
# Compressibility (1/GPa) = 0.02760636
#
# Stress axis : x y z
#
# Youngs Moduli (GPa) = 41.82821 116.34635 115.94355
#
# Poissons Ratio (x) = 0.01935 0.24127
# Poissons Ratio (y) = 0.00695 0.52328
# Poissons Ratio (z) = 0.08704 0.52510
#
# Static dielectric constant tensor:
#      x y z
#    x 1.946750 0.000000 0.005210 
#    y 0.000000 1.875510 0.000000 
#    z 0.005210 0.000000 1.986620 
# 
# From -- ./inp_files/55802.got.cif
#   From: 2010.05.17/outbox.cif.g08.bks.cpg/sg10_28_cif.got.tgz:55802.got - 2010.06.03 11:33:40.
