data_PCOD9144864
_publ_section_title
;
Structure prediction by ZEFSAII (Michael W. Deem and Ramdas Pophale) SiO2 
 PCOD9144864
Probable space group: P 2/M
;
_chemical_formula_sum "Si O2"
_cell_formula_units_Z 22
_cell_length_a 14.041856
_cell_length_b 17.395103
_cell_length_c 16.109492
_cell_angle_alpha 90.000000
_cell_angle_beta 18.412582
_cell_angle_gamma 90.000000
_cell_volume 1242.866325
_symmetry_space_group_name_H-M "P 2/M"
_symmetry_group_IT_number 10
_symmetry_cell_setting 'monoclinic'
loop_
_space_group_symop_operation_xyz
x,y,z
-x,y,-z
-x,-y,-z
x,-y,z
loop_
_atom_site_type_symbol
_atom_site_label
_atom_site_fract_x
_atom_site_fract_y
_atom_site_fract_z
Si Si1 0.803865 0.592915 0.084183
Si Si2 0.788485 0.349060 0.594640
Si Si3 0.787293 0.823317 0.593231
Si Si4 0.289878 0.911890 0.090808
Si Si5 0.635435 0.500000 0.795429
Si Si6 0.908962 0.592439 0.324392
O O1 0.837811 0.500000 0.053438
O O2 0.450552 0.607833 0.387139
O O3 0.000000 0.620447 0.000000
O O4 0.932190 0.621380 0.890221
O O5 0.668351 0.263431 0.680178
O O6 0.575043 0.422133 0.793192
O O7 0.979608 0.371099 0.355312
O O8 0.000000 0.342536 0.500000
O O9 0.509867 0.879792 0.838529
O O10 0.000000 0.823733 0.500000
O O11 0.009095 0.855838 0.339560
O O12 0.195967 0.000000 0.155523
O O13 0.500000 0.911014 0.000000
O O14 0.000000 0.500000 0.500000
O O15 0.500000 0.500000 0.000000
O O16 0.948004 0.500000 0.300062
#
# Coordination Sequence:
#
# PCOD9144864 Si02
#       6
#     4   4   4   4   2   4
#     4   9  18  32  49  67  85 106 146 203 250 286
#     4  10  21  35  46  66  96 130 167 199 228 267
#     4   9  18  28  43  61  85 115 148 189 230 267
#     4   9  16  28  44  62  80 105 146 193 234 273
#     4  10  22  34  46  58  81 126 167 200 226 246
#     4  10  19  31  48  67  87 119 157 193 237 278
#
# _framework density 17.701018999999999
#
# number of rings (size 3 to 8) (size 9 to 14) (size 15 to 20)
#    0.000    2.545    0.909    1.091    0.000   13.818 
#    0.000    0.000    0.000    0.000    0.000    0.000 
#    0.000    0.000    0.000    0.000    0.000   63.636 
#
# Total GULP energy -122699.256075 kJ/mol
# GULP energy per Si atom -5577.238913 kJ/mol
# Density = 1.766073 g / cm^3
# Si number density = 17.701019 Si / 1000 Ang^3
#
#
#
# Elastic Constant Matrix: (Units=GPa)
#
#
# Indices 1 2 3 4 5 6 
#
# 1 74.6354 4.5529 27.2699 0.0000 12.0697 0.0000
# 2 4.5529 97.1359 31.3416 0.0000 1.3451 0.0000
# 3 27.2699 31.3416 107.0398 0.0000 15.2166 0.0000
# 4 0.0000 0.0000 0.0000 16.4339 0.0000 -1.2272
# 5 12.0697 1.3451 15.2166 0.0000 18.4371 0.0000
# 6 0.0000 0.0000 0.0000 -1.2272 0.0000 -3.1762
#
#
#
# Elastic Compliance Matrix: (Units=1/GPa)
#
#
# Indices 1 2 3 4 5 6 
#
# 1 0.015742 0.000336 -0.002991 0.000000 -0.007861 0.000000
# 2 0.000336 0.011453 -0.003726 0.000000 0.002020 0.000000
# 3 -0.002991 -0.003726 0.012325 0.000000 -0.007942 0.000000
# 4 0.000000 0.000000 0.000000 0.059143 0.000000 -0.022851
# 5 -0.007861 0.002020 -0.007942 0.000000 0.065792 0.000000
# 6 0.000000 0.000000 0.000000 -0.022851 0.000000 -0.306010
#
#
# Mechanical properties :
#
#
# Convention : Reuss Voigt Hill
#
# Bulk Modulus (GPa) = 37.37359 45.01554 41.19457
# Shear Modulus (GPa) = -41.71104 20.71541 -10.49782
#
# Velocity S-wave (km/s) = -4.85956 3.42467 -2.43793
# Velocity P-wave (km/s) = 3.21364 6.41280 3.92406
#
# Compressibility (1/GPa) = 0.02675686
#
# Stress axis : x y z
#
# Youngs Moduli (GPa) = 63.52345 87.30970 81.13917
#
# Poissons Ratio (x) = -0.02935 0.24273
# Poissons Ratio (y) = -0.02136 0.30236
# Poissons Ratio (z) = 0.19003 0.32535
#
# Static dielectric constant tensor:
#      x y z
#    x 1.685530 0.000000 -0.151590 
#    y 0.000000 1.616900 0.000000 
#    z -0.151590 0.000000 1.957870 
# 
# From -- ./inp_files/67697.got.cif
#   From: 2010.05.17/outbox.cif.g08.bks.cpg/sg10_34_cif.got.tgz:67697.got - 2010.06.03 11:33:40.
