data_PCOD9144057
_publ_section_title
;
Structure prediction by ZEFSAII (Michael W. Deem and Ramdas Pophale) SiO2 
 PCOD9144057
Probable space group: P 2/M
;
_chemical_formula_sum "Si O2"
_cell_formula_units_Z 22
_cell_length_a 11.353619
_cell_length_b 7.656890
_cell_length_c 12.079014
_cell_angle_alpha 90.000000
_cell_angle_beta 108.936390
_cell_angle_gamma 90.000000
_cell_volume 993.239527
_symmetry_space_group_name_H-M "P 2/M"
_symmetry_group_IT_number 10
_symmetry_cell_setting 'monoclinic'
loop_
_space_group_symop_operation_xyz
x,y,z
-x,y,-z
-x,-y,-z
x,-y,z
loop_
_atom_site_type_symbol
_atom_site_label
_atom_site_fract_x
_atom_site_fract_y
_atom_site_fract_z
Si Si1 0.822583 0.714401 0.257071
Si Si2 0.585186 0.291622 0.324826
Si Si3 0.882856 0.701908 0.029627
Si Si4 0.000000 0.252647 0.500000
Si Si5 0.299675 0.796348 0.211962
Si Si6 0.773649 0.793032 0.567084
O O1 0.840294 0.500000 0.273720
O O2 0.683475 0.751608 0.257557
O O3 0.849555 0.771680 0.140498
O O4 0.916505 0.807579 0.370368
O O5 0.577303 0.500000 0.330629
O O6 0.447907 0.223126 0.260807
O O7 0.647708 0.224905 0.457381
O O8 0.916360 0.500000 0.061315
O O9 0.765739 0.708149 0.911951
O O10 0.000000 0.782561 0.000000
O O11 0.880926 0.313362 0.536712
O O12 0.246385 0.733553 0.313745
O O13 0.268586 0.000000 0.194731
O O14 0.808545 0.000000 0.575409
#
# Coordination Sequence:
#
# PCOD9144057 Si02
#       6
#     4   4   4   2   4   4
#     4   9  19  35  56  84 114 142 179 230 277 319
#     4  10  21  37  58  83 110 144 186 229 273 323
#     4  10  21  38  59  83 111 144 183 225 271 326
#     4  10  18  34  60  84 109 144 183 220 273 336
#     4  11  23  38  56  80 113 149 183 225 275 323
#     4  10  21  36  55  82 115 146 180 226 276 325
#
# _framework density 22.149744999999999
#
# number of rings (size 3 to 8) (size 9 to 14) (size 15 to 20)
#    0.000    2.000    0.000    3.273    0.000    5.455 
#    0.000    9.091    0.000    0.000    0.000    0.000 
#    0.000    0.000    0.000    0.000    0.000    0.000 
#
# Total GULP energy -122658.925809 kJ/mol
# GULP energy per Si atom -5575.405719 kJ/mol
# Density = 2.209933 g / cm^3
# Si number density = 22.149745 Si / 1000 Ang^3
#
#
#
# Elastic Constant Matrix: (Units=GPa)
#
#
# Indices 1 2 3 4 5 6 
#
# 1 111.1503 6.1943 82.3716 0.0000 -2.5315 0.0000
# 2 6.1943 61.4174 7.9463 0.0000 -10.5545 0.0000
# 3 82.3716 7.9463 174.0630 0.0000 -35.5647 0.0000
# 4 0.0000 0.0000 0.0000 0.0467 0.0000 4.7166
# 5 -2.5315 -10.5545 -35.5647 0.0000 40.6336 0.0000
# 6 0.0000 0.0000 0.0000 4.7166 0.0000 -29.1954
#
#
#
# Elastic Compliance Matrix: (Units=1/GPa)
#
#
# Indices 1 2 3 4 5 6 
#
# 1 0.015297 -0.001633 -0.008593 0.000000 -0.006992 0.000000
# 2 -0.001633 0.017220 0.001071 0.000000 0.005309 0.000000
# 3 -0.008593 0.001071 0.011825 0.000000 0.010092 0.000000
# 4 0.000000 0.000000 0.000000 1.236512 0.000000 0.199762
# 5 -0.006992 0.005309 0.010092 0.000000 0.034387 0.000000
# 6 0.000000 0.000000 0.000000 0.199762 0.000000 -0.001980
#
#
# Mechanical properties :
#
#
# Convention : Reuss Voigt Hill
#
# Bulk Modulus (GPa) = 38.41274 59.96166 49.18720
# Shear Modulus (GPa) = 3.73066 18.97157 11.35111
#
# Velocity S-wave (km/s) = 1.29921 2.92980 2.26624
# Velocity P-wave (km/s) = 4.43064 6.21086 5.39469
#
# Compressibility (1/GPa) = 0.02603303
#
# Stress axis : x y z
#
# Youngs Moduli (GPa) = 65.37409 58.07065 84.56936
#
# Poissons Ratio (x) = 0.09480 0.72669
# Poissons Ratio (y) = 0.10673 -0.09058
# Poissons Ratio (z) = 0.56175 -0.06220
#
# Static dielectric constant tensor:
#      x y z
#    x 1.796250 0.000000 -0.019680 
#    y 0.000000 1.982010 0.000000 
#    z -0.019680 0.000000 1.766850 
# 
# From -- ./inp_files/45024.got.cif
#   From: 2010.05.17/outbox.cif.g08.bks.cpg/sg10_23_cif.got.tgz:45024.got - 2010.06.03 11:33:40.
