data_PCOD9144846
_publ_section_title
;
Structure prediction by ZEFSAII (Michael W. Deem and Ramdas Pophale) SiO2 
 PCOD9144846
Probable space group: P 2/M
;
_chemical_formula_sum "Si O2"
_cell_formula_units_Z 32
_cell_length_a 11.148782
_cell_length_b 8.923176
_cell_length_c 21.260847
_cell_angle_alpha 90.000000
_cell_angle_beta 115.555665
_cell_angle_gamma 90.000000
_cell_volume 1908.157373
_symmetry_space_group_name_H-M "P 2/M"
_symmetry_group_IT_number 10
_symmetry_cell_setting 'monoclinic'
loop_
_space_group_symop_operation_xyz
x,y,z
-x,y,-z
-x,-y,-z
x,-y,z
loop_
_atom_site_type_symbol
_atom_site_label
_atom_site_fract_x
_atom_site_fract_y
_atom_site_fract_z
Si Si1 0.208021 0.323896 0.701365
Si Si2 0.523549 0.179462 0.601027
Si Si3 0.698525 0.679245 0.530921
Si Si4 0.483088 0.676501 0.267233
Si Si5 0.977946 0.176015 0.569389
Si Si6 0.275548 0.172394 0.843157
Si Si7 0.656922 0.326648 0.016202
Si Si8 0.411438 0.172613 0.124718
O O1 0.176964 0.500000 0.691254
O O2 0.359373 0.303703 0.711453
O O3 0.205014 0.266084 0.772462
O O4 0.106707 0.231349 0.636030
O O5 0.383496 0.248701 0.545647
O O6 0.630434 0.250566 0.577439
O O7 0.549788 0.231345 0.677788
O O8 0.521105 0.000000 0.594687
O O9 0.683212 0.500000 0.526934
O O10 0.850457 0.728375 0.560818
O O11 0.458967 0.500000 0.271161
O O12 0.406643 0.736565 0.188525
O O13 0.000000 0.195800 0.500000
O O14 0.953637 0.000000 0.575905
O O15 0.267091 0.243742 0.910273
O O16 0.432657 0.173906 0.860554
O O17 0.231685 0.000000 0.832865
O O18 0.695699 0.500000 0.021010
O O19 0.500000 0.322946 0.000000
O O20 0.665819 0.246932 0.950839
O O21 0.372839 0.000000 0.124948
#
# Coordination Sequence:
#
# PCOD9144846 Si02
#       8
#     4   4   4   4   4   4   4   4
#     4  10  20  32  47  68  95 127 162 199 238 284
#     4  11  21  35  54  74  97 124 157 196 239 285
#     4  11  22  37  55  74  96 123 158 197 238 283
#     4  10  19  31  47  69  97 128 162 198 239 284
#     4  11  23  37  53  73  98 127 159 196 238 283
#     4   9  16  26  40  58  84 119 157 195 234 279
#     4   9  15  23  36  55  82 117 155 193 233 278
#     4   9  16  25  38  59  87 120 157 194 234 280
#
# _framework density 16.770104
#
# number of rings (size 3 to 8) (size 9 to 14) (size 15 to 20)
#    0.000    2.000    0.000    6.000    0.000    9.000 
#    0.000    0.000    0.000    0.000    0.000    0.000 
#    0.000    1.000    0.000   10.000    0.000    9.000 
#
# Total GULP energy -178582.926317 kJ/mol
# GULP energy per Si atom -5580.716447 kJ/mol
# Density = 1.673193 g / cm^3
# Si number density = 16.770104 Si / 1000 Ang^3
#
#
#
# Elastic Constant Matrix: (Units=GPa)
#
#
# Indices 1 2 3 4 5 6 
#
# 1 16.4883 23.8372 13.8592 0.0000 -4.6658 0.0000
# 2 23.8372 135.9083 53.1830 0.0000 -13.2233 0.0000
# 3 13.8592 53.1830 118.8198 0.0000 -23.1586 0.0000
# 4 0.0000 0.0000 0.0000 33.8283 0.0000 -0.1165
# 5 -4.6658 -13.2233 -23.1586 0.0000 15.4679 0.0000
# 6 0.0000 0.0000 0.0000 -0.1165 0.0000 10.7012
#
#
#
# Elastic Compliance Matrix: (Units=1/GPa)
#
#
# Indices 1 2 3 4 5 6 
#
# 1 0.084126 -0.012934 -0.001740 0.000000 0.011713 0.000000
# 2 -0.012934 0.010969 -0.003295 0.000000 0.000542 0.000000
# 3 -0.001740 -0.003295 0.013334 0.000000 0.016621 0.000000
# 4 0.000000 0.000000 0.000000 0.029562 0.000000 0.000322
# 5 0.011713 0.000542 0.016621 0.000000 0.093532 0.000000
# 6 0.000000 0.000000 0.000000 0.000322 0.000000 0.093451
#
#
# Mechanical properties :
#
#
# Convention : Reuss Voigt Hill
#
# Bulk Modulus (GPa) = 13.79533 50.33058 32.06295
# Shear Modulus (GPa) = 12.98449 24.02195 18.50322
#
# Velocity S-wave (km/s) = 2.78558 3.78885 3.32527
# Velocity P-wave (km/s) = 4.31160 7.01553 5.82270
#
# Compressibility (1/GPa) = 0.07248830
#
# Stress axis : x y z
#
# Youngs Moduli (GPa) = 11.88698 91.16873 74.99877
#
# Poissons Ratio (x) = 1.17921 0.13051
# Poissons Ratio (y) = 0.15375 0.24714
# Poissons Ratio (z) = 0.02069 0.30042
#
# Static dielectric constant tensor:
#      x y z
#    x 1.546550 0.000000 -0.003930 
#    y 0.000000 1.561570 0.000000 
#    z -0.003930 0.000000 1.560620 
# 
# From -- ./inp_files/83377.got.cif
#   From: 2010.05.17/outbox.cif.g08.bks.cpg/sg10_42_cif.got.tgz:83377.got - 2010.06.03 11:33:40.
