data_PCOD9144007
_publ_section_title
;
Structure prediction by ZEFSAII (Michael W. Deem and Ramdas Pophale) SiO2 
 PCOD9144007
Probable space group: P 2/M
;
_chemical_formula_sum "Si O2"
_cell_formula_units_Z 26
_cell_length_a 9.365421
_cell_length_b 12.393525
_cell_length_c 15.926258
_cell_angle_alpha 90.000000
_cell_angle_beta 129.892943
_cell_angle_gamma 90.000000
_cell_volume 1418.304516
_symmetry_space_group_name_H-M "P 2/M"
_symmetry_group_IT_number 10
_symmetry_cell_setting 'monoclinic'
loop_
_space_group_symop_operation_xyz
x,y,z
-x,y,-z
-x,-y,-z
x,-y,z
loop_
_atom_site_type_symbol
_atom_site_label
_atom_site_fract_x
_atom_site_fract_y
_atom_site_fract_z
Si Si1 0.832286 0.375634 0.236325
Si Si2 0.898572 0.794252 0.746938
Si Si3 0.760035 0.878838 0.017531
Si Si4 0.663019 0.875577 0.797434
Si Si5 0.500000 0.296858 0.000000
Si Si6 0.250083 0.797736 0.656298
Si Si7 0.861161 0.880325 0.554127
O O1 0.877210 0.500000 0.267532
O O2 0.785926 0.310805 0.304575
O O3 0.997939 0.312476 0.249489
O O4 0.647629 0.363953 0.109415
O O5 0.736712 0.793196 0.755002
O O6 0.822398 0.852617 0.635307
O O7 0.060462 0.860463 0.856483
O O8 0.787573 0.870482 0.928150
O O9 0.687525 0.000000 0.005633
O O10 0.618287 0.784474 0.987312
O O11 0.453996 0.845568 0.745846
O O12 0.668419 0.000000 0.768548
O O13 0.217116 0.796303 0.543554
O O14 0.084961 0.874538 0.628021
O O15 0.793810 0.000000 0.506926
#
# Coordination Sequence:
#
# PCOD9144007 Si02
#       7
#     4   4   4   4   2   4   4
#     4  10  21  39  59  78 105 145 192 241 278 309
#     4  10  22  35  52  78 115 152 191 221 266 331
#     4  10  19  31  52  83 119 151 174 214 277 341
#     4  11  20  33  54  84 119 151 175 217 278 343
#     4  10  18  34  56  84 110 136 184 234 276 328
#     4  10  20  35  54  82 109 140 185 230 273 322
#     4  10  19  35  55  81 114 150 182 224 275 332
#
# _framework density 18.331748000000001
#
# number of rings (size 3 to 8) (size 9 to 14) (size 15 to 20)
#    0.000    1.846    1.538    4.154    0.000    1.846 
#    0.000    8.462    0.000    1.846    0.000   10.769 
#    0.000    0.000    0.000    0.000    0.000    0.000 
#
# Total GULP energy -144928.181833 kJ/mol
# GULP energy per Si atom -5574.160840 kJ/mol
# Density = 1.829002 g / cm^3
# Si number density = 18.331748 Si / 1000 Ang^3
#
#
#
# Elastic Constant Matrix: (Units=GPa)
#
#
# Indices 1 2 3 4 5 6 
#
# 1 41.8063 27.7628 23.7877 0.0000 -7.7870 0.0000
# 2 27.7628 112.2354 35.6639 0.0000 -11.2600 0.0000
# 3 23.7877 35.6639 98.4989 0.0000 -22.6362 0.0000
# 4 0.0000 0.0000 0.0000 17.2589 0.0000 -21.0263
# 5 -7.7870 -11.2600 -22.6362 0.0000 30.7034 0.0000
# 6 0.0000 0.0000 0.0000 -21.0263 0.0000 87.6317
#
#
#
# Elastic Compliance Matrix: (Units=1/GPa)
#
#
# Indices 1 2 3 4 5 6 
#
# 1 0.031006 -0.005913 -0.004862 0.000000 0.002111 0.000000
# 2 -0.005913 0.011233 -0.002453 0.000000 0.000812 0.000000
# 3 -0.004862 -0.002453 0.014116 0.000000 0.008275 0.000000
# 4 0.000000 0.000000 0.000000 0.081874 0.000000 0.019645
# 5 0.002111 0.000812 0.008275 0.000000 0.039503 0.000000
# 6 0.000000 0.000000 0.000000 0.019645 0.000000 0.016125
#
#
# Mechanical properties :
#
#
# Convention : Reuss Voigt Hill
#
# Bulk Modulus (GPa) = 33.44468 47.44105 40.44286
# Shear Modulus (GPa) = 21.71265 38.14056 29.92660
#
# Velocity S-wave (km/s) = 3.44529 4.56628 4.04481
# Velocity P-wave (km/s) = 5.84041 7.33052 6.62748
#
# Compressibility (1/GPa) = 0.02990013
#
# Stress axis : x y z
#
# Youngs Moduli (GPa) = 32.25162 89.02080 70.84020
#
# Poissons Ratio (x) = 0.52638 0.34443
# Poissons Ratio (y) = 0.19071 0.17375
# Poissons Ratio (z) = 0.15681 0.21835
#
# Static dielectric constant tensor:
#      x y z
#    x 1.657790 0.000000 0.008040 
#    y 0.000000 1.592390 0.000000 
#    z 0.008040 0.000000 1.670630 
# 
# From -- ./inp_files/34902.got.cif
#   From: 2010.05.17/outbox.cif.g08.bks.cpg/sg10_18_cif.got.tgz:34902.got - 2010.06.03 11:33:40.
