data_PCOD9144675
_publ_section_title
;
Structure prediction by ZEFSAII (Michael W. Deem and Ramdas Pophale) SiO2 
 PCOD9144675
Probable space group: P 2/M
;
_chemical_formula_sum "Si O2"
_cell_formula_units_Z 24
_cell_length_a 18.476427
_cell_length_b 10.959869
_cell_length_c 12.410078
_cell_angle_alpha 90.000000
_cell_angle_beta 150.910508
_cell_angle_gamma 90.000000
_cell_volume 1221.773209
_symmetry_space_group_name_H-M "P 2/M"
_symmetry_group_IT_number 10
_symmetry_cell_setting 'monoclinic'
loop_
_space_group_symop_operation_xyz
x,y,z
-x,y,-z
-x,-y,-z
x,-y,z
loop_
_atom_site_type_symbol
_atom_site_label
_atom_site_fract_x
_atom_site_fract_y
_atom_site_fract_z
Si Si1 0.198615 0.861955 0.820719
Si Si2 0.093782 0.771378 0.464325
Si Si3 0.450783 0.862482 0.715776
Si Si4 0.650421 0.859208 0.656898
Si Si5 0.641084 0.632438 0.262823
Si Si6 0.028245 0.853171 0.914719
O O1 0.176798 0.852501 0.663081
O O2 0.076270 0.770829 0.712274
O O3 0.157813 0.000000 0.802986
O O4 0.371731 0.843327 0.073229
O O5 0.202624 0.655615 0.595242
O O6 0.077692 0.819658 0.321410
O O7 0.361913 0.864006 0.487858
O O8 0.391629 0.750474 0.707571
O O9 0.436200 0.000000 0.744558
O O10 0.500000 0.797096 0.500000
O O11 0.648380 0.000000 0.695123
O O12 0.805810 0.806974 0.896566
O O13 0.647758 0.500000 0.327398
O O14 0.500000 0.629253 0.000000
O O15 0.031587 0.000000 0.924834
O O16 0.000000 0.809421 0.000000
#
# Coordination Sequence:
#
# PCOD9144675 Si02
#       6
#     4   4   4   4   4   4
#     4  10  20  33  55  89 120 146 179 237 298 338
#     4  11  20  35  55  78 112 151 187 230 282 348
#     4  10  20  36  60  90 118 150 194 238 283 341
#     4   9  17  30  51  82 118 151 184 227 280 337
#     4  11  24  42  58  80 115 154 193 238 292 347
#     4  10  19  30  48  77 113 150 183 222 274 331
#
# _framework density 19.64358
#
# number of rings (size 3 to 8) (size 9 to 14) (size 15 to 20)
#    0.000    1.833    1.667    4.000    0.000    6.333 
#    0.000    2.500    0.000    5.000    0.000    0.000 
#    0.000    0.000    0.000    0.000    0.000    0.000 
#
# Total GULP energy -133674.748404 kJ/mol
# GULP energy per Si atom -5569.781184 kJ/mol
# Density = 1.959887 g / cm^3
# Si number density = 19.643580 Si / 1000 Ang^3
#
#
#
# Elastic Constant Matrix: (Units=GPa)
#
#
# Indices 1 2 3 4 5 6 
#
# 1 66.0407 36.8937 24.3462 0.0000 1.6886 0.0000
# 2 36.8937 87.0802 17.7609 0.0000 15.1499 0.0000
# 3 24.3462 17.7609 110.2175 0.0000 7.3316 0.0000
# 4 0.0000 0.0000 0.0000 -1.6579 0.0000 -0.9186
# 5 1.6886 15.1499 7.3316 0.0000 39.4099 0.0000
# 6 0.0000 0.0000 0.0000 -0.9186 0.0000 -10.9579
#
#
#
# Elastic Compliance Matrix: (Units=1/GPa)
#
#
# Indices 1 2 3 4 5 6 
#
# 1 0.021295 -0.008858 -0.003486 0.000000 0.003141 0.000000
# 2 -0.008858 0.016310 -0.000283 0.000000 -0.005838 0.000000
# 3 -0.003486 -0.000283 0.009995 0.000000 -0.001601 0.000000
# 4 0.000000 0.000000 0.000000 -0.632541 0.000000 0.053026
# 5 0.003141 -0.005838 -0.001601 0.000000 0.027782 0.000000
# 6 0.000000 0.000000 0.000000 0.053026 0.000000 -0.095703
#
#
# Mechanical properties :
#
#
# Convention : Reuss Voigt Hill
#
# Bulk Modulus (GPa) = 44.74895 46.81555 45.78225
# Shear Modulus (GPa) = -8.06243 17.64798 4.79278
#
# Velocity S-wave (km/s) = -2.02812 3.00060 1.56370
# Velocity P-wave (km/s) = 4.16480 5.99075 5.15919
#
# Compressibility (1/GPa) = 0.02234689
#
# Stress axis : x y z
#
# Youngs Moduli (GPa) = 46.95881 61.31244 100.04952
#
# Poissons Ratio (x) = 0.54310 0.34872
# Poissons Ratio (y) = 0.41595 0.02834
# Poissons Ratio (z) = 0.16368 0.01737
#
# Static dielectric constant tensor:
#      x y z
#    x 1.792410 0.000000 0.027460 
#    y 0.000000 1.669680 0.000000 
#    z 0.027460 0.000000 1.718640 
# 
# From -- ./inp_files/53713.got.cif
#   From: 2010.05.17/outbox.cif.g08.bks.cpg/sg10_27_cif.got.tgz:53713.got - 2010.06.03 11:33:40.
