data_PCOD9144692
_publ_section_title
;
Structure prediction by ZEFSAII (Michael W. Deem and Ramdas Pophale) SiO2 
 PCOD9144692
Probable space group: P 2/M
;
_chemical_formula_sum "Si O2"
_cell_formula_units_Z 26
_cell_length_a 21.122304
_cell_length_b 14.729443
_cell_length_c 8.857641
_cell_angle_alpha 90.000000
_cell_angle_beta 145.790670
_cell_angle_gamma 90.000000
_cell_volume 1549.353341
_symmetry_space_group_name_H-M "P 2/M"
_symmetry_group_IT_number 10
_symmetry_cell_setting 'monoclinic'
loop_
_space_group_symop_operation_xyz
x,y,z
-x,y,-z
-x,-y,-z
x,-y,z
loop_
_atom_site_type_symbol
_atom_site_label
_atom_site_fract_x
_atom_site_fract_y
_atom_site_fract_z
Si Si1 0.618622 0.766038 0.178614
Si Si2 0.425457 0.678346 0.213033
Si Si3 0.787487 0.606946 0.024966
Si Si4 0.000000 0.259984 0.500000
Si Si5 0.184872 0.898346 0.349357
Si Si6 0.996880 0.104104 0.740128
Si Si7 0.630640 0.397311 0.431485
O O1 0.719781 0.827042 0.431533
O O2 0.630171 0.671272 0.291750
O O3 0.500000 0.805718 0.000000
O O4 0.614065 0.749739 0.990747
O O5 0.500000 0.715818 0.500000
O O6 0.515297 0.615970 0.299825
O O7 0.316078 0.628977 0.065253
O O8 0.818244 0.500000 0.099651
O O9 0.892076 0.674591 0.258892
O O10 0.732118 0.620646 0.749653
O O11 0.021029 0.188615 0.405451
O O12 0.095592 0.893613 0.309855
O O13 0.231812 0.000000 0.439054
O O14 0.116274 0.883939 0.059867
O O15 0.993398 0.000000 0.670271
O O16 0.638380 0.500000 0.393265
#
# Coordination Sequence:
#
# PCOD9144692 Si02
#       7
#     4   4   4   2   4   4   4
#     4  10  19  30  49  75  98 122 156 194 236 281
#     4   9  18  32  49  68  94 128 162 195 229 269
#     4  10  20  32  46  68  99 132 160 188 232 284
#     4  12  20  30  50  74 100 122 152 198 244 280
#     4   9  18  35  53  70  94 124 157 192 235 285
#     4   9  19  34  53  72  91 120 160 201 235 275
#     4   9  18  32  49  69  95 127 164 200 226 261
#
# _framework density 16.781193999999999
#
# number of rings (size 3 to 8) (size 9 to 14) (size 15 to 20)
#    0.000    2.462    0.000    3.692    0.000    5.538 
#    0.000    0.000    0.000    0.462    0.000    9.692 
#    0.000    0.000    0.000    0.000    0.000    0.000 
#
# Total GULP energy -144848.178139 kJ/mol
# GULP energy per Si atom -5571.083775 kJ/mol
# Density = 1.674300 g / cm^3
# Si number density = 16.781194 Si / 1000 Ang^3
#
#
#
# Elastic Constant Matrix: (Units=GPa)
#
#
# Indices 1 2 3 4 5 6 
#
# 1 34.2006 18.4784 21.0885 0.0000 -7.5569 0.0000
# 2 18.4784 80.0361 57.8784 0.0000 7.6589 0.0000
# 3 21.0885 57.8784 91.4547 0.0000 11.7510 0.0000
# 4 0.0000 0.0000 0.0000 2.8157 0.0000 8.1484
# 5 -7.5569 7.6589 11.7510 0.0000 21.7506 0.0000
# 6 0.0000 0.0000 0.0000 8.1484 0.0000 4.5181
#
#
#
# Elastic Compliance Matrix: (Units=1/GPa)
#
#
# Indices 1 2 3 4 5 6 
#
# 1 0.042559 -0.005143 -0.009340 0.000000 0.021643 0.000000
# 2 -0.005143 0.023661 -0.013420 0.000000 -0.002868 0.000000
# 3 -0.009340 -0.013420 0.022986 0.000000 -0.010938 0.000000
# 4 0.000000 0.000000 0.000000 -0.084176 0.000000 0.151812
# 5 0.021643 -0.002868 -0.010938 0.000000 0.060415 0.000000
# 6 0.000000 0.000000 0.000000 0.151812 0.000000 -0.052460
#
#
# Mechanical properties :
#
#
# Convention : Reuss Voigt Hill
#
# Bulk Modulus (GPa) = 29.93877 44.50912 37.22394
# Shear Modulus (GPa) = 62.55948 13.03328 37.79638
#
# Velocity S-wave (km/s) = 6.11232 2.78988 4.75099
# Velocity P-wave (km/s) = 8.22760 6.07937 7.23367
#
# Compressibility (1/GPa) = 0.03340151
#
# Stress axis : x y z
#
# Youngs Moduli (GPa) = 23.49661 42.26439 43.50409
#
# Poissons Ratio (x) = 0.21736 0.40633
# Poissons Ratio (y) = 0.12084 0.58381
# Poissons Ratio (z) = 0.21946 0.56717
#
# Static dielectric constant tensor:
#      x y z
#    x 1.564690 0.000000 -0.014270 
#    y 0.000000 1.548650 0.000000 
#    z -0.014270 0.000000 1.573110 
# 
# From -- ./inp_files/24628.got.cif
#   From: 2010.05.17/outbox.cif.g08.bks.cpg/sg10_13_cif.got.tgz:24628.got - 2010.06.03 11:33:40.
