data_PCOD9144969
_publ_section_title
;
Structure prediction by ZEFSAII (Michael W. Deem and Ramdas Pophale) SiO2 
 PCOD9144969
Probable space group: P 2/M
;
_chemical_formula_sum "Si O2"
_cell_formula_units_Z 32
_cell_length_a 18.854606
_cell_length_b 9.253911
_cell_length_c 20.035289
_cell_angle_alpha 90.000000
_cell_angle_beta 156.649065
_cell_angle_gamma 90.000000
_cell_volume 1385.575565
_symmetry_space_group_name_H-M "P 2/M"
_symmetry_group_IT_number 10
_symmetry_cell_setting 'monoclinic'
loop_
_space_group_symop_operation_xyz
x,y,z
-x,y,-z
-x,-y,-z
x,-y,z
loop_
_atom_site_type_symbol
_atom_site_label
_atom_site_fract_x
_atom_site_fract_y
_atom_site_fract_z
Si Si1 0.351894 0.666512 0.020526
Si Si2 0.943589 0.168965 0.163089
Si Si3 0.807959 0.169821 0.855019
Si Si4 0.723638 0.833522 0.633278
Si Si5 0.367731 0.836078 0.820662
Si Si6 0.481456 0.670266 0.319648
Si Si7 0.802645 0.326787 0.511987
Si Si8 0.094074 0.664985 0.666421
O O1 0.391538 0.500000 0.070350
O O2 0.235082 0.740568 0.977529
O O3 0.217319 0.669293 0.839864
O O4 0.525699 0.747767 0.143331
O O5 0.064478 0.183001 0.201201
O O6 0.083460 0.227909 0.339307
O O7 0.903906 0.000000 0.138868
O O8 0.699741 0.180400 0.691580
O O9 0.698589 0.245614 0.818625
O O10 0.828159 0.000000 0.888121
O O11 0.000000 0.231500 0.000000
O O12 0.615213 0.721456 0.494789
O O13 0.676785 0.000000 0.573277
O O14 0.187889 0.765690 0.693947
O O15 0.339052 0.000000 0.773946
O O16 0.500000 0.837685 0.000000
O O17 0.449364 0.500000 0.294913
O O18 0.596486 0.702071 0.352193
O O19 0.831020 0.500000 0.550050
O O20 0.895352 0.300184 0.521018
O O21 0.101885 0.500000 0.649728
#
# Coordination Sequence:
#
# PCOD9144969 Si02
#       8
#     4   4   4   4   4   4   4   4
#     4   9  15  22  31  44  67 100 135 169 208 255
#     4   9  15  23  37  56  76  99 133 178 219 253
#     4  10  21  36  51  67  91 123 154 184 223 272
#     4   9  18  32  49  68  90 118 152 188 227 272
#     4   9  15  20  27  42  65  95 133 173 208 244
#     4  10  19  31  49  72  94 117 149 189 230 271
#     4   8  15  26  38  54  78 106 135 170 214 261
#     4   8  13  21  31  43  64  97 133 166 203 249
#
# _framework density 23.095096000000002
#
# number of rings (size 3 to 8) (size 9 to 14) (size 15 to 20)
#    0.000    3.000    0.000    2.625    0.000    7.750 
#    0.000    0.000    0.000    0.000    0.000    0.000 
#    0.000    0.000    0.000    1.125    0.000   24.750 
#
# Total GULP energy -178818.800649 kJ/mol
# GULP energy per Si atom -5588.087520 kJ/mol
# Density = 2.304253 g / cm^3
# Si number density = 23.095096 Si / 1000 Ang^3
#
#
#
# Elastic Constant Matrix: (Units=GPa)
#
#
# Indices 1 2 3 4 5 6 
#
# 1 132.4596 80.4553 46.6060 0.0000 36.2853 0.0000
# 2 80.4553 108.2848 56.4765 0.0000 51.0259 0.0000
# 3 46.6060 56.4765 128.8957 0.0000 45.8375 0.0000
# 4 0.0000 0.0000 0.0000 20.5496 0.0000 28.1835
# 5 36.2853 51.0259 45.8375 0.0000 61.0327 0.0000
# 6 0.0000 0.0000 0.0000 28.1835 0.0000 19.8428
#
#
#
# Elastic Compliance Matrix: (Units=1/GPa)
#
#
# Indices 1 2 3 4 5 6 
#
# 1 0.013836 -0.010332 -0.000849 0.000000 0.001050 0.000000
# 2 -0.010332 0.023809 -0.002459 0.000000 -0.011916 0.000000
# 3 -0.000849 -0.002459 0.011232 0.000000 -0.005875 0.000000
# 4 0.000000 0.000000 0.000000 -0.051333 0.000000 0.072910
# 5 0.001050 -0.011916 -0.005875 0.000000 0.030135 0.000000
# 6 0.000000 0.000000 0.000000 0.072910 0.000000 -0.053161
#
#
# Mechanical properties :
#
#
# Convention : Reuss Voigt Hill
#
# Bulk Modulus (GPa) = 46.30199 81.85730 64.07965
# Shear Modulus (GPa) = 555.68131 32.69182 294.18656
#
# Velocity S-wave (km/s) = 15.52830 3.76644 11.29854
# Velocity P-wave (km/s) = 18.48232 7.37802 14.07180
#
# Compressibility (1/GPa) = 0.02159734
#
# Stress axis : x y z
#
# Youngs Moduli (GPa) = 72.27312 42.00052 89.03303
#
# Poissons Ratio (x) = 0.43396 0.07561
# Poissons Ratio (y) = 0.74674 0.21890
# Poissons Ratio (z) = 0.06137 0.10326
#
# Static dielectric constant tensor:
#      x y z
#    x 1.864720 0.000000 -0.024740 
#    y 0.000000 1.768250 0.000000 
#    z -0.024740 0.000000 1.921910 
# 
# From -- ./inp_files/95754.got.cif
#   From: 2010.05.17/outbox.cif.g08.bks.cpg/sg10_48_cif.got.tgz:95754.got - 2010.06.03 11:33:40.
