data_PCOD9144188
_publ_section_title
;
Structure prediction by ZEFSAII (Michael W. Deem and Ramdas Pophale) SiO2 
 PCOD9144188
Probable space group: P 2/M
;
_chemical_formula_sum "Si O2"
_cell_formula_units_Z 26
_cell_length_a 8.017381
_cell_length_b 20.362514
_cell_length_c 9.721659
_cell_angle_alpha 90.000000
_cell_angle_beta 49.309233
_cell_angle_gamma 90.000000
_cell_volume 1203.401796
_symmetry_space_group_name_H-M "P 2/M"
_symmetry_group_IT_number 10
_symmetry_cell_setting 'monoclinic'
loop_
_space_group_symop_operation_xyz
x,y,z
-x,y,-z
-x,-y,-z
x,-y,z
loop_
_atom_site_type_symbol
_atom_site_label
_atom_site_fract_x
_atom_site_fract_y
_atom_site_fract_z
Si Si1 0.017353 0.076646 0.825335
Si Si2 0.739473 0.428924 0.609472
Si Si3 0.824421 0.707023 0.471053
Si Si4 0.231551 0.149033 0.463008
Si Si5 0.141031 0.286005 0.046075
Si Si6 0.500000 0.623704 0.000000
Si Si7 0.616799 0.155193 0.069365
O O1 0.182224 0.117310 0.638212
O O2 0.056448 0.000000 0.780738
O O3 0.774757 0.101066 0.916877
O O4 0.000000 0.087605 0.000000
O O5 0.673545 0.500000 0.586046
O O6 0.701270 0.362654 0.540898
O O7 0.000000 0.431613 0.500000
O O8 0.626048 0.417874 0.817648
O O9 0.697705 0.774326 0.564831
O O10 0.000000 0.702765 0.500000
O O11 0.965997 0.721586 0.261411
O O12 0.441487 0.122566 0.266427
O O13 0.000000 0.144896 0.500000
O O14 0.331596 0.331263 0.004758
O O15 0.236608 0.215039 0.951042
O O16 0.000000 0.317052 0.000000
O O17 0.500000 0.187372 0.000000
#
# Coordination Sequence:
#
# PCOD9144188 Si02
#       7
#     4   4   4   4   4   2   4
#     4  11  26  46  64  93 139 175 218 282 336 400
#     4  10  20  36  66 100 132 181 232 276 339 410
#     4  10  18  39  64  91 134 173 211 282 335 384
#     4  11  22  40  68  96 127 172 224 275 335 396
#     4  12  24  40  68 102 138 173 226 286 341 396
#     4  12  21  42  68  94 137 184 224 278 345 402
#     4  12  22  42  69  97 131 177 222 280 343 404
#
# _framework density 21.605418
#
# number of rings (size 3 to 8) (size 9 to 14) (size 15 to 20)
#    0.000    0.923    6.923    2.538    0.000    1.846 
#    0.000    3.846    0.000    5.077    0.000    0.000 
#    0.000    0.000    0.000    0.000    0.000    0.000 
#
# Total GULP energy -145022.404966 kJ/mol
# GULP energy per Si atom -5577.784806 kJ/mol
# Density = 2.155624 g / cm^3
# Si number density = 21.605418 Si / 1000 Ang^3
#
#
#
# Elastic Constant Matrix: (Units=GPa)
#
#
# Indices 1 2 3 4 5 6 
#
# 1 57.7893 8.8131 8.2683 0.0000 10.9455 0.0000
# 2 8.8131 131.4389 24.1680 0.0000 4.0821 0.0000
# 3 8.2683 24.1680 147.1304 0.0000 -11.7873 0.0000
# 4 0.0000 0.0000 0.0000 110.9441 0.0000 -43.9929
# 5 10.9455 4.0821 -11.7873 0.0000 19.8959 0.0000
# 6 0.0000 0.0000 0.0000 -43.9929 0.0000 33.9310
#
#
#
# Elastic Compliance Matrix: (Units=1/GPa)
#
#
# Indices 1 2 3 4 5 6 
#
# 1 0.019959 -0.000599 -0.001987 0.000000 -0.012035 0.000000
# 2 -0.000599 0.007982 -0.001451 0.000000 -0.002168 0.000000
# 3 -0.001987 -0.001451 0.007620 0.000000 0.005906 0.000000
# 4 0.000000 0.000000 0.000000 0.018551 0.000000 0.024052
# 5 -0.012035 -0.002168 0.005906 0.000000 0.060826 0.000000
# 6 0.000000 0.000000 0.000000 0.024052 0.000000 0.060656
#
#
# Mechanical properties :
#
#
# Convention : Reuss Voigt Hill
#
# Bulk Modulus (GPa) = 36.38188 46.53972 41.46080
# Shear Modulus (GPa) = 25.92923 52.62813 39.27868
#
# Velocity S-wave (km/s) = 3.46804 4.94081 4.26843
# Velocity P-wave (km/s) = 5.73692 7.35774 6.59729
#
# Compressibility (1/GPa) = 0.02748621
#
# Stress axis : x y z
#
# Youngs Moduli (GPa) = 50.10170 125.27498 131.23562
#
# Poissons Ratio (x) = 0.07505 0.26082
# Poissons Ratio (y) = 0.03002 0.19045
# Poissons Ratio (z) = 0.09957 0.18180
#
# Static dielectric constant tensor:
#      x y z
#    x 1.957790 0.000000 0.019030 
#    y 0.000000 1.822940 0.000000 
#    z 0.019030 0.000000 1.832320 
# 
# From -- ./inp_files/20437.got.cif
#   From: 2010.05.17/outbox.cif.g08.bks.cpg/sg10_11_cif.got.tgz:20437.got - 2010.06.03 11:33:40.
