data_PCOD9144269
_publ_section_title
;
Structure prediction by ZEFSAII (Michael W. Deem and Ramdas Pophale) SiO2 
 PCOD9144269
Probable space group: P 2/M
;
_chemical_formula_sum "Si O2"
_cell_formula_units_Z 32
_cell_length_a 19.663100
_cell_length_b 9.023314
_cell_length_c 24.215864
_cell_angle_alpha 90.000000
_cell_angle_beta 28.463476
_cell_angle_gamma 90.000000
_cell_volume 2047.720377
_symmetry_space_group_name_H-M "P 2/M"
_symmetry_group_IT_number 10
_symmetry_cell_setting 'monoclinic'
loop_
_space_group_symop_operation_xyz
x,y,z
-x,y,-z
-x,-y,-z
x,-y,z
loop_
_atom_site_type_symbol
_atom_site_label
_atom_site_fract_x
_atom_site_fract_y
_atom_site_fract_z
Si Si1 0.121481 0.679170 0.843694
Si Si2 0.871284 0.170288 0.637170
Si Si3 0.345451 0.319957 0.589333
Si Si4 0.297413 0.680003 0.497749
Si Si5 0.487432 0.823907 0.742627
Si Si6 0.066969 0.329342 0.578911
Si Si7 0.174411 0.177676 0.923356
Si Si8 0.674967 0.329727 0.695334
O O1 0.115069 0.500000 0.853224
O O2 0.223397 0.719875 0.720115
O O3 0.182247 0.749036 0.856951
O O4 0.963643 0.747095 0.950573
O O5 0.741494 0.260343 0.702973
O O6 0.000000 0.176584 0.500000
O O7 0.938850 0.236486 0.644512
O O8 0.831538 0.000000 0.672539
O O9 0.500000 0.267821 0.500000
O O10 0.350148 0.500000 0.585015
O O11 0.313765 0.273235 0.549369
O O12 0.306522 0.500000 0.487641
O O13 0.421819 0.748136 0.371236
O O14 0.145968 0.722583 0.578099
O O15 0.320958 0.794646 0.851072
O O16 0.548986 0.760026 0.755859
O O17 0.511495 0.000000 0.723655
O O18 0.022282 0.500000 0.617035
O O19 0.195166 0.326533 0.442116
O O20 0.154172 0.000000 0.932777
O O21 0.634617 0.500000 0.732271
#
# Coordination Sequence:
#
# PCOD9144269 Si02
#       8
#     4   4   4   4   4   4   4   4
#     4  10  19  31  50  70  85 109 148 185 214 256
#     4   9  15  22  34  52  77 109 142 176 210 247
#     4   9  17  29  46  68  91 113 141 180 221 256
#     4   9  17  29  44  62  87 117 146 180 220 259
#     4  10  19  29  42  62  87 116 148 179 215 258
#     4   8  14  23  35  52  76 109 144 173 207 252
#     4  10  20  33  47  63  89 118 142 178 224 262
#     4   9  16  25  38  56  80 110 142 177 214 254
#
# _framework density 15.627133000000001
#
# number of rings (size 3 to 8) (size 9 to 14) (size 15 to 20)
#    0.000    2.750    0.000    4.125    0.000    7.500 
#    0.000    1.250    0.000    3.375    0.000    0.000 
#    0.000    1.000    0.000   11.500    0.000    5.250 
#
# Total GULP energy -178250.101523 kJ/mol
# GULP energy per Si atom -5570.315673 kJ/mol
# Density = 1.559157 g / cm^3
# Si number density = 15.627133 Si / 1000 Ang^3
#
#
#
# Elastic Constant Matrix: (Units=GPa)
#
#
# Indices 1 2 3 4 5 6 
#
# 1 147.2002 53.5709 60.1756 0.0000 -24.0485 0.0000
# 2 53.5709 67.3931 34.2571 0.0000 -16.3951 0.0000
# 3 60.1756 34.2571 59.1539 0.0000 -13.3172 0.0000
# 4 0.0000 0.0000 0.0000 10.4526 0.0000 -11.0769
# 5 -24.0485 -16.3951 -13.3172 0.0000 20.1555 0.0000
# 6 0.0000 0.0000 0.0000 -11.0769 0.0000 21.6451
#
#
#
# Elastic Compliance Matrix: (Units=1/GPa)
#
#
# Indices 1 2 3 4 5 6 
#
# 1 0.013264 -0.004120 -0.009749 0.000000 0.006033 0.000000
# 2 -0.004120 0.024450 -0.007750 0.000000 0.009851 0.000000
# 3 -0.009749 -0.007750 0.032038 0.000000 0.003233 0.000000
# 4 0.000000 0.000000 0.000000 0.209032 0.000000 0.106972
# 5 0.006033 0.009851 0.003233 0.000000 0.066962 0.000000
# 6 0.000000 0.000000 0.000000 0.106972 0.000000 0.100943
#
#
# Mechanical properties :
#
#
# Convention : Reuss Voigt Hill
#
# Bulk Modulus (GPa) = 37.71637 63.30602 50.51119
# Shear Modulus (GPa) = 10.02480 18.83356 14.42918
#
# Velocity S-wave (km/s) = 2.53553 3.47534 3.04195
# Velocity P-wave (km/s) = 5.72359 7.53009 6.68811
#
# Compressibility (1/GPa) = 0.02651369
#
# Stress axis : x y z
#
# Youngs Moduli (GPa) = 75.39280 40.90052 31.21317
#
# Poissons Ratio (x) = 0.16853 0.30428
# Poissons Ratio (y) = 0.31065 0.24190
# Poissons Ratio (z) = 0.73497 0.31697
#
# Static dielectric constant tensor:
#      x y z
#    x 1.534790 0.000000 -0.012140 
#    y 0.000000 1.524620 0.000000 
#    z -0.012140 0.000000 1.495160 
# 
# From -- ./inp_files/89941.got.cif
#   From: 2010.05.17/outbox.cif.g08.bks.cpg/sg10_45_cif.got.tgz:89941.got - 2010.06.03 11:33:40.
