data_PCOD9144593
_publ_section_title
;
Structure prediction by ZEFSAII (Michael W. Deem and Ramdas Pophale) SiO2 
 PCOD9144593
Probable space group: P 2/M
;
_chemical_formula_sum "Si O2"
_cell_formula_units_Z 28
_cell_length_a 22.255242
_cell_length_b 7.377591
_cell_length_c 15.609012
_cell_angle_alpha 90.000000
_cell_angle_beta 24.442215
_cell_angle_gamma 90.000000
_cell_volume 1060.441887
_symmetry_space_group_name_H-M "P 2/M"
_symmetry_group_IT_number 10
_symmetry_cell_setting 'monoclinic'
loop_
_space_group_symop_operation_xyz
x,y,z
-x,y,-z
-x,-y,-z
x,-y,z
loop_
_atom_site_type_symbol
_atom_site_label
_atom_site_fract_x
_atom_site_fract_y
_atom_site_fract_z
Si Si1 0.226108 0.782747 0.048967
Si Si2 0.448648 0.792579 0.890072
Si Si3 0.753004 0.715519 0.166054
Si Si4 0.917428 0.282124 0.253236
Si Si5 0.311413 0.210667 0.299959
Si Si6 0.068076 0.778941 0.502220
Si Si7 0.332711 0.718059 0.544572
O O1 0.059097 0.721725 0.267051
O O2 0.224651 0.000000 0.059284
O O3 0.309002 0.710049 0.024875
O O4 0.298302 0.741584 0.864443
O O5 0.543141 0.711435 0.845154
O O6 0.558754 0.798514 0.665931
O O7 0.412038 0.000000 0.961174
O O8 0.761237 0.500000 0.168732
O O9 0.659794 0.782213 0.367355
O O10 0.918479 0.787290 0.956446
O O11 0.922415 0.500000 0.254406
O O12 0.812299 0.216394 0.465637
O O13 0.829623 0.243490 0.279956
O O14 0.225575 0.285666 0.329113
O O15 0.343233 0.000000 0.243071
O O16 0.000000 0.726208 0.500000
O O17 0.076804 0.000000 0.490580
O O18 0.355758 0.500000 0.510049
#
# Coordination Sequence:
#
# PCOD9144593 Si02
#       7
#     4   4   4   4   4   4   4
#     4  10  20  34  50  70  98 129 159 196 244 287
#     4   9  19  33  48  69  99 131 162 197 235 279
#     4  10  19  30  47  71  99 128 165 205 239 277
#     4   9  16  28  47  70  97 126 160 201 241 278
#     4   9  16  30  51  72  95 125 159 194 234 284
#     4   9  17  31  53  77  97 120 154 196 241 290
#     4   9  18  31  47  69  97 132 167 200 236 278
#
# _framework density 26.404088000000002
#
# number of rings (size 3 to 8) (size 9 to 14) (size 15 to 20)
#    0.000    2.714    1.429    0.429    0.000    3.429 
#    0.000    3.571    0.000   10.286    0.000    0.000 
#    0.000    5.714    0.000    0.000    0.000    0.000 
#
# Total GULP energy -156509.002478 kJ/mol
# GULP energy per Si atom -5589.607231 kJ/mol
# Density = 2.634399 g / cm^3
# Si number density = 26.404088 Si / 1000 Ang^3
#
#
#
# Elastic Constant Matrix: (Units=GPa)
#
#
# Indices 1 2 3 4 5 6 
#
# 1 197.7869 7.5800 55.2568 0.0000 -5.3814 0.0000
# 2 7.5800 96.8353 0.4471 0.0000 -3.1050 0.0000
# 3 55.2568 0.4471 99.2069 0.0000 -8.4326 0.0000
# 4 0.0000 0.0000 0.0000 -4.1975 0.0000 -18.0639
# 5 -5.3814 -3.1050 -8.4326 0.0000 56.1599 0.0000
# 6 0.0000 0.0000 0.0000 -18.0639 0.0000 -83.6263
#
#
#
# Elastic Compliance Matrix: (Units=1/GPa)
#
#
# Indices 1 2 3 4 5 6 
#
# 1 0.006008 -0.000453 -0.003340 0.000000 0.000049 0.000000
# 2 -0.000453 0.010379 0.000254 0.000000 0.000569 0.000000
# 3 -0.003340 0.000254 0.012067 0.000000 0.001506 0.000000
# 4 0.000000 0.000000 0.000000 -3.383047 0.000000 0.730765
# 5 0.000049 0.000569 0.001506 0.000000 0.018069 0.000000
# 6 0.000000 0.000000 0.000000 0.730765 0.000000 -0.169809
#
#
# Mechanical properties :
#
#
# Convention : Reuss Voigt Hill
#
# Bulk Modulus (GPa) = 46.78206 57.82187 52.30196
# Shear Modulus (GPa) = -1.43179 15.70356 7.13589
#
# Velocity S-wave (km/s) = -0.73718 2.44137 1.64573
# Velocity P-wave (km/s) = 4.12694 5.46749 4.84381
#
# Compressibility (1/GPa) = 0.02137571
#
# Stress axis : x y z
#
# Youngs Moduli (GPa) = 166.45099 96.34514 82.86964
#
# Poissons Ratio (x) = 0.04367 0.27679
# Poissons Ratio (y) = 0.07545 -0.02105
# Poissons Ratio (z) = 0.55595 -0.02447
#
# Static dielectric constant tensor:
#      x y z
#    x 2.097470 0.000000 0.002260 
#    y 0.000000 2.011580 0.000000 
#    z 0.002260 0.000000 2.076870 
# 
# From -- ./inp_files/28679.got.cif
#   From: 2010.05.17/outbox.cif.g08.bks.cpg/sg10_15_cif.got.tgz:28679.got - 2010.06.03 11:33:40.
