data_PCOD9144222
_publ_section_title
;
Structure prediction by ZEFSAII (Michael W. Deem and Ramdas Pophale) SiO2 
 PCOD9144222
Probable space group: P 2/M
;
_chemical_formula_sum "Si O2"
_cell_formula_units_Z 32
_cell_length_a 16.921432
_cell_length_b 8.241288
_cell_length_c 24.476564
_cell_angle_alpha 90.000000
_cell_angle_beta 150.469951
_cell_angle_gamma 90.000000
_cell_volume 1682.378894
_symmetry_space_group_name_H-M "P 2/M"
_symmetry_group_IT_number 10
_symmetry_cell_setting 'monoclinic'
loop_
_space_group_symop_operation_xyz
x,y,z
-x,y,-z
-x,-y,-z
x,-y,z
loop_
_atom_site_type_symbol
_atom_site_label
_atom_site_fract_x
_atom_site_fract_y
_atom_site_fract_z
Si Si1 0.389035 0.803254 0.483174
Si Si2 0.531882 0.305104 0.801686
Si Si3 0.975249 0.693700 0.727177
Si Si4 0.225354 0.314746 0.964981
Si Si5 0.759676 0.693765 0.297436
Si Si6 0.585607 0.195361 0.379821
Si Si7 0.497354 0.815295 0.934167
Si Si8 0.953214 0.806452 0.591727
O O1 0.500000 0.749772 0.500000
O O2 0.208991 0.736846 0.371779
O O3 0.455343 0.756028 0.582879
O O4 0.379159 0.000000 0.476110
O O5 0.534790 0.500000 0.808887
O O6 0.688117 0.242566 0.928949
O O7 0.362699 0.249412 0.728166
O O8 0.526020 0.258910 0.735238
O O9 0.997437 0.500000 0.738676
O O10 0.013018 0.757719 0.688755
O O11 0.084606 0.759545 0.842986
O O12 0.177880 0.500000 0.949330
O O13 0.376598 0.308734 0.015130
O O14 0.754275 0.500000 0.294142
O O15 0.673483 0.768782 0.192544
O O16 0.942794 0.743350 0.396807
O O17 0.768652 0.251855 0.478632
O O18 0.586099 0.000000 0.378007
O O19 0.538795 0.000000 0.942352
O O20 0.500000 0.807316 0.000000
O O21 0.954040 0.000000 0.589886
#
# Coordination Sequence:
#
# PCOD9144222 Si02
#       8
#     4   4   4   4   4   4   4   4
#     4   9  19  37  59  82 108 132 154 191 246 301
#     4   9  19  34  49  67  96 135 174 209 247 291
#     4  10  19  32  53  79 105 131 164 206 249 297
#     4   9  19  33  47  67  97 132 166 203 247 291
#     4  10  20  32  45  64  93 131 174 215 254 293
#     4   9  19  34  52  74  98 127 163 203 247 296
#     4  10  19  28  41  63  90 124 168 214 255 295
#     4  10  20  33  48  70 101 133 169 214 261 301
#
# _framework density 19.020685
#
# number of rings (size 3 to 8) (size 9 to 14) (size 15 to 20)
#    0.000    2.500    0.000    3.750    0.000    9.750 
#    0.000    2.500    0.000    0.750    0.000    5.250 
#    0.000    0.000    0.000    0.000    0.000    0.000 
#
# Total GULP energy -178253.132950 kJ/mol
# GULP energy per Si atom -5570.410405 kJ/mol
# Density = 1.897739 g / cm^3
# Si number density = 19.020685 Si / 1000 Ang^3
#
#
#
# Elastic Constant Matrix: (Units=GPa)
#
#
# Indices 1 2 3 4 5 6 
#
# 1 67.8973 7.1900 40.2913 0.0000 -13.1785 0.0000
# 2 7.1900 21.1480 2.7750 0.0000 -5.2636 0.0000
# 3 40.2913 2.7750 97.1394 0.0000 -30.7053 0.0000
# 4 0.0000 0.0000 0.0000 15.4942 0.0000 4.6512
# 5 -13.1785 -5.2636 -30.7053 0.0000 23.9609 0.0000
# 6 0.0000 0.0000 0.0000 4.6512 0.0000 33.9919
#
#
#
# Elastic Compliance Matrix: (Units=1/GPa)
#
#
# Indices 1 2 3 4 5 6 
#
# 1 0.020241 -0.006059 -0.008613 0.000000 -0.001236 0.000000
# 2 -0.006059 0.052526 0.006062 0.000000 0.015975 0.000000
# 3 -0.008613 0.006062 0.021208 0.000000 0.023772 0.000000
# 4 0.000000 0.000000 0.000000 0.067305 0.000000 -0.009210
# 5 -0.001236 0.015975 0.023772 0.000000 0.075028 0.000000
# 6 0.000000 0.000000 0.000000 -0.009210 0.000000 0.030679
#
#
# Mechanical properties :
#
#
# Convention : Reuss Voigt Hill
#
# Bulk Modulus (GPa) = 13.02839 31.85525 22.44182
# Shear Modulus (GPa) = 16.13986 23.75129 19.94557
#
# Velocity S-wave (km/s) = 2.91614 3.53754 3.24176
# Velocity P-wave (km/s) = 4.26649 5.78529 5.08294
#
# Compressibility (1/GPa) = 0.07675545
#
# Stress axis : x y z
#
# Youngs Moduli (GPa) = 49.40463 19.03807 47.15177
#
# Poissons Ratio (x) = 0.11535 0.40612
# Poissons Ratio (y) = 0.29934 -0.28584
# Poissons Ratio (z) = 0.42553 -0.11541
#
# Static dielectric constant tensor:
#      x y z
#    x 1.659100 0.000000 -0.022370 
#    y 0.000000 1.676550 0.000000 
#    z -0.022370 0.000000 1.731960 
# 
# From -- ./inp_files/56417.got.cif
#   From: 2010.05.17/outbox.cif.g08.bks.cpg/sg10_29_cif.got.tgz:56417.got - 2010.06.03 11:33:40.
