data_PCOD9144408
_publ_section_title
;
Structure prediction by ZEFSAII (Michael W. Deem and Ramdas Pophale) SiO2 
 PCOD9144408
Probable space group: P 2/M
;
_chemical_formula_sum "Si O2"
_cell_formula_units_Z 32
_cell_length_a 32.519804
_cell_length_b 13.861409
_cell_length_c 32.954243
_cell_angle_alpha 90.000000
_cell_angle_beta 9.313794
_cell_angle_gamma 90.000000
_cell_volume 2404.120718
_symmetry_space_group_name_H-M "P 2/M"
_symmetry_group_IT_number 10
_symmetry_cell_setting 'monoclinic'
loop_
_space_group_symop_operation_xyz
x,y,z
-x,y,-z
-x,-y,-z
x,-y,z
loop_
_atom_site_type_symbol
_atom_site_label
_atom_site_fract_x
_atom_site_fract_y
_atom_site_fract_z
Si Si1 0.952476 0.617601 0.499981
Si Si2 0.761209 0.617684 0.500003
Si Si3 0.450171 0.889800 0.500000
Si Si4 0.116812 0.616132 0.999993
Si Si5 0.404396 0.382403 0.999981
Si Si6 0.690659 0.617496 0.999996
Si Si7 0.950534 0.227656 0.000000
Si Si8 0.666715 0.383169 0.499993
O O1 0.952647 0.500000 0.499981
O O2 0.000000 0.648237 0.500000
O O3 0.178495 0.647959 0.249944
O O4 0.678430 0.647958 0.750005
O O5 0.760780 0.500000 0.500003
O O6 0.535430 0.647876 0.749915
O O7 0.713904 0.650488 0.499997
O O8 0.035250 0.647876 0.250097
O O9 0.500000 0.894053 0.500000
O O10 0.187249 0.832510 0.751613
O O11 0.435010 0.000000 0.500001
O O12 0.690476 0.832511 0.248386
O O13 0.111293 0.500000 0.999993
O O14 0.390792 0.643892 0.751599
O O15 0.073875 0.672246 0.999997
O O16 0.894007 0.643892 0.248385
O O17 0.404263 0.500000 0.999981
O O18 0.356878 0.351580 0.999997
O O19 0.690399 0.500000 0.999995
O O20 0.000000 0.241449 0.000000
O O21 0.668265 0.500000 0.499993
#
# Coordination Sequence:
#
# PCOD9144408 Si02
#       8
#     4   4   4   4   4   4   4   4
#     4   9  15  21  27  33  43  62  85 105 129 172
#     4   9  15  23  34  46  58  74  99 128 160 197
#     4   9  17  30  47  65  83 101 123 154 189 221
#     4  10  19  30  42  57  79 105 130 154 178 207
#     4   9  15  21  27  36  49  62  79 107 144 182
#     4   9  15  21  30  43  56  68  85 118 161 197
#     4  10  19  30  45  64  83 104 129 154 183 218
#     4   9  17  28  40  52  68  93 122 148 172 202
#
# _framework density 13.31048
#
# number of rings (size 3 to 8) (size 9 to 14) (size 15 to 20)
#    0.000    2.750    0.000    3.000    0.000    9.250 
#    0.000    0.000    0.000    4.500    0.000    0.000 
#    0.000    0.000    0.000    0.000    0.000    0.000 
#
# Total GULP energy -178189.459223 kJ/mol
# GULP energy per Si atom -5568.420601 kJ/mol
# Density = 1.328018 g / cm^3
# Si number density = 13.310480 Si / 1000 Ang^3
#
#
#
# Elastic Constant Matrix: (Units=GPa)
#
#
# Indices 1 2 3 4 5 6 
#
# 1 103.8039 27.1768 68.9195 0.0000 0.1338 0.0000
# 2 27.1768 24.9751 26.1343 0.0000 0.0454 0.0000
# 3 68.9195 26.1343 152.3640 0.0000 -2.3323 0.0000
# 4 0.0000 0.0000 0.0000 5.6691 0.0000 -0.2470
# 5 0.1338 0.0454 -2.3323 0.0000 16.0224 0.0000
# 6 0.0000 0.0000 0.0000 -0.2470 0.0000 0.1922
#
#
#
# Elastic Compliance Matrix: (Units=1/GPa)
#
#
# Indices 1 2 3 4 5 6 
#
# 1 0.016373 -0.012249 -0.005318 0.000000 -0.000876 0.000000
# 2 -0.012249 0.057992 -0.004417 0.000000 -0.000705 0.000000
# 3 -0.005318 -0.004417 0.009749 0.000000 0.001476 0.000000
# 4 0.000000 0.000000 0.000000 0.186858 0.000000 0.240121
# 5 -0.000876 -0.000705 0.001476 0.000000 0.062637 0.000000
# 6 0.000000 0.000000 0.000000 0.240121 0.000000 5.511543
#
#
# Mechanical properties :
#
#
# Convention : Reuss Voigt Hill
#
# Bulk Modulus (GPa) = 24.90987 58.40047 41.65517
# Shear Modulus (GPa) = 0.84710 14.97089 7.90900
#
# Velocity S-wave (km/s) = 0.79862 3.35736 2.44025
# Velocity P-wave (km/s) = 4.42781 7.68114 6.26919
#
# Compressibility (1/GPa) = 0.04014473
#
# Stress axis : x y z
#
# Youngs Moduli (GPa) = 61.07747 17.24362 102.57333
#
# Poissons Ratio (x) = 0.21122 0.54551
# Poissons Ratio (y) = 0.74815 0.45309
# Poissons Ratio (z) = 0.32483 0.07617
#
# Static dielectric constant tensor:
#      x y z
#    x 1.435680 0.000000 -0.000650 
#    y 0.000000 1.390930 0.000000 
#    z -0.000650 0.000000 1.450050 
# 
# From -- ./inp_files/11810.got.cif
#   From: 2010.05.17/outbox.cif.g08.bks.cpg/sg10_6_cif.got.tgz:11810.got - 2010.06.03 11:33:40.
