data_PCOD9144990
_publ_section_title
;
Structure prediction by ZEFSAII (Michael W. Deem and Ramdas Pophale) SiO2 
 PCOD9144990
Probable space group: P 2/M
;
_chemical_formula_sum "Si O2"
_cell_formula_units_Z 20
_cell_length_a 12.065019
_cell_length_b 7.684958
_cell_length_c 11.748746
_cell_angle_alpha 90.000000
_cell_angle_beta 72.258057
_cell_angle_gamma 90.000000
_cell_volume 1037.523731
_symmetry_space_group_name_H-M "P 2/M"
_symmetry_group_IT_number 10
_symmetry_cell_setting 'monoclinic'
loop_
_space_group_symop_operation_xyz
x,y,z
-x,y,-z
-x,-y,-z
x,-y,z
loop_
_atom_site_type_symbol
_atom_site_label
_atom_site_fract_x
_atom_site_fract_y
_atom_site_fract_z
Si Si1 0.674420 0.292036 0.391828
Si Si2 0.556814 0.710679 0.658522
Si Si3 0.106010 0.208328 0.819777
Si Si4 0.612210 0.206328 0.898781
Si Si5 0.151507 0.213142 0.062340
O O1 0.663095 0.500000 0.398795
O O2 0.573202 0.229956 0.336894
O O3 0.640502 0.230457 0.528898
O O4 0.801487 0.251982 0.305640
O O5 0.556911 0.500000 0.660893
O O6 0.595198 0.770859 0.769980
O O7 0.973038 0.269941 0.847635
O O8 0.100502 0.000000 0.827876
O O9 0.151191 0.267755 0.929866
O O10 0.734645 0.276192 0.907488
O O11 0.614868 0.000000 0.921950
O O12 0.500000 0.279743 0.000000
O O13 0.151903 0.000000 0.064205
#
# Coordination Sequence:
#
# PCOD9144990 Si02
#       5
#     4   4   4   4   4
#     4   9  18  33  50  68  93 122 155 197 235 267
#     4   9  19  34  49  67  94 126 155 188 235 281
#     4   9  16  30  52  71  91 124 159 188 226 277
#     4  10  19  31  49  73  98 121 150 192 234 272
#     4   8  16  30  47  71 100 123 148 189 236 275
#
# _framework density 19.276667
#
# number of rings (size 3 to 8) (size 9 to 14) (size 15 to 20)
#    0.000    3.000    0.000    3.600    0.000    3.600 
#    0.000    7.000    0.000    6.000    0.000    0.000 
#    0.000    0.000    0.000    0.000    0.000    0.000 
#
# Total GULP energy -111513.103822 kJ/mol
# GULP energy per Si atom -5575.655191 kJ/mol
# Density = 1.923279 g / cm^3
# Si number density = 19.276667 Si / 1000 Ang^3
#
#
#
# Elastic Constant Matrix: (Units=GPa)
#
#
# Indices 1 2 3 4 5 6 
#
# 1 179.8889 6.1838 110.3275 0.0000 -6.6993 0.0000
# 2 6.1838 25.2025 -5.0279 0.0000 -2.0515 0.0000
# 3 110.3275 -5.0279 123.2327 0.0000 -16.7175 0.0000
# 4 0.0000 0.0000 0.0000 25.3533 0.0000 -4.5804
# 5 -6.6993 -2.0515 -16.7175 0.0000 32.9565 0.0000
# 6 0.0000 0.0000 0.0000 -4.5804 0.0000 13.3949
#
#
#
# Elastic Compliance Matrix: (Units=1/GPa)
#
#
# Indices 1 2 3 4 5 6 
#
# 1 0.013584 -0.006268 -0.012989 0.000000 -0.004218 0.000000
# 2 -0.006268 0.043290 0.008130 0.000000 0.005545 0.000000
# 3 -0.012989 0.008130 0.021248 0.000000 0.008644 0.000000
# 4 0.000000 0.000000 0.000000 0.042040 0.000000 0.014376
# 5 -0.004218 0.005545 0.008644 0.000000 0.034215 0.000000
# 6 0.000000 0.000000 0.000000 0.014376 0.000000 0.079571
#
#
# Mechanical properties :
#
#
# Convention : Reuss Voigt Hill
#
# Bulk Modulus (GPa) = 17.89959 61.25455 39.57707
# Shear Modulus (GPa) = 18.19347 28.79698 23.49523
#
# Velocity S-wave (km/s) = 3.07548 3.86926 3.49498
# Velocity P-wave (km/s) = 4.68158 7.19772 6.07142
#
# Compressibility (1/GPa) = 0.05586720
#
# Stress axis : x y z
#
# Youngs Moduli (GPa) = 73.61776 23.10017 47.06359
#
# Poissons Ratio (x) = 0.14478 0.61131
# Poissons Ratio (y) = 0.46141 -0.38261
# Poissons Ratio (z) = 0.95623 -0.18780
#
# Static dielectric constant tensor:
#      x y z
#    x 1.676250 0.000000 -0.025170 
#    y 0.000000 1.721590 0.000000 
#    z -0.025170 0.000000 1.652920 
# 
# From -- ./inp_files/22979.got.cif
#   From: 2010.05.17/outbox.cif.g08.bks.cpg/sg10_12_cif.got.tgz:22979.got - 2010.06.03 11:33:40.
