data_PCOD9144606
_publ_section_title
;
Structure prediction by ZEFSAII (Michael W. Deem and Ramdas Pophale) SiO2 
 PCOD9144606
Probable space group: P 2/M
;
_chemical_formula_sum "Si O2"
_cell_formula_units_Z 32
_cell_length_a 15.161661
_cell_length_b 7.566665
_cell_length_c 16.008976
_cell_angle_alpha 90.000000
_cell_angle_beta 59.220510
_cell_angle_gamma 90.000000
_cell_volume 1577.903238
_symmetry_space_group_name_H-M "P 2/M"
_symmetry_group_IT_number 10
_symmetry_cell_setting 'monoclinic'
loop_
_space_group_symop_operation_xyz
x,y,z
-x,y,-z
-x,-y,-z
x,-y,z
loop_
_atom_site_type_symbol
_atom_site_label
_atom_site_fract_x
_atom_site_fract_y
_atom_site_fract_z
Si Si1 0.000438 0.713640 0.242167
Si Si2 0.434383 0.791647 0.454530
Si Si3 0.775453 0.286181 0.360840
Si Si4 0.470645 0.213592 0.763148
Si Si5 0.430599 0.784057 0.112279
Si Si6 0.780844 0.207331 0.858668
Si Si7 0.759347 0.711091 0.177857
Si Si8 0.888079 0.297058 0.966942
O O1 0.999816 0.500000 0.239884
O O2 0.890736 0.772043 0.327958
O O3 0.105912 0.767823 0.236043
O O4 0.021242 0.776995 0.135962
O O5 0.500000 0.715067 0.500000
O O6 0.315538 0.772369 0.535125
O O7 0.469516 0.720073 0.348184
O O8 0.458358 0.000000 0.439678
O O9 0.773225 0.500000 0.361528
O O10 0.757248 0.223619 0.274149
O O11 0.521136 0.278530 0.824394
O O12 0.351584 0.259338 0.809200
O O13 0.477026 0.000000 0.762267
O O14 0.314195 0.726942 0.148952
O O15 0.430469 0.000000 0.115152
O O16 0.500000 0.732067 0.000000
O O17 0.795419 0.292755 0.943235
O O18 0.765043 0.000000 0.881715
O O19 0.776681 0.500000 0.174682
O O20 0.846196 0.783072 0.072506
O O21 0.915415 0.500000 0.970536
#
# Coordination Sequence:
#
# PCOD9144606 Si02
#       8
#     4   4   4   4   4   4   4   4
#     4   8  17  33  49  69  98 134 167 202 253 299
#     4  10  20  35  52  73 101 134 165 203 256 299
#     4  10  20  33  53  74  95 131 173 210 247 292
#     4  10  20  34  51  72 103 137 163 198 251 303
#     4   9  17  29  49  76 101 129 165 202 244 295
#     4   9  16  29  49  71  95 125 165 205 241 288
#     4  10  19  30  47  73 100 130 168 207 243 288
#     4   8  16  30  46  66 100 133 161 197 245 297
#
# _framework density 20.280079000000001
#
# number of rings (size 3 to 8) (size 9 to 14) (size 15 to 20)
#    0.750    2.000    1.250    0.750    0.000    3.250 
#    0.000    3.750    0.000    4.875    0.000    5.250 
#    0.000    0.000    0.000    0.000    0.000    0.000 
#
# Total GULP energy -178253.717003 kJ/mol
# GULP energy per Si atom -5570.428656 kJ/mol
# Density = 2.023392 g / cm^3
# Si number density = 20.280079 Si / 1000 Ang^3
#
#
#
# Elastic Constant Matrix: (Units=GPa)
#
#
# Indices 1 2 3 4 5 6 
#
# 1 91.8165 -1.5158 8.1032 0.0000 -6.1538 0.0000
# 2 -1.5158 48.6586 0.9597 0.0000 7.9570 0.0000
# 3 8.1032 0.9597 79.7286 0.0000 -11.9439 0.0000
# 4 0.0000 0.0000 0.0000 -68.5168 0.0000 -30.0987
# 5 -6.1538 7.9570 -11.9439 0.0000 32.7917 0.0000
# 6 0.0000 0.0000 0.0000 -30.0987 0.0000 5.4393
#
#
#
# Elastic Compliance Matrix: (Units=1/GPa)
#
#
# Indices 1 2 3 4 5 6 
#
# 1 0.011086 0.000077 -0.000866 0.000000 0.001746 0.000000
# 2 0.000077 0.021492 -0.001106 0.000000 -0.005603 0.000000
# 3 -0.000866 -0.001106 0.013390 0.000000 0.004983 0.000000
# 4 0.000000 0.000000 0.000000 -0.004254 0.000000 -0.023540
# 5 0.001746 -0.005603 0.004983 0.000000 0.033998 0.000000
# 6 0.000000 0.000000 0.000000 -0.023540 0.000000 0.053587
#
#
# Mechanical properties :
#
#
# Convention : Reuss Voigt Hill
#
# Bulk Modulus (GPa) = 23.70903 26.14422 24.92662
# Shear Modulus (GPa) = 33.97932 8.11996 21.04964
#
# Velocity S-wave (km/s) = 4.09773 2.00315 3.22521
# Velocity P-wave (km/s) = 5.83992 4.27431 5.11734
#
# Compressibility (1/GPa) = 0.04217802
#
# Stress axis : x y z
#
# Youngs Moduli (GPa) = 90.20355 46.52924 74.68043
#
# Poissons Ratio (x) = -0.00358 0.06468
# Poissons Ratio (y) = -0.00693 0.08259
# Poissons Ratio (z) = 0.07812 0.05146
#
# Static dielectric constant tensor:
#      x y z
#    x 1.739410 0.000000 -0.011140 
#    y 0.000000 1.767500 0.000000 
#    z -0.011140 0.000000 1.718220 
# 
# From -- ./inp_files/66542.got.cif
#   From: 2010.05.17/outbox.cif.g08.bks.cpg/sg10_34_cif.got.tgz:66542.got - 2010.06.03 11:33:40.
