data_PCOD9144558
_publ_section_title
;
Structure prediction by ZEFSAII (Michael W. Deem and Ramdas Pophale) SiO2 
 PCOD9144558
Probable space group: P 2/M
;
_chemical_formula_sum "Si O2"
_cell_formula_units_Z 28
_cell_length_a 16.834066
_cell_length_b 8.856978
_cell_length_c 18.794999
_cell_angle_alpha 90.000000
_cell_angle_beta 143.628379
_cell_angle_gamma 90.000000
_cell_volume 1661.829043
_symmetry_space_group_name_H-M "P 2/M"
_symmetry_group_IT_number 10
_symmetry_cell_setting 'monoclinic'
loop_
_space_group_symop_operation_xyz
x,y,z
-x,y,-z
-x,-y,-z
x,-y,z
loop_
_atom_site_type_symbol
_atom_site_label
_atom_site_fract_x
_atom_site_fract_y
_atom_site_fract_z
Si Si1 0.801382 0.676703 0.906250
Si Si2 0.972469 0.178035 0.738996
Si Si3 0.518720 0.678386 0.097409
Si Si4 0.278470 0.177907 0.010318
Si Si5 0.111554 0.323372 0.181280
Si Si6 0.799321 0.180230 0.336139
Si Si7 0.968551 0.680175 0.584981
O O1 0.762706 0.500000 0.881200
O O2 0.722202 0.771003 0.907727
O O3 0.800928 0.727477 0.823580
O O4 0.957080 0.683963 0.043119
O O5 0.940622 0.270156 0.645149
O O6 0.885575 0.230133 0.744186
O O7 0.956600 0.000000 0.714850
O O8 0.128651 0.205916 0.872059
O O9 0.541885 0.500000 0.124377
O O10 0.386916 0.730137 0.044140
O O11 0.647021 0.770088 0.216861
O O12 0.500000 0.706416 0.000000
O O13 0.305160 0.000000 0.023715
O O14 0.140483 0.500000 0.215696
O O15 0.889000 0.251304 0.337541
O O16 0.862176 0.248521 0.453498
O O17 0.813846 0.000000 0.346152
O O18 0.970869 0.500000 0.579299
#
# Coordination Sequence:
#
# PCOD9144558 Si02
#       7
#     4   4   4   4   4   4   4
#     4   8  14  26  43  63  92 128 164 200 239 289
#     4  10  19  30  46  72 103 132 164 203 247 289
#     4  11  23  37  53  73  98 130 166 201 239 287
#     4  10  20  31  46  70 100 133 166 202 245 291
#     4   8  14  25  42  65  93 127 163 199 242 289
#     4  11  22  37  55  74  98 126 160 202 247 289
#     4  11  21  35  54  74  98 128 164 201 240 289
#
# _framework density 16.848905999999999
#
# number of rings (size 3 to 8) (size 9 to 14) (size 15 to 20)
#    0.000    2.143    0.000    6.429    0.000    5.714 
#    0.000    2.857    0.000    0.000    0.000    1.000 
#    0.000    8.000    0.000    0.000    0.000    0.000 
#
# Total GULP energy -156204.583359 kJ/mol
# GULP energy per Si atom -5578.735120 kJ/mol
# Density = 1.681056 g / cm^3
# Si number density = 16.848906 Si / 1000 Ang^3
#
#
#
# Elastic Constant Matrix: (Units=GPa)
#
#
# Indices 1 2 3 4 5 6 
#
# 1 105.7547 51.5720 22.7545 0.0000 -22.7564 0.0000
# 2 51.5720 100.8669 31.2664 0.0000 -11.2506 0.0000
# 3 22.7545 31.2664 24.9595 0.0000 -7.4484 0.0000
# 4 0.0000 0.0000 0.0000 11.2470 0.0000 15.3144
# 5 -22.7564 -11.2506 -7.4484 0.0000 22.3566 0.0000
# 6 0.0000 0.0000 0.0000 15.3144 0.0000 2.8467
#
#
#
# Elastic Compliance Matrix: (Units=1/GPa)
#
#
# Indices 1 2 3 4 5 6 
#
# 1 0.015431 -0.005405 -0.003800 0.000000 0.011721 0.000000
# 2 -0.005405 0.018149 -0.018570 0.000000 -0.002555 0.000000
# 3 -0.003800 -0.018570 0.069787 0.000000 0.010038 0.000000
# 4 0.000000 0.000000 0.000000 -0.014057 0.000000 0.075622
# 5 0.011721 -0.002555 0.010038 0.000000 0.058719 0.000000
# 6 0.000000 0.000000 0.000000 0.075622 0.000000 -0.055537
#
#
# Mechanical properties :
#
#
# Convention : Reuss Voigt Hill
#
# Bulk Modulus (GPa) = 20.91260 49.19630 35.05445
# Shear Modulus (GPa) = 30.49163 15.68928 23.09046
#
# Velocity S-wave (km/s) = 4.25868 3.05483 3.70597
# Velocity P-wave (km/s) = 6.05150 6.45790 6.25800
#
# Compressibility (1/GPa) = 0.04781807
#
# Stress axis : x y z
#
# Youngs Moduli (GPa) = 64.80377 55.10077 14.32936
#
# Poissons Ratio (x) = 0.29779 0.05445
# Poissons Ratio (y) = 0.35023 0.26609
# Poissons Ratio (z) = 0.24625 1.02321
#
# Static dielectric constant tensor:
#      x y z
#    x 1.578830 0.000000 -0.011320 
#    y 0.000000 1.562030 0.000000 
#    z -0.011320 0.000000 1.551690 
# 
# From -- ./inp_files/77777.got.cif
#   From: 2010.05.17/outbox.cif.g08.bks.cpg/sg10_39_cif.got.tgz:77777.got - 2010.06.03 11:33:40.
