data_PCOD9144201
_publ_section_title
;
Structure prediction by ZEFSAII (Michael W. Deem and Ramdas Pophale) SiO2 
 PCOD9144201
Probable space group: P 2/M
;
_chemical_formula_sum "Si O2"
_cell_formula_units_Z 30
_cell_length_a 8.548869
_cell_length_b 16.060795
_cell_length_c 13.166920
_cell_angle_alpha 90.000000
_cell_angle_beta 43.263739
_cell_angle_gamma 90.000000
_cell_volume 1239.016666
_symmetry_space_group_name_H-M "P 2/M"
_symmetry_group_IT_number 10
_symmetry_cell_setting 'monoclinic'
loop_
_space_group_symop_operation_xyz
x,y,z
-x,y,-z
-x,-y,-z
x,-y,z
loop_
_atom_site_type_symbol
_atom_site_label
_atom_site_fract_x
_atom_site_fract_y
_atom_site_fract_z
Si Si1 0.649813 0.402344 0.789999
Si Si2 0.000000 0.714543 0.500000
Si Si3 0.324731 0.283038 0.507786
Si Si4 0.194392 0.844502 0.832681
Si Si5 0.708369 0.651668 0.189134
Si Si6 0.868088 0.100711 0.826249
Si Si7 0.998711 0.406816 0.218559
Si Si8 0.467225 0.099198 0.176553
O O1 0.663937 0.500000 0.756192
O O2 0.405475 0.372599 0.863339
O O3 0.833940 0.345906 0.642985
O O4 0.744043 0.396061 0.861011
O O5 0.828408 0.761168 0.504880
O O6 0.500000 0.236709 0.500000
O O7 0.490518 0.347599 0.369321
O O8 0.149409 0.335851 0.657305
O O9 0.212929 0.747055 0.846105
O O10 0.436243 0.877814 0.758818
O O11 0.097294 0.862375 0.766662
O O12 0.000000 0.882110 0.000000
O O13 0.913432 0.600977 0.143312
O O14 0.766864 0.130254 0.765412
O O15 0.890000 0.000000 0.814986
O O16 0.667626 0.123496 0.001860
O O17 0.933575 0.500000 0.283555
O O18 0.451726 0.000000 0.180583
#
# Coordination Sequence:
#
# PCOD9144201 Si02
#       8
#     4   2   4   4   4   4   4   4
#     4   9  16  26  41  59  78 102 134 172 214 257
#     4   8  13  22  38  60  80  96 119 158 211 264
#     4   8  15  25  38  58  82 103 126 162 210 257
#     4  10  19  29  41  60  89 122 146 164 195 242
#     4  10  19  27  39  61  87 113 138 167 207 255
#     4   8  14  26  45  66  85 107 137 173 209 241
#     4   9  17  29  46  65  81 101 134 179 228 268
#     4   8  14  26  45  66  84 105 137 174 209 244
#
# _framework density 24.212748999999999
#
# number of rings (size 3 to 8) (size 9 to 14) (size 15 to 20)
#    0.000    3.200    0.000    1.800    0.000    8.267 
#    0.000    0.000    0.000    1.600    0.000    1.867 
#    0.000   19.200    0.000  111.467    0.000    2.400 
#
# Total GULP energy -167144.491331 kJ/mol
# GULP energy per Si atom -5571.483044 kJ/mol
# Density = 2.415764 g / cm^3
# Si number density = 24.212749 Si / 1000 Ang^3
#
#
#
# Elastic Constant Matrix: (Units=GPa)
#
#
# Indices 1 2 3 4 5 6 
#
# 1 343.1371 49.0855 38.6556 0.0000 -34.6312 0.0000
# 2 49.0855 44.1444 9.1010 0.0000 -15.8742 0.0000
# 3 38.6556 9.1010 58.2420 0.0000 -10.9122 0.0000
# 4 0.0000 0.0000 0.0000 -8.9820 0.0000 -23.1782
# 5 -34.6312 -15.8742 -10.9122 0.0000 32.4626 0.0000
# 6 0.0000 0.0000 0.0000 -23.1782 0.0000 23.4400
#
#
#
# Elastic Compliance Matrix: (Units=1/GPa)
#
#
# Indices 1 2 3 4 5 6 
#
# 1 0.003739 -0.003135 -0.001635 0.000000 0.001906 0.000000
# 2 -0.003135 0.030313 -0.000539 0.000000 0.011297 0.000000
# 3 -0.001635 -0.000539 0.019170 0.000000 0.004436 0.000000
# 4 0.000000 0.000000 0.000000 -0.031347 0.000000 -0.030997
# 5 0.001906 0.011297 0.004436 0.000000 0.039854 0.000000
# 6 0.000000 0.000000 0.000000 -0.030997 0.000000 0.012012
#
#
# Mechanical properties :
#
#
# Convention : Reuss Voigt Hill
#
# Bulk Modulus (GPa) = 23.47215 71.02308 47.24761
# Shear Modulus (GPa) = 50.73003 32.62954 41.67979
#
# Velocity S-wave (km/s) = 4.58228 3.67497 4.15347
# Velocity P-wave (km/s) = 6.14097 6.88505 6.52363
#
# Compressibility (1/GPa) = 0.04260369
#
# Stress axis : x y z
#
# Youngs Moduli (GPa) = 267.42527 32.98950 52.16442
#
# Poissons Ratio (x) = 0.10343 0.08527
# Poissons Ratio (y) = 0.83847 0.02813
# Poissons Ratio (z) = 0.43716 0.01779
#
# Static dielectric constant tensor:
#      x y z
#    x 4.059490 0.000000 1.220070 
#    y 0.000000 1.854130 0.000000 
#    z 1.220070 0.000000 2.659450 
# 
# From -- ./inp_files/75183.got.cif
#   From: 2010.05.17/outbox.cif.g08.bks.cpg/sg10_38_cif.got.tgz:75183.got - 2010.06.03 11:33:40.
