data_PCOD9144538
_publ_section_title
;
Structure prediction by ZEFSAII (Michael W. Deem and Ramdas Pophale) SiO2 
 PCOD9144538
Probable space group: P 2/M
;
_chemical_formula_sum "Si O2"
_cell_formula_units_Z 28
_cell_length_a 25.557914
_cell_length_b 7.971584
_cell_length_c 9.646846
_cell_angle_alpha 90.000000
_cell_angle_beta 139.145306
_cell_angle_gamma 90.000000
_cell_volume 1285.665607
_symmetry_space_group_name_H-M "P 2/M"
_symmetry_group_IT_number 10
_symmetry_cell_setting 'monoclinic'
loop_
_space_group_symop_operation_xyz
x,y,z
-x,y,-z
-x,-y,-z
x,-y,z
loop_
_atom_site_type_symbol
_atom_site_label
_atom_site_fract_x
_atom_site_fract_y
_atom_site_fract_z
Si Si1 0.420009 0.705866 0.419356
Si Si2 0.758148 0.804409 0.632089
Si Si3 0.167911 0.803116 0.644854
Si Si4 0.244489 0.303649 0.058978
Si Si5 0.913666 0.303278 0.778811
Si Si6 0.671175 0.796765 0.188759
Si Si7 0.498025 0.302125 0.844252
O O1 0.500000 0.758690 0.500000
O O2 0.418619 0.500000 0.413371
O O3 0.333073 0.765972 0.198699
O O4 0.435415 0.763648 0.607986
O O5 0.763565 0.719183 0.792212
O O6 0.841543 0.785195 0.715985
O O7 0.692082 0.741090 0.388556
O O8 0.742672 0.000000 0.625268
O O9 0.101304 0.718078 0.415670
O O10 0.253063 0.744865 0.751314
O O11 0.160826 0.000000 0.604054
O O12 0.176371 0.774224 0.825379
O O13 0.243659 0.500000 0.026454
O O14 0.908343 0.500000 0.802533
O O15 0.000000 0.240345 0.000000
O O16 0.665826 0.000000 0.176037
O O17 0.588454 0.720251 0.971599
O O18 0.481449 0.500000 0.824279
O O19 0.500000 0.222473 0.000000
#
# Coordination Sequence:
#
# PCOD9144538 Si02
#       7
#     4   4   4   4   4   4   4
#     4   9  18  31  47  71 103 140 184 233 282 327
#     4  10  21  37  57  82 115 151 185 225 276 334
#     4  10  21  37  57  82 113 146 180 219 269 331
#     4  11  21  35  57  82 111 148 191 237 280 325
#     4  10  21  39  64  92 117 141 177 223 267 321
#     4   9  19  34  51  73 102 140 184 226 271 327
#     4  10  19  30  46  69  97 132 178 230 278 323
#
# _framework density 21.778601999999999
#
# number of rings (size 3 to 8) (size 9 to 14) (size 15 to 20)
#    0.000    2.143    0.000    4.286    0.000    7.143 
#    0.000    2.143    0.000    8.143    0.000    0.000 
#    0.000    0.000    0.000    0.000    0.000    0.000 
#
# Total GULP energy -156359.397848 kJ/mol
# GULP energy per Si atom -5584.264209 kJ/mol
# Density = 2.172903 g / cm^3
# Si number density = 21.778602 Si / 1000 Ang^3
#
#
#
# Elastic Constant Matrix: (Units=GPa)
#
#
# Indices 1 2 3 4 5 6 
#
# 1 28.2129 -4.8978 19.7151 0.0000 -9.9527 0.0000
# 2 -4.8978 28.4386 -2.7773 0.0000 -1.2959 0.0000
# 3 19.7151 -2.7773 147.9149 0.0000 -6.1340 0.0000
# 4 0.0000 0.0000 0.0000 151.2243 0.0000 44.6630
# 5 -9.9527 -1.2959 -6.1340 0.0000 33.0189 0.0000
# 6 0.0000 0.0000 0.0000 44.6630 0.0000 38.8926
#
#
#
# Elastic Compliance Matrix: (Units=1/GPa)
#
#
# Indices 1 2 3 4 5 6 
#
# 1 0.045079 0.007832 -0.005326 0.000000 0.012906 0.000000
# 2 0.007832 0.036664 -0.000199 0.000000 0.003763 0.000000
# 3 -0.005326 -0.000199 0.007457 0.000000 -0.000228 0.000000
# 4 0.000000 0.000000 0.000000 0.010007 0.000000 -0.011491
# 5 0.012906 0.003763 -0.000228 0.000000 0.034281 0.000000
# 6 0.000000 0.000000 0.000000 -0.011491 0.000000 0.038908
#
#
# Mechanical properties :
#
#
# Convention : Reuss Voigt Hill
#
# Bulk Modulus (GPa) = 10.65950 25.40515 18.03232
# Shear Modulus (GPa) = 25.11866 57.46227 41.29047
#
# Velocity S-wave (km/s) = 3.39981 5.14218 4.35894
# Velocity P-wave (km/s) = 4.50740 6.85175 5.79928
#
# Compressibility (1/GPa) = 0.09381301
#
# Stress axis : x y z
#
# Youngs Moduli (GPa) = 22.18318 27.27450 134.09571
#
# Poissons Ratio (x) = -0.21361 0.71422
# Poissons Ratio (y) = -0.17373 0.02674
# Poissons Ratio (z) = 0.11815 0.00544
#
# Static dielectric constant tensor:
#      x y z
#    x 1.837860 0.000000 -0.036120 
#    y 0.000000 1.751990 0.000000 
#    z -0.036120 0.000000 1.818210 
# 
# From -- ./inp_files/37074.got.cif
#   From: 2010.05.17/outbox.cif.g08.bks.cpg/sg10_19_cif.got.tgz:37074.got - 2010.06.03 11:33:40.
