data_PCOD9144407
_publ_section_title
;
Structure prediction by ZEFSAII (Michael W. Deem and Ramdas Pophale) SiO2 
 PCOD9144407
Probable space group: P 2/M
;
_chemical_formula_sum "Si O2"
_cell_formula_units_Z 28
_cell_length_a 24.026640
_cell_length_b 17.733486
_cell_length_c 26.281192
_cell_angle_alpha 90.000000
_cell_angle_beta 168.983497
_cell_angle_gamma 90.000000
_cell_volume 2139.804530
_symmetry_space_group_name_H-M "P 2/M"
_symmetry_group_IT_number 10
_symmetry_cell_setting 'monoclinic'
loop_
_space_group_symop_operation_xyz
x,y,z
-x,y,-z
-x,-y,-z
x,-y,z
loop_
_atom_site_type_symbol
_atom_site_label
_atom_site_fract_x
_atom_site_fract_y
_atom_site_fract_z
Si Si1 0.824334 0.091040 0.494600
Si Si2 0.857458 0.908363 0.114474
Si Si3 0.162901 0.908001 0.697741
Si Si4 0.178153 0.414074 0.106892
Si Si5 0.170182 0.090325 0.102109
Si Si6 0.183216 0.843827 0.309930
Si Si7 0.679010 0.679172 0.607406
O O1 0.987464 0.111092 0.693100
O O2 0.993355 0.118083 0.596013
O O3 0.832326 0.000000 0.499395
O O4 0.484359 0.111093 0.189995
O O5 0.010956 0.864085 0.206573
O O6 0.884166 0.000000 0.130499
O O7 0.000000 0.884750 0.500000
O O8 0.160832 0.000000 0.696499
O O9 0.500000 0.884750 0.000000
O O10 0.234489 0.500000 0.140694
O O11 0.468112 0.368643 0.381469
O O12 0.000000 0.418490 0.000000
O O13 0.965100 0.368644 0.878457
O O14 0.497657 0.119859 0.398617
O O15 0.174062 0.000000 0.104438
O O16 0.000000 0.115617 0.000000
O O17 0.997542 0.119858 0.898502
O O18 0.231520 0.756808 0.338911
O O19 0.500000 0.693493 0.500000
#
# Coordination Sequence:
#
# PCOD9144407 Si02
#       7
#     4   4   4   4   4   4   4
#     4   9  17  28  40  55  74  97 128 163 200 240
#     4  10  19  30  42  54  73 104 138 169 199 235
#     4   9  15  23  37  56  75  93 115 151 202 248
#     4   9  17  30  47  65  83 101 119 142 187 254
#     4  11  22  34  46  58  74  99 133 175 219 258
#     4  12  22  33  46  61  80 103 135 172 211 248
#     4  10  19  30  45  64  83 101 123 159 205 246
#
# _framework density 13.085307
#
# number of rings (size 3 to 8) (size 9 to 14) (size 15 to 20)
#    0.000    2.000    0.000    5.571    0.000    8.571 
#    0.000    0.000    0.000    0.000    0.000    0.000 
#    0.000    0.000    0.000    0.000    0.000    0.000 
#
# Total GULP energy -156178.572761 kJ/mol
# GULP energy per Si atom -5577.806170 kJ/mol
# Density = 1.305552 g / cm^3
# Si number density = 13.085307 Si / 1000 Ang^3
#
#
#
# Elastic Constant Matrix: (Units=GPa)
#
#
# Indices 1 2 3 4 5 6 
#
# 1 122.9529 38.8313 83.6675 0.0000 -1.0727 0.0000
# 2 38.8313 59.4488 42.1878 0.0000 -1.8971 0.0000
# 3 83.6675 42.1878 147.0697 0.0000 -12.5597 0.0000
# 4 0.0000 0.0000 0.0000 13.0597 0.0000 -2.0614
# 5 -1.0727 -1.8971 -12.5597 0.0000 27.0862 0.0000
# 6 0.0000 0.0000 0.0000 -2.0614 0.0000 9.4133
#
#
#
# Elastic Compliance Matrix: (Units=1/GPa)
#
#
# Indices 1 2 3 4 5 6 
#
# 1 0.014383 -0.004395 -0.007184 0.000000 -0.003069 0.000000
# 2 -0.004395 0.022513 -0.003996 0.000000 -0.000450 0.000000
# 3 -0.007184 -0.003996 0.012479 0.000000 0.005222 0.000000
# 4 0.000000 0.000000 0.000000 0.079313 0.000000 0.017369
# 5 -0.003069 -0.000450 0.005222 0.000000 0.039187 0.000000
# 6 0.000000 0.000000 0.000000 0.017369 0.000000 0.110037
#
#
# Mechanical properties :
#
#
# Convention : Reuss Voigt Hill
#
# Bulk Modulus (GPa) = 54.86945 73.20498 64.03721
# Shear Modulus (GPa) = 15.86610 20.89749 18.38180
#
# Velocity S-wave (km/s) = 3.48589 4.00061 3.75209
# Velocity P-wave (km/s) = 7.63054 8.79805 8.23501
#
# Compressibility (1/GPa) = 0.01822508
#
# Stress axis : x y z
#
# Youngs Moduli (GPa) = 69.52729 44.41789 80.13638
#
# Poissons Ratio (x) = 0.19520 0.57569
# Poissons Ratio (y) = 0.30555 0.32026
# Poissons Ratio (z) = 0.49947 0.17752
#
# Static dielectric constant tensor:
#      x y z
#    x 1.420850 0.000000 -0.005890 
#    y 0.000000 1.402440 0.000000 
#    z -0.005890 0.000000 1.431280 
# 
# From -- ./inp_files/12615.got.cif
#   From: 2010.05.17/outbox.cif.g08.bks.cpg/sg10_7_cif.got.tgz:12615.got - 2010.06.03 11:33:40.
