data_PCOD9144192
_publ_section_title
;
Structure prediction by ZEFSAII (Michael W. Deem and Ramdas Pophale) SiO2 
 PCOD9144192
Probable space group: P 2/M
;
_chemical_formula_sum "Si O2"
_cell_formula_units_Z 28
_cell_length_a 5.114455
_cell_length_b 19.408805
_cell_length_c 12.949633
_cell_angle_alpha 90.000000
_cell_angle_beta 82.418197
_cell_angle_gamma 90.000000
_cell_volume 1274.213209
_symmetry_space_group_name_H-M "P 2/M"
_symmetry_group_IT_number 10
_symmetry_cell_setting 'monoclinic'
loop_
_space_group_symop_operation_xyz
x,y,z
-x,y,-z
-x,-y,-z
x,-y,z
loop_
_atom_site_type_symbol
_atom_site_label
_atom_site_fract_x
_atom_site_fract_y
_atom_site_fract_z
Si Si1 0.271844 0.000000 0.426939
Si Si2 0.380141 0.776065 0.620206
Si Si3 0.928537 0.176996 0.897966
Si Si4 0.849493 0.138946 0.683212
Si Si5 0.222236 0.308161 0.813819
Si Si6 0.569250 0.419837 0.385009
Si Si7 0.875523 0.421194 0.748354
Si Si8 0.500000 0.285841 0.000000
O O1 0.500000 0.000000 0.500000
O O2 0.258144 0.930249 0.362386
O O3 0.000000 0.000000 0.500000
O O4 0.500000 0.766148 0.500000
O O5 0.627006 0.804796 0.671836
O O6 0.291759 0.708454 0.688768
O O7 0.131594 0.829937 0.629157
O O8 0.866573 0.129869 0.804983
O O9 0.709551 0.233168 0.938923
O O10 0.154876 0.228965 0.847774
O O11 0.000000 0.139695 0.000000
O O12 0.984259 0.363156 0.820509
O O13 0.389518 0.327979 0.907311
O O14 0.500000 0.388725 0.500000
O O15 0.478994 0.500000 0.395878
O O16 0.880061 0.423186 0.345546
O O17 0.389735 0.397763 0.296001
O O18 0.846833 0.500000 0.790134
#
# Coordination Sequence:
#
# PCOD9144192 Si02
#       8
#     2   4   4   4   4   4   4   2
#     4  12  24  40  63  93 132 178 204 232 291 371
#     4  11  22  38  61  90 126 163 205 258 304 356
#     4   9  20  38  63  90 115 159 208 269 308 355
#     4  11  22  40  62  94 127 165 208 247 296 362
#     4  10  22  36  61  88 120 158 210 261 318 370
#     4   9  18  34  54  75 106 153 198 235 287 364
#     4  10  21  35  55  83 118 154 195 250 312 382
#     4  10  18  40  63  85 114 156 218 262 316 362
#
# _framework density 21.974345
#
# number of rings (size 3 to 8) (size 9 to 14) (size 15 to 20)
#    0.000    1.857    1.429    3.000    2.000    2.286 
#    0.000    3.571    0.000    7.714    0.000    0.000 
#    0.000    0.000    0.000    0.000    0.000    0.000 
#
# Total GULP energy -156025.251016 kJ/mol
# GULP energy per Si atom -5572.330393 kJ/mol
# Density = 2.192433 g / cm^3
# Si number density = 21.974345 Si / 1000 Ang^3
#
#
#
# Elastic Constant Matrix: (Units=GPa)
#
#
# Indices 1 2 3 4 5 6 
#
# 1 63.9845 6.4955 17.6950 0.0000 4.9988 0.0000
# 2 6.4955 79.3042 37.9931 0.0000 16.0623 0.0000
# 3 17.6950 37.9931 139.5819 0.0000 18.9646 0.0000
# 4 0.0000 0.0000 0.0000 22.0497 0.0000 4.2397
# 5 4.9988 16.0623 18.9646 0.0000 33.5178 0.0000
# 6 0.0000 0.0000 0.0000 4.2397 0.0000 21.4167
#
#
#
# Elastic Compliance Matrix: (Units=1/GPa)
#
#
# Indices 1 2 3 4 5 6 
#
# 1 0.016256 -0.000191 -0.001833 0.000000 -0.001296 0.000000
# 2 -0.000191 0.015358 -0.003423 0.000000 -0.005394 0.000000
# 3 -0.001833 -0.003423 0.008740 0.000000 -0.003032 0.000000
# 4 0.000000 0.000000 0.000000 0.047147 0.000000 -0.009333
# 5 -0.001296 -0.005394 -0.003032 0.000000 0.034329 0.000000
# 6 0.000000 0.000000 0.000000 -0.009333 0.000000 0.048540
#
#
# Mechanical properties :
#
#
# Convention : Reuss Voigt Hill
#
# Bulk Modulus (GPa) = 33.94363 45.24862 39.59613
# Shear Modulus (GPa) = 26.16655 30.10931 28.13793
#
# Velocity S-wave (km/s) = 3.45451 3.70564 3.58228
# Velocity P-wave (km/s) = 5.60285 6.24062 5.93031
#
# Compressibility (1/GPa) = 0.02946061
#
# Stress axis : x y z
#
# Youngs Moduli (GPa) = 61.51475 65.11319 114.41342
#
# Poissons Ratio (x) = 0.01243 0.20969
# Poissons Ratio (y) = 0.01175 0.39165
# Poissons Ratio (z) = 0.11274 0.22289
#
# Static dielectric constant tensor:
#      x y z
#    x 1.870010 0.000000 -0.047380 
#    y 0.000000 -0.218590 0.000000 
#    z -0.047380 0.000000 1.949270 
# 
# From -- ./inp_files/39612.got.cif
#   From: 2010.05.17/outbox.cif.g08.bks.cpg/sg10_20_cif.got.tgz:39612.got - 2010.06.03 11:33:40.
