data_PCOD9144173
_publ_section_title
;
Structure prediction by ZEFSAII (Michael W. Deem and Ramdas Pophale) SiO2 
 PCOD9144173
Probable space group: P 2/M
;
_chemical_formula_sum "Si O2"
_cell_formula_units_Z 22
_cell_length_a 19.822620
_cell_length_b 14.282349
_cell_length_c 10.071809
_cell_angle_alpha 90.000000
_cell_angle_beta 154.439092
_cell_angle_gamma 90.000000
_cell_volume 1230.322956
_symmetry_space_group_name_H-M "P 2/M"
_symmetry_group_IT_number 10
_symmetry_cell_setting 'monoclinic'
loop_
_space_group_symop_operation_xyz
x,y,z
-x,y,-z
-x,-y,-z
x,-y,z
loop_
_atom_site_type_symbol
_atom_site_label
_atom_site_fract_x
_atom_site_fract_y
_atom_site_fract_z
Si Si1 0.724468 0.701284 0.721283
Si Si2 0.971735 0.197299 0.792254
Si Si3 0.982498 0.000000 0.679107
Si Si4 0.500000 0.164108 0.500000
Si Si5 0.683611 0.695062 0.330722
Si Si6 0.362887 0.500000 0.863892
Si Si7 0.588594 0.500000 0.520634
Si Si8 0.276194 0.000000 0.000658
O O1 0.601162 0.769517 0.579169
O O2 0.711040 0.697678 0.537307
O O3 0.690196 0.594244 0.697295
O O4 0.899160 0.740130 0.054225
O O5 0.795183 0.231108 0.458058
O O6 0.991068 0.092057 0.781796
O O7 0.000000 0.205270 0.000000
O O8 0.820999 0.000000 0.308655
O O9 0.135324 0.000000 0.857127
O O10 0.382958 0.092535 0.214504
O O11 0.722316 0.596289 0.326189
O O12 0.500000 0.713455 0.000000
O O13 0.500000 0.500000 0.000000
O O14 0.456201 0.500000 0.168621
O O15 0.500000 0.500000 0.500000
#
# Coordination Sequence:
#
# PCOD9144173 Si02
#       8
#     4   4   2   2   4   2   2   2
#     4  11  21  37  61  87 122 156 196 241 296 353
#     4  10  23  39  61  88 120 153 194 254 301 348
#     4  11  21  42  58  86 117 154 202 247 303 349
#     4  11  22  41  60  88 118 159 198 251 288 360
#     4  10  20  37  63  88 114 157 199 241 299 347
#     4  10  18  37  61  85 121 155 197 251 279 350
#     4  12  22  35  59  93 124 160 198 237 300 355
#     4  10  24  38  63  83 114 162 205 236 295 369
#
# _framework density 17.881485000000001
#
# number of rings (size 3 to 8) (size 9 to 14) (size 15 to 20)
#    0.000    1.455    6.364    0.273    2.545    0.727 
#    0.000    3.182    0.000    1.091    0.000    0.000 
#    0.000    0.000    0.000    0.000    0.000    0.000 
#
# Total GULP energy -122499.668089 kJ/mol
# GULP energy per Si atom -5568.166731 kJ/mol
# Density = 1.784079 g / cm^3
# Si number density = 17.881485 Si / 1000 Ang^3
#
#
#
# Elastic Constant Matrix: (Units=GPa)
#
#
# Indices 1 2 3 4 5 6 
#
# 1 96.7487 55.1322 31.6859 0.0000 13.0975 0.0000
# 2 55.1322 137.7411 33.1200 0.0000 25.8787 0.0000
# 3 31.6859 33.1200 66.8429 0.0000 22.0844 0.0000
# 4 0.0000 0.0000 0.0000 46.4917 0.0000 34.7724
# 5 13.0975 25.8787 22.0844 0.0000 27.5076 0.0000
# 6 0.0000 0.0000 0.0000 34.7724 0.0000 56.5398
#
#
#
# Elastic Compliance Matrix: (Units=1/GPa)
#
#
# Indices 1 2 3 4 5 6 
#
# 1 0.014568 -0.004952 -0.005035 0.000000 0.001765 0.000000
# 2 -0.004952 0.010750 -0.000567 0.000000 -0.007300 0.000000
# 3 -0.005035 -0.000567 0.022674 0.000000 -0.015273 0.000000
# 4 0.000000 0.000000 0.000000 0.039830 0.000000 -0.024496
# 5 0.001765 -0.007300 -0.015273 0.000000 0.054643 0.000000
# 6 0.000000 0.000000 0.000000 -0.024496 0.000000 0.032752
#
#
# Mechanical properties :
#
#
# Convention : Reuss Voigt Hill
#
# Bulk Modulus (GPa) = 37.19690 60.13433 48.66562
# Shear Modulus (GPa) = 24.35607 38.20080 31.27843
#
# Velocity S-wave (km/s) = 3.69464 4.62706 4.18689
# Velocity P-wave (km/s) = 6.24881 7.88978 7.11675
#
# Compressibility (1/GPa) = 0.02688396
#
# Stress axis : x y z
#
# Youngs Moduli (GPa) = 68.64357 93.02367 44.10246
#
# Poissons Ratio (x) = 0.46064 0.22206
# Poissons Ratio (y) = 0.33991 0.02502
# Poissons Ratio (z) = 0.34563 0.05277
#
# Static dielectric constant tensor:
#      x y z
#    x 1.591920 0.000000 -0.013280 
#    y 0.000000 2.346780 0.000000 
#    z -0.013280 0.000000 1.639160 
# 
# From -- ./inp_files/32724.got.cif
#   From: 2010.05.17/outbox.cif.g08.bks.cpg/sg10_17_cif.got.tgz:32724.got - 2010.06.03 11:33:40.
