data_PCOD9144604
_publ_section_title
;
Structure prediction by ZEFSAII (Michael W. Deem and Ramdas Pophale) SiO2 
 PCOD9144604
Probable space group: P 2/M
;
_chemical_formula_sum "Si O2"
_cell_formula_units_Z 28
_cell_length_a 14.851264
_cell_length_b 7.894948
_cell_length_c 19.616078
_cell_angle_alpha 90.000000
_cell_angle_beta 41.822820
_cell_angle_gamma 90.000000
_cell_volume 1533.696988
_symmetry_space_group_name_H-M "P 2/M"
_symmetry_group_IT_number 10
_symmetry_cell_setting 'monoclinic'
loop_
_space_group_symop_operation_xyz
x,y,z
-x,y,-z
-x,-y,-z
x,-y,z
loop_
_atom_site_type_symbol
_atom_site_label
_atom_site_fract_x
_atom_site_fract_y
_atom_site_fract_z
Si Si1 0.006965 0.203672 0.212878
Si Si2 0.708906 0.702942 0.403841
Si Si3 0.387378 0.294588 0.823830
Si Si4 0.466202 0.696168 0.127011
Si Si5 0.922545 0.203495 0.976924
Si Si6 0.292833 0.801917 0.104571
Si Si7 0.543038 0.707147 0.367199
O O1 0.864031 0.251675 0.325071
O O2 0.019434 0.267722 0.127793
O O3 0.141007 0.259591 0.177569
O O4 0.011202 0.000000 0.208358
O O5 0.698885 0.500000 0.408527
O O6 0.652553 0.762479 0.361994
O O7 0.602496 0.761245 0.521127
O O8 0.391601 0.500000 0.822244
O O9 0.491090 0.234255 0.823501
O O10 0.423633 0.234707 0.727505
O O11 0.235714 0.242568 0.928430
O O12 0.428800 0.500000 0.155077
O O13 0.349402 0.783163 0.148950
O O14 0.601500 0.709043 0.004451
O O15 0.938199 0.000000 0.967666
O O16 0.000000 0.270218 0.000000
O O17 0.300068 0.000000 0.081504
O O18 0.544846 0.500000 0.364720
#
# Coordination Sequence:
#
# PCOD9144604 Si02
#       7
#     4   4   4   4   4   4   4
#     4  10  20  32  46  69  99 126 156 195 238 282
#     4   9  17  31  53  72  92 126 165 199 230 278
#     4  10  19  31  49  71  98 126 154 196 242 284
#     4  10  19  30  47  72  96 120 157 202 235 278
#     4  10  20  32  45  66  99 132 158 189 232 284
#     4  10  19  32  49  66  93 131 158 190 238 287
#     4   8  16  32  50  72  97 124 160 198 238 279
#
# _framework density 18.256537999999999
#
# number of rings (size 3 to 8) (size 9 to 14) (size 15 to 20)
#    0.000    2.429    1.429    3.429    0.000    2.571 
#    0.000    2.143    0.000    0.857    0.000    6.000 
#    0.000    0.000    0.000    0.000    0.000    0.000 
#
# Total GULP energy -156178.853016 kJ/mol
# GULP energy per Si atom -5577.816179 kJ/mol
# Density = 1.821499 g / cm^3
# Si number density = 18.256538 Si / 1000 Ang^3
#
#
#
# Elastic Constant Matrix: (Units=GPa)
#
#
# Indices 1 2 3 4 5 6 
#
# 1 76.8624 -6.4905 10.8304 0.0000 -19.7798 0.0000
# 2 -6.4905 15.6533 -10.7614 0.0000 -0.5781 0.0000
# 3 10.8304 -10.7614 48.1090 0.0000 -15.2433 0.0000
# 4 0.0000 0.0000 0.0000 20.2337 0.0000 -6.4270
# 5 -19.7798 -0.5781 -15.2433 0.0000 28.9460 0.0000
# 6 0.0000 0.0000 0.0000 -6.4270 0.0000 19.2180
#
#
#
# Elastic Compliance Matrix: (Units=1/GPa)
#
#
# Indices 1 2 3 4 5 6 
#
# 1 0.016751 0.009011 0.002315 0.000000 0.012845 0.000000
# 2 0.009011 0.084297 0.023180 0.000000 0.020048 0.000000
# 3 0.002315 0.023180 0.031325 0.000000 0.018541 0.000000
# 4 0.000000 0.000000 0.000000 0.055296 0.000000 0.018493
# 5 0.012845 0.020048 0.018541 0.000000 0.053489 0.000000
# 6 0.000000 0.000000 0.000000 0.018493 0.000000 0.058219
#
#
# Mechanical properties :
#
#
# Convention : Reuss Voigt Hill
#
# Bulk Modulus (GPa) = 4.96567 14.19797 9.58182
# Shear Modulus (GPa) = 16.80716 23.48263 20.14490
#
# Velocity S-wave (km/s) = 3.03745 3.59034 3.32540
# Velocity P-wave (km/s) = 3.87651 4.99811 4.47261
#
# Compressibility (1/GPa) = 0.20138287
#
# Stress axis : x y z
#
# Youngs Moduli (GPa) = 59.69933 11.86289 31.92378
#
# Poissons Ratio (x) = -0.10690 -0.07390
# Poissons Ratio (y) = -0.53796 -0.73998
# Poissons Ratio (z) = -0.13819 -0.27498
#
# Static dielectric constant tensor:
#      x y z
#    x 1.648440 0.000000 0.015000 
#    y 0.000000 1.661030 0.000000 
#    z 0.015000 0.000000 1.603830 
# 
# From -- ./inp_files/77715.got.cif
#   From: 2010.05.17/outbox.cif.g08.bks.cpg/sg10_39_cif.got.tgz:77715.got - 2010.06.03 11:33:40.
