data_PCOD9144360
_publ_section_title
;
Structure prediction by ZEFSAII (Michael W. Deem and Ramdas Pophale) SiO2 
 PCOD9144360
Probable space group: P 2/M
;
_chemical_formula_sum "Si O2"
_cell_formula_units_Z 32
_cell_length_a 16.610479
_cell_length_b 9.967147
_cell_length_c 25.029149
_cell_angle_alpha 90.000000
_cell_angle_beta 25.708776
_cell_angle_gamma 90.000000
_cell_volume 1797.569727
_symmetry_space_group_name_H-M "P 2/M"
_symmetry_group_IT_number 10
_symmetry_cell_setting 'monoclinic'
loop_
_space_group_symop_operation_xyz
x,y,z
-x,y,-z
-x,-y,-z
x,-y,z
loop_
_atom_site_type_symbol
_atom_site_label
_atom_site_fract_x
_atom_site_fract_y
_atom_site_fract_z
Si Si1 0.113097 0.657207 0.878591
Si Si2 0.030412 0.155155 0.129292
Si Si3 0.705856 0.650032 0.855461
Si Si4 0.979648 0.845932 0.744742
Si Si5 0.767524 0.153659 0.722647
Si Si6 0.428765 0.846046 0.848278
Si Si7 0.823352 0.847484 0.486998
Si Si8 0.514511 0.658103 0.283256
O O1 0.072895 0.500000 0.892075
O O2 0.329249 0.670843 0.764515
O O3 0.053858 0.747483 0.864487
O O4 0.000000 0.694437 0.000000
O O5 0.952673 0.177816 0.235444
O O6 0.992317 0.000000 0.137775
O O7 0.255878 0.170449 0.992501
O O8 0.781730 0.500000 0.802152
O O9 0.706285 0.735325 0.801281
O O10 0.825620 0.735923 0.824949
O O11 0.500000 0.640654 0.000000
O O12 0.113921 0.837127 0.612815
O O13 0.907448 0.000000 0.787612
O O14 0.632330 0.167566 0.753056
O O15 0.991054 0.167931 0.587444
O O16 0.737913 0.000000 0.760225
O O17 0.409646 0.735498 0.814108
O O18 0.414470 0.000000 0.836496
O O19 0.672312 0.736174 0.589846
O O20 0.753816 0.000000 0.537195
O O21 0.485842 0.500000 0.290246
#
# Coordination Sequence:
#
# PCOD9144360 Si02
#       8
#     4   4   4   4   4   4   4   4
#     4  10  21  39  58  79 110 145 178 217 276 338
#     4  10  20  34  58  89 113 136 177 230 276 322
#     4  10  19  29  45  74 109 145 185 226 268 315
#     4   9  19  36  56  79 108 144 182 222 272 324
#     4   9  19  35  54  76 106 147 186 223 269 321
#     4  10  20  34  55  84 113 141 180 227 275 324
#     4   9  19  37  58  78 107 147 187 224 264 316
#     4  11  23  38  57  79 107 145 184 225 274 328
#
# _framework density 17.801812999999999
#
# number of rings (size 3 to 8) (size 9 to 14) (size 15 to 20)
#    0.000    2.250    1.250    2.250    0.000    6.750 
#    0.000    3.125    0.000    3.750    0.000    0.000 
#    0.000    0.000    0.000    0.000    0.000    0.000 
#
# Total GULP energy -178317.218817 kJ/mol
# GULP energy per Si atom -5572.413088 kJ/mol
# Density = 1.776130 g / cm^3
# Si number density = 17.801813 Si / 1000 Ang^3
#
#
#
# Elastic Constant Matrix: (Units=GPa)
#
#
# Indices 1 2 3 4 5 6 
#
# 1 66.0814 36.5183 -0.2466 0.0000 -6.1909 0.0000
# 2 36.5183 100.8285 19.6849 0.0000 -8.6240 0.0000
# 3 -0.2466 19.6849 36.3062 0.0000 -10.4360 0.0000
# 4 0.0000 0.0000 0.0000 31.5081 0.0000 8.1776
# 5 -6.1909 -8.6240 -10.4360 0.0000 15.5604 0.0000
# 6 0.0000 0.0000 0.0000 8.1776 0.0000 48.9415
#
#
#
# Elastic Compliance Matrix: (Units=1/GPa)
#
#
# Indices 1 2 3 4 5 6 
#
# 1 0.020355 -0.008004 0.006851 0.000000 0.008258 0.000000
# 2 -0.008004 0.014326 -0.007996 0.000000 -0.000608 0.000000
# 3 0.006851 -0.007996 0.038943 0.000000 0.024412 0.000000
# 4 0.000000 0.000000 0.000000 0.033177 0.000000 -0.005543
# 5 0.008258 -0.000608 0.024412 0.000000 0.083587 0.000000
# 6 0.000000 0.000000 0.000000 -0.005543 0.000000 0.021359
#
#
# Mechanical properties :
#
#
# Convention : Reuss Voigt Hill
#
# Bulk Modulus (GPa) = 18.07451 35.01438 26.54445
# Shear Modulus (GPa) = 20.12194 29.01930 24.57062
#
# Velocity S-wave (km/s) = 3.36569 4.04187 3.71918
# Velocity P-wave (km/s) = 5.02782 6.44158 5.77810
#
# Compressibility (1/GPa) = 0.05532652
#
# Stress axis : x y z
#
# Youngs Moduli (GPa) = 49.12788 69.80437 25.67877
#
# Poissons Ratio (x) = 0.55868 -0.17593
# Poissons Ratio (y) = 0.39320 0.20533
# Poissons Ratio (z) = -0.33659 0.55818
#
# Static dielectric constant tensor:
#      x y z
#    x 1.613950 0.000000 0.003420 
#    y 0.000000 1.599970 0.000000 
#    z 0.003420 0.000000 1.626150 
# 
# From -- ./inp_files/89539.got.cif
#   From: 2010.05.17/outbox.cif.g08.bks.cpg/sg10_45_cif.got.tgz:89539.got - 2010.06.03 11:33:40.
