data_PCOD9144887
_publ_section_title
;
Structure prediction by ZEFSAII (Michael W. Deem and Ramdas Pophale) SiO2 
 PCOD9144887
Probable space group: P 2/M
;
_chemical_formula_sum "Si O2"
_cell_formula_units_Z 24
_cell_length_a 14.892465
_cell_length_b 14.531388
_cell_length_c 12.513419
_cell_angle_alpha 90.000000
_cell_angle_beta 147.166747
_cell_angle_gamma 90.000000
_cell_volume 1468.270093
_symmetry_space_group_name_H-M "P 2/M"
_symmetry_group_IT_number 10
_symmetry_cell_setting 'monoclinic'
loop_
_space_group_symop_operation_xyz
x,y,z
-x,y,-z
-x,-y,-z
x,-y,z
loop_
_atom_site_type_symbol
_atom_site_label
_atom_site_fract_x
_atom_site_fract_y
_atom_site_fract_z
Si Si1 0.804603 0.606862 0.570714
Si Si2 0.685807 0.228065 0.313638
Si Si3 0.314192 0.228066 0.942023
Si Si4 0.690697 0.611339 0.690698
Si Si5 0.195396 0.606862 0.961507
Si Si6 0.000000 0.894614 0.370078
O O1 0.750431 0.500000 0.506812
O O2 0.711565 0.675495 0.399138
O O3 0.775259 0.637733 0.663991
O O4 1.000000 0.610410 0.742764
O O5 0.700426 0.241190 0.200426
O O6 0.834168 0.160204 0.496111
O O7 0.499999 0.192615 0.149515
O O8 0.288434 0.324505 0.976005
O O9 0.165830 0.160205 0.827775
O O10 0.500000 0.641616 0.500000
O O11 0.693537 0.500000 0.693537
O O12 0.775258 0.637734 0.886526
O O13 0.249569 0.500000 0.005949
O O14 0.000000 0.896521 0.500000
O O15 1.000000 0.000000 0.332829
#
# Coordination Sequence:
#
# PCOD9144887 Si02
#       6
#     4   4   4   4   4   4
#     4  10  19  31  48  70 100 136 170 203 240 284
#     4  10  20  33  50  74 102 131 165 201 242 295
#     4  10  20  33  50  74 102 131 165 201 242 295
#     4   9  17  29  45  67  95 128 169 209 241 277
#     4  10  19  31  48  70 100 136 170 203 240 284
#     4   9  18  34  53  72  97 126 159 204 253 295
#
# _framework density 16.345766999999999
#
# number of rings (size 3 to 8) (size 9 to 14) (size 15 to 20)
#    0.000    2.333    1.667    1.500    0.000    5.333 
#    0.000    6.667    0.000    0.000    0.000    2.333 
#    0.000    4.000    0.000    0.000    0.000    0.000 
#
# Total GULP energy -133739.839371 kJ/mol
# GULP energy per Si atom -5572.493307 kJ/mol
# Density = 1.630856 g / cm^3
# Si number density = 16.345767 Si / 1000 Ang^3
#
#
#
# Elastic Constant Matrix: (Units=GPa)
#
#
# Indices 1 2 3 4 5 6 
#
# 1 62.5418 37.5223 29.9368 0.0000 20.7098 0.0000
# 2 37.5223 86.6958 46.1614 0.0000 10.3945 0.0000
# 3 29.9368 46.1614 94.8985 0.0000 18.2203 0.0000
# 4 0.0000 0.0000 0.0000 6.1528 0.0000 6.0118
# 5 20.7098 10.3945 18.2203 0.0000 21.9145 0.0000
# 6 0.0000 0.0000 0.0000 6.0118 0.0000 1.1547
#
#
#
# Elastic Compliance Matrix: (Units=1/GPa)
#
#
# Indices 1 2 3 4 5 6 
#
# 1 0.029773 -0.010084 -0.000004 0.000000 -0.023350 0.000000
# 2 -0.010084 0.019013 -0.007337 0.000000 0.006612 0.000000
# 3 -0.000004 -0.007337 0.015991 0.000000 -0.009812 0.000000
# 4 0.000000 0.000000 0.000000 -0.039765 0.000000 0.207037
# 5 -0.023350 0.006612 -0.009812 0.000000 0.072721 0.000000
# 6 0.000000 0.000000 0.000000 0.207037 0.000000 -0.211891
#
#
# Mechanical properties :
#
#
# Convention : Reuss Voigt Hill
#
# Bulk Modulus (GPa) = 33.41344 52.37524 42.89434
# Shear Modulus (GPa) = -72.11749 14.54542 -28.78604
#
# Velocity S-wave (km/s) = -6.64949 2.98629 -4.20106
# Velocity P-wave (km/s) = 6.20228 6.63341 1.66341
#
# Compressibility (1/GPa) = 0.02992808
#
# Stress axis : x y z
#
# Youngs Moduli (GPa) = 33.58697 52.59602 62.53348
#
# Poissons Ratio (x) = 0.53040 0.00024
# Poissons Ratio (y) = 0.33871 0.45878
# Poissons Ratio (z) = 0.00013 0.38588
#
# Static dielectric constant tensor:
#      x y z
#    x 1.548110 0.000000 0.023100 
#    y 0.000000 1.528580 0.000000 
#    z 0.023100 0.000000 1.567300 
# 
# From -- ./inp_files/34484.got.cif
#   From: 2010.05.17/outbox.cif.g08.bks.cpg/sg10_18_cif.got.tgz:34484.got - 2010.06.03 11:33:40.
