data_PCOD9144643
_publ_section_title
;
Structure prediction by ZEFSAII (Michael W. Deem and Ramdas Pophale) SiO2 
 PCOD9144643
Probable space group: P 2/M
;
_chemical_formula_sum "Si O2"
_cell_formula_units_Z 32
_cell_length_a 17.221108
_cell_length_b 11.166572
_cell_length_c 17.064156
_cell_angle_alpha 90.000000
_cell_angle_beta 25.902909
_cell_angle_gamma 90.000000
_cell_volume 1433.493039
_symmetry_space_group_name_H-M "P 2/M"
_symmetry_group_IT_number 10
_symmetry_cell_setting 'monoclinic'
loop_
_space_group_symop_operation_xyz
x,y,z
-x,y,-z
-x,-y,-z
x,-y,z
loop_
_atom_site_type_symbol
_atom_site_label
_atom_site_fract_x
_atom_site_fract_y
_atom_site_fract_z
Si Si1 0.801340 0.629985 0.746442
Si Si2 0.698573 0.128542 0.009971
Si Si3 0.285379 0.126570 0.188466
Si Si4 0.400995 0.855755 0.666956
Si Si5 0.531209 0.627633 0.129768
Si Si6 0.248892 0.855253 0.559906
Si Si7 0.149620 0.366411 0.538021
Si Si8 0.942187 0.136333 0.939953
O O1 0.812250 0.500000 0.697824
O O2 0.794958 0.752862 0.704675
O O3 0.965975 0.638670 0.657260
O O4 0.621924 0.630489 0.962112
O O5 0.593317 0.250951 0.113155
O O6 0.849859 0.132536 0.937732
O O7 0.601482 0.000000 0.108394
O O8 0.759736 0.126706 0.863491
O O9 0.227133 0.000000 0.276589
O O10 0.500000 0.129982 0.000000
O O11 0.500000 0.808755 0.500000
O O12 0.206637 0.807416 0.868348
O O13 0.543425 0.841868 0.607900
O O14 0.380539 0.000000 0.675403
O O15 0.593329 0.500000 0.108727
O O16 0.321026 0.627954 0.326515
O O17 0.182593 0.753727 0.559284
O O18 0.218527 0.000000 0.570320
O O19 0.139188 0.823651 0.739400
O O20 0.147888 0.500000 0.580439
O O21 0.963691 0.000000 0.946935
#
# Coordination Sequence:
#
# PCOD9144643 Si02
#       8
#     4   4   4   4   4   4   4   4
#     4   9  18  32  49  69  94 127 166 204 246 294
#     4   9  16  28  47  69  95 126 160 201 244 287
#     4   9  17  29  47  72 101 133 167 203 245 291
#     4   9  18  31  47  72 104 131 159 200 245 289
#     4   9  17  29  45  66  94 124 153 193 243 288
#     4  10  19  30  48  72  96 128 166 198 239 292
#     4  10  20  32  48  74 104 129 160 205 250 291
#     4   9  17  29  46  70  98 125 159 204 246 285
#
# _framework density 22.323093
#
# number of rings (size 3 to 8) (size 9 to 14) (size 15 to 20)
#    0.000    2.750    0.000    2.250    0.000    3.750 
#    0.000    2.500    0.000    3.375    0.000   20.125 
#    0.000    0.000    0.000    0.000    0.000    0.000 
#
# Total GULP energy -178299.871604 kJ/mol
# GULP energy per Si atom -5571.870988 kJ/mol
# Density = 2.227228 g / cm^3
# Si number density = 22.323093 Si / 1000 Ang^3
#
#
#
# Elastic Constant Matrix: (Units=GPa)
#
#
# Indices 1 2 3 4 5 6 
#
# 1 61.0021 32.4765 3.9619 0.0000 2.1502 0.0000
# 2 32.4765 205.8811 22.2096 0.0000 -9.1012 0.0000
# 3 3.9619 22.2096 131.4237 0.0000 8.3603 0.0000
# 4 0.0000 0.0000 0.0000 20.3976 0.0000 -5.4692
# 5 2.1502 -9.1012 8.3603 0.0000 20.9687 0.0000
# 6 0.0000 0.0000 0.0000 -5.4692 0.0000 15.8525
#
#
#
# Elastic Compliance Matrix: (Units=1/GPa)
#
#
# Indices 1 2 3 4 5 6 
#
# 1 0.018102 -0.003017 0.000170 0.000000 -0.003233 0.000000
# 2 -0.003017 0.005586 -0.001054 0.000000 0.003154 0.000000
# 3 0.000170 -0.001054 0.008015 0.000000 -0.003671 0.000000
# 4 0.000000 0.000000 0.000000 0.054023 0.000000 0.018638
# 5 -0.003233 0.003154 -0.003671 0.000000 0.050854 0.000000
# 6 0.000000 0.000000 0.000000 0.018638 0.000000 0.069512
#
#
# Mechanical properties :
#
#
# Convention : Reuss Voigt Hill
#
# Bulk Modulus (GPa) = 41.83726 57.28924 49.56325
# Shear Modulus (GPa) = 22.53668 34.08769 28.31218
#
# Velocity S-wave (km/s) = 3.18082 3.91194 3.56517
# Velocity P-wave (km/s) = 5.68089 6.79145 6.26084
#
# Compressibility (1/GPa) = 0.02390214
#
# Stress axis : x y z
#
# Youngs Moduli (GPa) = 55.24294 179.01455 124.75946
#
# Poissons Ratio (x) = 0.54003 -0.02118
# Poissons Ratio (y) = 0.16665 0.13146
# Poissons Ratio (z) = -0.00938 0.18863
#
# Static dielectric constant tensor:
#      x y z
#    x 1.848800 0.000000 0.002990 
#    y 0.000000 1.866630 0.000000 
#    z 0.002990 0.000000 1.892090 
# 
# From -- ./inp_files/86258.got.cif
#   From: 2010.05.17/outbox.cif.g08.bks.cpg/sg10_44_cif.got.tgz:86258.got - 2010.06.03 11:33:40.
