data_PCOD9144747
_publ_section_title
;
Structure prediction by ZEFSAII (Michael W. Deem and Ramdas Pophale) SiO2 
 PCOD9144747
Probable space group: P 2/M
;
_chemical_formula_sum "Si O2"
_cell_formula_units_Z 24
_cell_length_a 19.682641
_cell_length_b 11.553602
_cell_length_c 7.765663
_cell_angle_alpha 90.000000
_cell_angle_beta 137.627419
_cell_angle_gamma 90.000000
_cell_volume 1190.162594
_symmetry_space_group_name_H-M "P 2/M"
_symmetry_group_IT_number 10
_symmetry_cell_setting 'monoclinic'
loop_
_space_group_symop_operation_xyz
x,y,z
-x,y,-z
-x,-y,-z
x,-y,z
loop_
_atom_site_type_symbol
_atom_site_label
_atom_site_fract_x
_atom_site_fract_y
_atom_site_fract_z
Si Si1 0.226908 0.206817 0.207988
Si Si2 0.535976 0.000000 0.847047
Si Si3 0.592753 0.636493 0.388320
Si Si4 0.983137 0.133199 0.264210
Si Si5 0.603474 0.249412 0.034109
Si Si6 0.206774 0.136334 0.565674
Si Si7 0.338652 0.000000 0.269667
O O1 0.305678 0.311610 0.339950
O O2 0.232681 0.156225 0.413407
O O3 0.268637 0.110368 0.157127
O O4 0.108469 0.218157 0.951484
O O5 0.419014 0.000000 0.576848
O O6 0.596202 0.000000 0.779574
O O7 0.568715 0.117247 0.999776
O O8 0.585350 0.500000 0.392956
O O9 0.603769 0.673653 0.207361
O O10 0.487049 0.696430 0.248642
O O11 0.000000 0.132064 0.500000
O O12 0.089635 0.162256 0.377227
O O13 0.956103 0.000000 0.160030
O O14 0.718554 0.224904 0.194975
O O15 0.220730 0.000000 0.636859
#
# Coordination Sequence:
#
# PCOD9144747 Si02
#       7
#     4   2   4   4   4   4   2
#     4  11  20  35  58  78 117 156 192 233 289 344
#     4  11  22  32  50  88 126 152 184 227 295 370
#     4  10  22  37  58  84 109 152 202 247 282 324
#     4  10  21  33  52  84 120 153 183 228 294 361
#     4  10  19  32  56  82 119 145 179 234 288 346
#     4  10  19  30  51  85 119 147 183 228 280 358
#     4  11  22  33  51  86 122 158 189 220 296 358
#
# _framework density 20.165313000000001
#
# number of rings (size 3 to 8) (size 9 to 14) (size 15 to 20)
#    0.000    1.667    4.167    1.500    2.333    2.667 
#    0.000    0.000    0.000   12.500    0.000    0.000 
#    0.000    0.000    0.000    0.000    0.000    0.000 
#
# Total GULP energy -133907.678842 kJ/mol
# GULP energy per Si atom -5579.486618 kJ/mol
# Density = 2.011942 g / cm^3
# Si number density = 20.165313 Si / 1000 Ang^3
#
#
#
# Elastic Constant Matrix: (Units=GPa)
#
#
# Indices 1 2 3 4 5 6 
#
# 1 85.8211 20.5974 32.9727 0.0000 23.9954 0.0000
# 2 20.5974 116.6594 45.1213 0.0000 26.1312 0.0000
# 3 32.9727 45.1213 117.1843 0.0000 47.5003 0.0000
# 4 0.0000 0.0000 0.0000 32.7870 0.0000 24.2462
# 5 23.9954 26.1312 47.5003 0.0000 47.4407 0.0000
# 6 0.0000 0.0000 0.0000 24.2462 0.0000 28.2230
#
#
#
# Elastic Compliance Matrix: (Units=1/GPa)
#
#
# Indices 1 2 3 4 5 6 
#
# 1 0.013835 -0.000704 -0.001586 0.000000 -0.005021 0.000000
# 2 -0.000704 0.010334 -0.002723 0.000000 -0.002609 0.000000
# 3 -0.001586 -0.002723 0.015308 0.000000 -0.013025 0.000000
# 4 0.000000 0.000000 0.000000 0.083631 0.000000 -0.071847
# 5 -0.005021 -0.002609 -0.013025 0.000000 0.038097 0.000000
# 6 0.000000 0.000000 0.000000 -0.071847 0.000000 0.097155
#
#
# Mechanical properties :
#
#
# Convention : Reuss Voigt Hill
#
# Bulk Modulus (GPa) = 33.95657 57.44974 45.70316
# Shear Modulus (GPa) = 17.97237 36.42170 27.19704
#
# Velocity S-wave (km/s) = 2.98862 4.25450 3.67645
# Velocity P-wave (km/s) = 5.36515 7.25848 6.38241
#
# Compressibility (1/GPa) = 0.02944938
#
# Stress axis : x y z
#
# Youngs Moduli (GPa) = 72.28278 96.76722 65.32495
#
# Poissons Ratio (x) = 0.06816 0.10361
# Poissons Ratio (y) = 0.05092 0.17789
# Poissons Ratio (z) = 0.11464 0.26352
#
# Static dielectric constant tensor:
#      x y z
#    x 1.753290 0.000000 0.006530 
#    y 0.000000 1.658080 0.000000 
#    z 0.006530 0.000000 1.831830 
# 
# From -- ./inp_files/34726.got.cif
#   From: 2010.05.17/outbox.cif.g08.bks.cpg/sg10_18_cif.got.tgz:34726.got - 2010.06.03 11:33:40.
