data_PCOD9144668
_publ_section_title
;
Structure prediction by ZEFSAII (Michael W. Deem and Ramdas Pophale) SiO2 
 PCOD9144668
Probable space group: P 2/M
;
_chemical_formula_sum "Si O2"
_cell_formula_units_Z 32
_cell_length_a 20.340551
_cell_length_b 9.181954
_cell_length_c 25.593178
_cell_angle_alpha 90.000000
_cell_angle_beta 20.087287
_cell_angle_gamma 90.000000
_cell_volume 1641.675166
_symmetry_space_group_name_H-M "P 2/M"
_symmetry_group_IT_number 10
_symmetry_cell_setting 'monoclinic'
loop_
_space_group_symop_operation_xyz
x,y,z
-x,y,-z
-x,-y,-z
x,-y,z
loop_
_atom_site_type_symbol
_atom_site_label
_atom_site_fract_x
_atom_site_fract_y
_atom_site_fract_z
Si Si1 0.449034 0.169753 0.862543
Si Si2 0.723626 0.330919 0.393472
Si Si3 0.615591 0.331261 0.832593
Si Si4 0.390706 0.827884 0.692933
Si Si5 0.800598 0.669236 0.799747
Si Si6 0.627121 0.327465 0.188035
Si Si7 0.964675 0.830539 0.771094
Si Si8 0.078959 0.332861 0.866360
O O1 0.593829 0.234599 0.797508
O O2 0.447102 0.259415 0.810395
O O3 0.485735 0.000000 0.825275
O O4 0.236925 0.181281 0.047068
O O5 0.675274 0.500000 0.439586
O O6 0.539691 0.231573 0.539231
O O7 0.810866 0.320465 0.270748
O O8 0.884016 0.271676 0.313196
O O9 0.651834 0.500000 0.791712
O O10 0.765109 0.286820 0.766132
O O11 0.408195 0.327806 0.016286
O O12 0.449809 0.753284 0.703338
O O13 0.183817 0.770766 0.828937
O O14 0.393690 0.000000 0.695155
O O15 0.864203 0.500000 0.753765
O O16 0.929827 0.772922 0.738511
O O17 0.590481 0.500000 0.217295
O O18 0.857141 0.304650 0.019978
O O19 0.023135 0.000000 0.728424
O O20 0.098780 0.500000 0.870136
#
# Coordination Sequence:
#
# PCOD9144668 Si02
#       8
#     4   4   4   4   4   4   4   4
#     4  10  19  30  48  76 109 141 176 222 274 323
#     4  11  22  39  60  81 107 144 186 225 266 321
#     4   8  14  25  42  66  99 139 180 219 261 313
#     4  12  26  40  56  82 113 142 175 224 280 328
#     4   8  14  25  42  66  99 139 180 219 261 313
#     4  11  22  39  60  81 107 144 186 225 266 321
#     4  10  19  30  48  76 109 141 176 222 274 323
#     4  10  22  40  62  84 105 138 183 226 268 323
#
# _framework density 19.492284999999999
#
# number of rings (size 3 to 8) (size 9 to 14) (size 15 to 20)
#    0.000    2.000    1.250    4.125    0.000    6.500 
#    0.000    2.500    0.000    0.000    0.000    0.875 
#    0.000    7.000    0.000    0.000    0.000    0.000 
#
# Total GULP energy -178716.174243 kJ/mol
# GULP energy per Si atom -5584.880445 kJ/mol
# Density = 1.944792 g / cm^3
# Si number density = 19.492285 Si / 1000 Ang^3
#
#
#
# Elastic Constant Matrix: (Units=GPa)
#
#
# Indices 1 2 3 4 5 6 
#
# 1 128.1659 72.2246 6.9412 0.0000 -1.7671 0.0000
# 2 72.2246 91.1096 6.8364 0.0000 7.6807 0.0000
# 3 6.9412 6.8364 20.2392 0.0000 12.2691 0.0000
# 4 0.0000 0.0000 0.0000 -50.4590 0.0000 57.1109
# 5 -1.7671 7.6807 12.2691 0.0000 17.8893 0.0000
# 6 0.0000 0.0000 0.0000 57.1109 0.0000 -20.9853
#
#
#
# Elastic Compliance Matrix: (Units=1/GPa)
#
#
# Indices 1 2 3 4 5 6 
#
# 1 0.015784 -0.012955 -0.009164 0.000000 0.013407 0.000000
# 2 -0.012955 0.022048 0.006007 0.000000 -0.014866 0.000000
# 3 -0.009164 0.006007 0.090091 0.000000 -0.065272 0.000000
# 4 0.000000 0.000000 0.000000 0.009527 0.000000 0.025927
# 5 0.013407 -0.014866 -0.065272 0.000000 0.108372 0.000000
# 6 0.000000 0.000000 0.000000 0.025927 0.000000 0.022907
#
#
# Mechanical properties :
#
#
# Convention : Reuss Voigt Hill
#
# Bulk Modulus (GPa) = 10.44939 45.72434 28.08687
# Shear Modulus (GPa) = 15.02167 -0.47684 7.27242
#
# Velocity S-wave (km/s) = 2.77906 -0.49514 1.93365
# Velocity P-wave (km/s) = 3.95854 4.81474 4.40748
#
# Compressibility (1/GPa) = 0.09569934
#
# Stress axis : x y z
#
# Youngs Moduli (GPa) = 63.35572 45.35598 11.09987
#
# Poissons Ratio (x) = 0.58758 0.10172
# Poissons Ratio (y) = 0.82076 -0.06668
# Poissons Ratio (z) = 0.58062 -0.27247
#
# Static dielectric constant tensor:
#      x y z
#    x 1.678380 0.000000 -0.002670 
#    y 0.000000 1.649080 0.000000 
#    z -0.002670 0.000000 1.707690 
# 
# From -- ./inp_files/93624.got.cif
#   From: 2010.05.17/outbox.cif.g08.bks.cpg/sg10_47_cif.got.tgz:93624.got - 2010.06.03 11:33:40.
