data_PCOD9144046
_publ_section_title
;
Structure prediction by ZEFSAII (Michael W. Deem and Ramdas Pophale) SiO2 
 PCOD9144046
Probable space group: P 2/M
;
_chemical_formula_sum "Si O2"
_cell_formula_units_Z 28
_cell_length_a 9.011375
_cell_length_b 10.350109
_cell_length_c 26.239416
_cell_angle_alpha 90.000000
_cell_angle_beta 143.863394
_cell_angle_gamma 90.000000
_cell_volume 1443.213072
_symmetry_space_group_name_H-M "P 2/M"
_symmetry_group_IT_number 10
_symmetry_cell_setting 'monoclinic'
loop_
_space_group_symop_operation_xyz
x,y,z
-x,y,-z
-x,-y,-z
x,-y,z
loop_
_atom_site_type_symbol
_atom_site_label
_atom_site_fract_x
_atom_site_fract_y
_atom_site_fract_z
Si Si1 0.540232 0.640700 0.224286
Si Si2 0.146759 0.148851 0.093769
Si Si3 0.867551 0.647364 0.639524
Si Si4 0.377509 0.273820 0.641692
Si Si5 0.834139 0.849979 0.720188
Si Si6 0.141331 0.352108 0.475382
Si Si7 0.785729 0.843266 0.086808
O O1 0.443030 0.500000 0.181671
O O2 0.383648 0.757720 0.158140
O O3 0.521376 0.653026 0.280559
O O4 0.831324 0.648728 0.288480
O O5 0.959967 0.191782 0.087186
O O6 0.222113 0.000000 0.124721
O O7 0.000000 0.152207 0.000000
O O8 0.800401 0.500000 0.636736
O O9 0.815355 0.755950 0.666649
O O10 0.754713 0.671253 0.551807
O O11 0.580296 0.165469 0.683750
O O12 0.330842 0.345284 0.574973
O O13 0.086601 0.251840 0.577721
O O14 0.068285 0.807070 0.820938
O O15 0.865866 0.000000 0.714791
O O16 0.037524 0.500000 0.446016
O O17 0.775458 0.000000 0.084597
O O18 0.500000 0.796172 0.000000
#
# Coordination Sequence:
#
# PCOD9144046 Si02
#       7
#     4   4   4   4   4   4   4
#     4  10  20  36  58  85 116 147 184 238 296 338
#     4  10  21  36  58  85 109 144 192 235 278 339
#     4   9  21  38  56  82 116 152 192 236 279 333
#     4  10  18  34  59  85 112 146 190 239 283 336
#     4  11  23  38  58  86 118 153 190 235 288 341
#     4   9  18  36  60  86 113 149 198 239 276 335
#     4   9  19  37  57  80 111 147 190 234 274 329
#
# _framework density 19.401153999999998
#
# number of rings (size 3 to 8) (size 9 to 14) (size 15 to 20)
#    0.000    2.286    1.429    2.571    2.000    3.143 
#    0.000    6.429    0.000    0.857    0.000    0.000 
#    0.000    0.000    0.000    0.000    0.000    0.000 
#
# Total GULP energy -155985.247458 kJ/mol
# GULP energy per Si atom -5570.901695 kJ/mol
# Density = 1.935700 g / cm^3
# Si number density = 19.401154 Si / 1000 Ang^3
#
#
#
# Elastic Constant Matrix: (Units=GPa)
#
#
# Indices 1 2 3 4 5 6 
#
# 1 90.3890 39.4877 24.3148 0.0000 -6.8131 0.0000
# 2 39.4877 69.8140 22.9802 0.0000 -4.8220 0.0000
# 3 24.3148 22.9802 60.0830 0.0000 -4.6559 0.0000
# 4 0.0000 0.0000 0.0000 21.5979 0.0000 -1.0247
# 5 -6.8131 -4.8220 -4.6559 0.0000 31.8073 0.0000
# 6 0.0000 0.0000 0.0000 -1.0247 0.0000 22.2320
#
#
#
# Elastic Compliance Matrix: (Units=1/GPa)
#
#
# Indices 1 2 3 4 5 6 
#
# 1 0.015328 -0.007499 -0.003205 0.000000 0.001677 0.000000
# 2 -0.007499 0.020135 -0.004607 0.000000 0.000772 0.000000
# 3 -0.003205 -0.004607 0.019820 0.000000 0.001516 0.000000
# 4 0.000000 0.000000 0.000000 0.046402 0.000000 0.002139
# 5 0.001677 0.000772 0.001516 0.000000 0.032138 0.000000
# 6 0.000000 0.000000 0.000000 0.002139 0.000000 0.045079
#
#
# Mechanical properties :
#
#
# Convention : Reuss Voigt Hill
#
# Bulk Modulus (GPa) = 40.54803 43.76126 42.15465
# Shear Modulus (GPa) = 22.96290 24.02766 23.49528
#
# Velocity S-wave (km/s) = 3.44406 3.52300 3.48375
# Velocity P-wave (km/s) = 6.06305 6.25729 6.16094
#
# Compressibility (1/GPa) = 0.02466211
#
# Stress axis : x y z
#
# Youngs Moduli (GPa) = 65.24093 49.66517 50.45400
#
# Poissons Ratio (x) = 0.37243 0.16170
# Poissons Ratio (y) = 0.48923 0.23242
# Poissons Ratio (z) = 0.20909 0.22879
#
# Static dielectric constant tensor:
#      x y z
#    x 1.712880 0.000000 0.015170 
#    y 0.000000 1.647060 0.000000 
#    z 0.015170 0.000000 1.708740 
# 
# From -- ./inp_files/92080.got.cif
#   From: 2010.05.17/outbox.cif.g08.bks.cpg/sg10_47_cif.got.tgz:92080.got - 2010.06.03 11:33:40.
