data_PCOD9144110
_publ_section_title
;
Structure prediction by ZEFSAII (Michael W. Deem and Ramdas Pophale) SiO2 
 PCOD9144110
Probable space group: P 2/M
;
_chemical_formula_sum "Si O2"
_cell_formula_units_Z 28
_cell_length_a 10.492581
_cell_length_b 8.776242
_cell_length_c 30.881057
_cell_angle_alpha 90.000000
_cell_angle_beta 146.208701
_cell_angle_gamma 90.000000
_cell_volume 1581.576415
_symmetry_space_group_name_H-M "P 2/M"
_symmetry_group_IT_number 10
_symmetry_cell_setting 'monoclinic'
loop_
_space_group_symop_operation_xyz
x,y,z
-x,y,-z
-x,-y,-z
x,-y,z
loop_
_atom_site_type_symbol
_atom_site_label
_atom_site_fract_x
_atom_site_fract_y
_atom_site_fract_z
Si Si1 0.640449 0.315878 0.764083
Si Si2 0.909752 0.182284 0.255944
Si Si3 0.358228 0.316649 0.337661
Si Si4 0.148943 0.315097 0.921130
Si Si5 0.868299 0.316182 0.507016
Si Si6 0.174708 0.817490 0.669321
Si Si7 0.594569 0.315838 0.095315
O O1 0.623713 0.500000 0.762576
O O2 0.636980 0.277744 0.711966
O O3 0.424321 0.243175 0.726416
O O4 0.887439 0.265492 0.852184
O O5 0.886330 0.231588 0.299166
O O6 0.701547 0.245093 0.168189
O O7 0.143846 0.242787 0.300931
O O8 0.908357 0.000000 0.254066
O O9 0.334640 0.500000 0.333516
O O10 0.602225 0.273352 0.427183
O O11 0.147851 0.500000 0.921279
O O12 0.247194 0.273272 0.901453
O O13 0.337087 0.267508 0.009604
O O14 0.881994 0.500000 0.513846
O O15 0.000000 0.271894 0.500000
O O16 0.994114 0.245643 0.583567
O O17 0.173920 0.000000 0.667481
O O18 0.599877 0.500000 0.100108
#
# Coordination Sequence:
#
# PCOD9144110 Si02
#       7
#     4   4   4   4   4   4   4
#     4  10  18  35  60  86 111 140 183 234 279 324
#     4  11  24  39  53  78 118 155 187 223 269 328
#     4  10  20  36  62  87 108 139 183 232 280 327
#     4   8  15  29  56  88 111 135 177 234 282 321
#     4  10  20  38  61  86 111 137 180 235 281 324
#     4  11  25  40  54  78 115 156 188 220 272 332
#     4   9  16  32  57  83 111 143 181 228 278 326
#
# _framework density 17.703855000000001
#
# number of rings (size 3 to 8) (size 9 to 14) (size 15 to 20)
#    0.000    2.143    2.857    1.714    0.000    4.286 
#    0.000    5.714    0.000    4.286    0.000    0.000 
#    0.000    0.000    0.000    0.000    0.000    0.000 
#
# Total GULP energy -156260.991964 kJ/mol
# GULP energy per Si atom -5580.749713 kJ/mol
# Density = 1.766356 g / cm^3
# Si number density = 17.703855 Si / 1000 Ang^3
#
#
#
# Elastic Constant Matrix: (Units=GPa)
#
#
# Indices 1 2 3 4 5 6 
#
# 1 109.5929 32.1800 71.4538 0.0000 -7.6793 0.0000
# 2 32.1800 17.3900 35.3304 0.0000 -2.2071 0.0000
# 3 71.4538 35.3304 161.1796 0.0000 -0.5406 0.0000
# 4 0.0000 0.0000 0.0000 1.6354 0.0000 -10.6248
# 5 -7.6793 -2.2071 -0.5406 0.0000 29.9284 0.0000
# 6 0.0000 0.0000 0.0000 -10.6248 0.0000 24.2817
#
#
#
# Elastic Compliance Matrix: (Units=1/GPa)
#
#
# Indices 1 2 3 4 5 6 
#
# 1 0.020356 -0.034280 -0.001501 0.000000 0.002668 0.000000
# 2 -0.034280 0.162994 -0.020521 0.000000 0.002854 0.000000
# 3 -0.001501 -0.020521 0.011362 0.000000 -0.001693 0.000000
# 4 0.000000 0.000000 0.000000 -0.331823 0.000000 -0.145194
# 5 0.002668 0.002854 -0.001693 0.000000 0.034277 0.000000
# 6 0.000000 0.000000 0.000000 -0.145194 0.000000 -0.022348
#
#
# Mechanical properties :
#
#
# Convention : Reuss Voigt Hill
#
# Bulk Modulus (GPa) = 12.17929 62.89900 37.53914
# Shear Modulus (GPa) = 337.99032 21.11566 179.55299
#
# Velocity S-wave (km/s) = 13.83213 3.45732 10.08169
# Velocity P-wave (km/s) = 16.18636 7.17934 12.52081
#
# Compressibility (1/GPa) = 0.08210661
#
# Stress axis : x y z
#
# Youngs Moduli (GPa) = 49.12524 6.13519 88.01043
#
# Poissons Ratio (x) = 0.21032 0.13211
# Poissons Ratio (y) = 1.68404 1.80610
# Poissons Ratio (z) = 0.07374 0.12590
#
# Static dielectric constant tensor:
#      x y z
#    x 1.575900 0.000000 0.006730 
#    y 0.000000 1.594940 0.000000 
#    z 0.006730 0.000000 1.609190 
# 
# From -- ./inp_files/37267.got.cif
#   From: 2010.05.17/outbox.cif.g08.bks.cpg/sg10_19_cif.got.tgz:37267.got - 2010.06.03 11:33:40.
