data_PCOD9144455
_publ_section_title
;
Structure prediction by ZEFSAII (Michael W. Deem and Ramdas Pophale) SiO2 
 PCOD9144455
Probable space group: P 2/M
;
_chemical_formula_sum "Si O2"
_cell_formula_units_Z 22
_cell_length_a 15.747519
_cell_length_b 16.539477
_cell_length_c 13.992925
_cell_angle_alpha 90.000000
_cell_angle_beta 161.366686
_cell_angle_gamma 90.000000
_cell_volume 1164.467352
_symmetry_space_group_name_H-M "P 2/M"
_symmetry_group_IT_number 10
_symmetry_cell_setting 'monoclinic'
loop_
_space_group_symop_operation_xyz
x,y,z
-x,y,-z
-x,-y,-z
x,-y,z
loop_
_atom_site_type_symbol
_atom_site_label
_atom_site_fract_x
_atom_site_fract_y
_atom_site_fract_z
Si Si1 0.288166 0.000000 0.356228
Si Si2 0.525422 0.682107 0.642779
Si Si3 0.448225 0.904665 0.839328
Si Si4 0.147221 0.169037 0.259555
Si Si5 0.032334 0.591219 0.150107
Si Si6 0.866096 0.903720 0.129816
O O1 0.500000 0.000000 0.500000
O O2 0.302084 0.916700 0.426515
O O3 0.000000 0.000000 0.000000
O O4 0.500000 0.683771 0.500000
O O5 0.364262 0.761579 0.503555
O O6 0.340593 0.612330 0.490975
O O7 0.832324 0.656766 0.983048
O O8 0.142806 0.899541 0.483559
O O9 0.520008 0.000000 0.920603
O O10 0.500000 0.870243 0.000000
O O11 0.638719 0.873635 0.958753
O O12 0.920121 0.152438 0.095671
O O13 0.000000 0.180582 0.000000
O O14 0.965861 0.500000 0.108642
O O15 0.000000 0.595289 0.000000
O O16 0.828993 0.000000 0.063151
#
# Coordination Sequence:
#
# PCOD9144455 Si02
#       6
#     2   4   4   4   4   4
#     4  10  22  34  46  58  81 128 171 204 230 250
#     4  10  19  30  45  64  88 121 158 199 241 278
#     4   9  18  33  52  70  88 109 149 208 258 295
#     4  11  22  36  47  67  98 135 171 205 232 273
#     4   9  17  30  47  65  83 108 152 206 249 284
#     4  10  20  33  49  70  90 122 162 199 243 286
#
# _framework density 18.892757
#
# number of rings (size 3 to 8) (size 9 to 14) (size 15 to 20)
#    0.000    2.182    0.909    3.273    0.000   11.636 
#    0.000    0.000    0.000    0.000    0.000    0.000 
#    0.000    0.000    0.000    0.000    0.000   63.636 
#
# Total GULP energy -122784.388678 kJ/mol
# GULP energy per Si atom -5581.108576 kJ/mol
# Density = 1.884976 g / cm^3
# Si number density = 18.892757 Si / 1000 Ang^3
#
#
#
# Elastic Constant Matrix: (Units=GPa)
#
#
# Indices 1 2 3 4 5 6 
#
# 1 97.1572 17.5940 40.1323 0.0000 7.9125 0.0000
# 2 17.5940 90.9535 22.3956 0.0000 12.4986 0.0000
# 3 40.1323 22.3956 88.1169 0.0000 28.1540 0.0000
# 4 0.0000 0.0000 0.0000 21.8788 0.0000 11.5285
# 5 7.9125 12.4986 28.1540 0.0000 31.2312 0.0000
# 6 0.0000 0.0000 0.0000 11.5285 0.0000 10.0323
#
#
#
# Elastic Compliance Matrix: (Units=1/GPa)
#
#
# Indices 1 2 3 4 5 6 
#
# 1 0.013001 -0.001327 -0.006603 0.000000 0.003190 0.000000
# 2 -0.001327 0.012043 -0.001438 0.000000 -0.003187 0.000000
# 3 -0.006603 -0.001438 0.019668 0.000000 -0.015482 0.000000
# 4 0.000000 0.000000 0.000000 0.115862 0.000000 -0.133141
# 5 0.003190 -0.003187 -0.015482 0.000000 0.046443 0.000000
# 6 0.000000 0.000000 0.000000 -0.133141 0.000000 0.252675
#
#
# Mechanical properties :
#
#
# Convention : Reuss Voigt Hill
#
# Bulk Modulus (GPa) = 38.49827 48.49682 43.49755
# Shear Modulus (GPa) = 10.26513 25.70218 17.98366
#
# Velocity S-wave (km/s) = 2.33349 3.69240 3.08860
# Velocity P-wave (km/s) = 5.26134 6.62598 5.98270
#
# Compressibility (1/GPa) = 0.02597519
#
# Stress axis : x y z
#
# Youngs Moduli (GPa) = 76.91954 83.03269 50.84467
#
# Poissons Ratio (x) = 0.11021 0.33572
# Poissons Ratio (y) = 0.10210 0.07312
# Poissons Ratio (z) = 0.50789 0.11941
#
# Static dielectric constant tensor:
#      x y z
#    x 1.676340 0.000000 0.002030 
#    y 0.000000 1.773640 0.000000 
#    z 0.002030 0.000000 1.712620 
# 
# From -- ./inp_files/67767.got.cif
#   From: 2010.05.17/outbox.cif.g08.bks.cpg/sg10_34_cif.got.tgz:67767.got - 2010.06.03 11:33:40.
