data_PCOD9144332
_publ_section_title
;
Structure prediction by ZEFSAII (Michael W. Deem and Ramdas Pophale) SiO2 
 PCOD9144332
Probable space group: P 2/M
;
_chemical_formula_sum "Si O2"
_cell_formula_units_Z 28
_cell_length_a 22.859671
_cell_length_b 10.788039
_cell_length_c 18.717546
_cell_angle_alpha 90.000000
_cell_angle_beta 161.300318
_cell_angle_gamma 90.000000
_cell_volume 1479.910278
_symmetry_space_group_name_H-M "P 2/M"
_symmetry_group_IT_number 10
_symmetry_cell_setting 'monoclinic'
loop_
_space_group_symop_operation_xyz
x,y,z
-x,y,-z
-x,-y,-z
x,-y,z
loop_
_atom_site_type_symbol
_atom_site_label
_atom_site_fract_x
_atom_site_fract_y
_atom_site_fract_z
Si Si1 0.518310 0.211392 0.361410
Si Si2 0.484164 0.850409 0.900648
Si Si3 0.231678 0.149803 0.478543
Si Si4 0.805615 0.859829 0.815654
Si Si5 0.871111 0.151337 0.286221
Si Si6 0.328542 0.366421 0.248964
Si Si7 0.880639 0.857756 0.139391
O O1 0.652520 0.215531 0.449261
O O2 0.641054 0.154095 0.567422
O O3 0.424134 0.334678 0.284265
O O4 0.333167 0.140769 0.125516
O O5 0.317565 0.821484 0.655659
O O6 0.481378 0.000000 0.903059
O O7 0.500000 0.802646 0.000000
O O8 0.666131 0.815259 0.069298
O O9 0.021441 0.190391 0.242976
O O10 0.249593 0.000000 0.484609
O O11 0.778007 0.750972 0.841167
O O12 0.798491 0.000000 0.838117
O O13 0.000000 0.847130 0.000000
O O14 0.911065 0.198865 0.253104
O O15 0.000000 0.191878 0.500000
O O16 0.881380 0.000000 0.296231
O O17 0.500000 0.376553 0.500000
O O18 0.231927 0.500000 0.136071
O O19 0.940445 0.000000 0.215255
#
# Coordination Sequence:
#
# PCOD9144332 Si02
#       7
#     4   4   4   4   4   4   4
#     4  11  21  35  55  75 109 138 181 230 279 323
#     4   9  15  24  37  57  92 138 183 221 260 320
#     4  10  19  29  44  71 104 141 181 222 275 329
#     4  10  22  37  58  89 117 146 186 229 278 335
#     4   9  15  24  37  57  91 139 185 218 259 322
#     4   9  21  41  61  80 108 146 186 226 277 337
#     4  10  19  29  45  70 104 144 180 221 277 329
#
# _framework density 18.920065000000001
#
# number of rings (size 3 to 8) (size 9 to 14) (size 15 to 20)
#    0.000    2.286    1.429    2.143    2.000    7.429 
#    0.000    0.000    0.000    0.000    0.000    0.000 
#    0.000    1.143    0.000    0.000    0.000    0.000 
#
# Total GULP energy -155868.504009 kJ/mol
# GULP energy per Si atom -5566.732286 kJ/mol
# Density = 1.887700 g / cm^3
# Si number density = 18.920065 Si / 1000 Ang^3
#
#
#
# Elastic Constant Matrix: (Units=GPa)
#
#
# Indices 1 2 3 4 5 6 
#
# 1 138.5426 43.0328 49.9549 0.0000 16.0538 0.0000
# 2 43.0328 71.6414 15.9429 0.0000 7.3954 0.0000
# 3 49.9549 15.9429 109.8095 0.0000 7.9544 0.0000
# 4 0.0000 0.0000 0.0000 5.2764 0.0000 -1.4208
# 5 16.0538 7.3954 7.9544 0.0000 32.9886 0.0000
# 6 0.0000 0.0000 0.0000 -1.4208 0.0000 2.0365
#
#
#
# Elastic Compliance Matrix: (Units=1/GPa)
#
#
# Indices 1 2 3 4 5 6 
#
# 1 0.010561 -0.005176 -0.003832 0.000000 -0.003055 0.000000
# 2 -0.005176 0.017215 -0.000049 0.000000 -0.001329 0.000000
# 3 -0.003832 -0.000049 0.010912 0.000000 -0.000755 0.000000
# 4 0.000000 0.000000 0.000000 0.233362 0.000000 0.162805
# 5 -0.003055 -0.001329 -0.000755 0.000000 0.032280 0.000000
# 6 0.000000 0.000000 0.000000 0.162805 0.000000 0.604610
#
#
# Mechanical properties :
#
#
# Convention : Reuss Voigt Hill
#
# Bulk Modulus (GPa) = 48.60045 59.76163 54.18104
# Shear Modulus (GPa) = 5.35383 22.13116 13.74249
#
# Velocity S-wave (km/s) = 1.68400 3.42383 2.69800
# Velocity P-wave (km/s) = 5.43361 6.87641 6.19715
#
# Compressibility (1/GPa) = 0.02057594
#
# Stress axis : x y z
#
# Youngs Moduli (GPa) = 94.68485 58.08780 91.64516
#
# Poissons Ratio (x) = 0.30065 0.35117
# Poissons Ratio (y) = 0.49007 0.00445
# Poissons Ratio (z) = 0.36282 0.00282
#
# Static dielectric constant tensor:
#      x y z
#    x 1.718540 0.000000 -0.019460 
#    y 0.000000 1.670040 0.000000 
#    z -0.019460 0.000000 1.700670 
# 
# From -- ./inp_files/79574.got.cif
#   From: 2010.05.17/outbox.cif.g08.bks.cpg/sg10_40_cif.got.tgz:79574.got - 2010.06.03 11:33:40.
