data_PCOD9144370
_publ_section_title
;
Structure prediction by ZEFSAII (Michael W. Deem and Ramdas Pophale) SiO2 
 PCOD9144370
Probable space group: P 2/M
;
_chemical_formula_sum "Si O2"
_cell_formula_units_Z 24
_cell_length_a 10.392043
_cell_length_b 10.633573
_cell_length_c 11.648127
_cell_angle_alpha 90.000000
_cell_angle_beta 90.345294
_cell_angle_gamma 90.000000
_cell_volume 1287.147633
_symmetry_space_group_name_H-M "P 2/M"
_symmetry_group_IT_number 10
_symmetry_cell_setting 'monoclinic'
loop_
_space_group_symop_operation_xyz
x,y,z
-x,y,-z
-x,-y,-z
x,-y,z
loop_
_atom_site_type_symbol
_atom_site_label
_atom_site_fract_x
_atom_site_fract_y
_atom_site_fract_z
Si Si1 0.437538 0.644905 0.309486
Si Si2 0.366838 0.347654 0.053890
Si Si3 0.794333 0.285148 0.529269
Si Si4 0.973142 0.643753 0.329570
Si Si5 0.604566 0.864230 0.398767
Si Si6 0.881964 0.652791 0.081366
O O1 0.483215 0.500000 0.303833
O O2 0.367450 0.678501 0.189474
O O3 0.331173 0.655865 0.409972
O O4 0.553823 0.743131 0.328514
O O5 0.364432 0.500000 0.045650
O O6 0.500000 0.303555 0.000000
O O7 0.247619 0.300080 0.978984
O O8 0.865676 0.360009 0.428218
O O9 0.738477 0.164307 0.463198
O O10 0.906570 0.275017 0.624510
O O11 0.021891 0.500000 0.312127
O O12 0.911565 0.691517 0.211465
O O13 0.500000 0.872348 0.500000
O O14 0.606359 0.000000 0.338647
O O15 0.874373 0.500000 0.084871
O O16 0.000000 0.686086 0.000000
#
# Coordination Sequence:
#
# PCOD9144370 Si02
#       6
#     4   4   4   4   4   4
#     4  10  19  31  53  79 105 136 174 218 261 310
#     4   9  18  30  45  72 105 136 170 213 261 307
#     4  10  19  31  48  74 103 136 173 211 260 313
#     4  10  19  29  46  74 110 138 165 214 265 308
#     4   9  20  36  52  73 104 141 175 210 260 318
#     4   9  17  29  45  65  99 145 178 203 252 318
#
# _framework density 18.645880999999999
#
# number of rings (size 3 to 8) (size 9 to 14) (size 15 to 20)
#    0.000    2.500    0.000    3.000    2.333    7.000 
#    0.000    1.667    0.000    0.500    0.000    0.000 
#    0.000    7.333    0.000    0.000    0.000    0.000 
#
# Total GULP energy -133639.976632 kJ/mol
# GULP energy per Si atom -5568.332360 kJ/mol
# Density = 1.860344 g / cm^3
# Si number density = 18.645881 Si / 1000 Ang^3
#
#
#
# Elastic Constant Matrix: (Units=GPa)
#
#
# Indices 1 2 3 4 5 6 
#
# 1 112.4806 34.1795 49.8855 0.0000 30.2766 0.0000
# 2 34.1795 66.8264 23.6556 0.0000 19.9673 0.0000
# 3 49.8855 23.6556 117.8679 0.0000 26.3804 0.0000
# 4 0.0000 0.0000 0.0000 16.1076 0.0000 15.3689
# 5 30.2766 19.9673 26.3804 0.0000 33.5435 0.0000
# 6 0.0000 0.0000 0.0000 15.3689 0.0000 9.5182
#
#
#
# Elastic Compliance Matrix: (Units=1/GPa)
#
#
# Indices 1 2 3 4 5 6 
#
# 1 0.013417 -0.003465 -0.003318 0.000000 -0.007438 0.000000
# 2 -0.003465 0.019315 -0.000651 0.000000 -0.007858 0.000000
# 3 -0.003318 -0.000651 0.011241 0.000000 -0.005457 0.000000
# 4 0.000000 0.000000 0.000000 -0.114834 0.000000 0.185420
# 5 -0.007438 -0.007858 -0.005457 0.000000 0.045495 0.000000
# 6 0.000000 0.000000 0.000000 0.185420 0.000000 -0.194333
#
#
# Mechanical properties :
#
#
# Convention : Reuss Voigt Hill
#
# Bulk Modulus (GPa) = 34.36090 56.95736 45.65913
# Shear Modulus (GPa) = -25.62418 24.46414 -0.58002
#
# Velocity S-wave (km/s) = -3.71111 3.62614 -0.55834
# Velocity P-wave (km/s) = 0.32402 6.93866 4.91172
#
# Compressibility (1/GPa) = 0.02910284
#
# Stress axis : x y z
#
# Youngs Moduli (GPa) = 74.53093 51.77363 88.96273
#
# Poissons Ratio (x) = 0.17942 0.29522
# Poissons Ratio (y) = 0.25828 0.05793
# Poissons Ratio (z) = 0.24732 0.03371
#
# Static dielectric constant tensor:
#      x y z
#    x 1.668900 0.000000 0.014660 
#    y 0.000000 1.649640 0.000000 
#    z 0.014660 0.000000 1.669750 
# 
# From -- ./inp_files/42003.got.cif
#   From: 2010.05.17/outbox.cif.g08.bks.cpg/sg10_22_cif.got.tgz:42003.got - 2010.06.03 11:33:40.
