data_PCOD9144909
_publ_section_title
;
Structure prediction by ZEFSAII (Michael W. Deem and Ramdas Pophale) SiO2 
 PCOD9144909
Probable space group: P 2/M
;
_chemical_formula_sum "Si O2"
_cell_formula_units_Z 32
_cell_length_a 32.519494
_cell_length_b 7.488822
_cell_length_c 12.600245
_cell_angle_alpha 90.000000
_cell_angle_beta 29.554955
_cell_angle_gamma 90.000000
_cell_volume 1513.597949
_symmetry_space_group_name_H-M "P 2/M"
_symmetry_group_IT_number 10
_symmetry_cell_setting 'monoclinic'
loop_
_space_group_symop_operation_xyz
x,y,z
-x,y,-z
-x,-y,-z
x,-y,z
loop_
_atom_site_type_symbol
_atom_site_label
_atom_site_fract_x
_atom_site_fract_y
_atom_site_fract_z
Si Si1 0.627707 0.284809 0.959486
Si Si2 0.921372 0.782051 0.314545
Si Si3 0.252743 0.212610 0.688588
Si Si4 0.890494 0.217803 0.146009
Si Si5 0.777512 0.787750 0.785263
Si Si6 0.278353 0.209207 0.861722
Si Si7 0.471379 0.283976 0.446779
Si Si8 0.404907 0.284853 0.201021
O O1 0.625952 0.500000 0.961085
O O2 0.540463 0.224508 0.207283
O O3 0.702556 0.235399 0.869624
O O4 0.633130 0.221293 0.826010
O O5 0.885398 0.726647 0.280425
O O6 0.861610 0.717669 0.542135
O O7 0.920589 0.000000 0.317201
O O8 0.018053 0.728822 0.101205
O O9 0.184086 0.282947 0.760357
O O10 0.246716 0.286430 0.821260
O O11 0.344024 0.238581 0.433775
O O12 0.239466 0.000000 0.725150
O O13 0.888756 0.000000 0.150670
O O14 0.788198 0.000000 0.773718
O O15 0.753454 0.713804 0.954914
O O16 0.378361 0.221087 0.635063
O O17 0.255947 0.000000 0.912326
O O18 0.500000 0.227997 0.500000
O O19 0.469744 0.500000 0.448748
O O20 0.408379 0.500000 0.189297
O O21 0.500000 0.221238 0.000000
#
# Coordination Sequence:
#
# PCOD9144909 Si02
#       8
#     4   4   4   4   4   4   4   4
#     4  10  20  33  50  73  97 122 160 206 247 289
#     4   8  14  26  47  73  96 121 157 201 245 289
#     4  10  20  34  51  72 100 133 168 201 239 289
#     4   8  14  27  48  72  96 123 159 201 242 286
#     4  10  19  31  48  72 100 128 160 198 244 291
#     4  10  21  33  46  70 103 133 162 203 246 284
#     4  10  19  33  52  70  91 127 171 203 235 288
#     4  10  21  36  52  71  98 129 161 202 248 289
#
# _framework density 21.141679
#
# number of rings (size 3 to 8) (size 9 to 14) (size 15 to 20)
#    0.000    2.500    1.250    2.250    0.000    4.000 
#    0.000    0.625    0.000    4.500    0.000    3.500 
#    0.000    3.000    0.000    0.000    0.000    0.000 
#
# Total GULP energy -178707.013467 kJ/mol
# GULP energy per Si atom -5584.594171 kJ/mol
# Density = 2.109356 g / cm^3
# Si number density = 21.141679 Si / 1000 Ang^3
#
#
#
# Elastic Constant Matrix: (Units=GPa)
#
#
# Indices 1 2 3 4 5 6 
#
# 1 129.6056 2.6041 58.2713 0.0000 7.2649 0.0000
# 2 2.6041 58.6377 -2.2587 0.0000 3.3208 0.0000
# 3 58.2713 -2.2587 128.6554 0.0000 15.5769 0.0000
# 4 0.0000 0.0000 0.0000 17.6282 0.0000 -10.3922
# 5 7.2649 3.3208 15.5769 0.0000 34.5954 0.0000
# 6 0.0000 0.0000 0.0000 -10.3922 0.0000 12.2612
#
#
#
# Elastic Compliance Matrix: (Units=1/GPa)
#
#
# Indices 1 2 3 4 5 6 
#
# 1 0.009710 -0.000601 -0.004409 0.000000 0.000004 0.000000
# 2 -0.000601 0.017218 0.000803 0.000000 -0.001888 0.000000
# 3 -0.004409 0.000803 0.010239 0.000000 -0.003762 0.000000
# 4 0.000000 0.000000 0.000000 0.113377 0.000000 0.096095
# 5 0.000004 -0.001888 -0.003762 0.000000 0.030780 0.000000
# 6 0.000000 0.000000 0.000000 0.096095 0.000000 0.163005
#
#
# Mechanical properties :
#
#
# Convention : Reuss Voigt Hill
#
# Bulk Modulus (GPa) = 34.77819 48.23688 41.50753
# Shear Modulus (GPa) = 13.79965 30.11574 21.95770
#
# Velocity S-wave (km/s) = 2.55761 3.77831 3.22622
# Velocity P-wave (km/s) = 5.02072 6.47300 5.79255
#
# Compressibility (1/GPa) = 0.02875366
#
# Stress axis : x y z
#
# Youngs Moduli (GPa) = 102.98845 58.07722 97.66474
#
# Poissons Ratio (x) = 0.03492 0.43059
# Poissons Ratio (y) = 0.06192 -0.07845
# Poissons Ratio (z) = 0.45406 -0.04665
#
# Static dielectric constant tensor:
#      x y z
#    x 1.757180 0.000000 0.023890 
#    y 0.000000 1.818080 0.000000 
#    z 0.023890 0.000000 1.736760 
# 
# From -- ./inp_files/58089.got.cif
#   From: 2010.05.17/outbox.cif.g08.bks.cpg/sg10_30_cif.got.tgz:58089.got - 2010.06.03 11:33:40.
