data_PCOD9144995
_publ_section_title
;
Structure prediction by ZEFSAII (Michael W. Deem and Ramdas Pophale) SiO2 
 PCOD9144995
Probable space group: P 2/M
;
_chemical_formula_sum "Si O2"
_cell_formula_units_Z 20
_cell_length_a 23.385343
_cell_length_b 8.601143
_cell_length_c 9.338618
_cell_angle_alpha 90.000000
_cell_angle_beta 144.052636
_cell_angle_gamma 90.000000
_cell_volume 1102.685178
_symmetry_space_group_name_H-M "P 2/M"
_symmetry_group_IT_number 10
_symmetry_cell_setting 'monoclinic'
loop_
_space_group_symop_operation_xyz
x,y,z
-x,y,-z
-x,-y,-z
x,-y,z
loop_
_atom_site_type_symbol
_atom_site_label
_atom_site_fract_x
_atom_site_fract_y
_atom_site_fract_z
Si Si1 0.682722 0.313023 0.205691
Si Si2 0.498123 0.187915 0.660751
Si Si3 0.690745 0.814301 0.543949
Si Si4 0.894129 0.315212 0.616264
Si Si5 0.104554 0.684362 0.034427
O O1 0.683982 0.500000 0.206590
O O2 0.676542 0.258560 0.357842
O O3 0.787649 0.255603 0.356552
O O4 0.591244 0.251196 0.933479
O O5 0.500000 0.238706 0.500000
O O6 0.398105 0.236075 0.535448
O O7 0.501836 0.000000 0.671901
O O8 0.796915 0.764802 0.816962
O O9 0.688278 0.000000 0.524495
O O10 0.896321 0.500000 0.590836
O O11 0.894814 0.299570 0.790784
O O12 0.998124 0.253593 0.771442
O O13 0.110464 0.500000 0.015931
#
# Coordination Sequence:
#
# PCOD9144995 Si02
#       5
#     4   4   4   4   4
#     4  10  19  32  52  76  99 123 157 198 237 281
#     4  10  22  38  51  65  93 131 164 198 242 285
#     4  10  19  31  49  73  99 126 159 197 237 281
#     4   7  12  24  43  68  97 125 149 184 234 279
#     4   8  13  25  45  68  96 126 154 187 232 279
#
# _framework density 18.137543000000001
#
# number of rings (size 3 to 8) (size 9 to 14) (size 15 to 20)
#    0.000    3.000    0.000    4.200    0.000    4.400 
#    0.000    9.000    0.000    1.200    0.000    8.400 
#    0.000    0.000    0.000    0.000    0.000    0.000 
#
# Total GULP energy -111351.227909 kJ/mol
# GULP energy per Si atom -5567.561395 kJ/mol
# Density = 1.809626 g / cm^3
# Si number density = 18.137543 Si / 1000 Ang^3
#
#
#
# Elastic Constant Matrix: (Units=GPa)
#
#
# Indices 1 2 3 4 5 6 
#
# 1 95.4125 21.3300 109.3995 0.0000 35.6645 0.0000
# 2 21.3300 12.3853 24.1771 0.0000 9.5903 0.0000
# 3 109.3995 24.1771 117.4399 0.0000 56.5261 0.0000
# 4 0.0000 0.0000 0.0000 -44.5151 0.0000 26.4619
# 5 35.6645 9.5903 56.5261 0.0000 34.4411 0.0000
# 6 0.0000 0.0000 0.0000 26.4619 0.0000 4.9222
#
#
#
# Elastic Compliance Matrix: (Units=1/GPa)
#
#
# Indices 1 2 3 4 5 6 
#
# 1 -0.019350 -0.016998 0.045717 0.000000 -0.050261 0.000000
# 2 -0.016998 0.131501 -0.009926 0.000000 -0.002724 0.000000
# 3 0.045717 -0.009926 -0.050337 0.000000 0.038039 0.000000
# 4 0.000000 0.000000 0.000000 -0.005354 0.000000 0.028783
# 5 -0.050261 -0.002724 0.038039 0.000000 0.019409 0.000000
# 6 0.000000 0.000000 0.000000 0.028783 0.000000 0.048421
#
#
# Mechanical properties :
#
#
# Convention : Reuss Voigt Hill
#
# Bulk Modulus (GPa) = 10.06057 59.45010 34.75533
# Shear Modulus (GPa) = 41.72324 3.65837 22.69081
#
# Velocity S-wave (km/s) = 4.80143 1.42176 3.54084
# Velocity P-wave (km/s) = 6.02471 5.96186 5.99337
#
# Compressibility (1/GPa) = 0.09939795
#
# Stress axis : x y z
#
# Youngs Moduli (GPa) = -51.67830 7.60450 -19.86603
#
# Poissons Ratio (x) = 0.12926 0.90821
# Poissons Ratio (y) = -0.87845 -0.19719
# Poissons Ratio (z) = 2.36256 0.07548
#
# Static dielectric constant tensor:
#      x y z
#    x 1.627180 0.000000 0.050790 
#    y 0.000000 1.614510 0.000000 
#    z 0.050790 0.000000 1.643740 
# 
# From -- ./inp_files/26851.got.cif
#   From: 2010.05.17/outbox.cif.g08.bks.cpg/sg10_14_cif.got.tgz:26851.got - 2010.06.03 11:33:40.
