data_PCOD9144646
_publ_section_title
;
Structure prediction by ZEFSAII (Michael W. Deem and Ramdas Pophale) SiO2 
 PCOD9144646
Probable space group: P 2/M
;
_chemical_formula_sum "Si O2"
_cell_formula_units_Z 28
_cell_length_a 11.913949
_cell_length_b 8.379604
_cell_length_c 14.496649
_cell_angle_alpha 90.000000
_cell_angle_beta 112.400837
_cell_angle_gamma 90.000000
_cell_volume 1338.051350
_symmetry_space_group_name_H-M "P 2/M"
_symmetry_group_IT_number 10
_symmetry_cell_setting 'monoclinic'
loop_
_space_group_symop_operation_xyz
x,y,z
-x,y,-z
-x,-y,-z
x,-y,z
loop_
_atom_site_type_symbol
_atom_site_label
_atom_site_fract_x
_atom_site_fract_y
_atom_site_fract_z
Si Si1 0.533881 0.680982 0.717482
Si Si2 0.190575 0.687147 0.027478
Si Si3 0.772593 0.686792 0.684470
Si Si4 0.371514 0.000000 0.851517
Si Si5 0.352562 0.000000 0.064385
Si Si6 0.624691 0.181439 0.480024
Si Si7 0.423202 0.326090 0.879796
Si Si8 0.023642 0.190305 0.140566
O O1 0.529809 0.500000 0.678688
O O2 0.663221 0.744101 0.719727
O O3 0.421294 0.770069 0.635071
O O4 0.512774 0.668078 0.819757
O O5 0.230018 0.500000 0.039940
O O6 0.104599 0.719630 0.088565
O O7 0.281547 0.837397 0.062678
O O8 0.107012 0.727392 0.912115
O O9 0.793397 0.500000 0.708335
O O10 0.720443 0.713593 0.565826
O O11 0.895957 0.780947 0.743852
O O12 0.509951 0.000000 0.854609
O O13 0.332389 0.182195 0.824587
O O14 0.369644 0.000000 0.960934
O O15 0.500000 0.191028 0.500000
O O16 0.667679 0.000000 0.494253
O O17 0.365360 0.500000 0.871205
O O18 0.500000 0.301630 0.000000
O O19 0.012433 0.000000 0.118503
#
# Coordination Sequence:
#
# PCOD9144646 Si02
#       8
#     4   4   4   2   2   4   4   4
#     4   9  19  31  47  70 101 143 182 216 266 323
#     4  11  22  37  55  75 108 145 183 225 272 322
#     4  10  19  30  48  73 104 141 179 219 263 312
#     4  11  24  38  54  76 107 134 183 230 272 318
#     4  11  22  39  52  78  98 142 185 220 278 324
#     4   9  17  30  44  68  98 135 178 220 261 314
#     4  10  20  35  52  74 105 141 180 223 266 317
#     4  11  20  35  52  77 109 139 184 227 262 319
#
# _framework density 20.925954000000001
#
# number of rings (size 3 to 8) (size 9 to 14) (size 15 to 20)
#    0.000    1.857    2.857    3.000    3.000    3.429 
#    0.000    0.000    0.000    0.000    0.000    0.000 
#    0.000    2.286    0.000    6.000    0.000    0.571 
#
# Total GULP energy -155939.462908 kJ/mol
# GULP energy per Si atom -5569.266532 kJ/mol
# Density = 2.087833 g / cm^3
# Si number density = 20.925954 Si / 1000 Ang^3
#
#
#
# Elastic Constant Matrix: (Units=GPa)
#
#
# Indices 1 2 3 4 5 6 
#
# 1 24.1232 16.5216 15.5931 0.0000 -1.3227 0.0000
# 2 16.5216 164.4411 17.6229 0.0000 8.9250 0.0000
# 3 15.5931 17.6229 100.9470 0.0000 7.3795 0.0000
# 4 0.0000 0.0000 0.0000 30.3709 0.0000 2.4140
# 5 -1.3227 8.9250 7.3795 0.0000 25.3204 0.0000
# 6 0.0000 0.0000 0.0000 2.4140 0.0000 10.8794
#
#
#
# Elastic Compliance Matrix: (Units=1/GPa)
#
#
# Indices 1 2 3 4 5 6 
#
# 1 0.049660 -0.004547 -0.007340 0.000000 0.006336 0.000000
# 2 -0.004547 0.006705 -0.000284 0.000000 -0.002518 0.000000
# 3 -0.007340 -0.000284 0.011352 0.000000 -0.003592 0.000000
# 4 0.000000 0.000000 0.000000 0.033517 0.000000 -0.007437
# 5 0.006336 -0.002518 -0.003592 0.000000 0.041759 0.000000
# 6 0.000000 0.000000 0.000000 -0.007437 0.000000 0.093567
#
#
# Mechanical properties :
#
#
# Convention : Reuss Voigt Hill
#
# Bulk Modulus (GPa) = 23.05474 43.22070 33.13772
# Shear Modulus (GPa) = 18.15796 29.29906 23.72851
#
# Velocity S-wave (km/s) = 2.94891 3.74589 3.37104
# Velocity P-wave (km/s) = 4.75773 6.27757 5.56973
#
# Compressibility (1/GPa) = 0.04337502
#
# Stress axis : x y z
#
# Youngs Moduli (GPa) = 20.13698 149.13948 88.08848
#
# Poissons Ratio (x) = 0.67808 0.64660
# Poissons Ratio (y) = 0.09156 0.02503
# Poissons Ratio (z) = 0.14781 0.04238
#
# Static dielectric constant tensor:
#      x y z
#    x 1.798010 0.000000 0.008170 
#    y 0.000000 1.845090 0.000000 
#    z 0.008170 0.000000 1.822490 
# 
# From -- ./inp_files/63532.got.cif
#   From: 2010.05.17/outbox.cif.g08.bks.cpg/sg10_32_cif.got.tgz:63532.got - 2010.06.03 11:33:40.
