data_PCOD9144389
_publ_section_title
;
Structure prediction by ZEFSAII (Michael W. Deem and Ramdas Pophale) SiO2 
 PCOD9144389
Probable space group: P 2/M
;
_chemical_formula_sum "Si O2"
_cell_formula_units_Z 26
_cell_length_a 5.732763
_cell_length_b 21.458435
_cell_length_c 12.496561
_cell_angle_alpha 90.000000
_cell_angle_beta 111.735493
_cell_angle_gamma 90.000000
_cell_volume 1427.983120
_symmetry_space_group_name_H-M "P 2/M"
_symmetry_group_IT_number 10
_symmetry_cell_setting 'monoclinic'
loop_
_space_group_symop_operation_xyz
x,y,z
-x,y,-z
-x,-y,-z
x,-y,z
loop_
_atom_site_type_symbol
_atom_site_label
_atom_site_fract_x
_atom_site_fract_y
_atom_site_fract_z
Si Si1 0.509961 0.237544 0.343367
Si Si2 0.000000 0.168872 0.500000
Si Si3 0.395193 0.378586 0.366515
Si Si4 0.090614 0.865861 0.286354
Si Si5 0.415735 0.190258 0.872346
Si Si6 0.751322 0.068220 0.884602
Si Si7 0.105675 0.574594 0.635456
O O1 0.766096 0.215101 0.441852
O O2 0.414774 0.304064 0.364636
O O3 0.315706 0.182778 0.333425
O O4 0.543917 0.235644 0.220796
O O5 0.993092 0.126440 0.605393
O O6 0.500000 0.401173 0.500000
O O7 0.603043 0.403336 0.316641
O O8 0.102722 0.399108 0.316739
O O9 0.172606 0.923037 0.226763
O O10 0.871007 0.831529 0.183057
O O11 0.575227 0.126536 0.882233
O O12 0.500000 0.216752 0.000000
O O13 0.634246 0.000000 0.882238
O O14 0.000000 0.071653 0.000000
O O15 0.100815 0.500000 0.641108
O O16 0.000000 0.594137 0.500000
#
# Coordination Sequence:
#
# PCOD9144389 Si02
#       7
#     4   2   4   4   4   4   4
#     4  10  22  32  53  78 105 140 179 224 263 327
#     4  10  20  34  53  74 105 138 184 208 272 324
#     4  10  19  29  49  72 106 143 189 222 267 324
#     4  10  20  35  53  75 107 136 171 219 269 322
#     4  10  20  35  54  77 106 136 168 217 281 323
#     4  10  20  34  54  79 103 132 176 220 264 326
#     4   9  18  30  45  69 105 147 184 225 268 315
#
# _framework density 18.207498999999999
#
# number of rings (size 3 to 8) (size 9 to 14) (size 15 to 20)
#    0.000    2.154    1.538    1.846    7.538    2.769 
#    0.000    0.385    0.000   12.000    0.000    0.000 
#    0.000    3.692    0.000    0.000    0.000    0.000 
#
# Total GULP energy -144865.520261 kJ/mol
# GULP energy per Si atom -5571.750779 kJ/mol
# Density = 1.816606 g / cm^3
# Si number density = 18.207499 Si / 1000 Ang^3
#
#
#
# Elastic Constant Matrix: (Units=GPa)
#
#
# Indices 1 2 3 4 5 6 
#
# 1 104.9731 32.1334 19.7459 0.0000 14.3260 0.0000
# 2 32.1334 52.4145 4.5889 0.0000 3.5393 0.0000
# 3 19.7459 4.5889 86.4609 0.0000 -2.8820 0.0000
# 4 0.0000 0.0000 0.0000 20.3430 0.0000 0.2491
# 5 14.3260 3.5393 -2.8820 0.0000 29.8009 0.0000
# 6 0.0000 0.0000 0.0000 0.2491 0.0000 21.5307
#
#
#
# Elastic Compliance Matrix: (Units=1/GPa)
#
#
# Indices 1 2 3 4 5 6 
#
# 1 0.013091 -0.007398 -0.002786 0.000000 -0.005684 0.000000
# 2 -0.007398 0.023518 0.000468 0.000000 0.000808 0.000000
# 3 -0.002786 0.000468 0.012260 0.000000 0.002470 0.000000
# 4 0.000000 0.000000 0.000000 0.049164 0.000000 -0.000569
# 5 -0.005684 0.000808 0.002470 0.000000 0.036431 0.000000
# 6 0.000000 0.000000 0.000000 -0.000569 0.000000 0.046452
#
#
# Mechanical properties :
#
#
# Convention : Reuss Voigt Hill
#
# Bulk Modulus (GPa) = 33.97098 39.64276 36.80687
# Shear Modulus (GPa) = 23.79144 26.82694 25.30919
#
# Velocity S-wave (km/s) = 3.61873 3.84265 3.73237
# Velocity P-wave (km/s) = 6.01319 6.44267 6.23163
#
# Compressibility (1/GPa) = 0.02943689
#
# Stress axis : x y z
#
# Youngs Moduli (GPa) = 76.39099 42.52010 81.56769
#
# Poissons Ratio (x) = 0.31455 0.22728
# Poissons Ratio (y) = 0.56511 -0.03819
# Poissons Ratio (z) = 0.21286 -0.01991
#
# Static dielectric constant tensor:
#      x y z
#    x 1.720900 0.000000 -0.035860 
#    y 0.000000 1.588260 0.000000 
#    z -0.035860 0.000000 1.630030 
# 
# From -- ./inp_files/39628.got.cif
#   From: 2010.05.17/outbox.cif.g08.bks.cpg/sg10_20_cif.got.tgz:39628.got - 2010.06.03 11:33:40.
