data_PCOD9144036
_publ_section_title
;
Structure prediction by ZEFSAII (Michael W. Deem and Ramdas Pophale) SiO2 
 PCOD9144036
Probable space group: P 2/M
;
_chemical_formula_sum "Si O2"
_cell_formula_units_Z 20
_cell_length_a 9.729054
_cell_length_b 8.380787
_cell_length_c 13.196746
_cell_angle_alpha 90.000000
_cell_angle_beta 110.928502
_cell_angle_gamma 90.000000
_cell_volume 1005.036092
_symmetry_space_group_name_H-M "P 2/M"
_symmetry_group_IT_number 10
_symmetry_cell_setting 'monoclinic'
loop_
_space_group_symop_operation_xyz
x,y,z
-x,y,-z
-x,-y,-z
x,-y,z
loop_
_atom_site_type_symbol
_atom_site_label
_atom_site_fract_x
_atom_site_fract_y
_atom_site_fract_z
Si Si1 0.349917 0.811258 0.007612
Si Si2 0.740317 0.678560 0.813550
Si Si3 0.358124 0.500000 0.393555
Si Si4 0.176869 0.500000 0.540101
Si Si5 0.948149 0.189471 0.174145
Si Si6 0.864819 0.821789 0.385068
O O1 0.199515 0.747317 0.918338
O O2 0.349324 0.000000 0.984657
O O3 0.500000 0.743539 0.000000
O O4 0.337937 0.786312 0.124428
O O5 0.747641 0.500000 0.860391
O O6 0.654809 0.650525 0.685360
O O7 0.904087 0.733487 0.829416
O O8 0.500000 0.500000 0.500000
O O9 0.223274 0.500000 0.435836
O O10 0.227124 0.665767 0.605554
O O11 0.000000 0.500000 0.500000
O O12 0.927813 0.208628 0.289357
O O13 0.960385 0.000000 0.156963
O O14 0.000000 0.830762 0.500000
O O15 0.794461 0.000000 0.365944
#
# Coordination Sequence:
#
# PCOD9144036 Si02
#       6
#     4   4   2   2   4   4
#     4  10  22  40  60  86 124 160 195 247 309 360
#     4  10  22  38  60  87 113 159 201 247 291 363
#     4  10  24  42  57  85 125 157 191 249 312 362
#     4  10  18  34  59  81 114 155 194 243 300 348
#     4  10  20  36  60  90 123 157 200 251 299 355
#     4   9  18  31  53  88 119 150 199 250 297 355
#
# _framework density 19.899781000000001
#
# number of rings (size 3 to 8) (size 9 to 14) (size 15 to 20)
#    0.600    1.600    0.000    3.600    1.400    5.200 
#    0.000    1.000    0.000    4.200    0.000    0.000 
#    0.000    0.000    0.000    0.000    0.000    0.000 
#
# Total GULP energy -111440.358453 kJ/mol
# GULP energy per Si atom -5572.017923 kJ/mol
# Density = 1.985449 g / cm^3
# Si number density = 19.899781 Si / 1000 Ang^3
#
#
#
# Elastic Constant Matrix: (Units=GPa)
#
#
# Indices 1 2 3 4 5 6 
#
# 1 90.4054 -0.7448 71.2616 0.0000 10.0556 0.0000
# 2 -0.7448 60.0169 -4.4944 0.0000 1.4107 0.0000
# 3 71.2616 -4.4944 84.8479 0.0000 -3.8138 0.0000
# 4 0.0000 0.0000 0.0000 33.2953 0.0000 -9.0553
# 5 10.0556 1.4107 -3.8138 0.0000 25.1610 0.0000
# 6 0.0000 0.0000 0.0000 -9.0553 0.0000 12.8549
#
#
#
# Elastic Compliance Matrix: (Units=1/GPa)
#
#
# Indices 1 2 3 4 5 6 
#
# 1 0.042691 -0.001707 -0.036960 0.000000 -0.022568 0.000000
# 2 -0.001707 0.016813 0.002329 0.000000 0.000093 0.000000
# 3 -0.036960 0.002329 0.043908 0.000000 0.021296 0.000000
# 4 0.000000 0.000000 0.000000 0.037152 0.000000 0.026170
# 5 -0.022568 0.000093 0.021296 0.000000 0.051986 0.000000
# 6 0.000000 0.000000 0.000000 0.026170 0.000000 0.096226
#
#
# Mechanical properties :
#
#
# Convention : Reuss Voigt Hill
#
# Bulk Modulus (GPa) = 32.53629 40.81275 36.67452
# Shear Modulus (GPa) = 13.45182 25.54542 19.49862
#
# Velocity S-wave (km/s) = 2.60278 3.58677 3.13364
# Velocity P-wave (km/s) = 5.04164 6.14059 5.61805
#
# Compressibility (1/GPa) = 0.03073491
#
# Stress axis : x y z
#
# Youngs Moduli (GPa) = 23.42436 59.47776 22.77501
#
# Poissons Ratio (x) = 0.10156 0.84175
# Poissons Ratio (y) = 0.04000 -0.05304
# Poissons Ratio (z) = 0.86575 -0.13851
#
# Static dielectric constant tensor:
#      x y z
#    x 1.682820 0.000000 0.016010 
#    y 0.000000 1.766030 0.000000 
#    z 0.016010 0.000000 1.695870 
# 
# From -- ./inp_files/40899.got.cif
#   From: 2010.05.17/outbox.cif.g08.bks.cpg/sg10_21_cif.got.tgz:40899.got - 2010.06.03 11:33:40.
