data_PCOD9144801
_publ_section_title
;
Structure prediction by ZEFSAII (Michael W. Deem and Ramdas Pophale) SiO2 
 PCOD9144801
Probable space group: P 2/M
;
_chemical_formula_sum "Si O2"
_cell_formula_units_Z 32
_cell_length_a 15.293723
_cell_length_b 13.352652
_cell_length_c 12.095350
_cell_angle_alpha 90.000000
_cell_angle_beta 41.767958
_cell_angle_gamma 90.000000
_cell_volume 1645.313679
_symmetry_space_group_name_H-M "P 2/M"
_symmetry_group_IT_number 10
_symmetry_cell_setting 'monoclinic'
loop_
_space_group_symop_operation_xyz
x,y,z
-x,y,-z
-x,-y,-z
x,-y,z
loop_
_atom_site_type_symbol
_atom_site_label
_atom_site_fract_x
_atom_site_fract_y
_atom_site_fract_z
Si Si1 0.342616 0.889222 0.646526
Si Si2 0.029295 0.615297 0.180854
Si Si3 0.310026 0.615288 0.198865
Si Si4 0.292247 0.684595 0.814118
Si Si5 0.467788 0.301353 0.859303
Si Si6 0.086819 0.742519 0.515201
Si Si7 0.317219 0.188228 0.431968
Si Si8 0.264972 0.608319 0.608112
O O1 0.500000 0.878229 0.500000
O O2 0.287245 0.798642 0.772272
O O3 0.308816 0.879282 0.548239
O O4 0.306540 0.000000 0.720793
O O5 0.048758 0.500000 0.199220
O O6 0.001527 0.690069 0.308157
O O7 0.893797 0.616420 0.238581
O O8 0.154067 0.650797 0.994691
O O9 0.302993 0.500000 0.169419
O O10 0.423566 0.627930 0.184549
O O11 0.175801 0.654034 0.378387
O O12 0.352171 0.689055 0.059201
O O13 0.401362 0.672141 0.805567
O O14 0.320562 0.620745 0.678002
O O15 0.546444 0.196664 0.764338
O O16 0.191522 0.817440 0.471927
O O17 0.000000 0.787371 0.500000
O O18 0.310497 0.299844 0.491639
O O19 0.297307 0.500000 0.529847
#
# Coordination Sequence:
#
# PCOD9144801 Si02
#       8
#     4   4   4   4   4   4   4   4
#     4  10  20  38  63  85 106 133 168 217 280 343
#     4  10  20  33  49  73 109 152 193 224 252 296
#     4  10  21  33  46  71 110 150 189 230 262 299
#     4  11  20  31  53  78 107 133 177 224 266 324
#     4  10  19  31  46  71 104 138 172 221 273 313
#     4  10  20  34  53  74 102 150 198 226 254 297
#     4   9  19  35  53  77 112 137 176 226 267 319
#     4   9  19  32  47  70 105 150 186 213 252 308
#
# _framework density 19.449179000000001
#
# number of rings (size 3 to 8) (size 9 to 14) (size 15 to 20)
#    0.000    2.125    1.250    2.625    0.000    8.500 
#    0.000    0.625    0.000   13.875    0.000   21.875 
#    0.000    0.000    0.000    0.000    0.000    0.000 
#
# Total GULP energy -178446.437232 kJ/mol
# GULP energy per Si atom -5576.451164 kJ/mol
# Density = 1.940491 g / cm^3
# Si number density = 19.449179 Si / 1000 Ang^3
#
#
#
# Elastic Constant Matrix: (Units=GPa)
#
#
# Indices 1 2 3 4 5 6 
#
# 1 131.0415 3.1582 6.2446 0.0000 21.5360 0.0000
# 2 3.1582 41.0854 -5.7751 0.0000 -5.7283 0.0000
# 3 6.2446 -5.7751 55.6073 0.0000 1.4978 0.0000
# 4 0.0000 0.0000 0.0000 0.3254 0.0000 11.7412
# 5 21.5360 -5.7283 1.4978 0.0000 15.8646 0.0000
# 6 0.0000 0.0000 0.0000 11.7412 0.0000 -2.1065
#
#
#
# Elastic Compliance Matrix: (Units=1/GPa)
#
#
# Indices 1 2 3 4 5 6 
#
# 1 0.010188 -0.002997 -0.001056 0.000000 -0.014813 0.000000
# 2 -0.002997 0.026840 0.002760 0.000000 0.013499 0.000000
# 3 -0.001056 0.002760 0.018370 0.000000 0.000696 0.000000
# 4 0.000000 0.000000 0.000000 0.015205 0.000000 0.084749
# 5 -0.014813 0.013499 0.000696 0.000000 0.087950 0.000000
# 6 0.000000 0.000000 0.000000 0.084749 0.000000 -0.002349
#
#
# Mechanical properties :
#
#
# Convention : Reuss Voigt Hill
#
# Bulk Modulus (GPa) = 18.93498 26.10994 22.52246
# Shear Modulus (GPa) = 28.34571 17.75714 23.05142
#
# Velocity S-wave (km/s) = 3.82176 3.02487 3.44643
# Velocity P-wave (km/s) = 5.40659 5.06494 5.23855
#
# Compressibility (1/GPa) = 0.05281232
#
# Stress axis : x y z
#
# Youngs Moduli (GPa) = 98.15359 37.25777 54.43715
#
# Poissons Ratio (x) = 0.11166 0.05751
# Poissons Ratio (y) = 0.29415 -0.15027
# Poissons Ratio (z) = 0.10369 -0.10285
#
# Static dielectric constant tensor:
#      x y z
#    x 1.732030 0.000000 0.000440 
#    y 0.000000 1.642980 0.000000 
#    z 0.000440 0.000000 1.721170 
# 
# From -- ./inp_files/51601.got.cif
#   From: 2010.05.17/outbox.cif.g08.bks.cpg/sg10_26_cif.got.tgz:51601.got - 2010.06.03 11:33:40.
