data_PCOD9144067
_publ_section_title
;
Structure prediction by ZEFSAII (Michael W. Deem and Ramdas Pophale) SiO2 
 PCOD9144067
Probable space group: P 2/M
;
_chemical_formula_sum "Si O2"
_cell_formula_units_Z 28
_cell_length_a 9.537387
_cell_length_b 14.476472
_cell_length_c 12.041921
_cell_angle_alpha 90.000000
_cell_angle_beta 128.877487
_cell_angle_gamma 90.000000
_cell_volume 1294.317604
_symmetry_space_group_name_H-M "P 2/M"
_symmetry_group_IT_number 10
_symmetry_cell_setting 'monoclinic'
loop_
_space_group_symop_operation_xyz
x,y,z
-x,y,-z
-x,-y,-z
x,-y,z
loop_
_atom_site_type_symbol
_atom_site_label
_atom_site_fract_x
_atom_site_fract_y
_atom_site_fract_z
Si Si1 0.983437 0.202999 0.119681
Si Si2 0.405334 0.399579 0.808336
Si Si3 0.841648 0.667021 0.498808
Si Si4 0.705987 0.894848 0.143414
Si Si5 0.913925 0.395158 0.178833
Si Si6 0.341960 0.892910 0.330040
Si Si7 0.566949 0.786294 0.274329
O O1 0.828351 0.152964 0.112229
O O2 0.946492 0.312170 0.110847
O O3 0.170843 0.171293 0.268471
O O4 0.000000 0.174730 0.000000
O O5 0.496488 0.500000 0.858632
O O6 0.261537 0.402731 0.635082
O O7 0.280116 0.386065 0.854730
O O8 0.508182 0.305042 0.827614
O O9 0.688114 0.744144 0.434076
O O10 0.000000 0.706523 0.500000
O O11 0.933796 0.622805 0.650638
O O12 0.696635 0.836986 0.251975
O O13 0.765075 0.000000 0.191676
O O14 0.500000 0.895620 0.000000
O O15 0.929575 0.500000 0.145554
O O16 0.500000 0.888992 0.500000
O O17 0.425156 0.855227 0.255948
O O18 0.285613 0.000000 0.292118
#
# Coordination Sequence:
#
# PCOD9144067 Si02
#       7
#     4   4   4   4   4   4   4
#     4  12  25  43  65  94 130 172 216 268 326 392
#     4   8  15  28  55  89 120 154 198 256 313 370
#     4   8  14  27  53  88 122 152 196 251 309 369
#     4  11  23  41  66  93 119 159 221 282 328 378
#     4  10  18  34  60  91 127 166 207 255 316 381
#     4  11  25  44  64  91 132 177 214 260 327 391
#     4  10  19  35  59  89 121 156 209 261 308 371
#
# _framework density 21.633019000000001
#
# number of rings (size 3 to 8) (size 9 to 14) (size 15 to 20)
#    0.857    1.143    1.429    3.000    0.000    4.286 
#    0.000    0.714    0.000    9.429    0.000    0.000 
#    0.000    0.000    0.000    0.000    0.000    0.000 
#
# Total GULP energy -156167.428917 kJ/mol
# GULP energy per Si atom -5577.408176 kJ/mol
# Density = 2.158378 g / cm^3
# Si number density = 21.633019 Si / 1000 Ang^3
#
#
#
# Elastic Constant Matrix: (Units=GPa)
#
#
# Indices 1 2 3 4 5 6 
#
# 1 95.5779 49.5956 21.4722 0.0000 -10.2519 0.0000
# 2 49.5956 153.6021 21.0424 0.0000 -8.4137 0.0000
# 3 21.4722 21.0424 67.5908 0.0000 2.0731 0.0000
# 4 0.0000 0.0000 0.0000 -48.4994 0.0000 -29.0612
# 5 -10.2519 -8.4137 2.0731 0.0000 24.7309 0.0000
# 6 0.0000 0.0000 0.0000 -29.0612 0.0000 6.5865
#
#
#
# Elastic Compliance Matrix: (Units=1/GPa)
#
#
# Indices 1 2 3 4 5 6 
#
# 1 0.013624 -0.003688 -0.003323 0.000000 0.004672 0.000000
# 2 -0.003688 0.007956 -0.001345 0.000000 0.001291 0.000000
# 3 -0.003323 -0.001345 0.016368 0.000000 -0.003207 0.000000
# 4 0.000000 0.000000 0.000000 -0.005659 0.000000 -0.024967
# 5 0.004672 0.001291 -0.003207 0.000000 0.043080 0.000000
# 6 0.000000 0.000000 0.000000 -0.024967 0.000000 0.041666
#
#
# Mechanical properties :
#
#
# Convention : Reuss Voigt Hill
#
# Bulk Modulus (GPa) = 47.09040 55.66568 51.37804
# Shear Modulus (GPa) = 35.50485 11.54096 23.52291
#
# Velocity S-wave (km/s) = 4.05561 2.31224 3.30109
# Velocity P-wave (km/s) = 6.61405 5.73727 6.19120
#
# Compressibility (1/GPa) = 0.02123575
#
# Stress axis : x y z
#
# Youngs Moduli (GPa) = 73.40015 125.69126 61.09592
#
# Poissons Ratio (x) = 0.46352 0.20304
# Poissons Ratio (y) = 0.27069 0.08217
# Poissons Ratio (z) = 0.24393 0.16904
#
# Static dielectric constant tensor:
#      x y z
#    x 1.750930 0.000000 0.026650 
#    y 0.000000 1.790730 0.000000 
#    z 0.026650 0.000000 1.853680 
# 
# From -- ./inp_files/43027.got.cif
#   From: 2010.05.17/outbox.cif.g08.bks.cpg/sg10_22_cif.got.tgz:43027.got - 2010.06.03 11:33:40.
