data_PCOD9144452
_publ_section_title
;
Structure prediction by ZEFSAII (Michael W. Deem and Ramdas Pophale) SiO2 
 PCOD9144452
Probable space group: P 2/M
;
_chemical_formula_sum "Si O2"
_cell_formula_units_Z 32
_cell_length_a 22.813837
_cell_length_b 8.933427
_cell_length_c 14.219818
_cell_angle_alpha 90.000000
_cell_angle_beta 132.003489
_cell_angle_gamma 90.000000
_cell_volume 2153.575538
_symmetry_space_group_name_H-M "P 2/M"
_symmetry_group_IT_number 10
_symmetry_cell_setting 'monoclinic'
loop_
_space_group_symop_operation_xyz
x,y,z
-x,y,-z
-x,-y,-z
x,-y,z
loop_
_atom_site_type_symbol
_atom_site_label
_atom_site_fract_x
_atom_site_fract_y
_atom_site_fract_z
Si Si1 0.353994 0.680014 0.203512
Si Si2 0.733639 0.820214 0.241398
Si Si3 0.945378 0.320730 0.317044
Si Si4 0.474309 0.678678 0.696097
Si Si5 0.588710 0.172362 0.552103
Si Si6 0.433599 0.180615 0.852315
Si Si7 0.775480 0.680019 0.084994
Si Si8 0.096669 0.820873 0.524864
O O1 0.352388 0.500000 0.212290
O O2 0.435602 0.718088 0.236858
O O3 0.357904 0.753350 0.310311
O O4 0.280688 0.727977 0.060417
O O5 0.652049 0.772500 0.200981
O O6 0.746225 0.749027 0.152153
O O7 0.810733 0.786867 0.388099
O O8 0.731473 0.000000 0.226785
O O9 0.952794 0.500000 0.333036
O O10 0.868502 0.285405 0.171907
O O11 0.921677 0.250258 0.392523
O O12 0.030567 0.250106 0.386241
O O13 0.469123 0.500000 0.694286
O O14 0.418204 0.740666 0.553260
O O15 0.453211 0.748671 0.773246
O O16 0.500000 0.176925 0.500000
O O17 0.610053 0.000000 0.559402
O O18 0.433798 0.000000 0.843410
O O19 0.500000 0.221600 0.000000
O O20 0.769183 0.500000 0.086674
O O21 0.086421 0.000000 0.517086
#
# Coordination Sequence:
#
# PCOD9144452 Si02
#       8
#     4   4   4   4   4   4   4   4
#     4   9  17  29  43  61  85 109 134 166 205 245
#     4   9  18  29  40  56  79 109 143 175 205 238
#     4   9  15  23  36  55  77 102 132 163 199 240
#     4  10  19  30  45  62  81 108 140 173 206 240
#     4   9  17  29  45  63  81 104 135 169 205 244
#     4  10  20  32  44  59  82 111 142 176 209 238
#     4   9  17  27  40  59  84 111 136 166 203 243
#     4   9  15  24  37  52  73 102 135 168 201 236
#
# _framework density 14.85901
#
# number of rings (size 3 to 8) (size 9 to 14) (size 15 to 20)
#    0.000    2.750    0.000    3.000    0.000    4.250 
#    0.000    0.000    0.000    0.000    0.000    0.000 
#    0.000    1.000    0.000   11.500    0.000    3.500 
#
# Total GULP energy -178164.010079 kJ/mol
# GULP energy per Si atom -5567.625315 kJ/mol
# Density = 1.482519 g / cm^3
# Si number density = 14.859010 Si / 1000 Ang^3
#
#
#
# Elastic Constant Matrix: (Units=GPa)
#
#
# Indices 1 2 3 4 5 6 
#
# 1 69.2916 29.4904 64.7578 0.0000 16.0098 0.0000
# 2 29.4904 37.4171 44.7304 0.0000 7.1366 0.0000
# 3 64.7578 44.7304 145.8074 0.0000 17.0107 0.0000
# 4 0.0000 0.0000 0.0000 30.0427 0.0000 3.8068
# 5 16.0098 7.1366 17.0107 0.0000 27.0735 0.0000
# 6 0.0000 0.0000 0.0000 3.8068 0.0000 22.1208
#
#
#
# Elastic Compliance Matrix: (Units=1/GPa)
#
#
# Indices 1 2 3 4 5 6 
#
# 1 0.029190 -0.011129 -0.008502 0.000000 -0.008986 0.000000
# 2 -0.011129 0.046709 -0.009408 0.000000 0.000179 0.000000
# 3 -0.008502 -0.009408 0.013645 0.000000 -0.001066 0.000000
# 4 0.000000 0.000000 0.000000 0.034028 0.000000 -0.005856
# 5 -0.008986 0.000179 -0.001066 0.000000 0.042873 0.000000
# 6 0.000000 0.000000 0.000000 -0.005856 0.000000 0.046214
#
#
# Mechanical properties :
#
#
# Convention : Reuss Voigt Hill
#
# Bulk Modulus (GPa) = 31.77890 58.94147 45.36019
# Shear Modulus (GPa) = 17.77946 23.41657 20.59801
#
# Velocity S-wave (km/s) = 3.46286 3.97409 3.72725
# Velocity P-wave (km/s) = 6.11735 7.79815 7.00832
#
# Compressibility (1/GPa) = 0.03146742
#
# Stress axis : x y z
#
# Youngs Moduli (GPa) = 34.25854 21.40913 73.28888
#
# Poissons Ratio (x) = 0.23826 0.62308
# Poissons Ratio (y) = 0.38125 0.68947
# Poissons Ratio (z) = 0.29126 0.20141
#
# Static dielectric constant tensor:
#      x y z
#    x 1.488870 0.000000 0.045540 
#    y 0.000000 1.499040 0.000000 
#    z 0.045540 0.000000 1.506330 
# 
# From -- ./inp_files/52700.got.cif
#   From: 2010.05.17/outbox.cif.g08.bks.cpg/sg10_27_cif.got.tgz:52700.got - 2010.06.03 11:33:40.
