data_PCOD9144000
_publ_section_title
;
Structure prediction by ZEFSAII (Michael W. Deem and Ramdas Pophale) SiO2 
 PCOD9144000
Probable space group: P 2/M
;
_chemical_formula_sum "Si O2"
_cell_formula_units_Z 24
_cell_length_a 12.016824
_cell_length_b 16.831564
_cell_length_c 17.113676
_cell_angle_alpha 90.000000
_cell_angle_beta 20.961478
_cell_angle_gamma 90.000000
_cell_volume 1238.298113
_symmetry_space_group_name_H-M "P 2/M"
_symmetry_group_IT_number 10
_symmetry_cell_setting 'monoclinic'
loop_
_space_group_symop_operation_xyz
x,y,z
-x,y,-z
-x,-y,-z
x,-y,z
loop_
_atom_site_type_symbol
_atom_site_label
_atom_site_fract_x
_atom_site_fract_y
_atom_site_fract_z
Si Si1 0.847074 0.197524 0.952521
Si Si2 0.358547 0.414711 0.238792
Si Si3 0.238307 0.232135 0.548484
Si Si4 0.684436 0.343876 0.170277
Si Si5 0.338172 0.088352 0.691560
Si Si6 0.251315 0.243512 0.265009
O O1 0.106810 0.230979 0.722345
O O2 0.994963 0.122035 0.898443
O O3 0.776422 0.264530 0.062133
O O4 0.532773 0.187399 0.108148
O O5 0.441377 0.500000 0.148201
O O6 0.543136 0.401442 0.198266
O O7 0.390129 0.333327 0.169236
O O8 0.000000 0.417444 0.500000
O O9 0.428728 0.310935 0.399103
O O10 0.465602 0.155880 0.392396
O O11 0.944076 0.223931 0.683539
O O12 0.000000 0.375906 0.000000
O O13 0.500000 0.083156 0.500000
O O14 0.341753 0.000000 0.723503
O O15 0.000000 0.244344 0.500000
#
# Coordination Sequence:
#
# PCOD9144000 Si02
#       6
#     4   4   4   4   4   4
#     4  10  20  33  55  79 105 140 177 220 263 315
#     4   9  17  32  54  79 106 142 178 217 269 314
#     4  11  19  34  55  79 107 139 179 219 263 315
#     4  11  20  33  54  80 108 140 178 224 257 314
#     4   9  19  35  55  80 107 139 178 218 264 319
#     4  10  18  34  56  79 105 138 177 227 255 314
#
# _framework density 19.381440999999999
#
# number of rings (size 3 to 8) (size 9 to 14) (size 15 to 20)
#    0.000    2.000    6.667    0.500    0.000    0.333 
#    0.000    2.500    0.000   17.000    0.000    5.833 
#    0.000    0.000    0.000    0.000    0.000    0.000 
#
# Total GULP energy -133807.578418 kJ/mol
# GULP energy per Si atom -5575.315767 kJ/mol
# Density = 1.933733 g / cm^3
# Si number density = 19.381441 Si / 1000 Ang^3
#
#
#
# Elastic Constant Matrix: (Units=GPa)
#
#
# Indices 1 2 3 4 5 6 
#
# 1 72.7850 18.8824 21.9617 0.0000 -29.2995 0.0000
# 2 18.8824 79.1137 13.0661 0.0000 -20.9333 0.0000
# 3 21.9617 13.0661 73.1991 0.0000 -20.3240 0.0000
# 4 0.0000 0.0000 0.0000 20.8327 0.0000 -3.8832
# 5 -29.2995 -20.9333 -20.3240 0.0000 59.2224 0.0000
# 6 0.0000 0.0000 0.0000 -3.8832 0.0000 20.5172
#
#
#
# Elastic Compliance Matrix: (Units=1/GPa)
#
#
# Indices 1 2 3 4 5 6 
#
# 1 0.018062 -0.001895 -0.003079 0.000000 0.007209 0.000000
# 2 -0.001895 0.014245 -0.000925 0.000000 0.003781 0.000000
# 3 -0.003079 -0.000925 0.015736 0.000000 0.003550 0.000000
# 4 0.000000 0.000000 0.000000 0.049757 0.000000 0.009417
# 5 0.007209 0.003781 0.003550 0.000000 0.023007 0.000000
# 6 0.000000 0.000000 0.000000 0.009417 0.000000 0.050522
#
#
# Mechanical properties :
#
#
# Convention : Reuss Voigt Hill
#
# Bulk Modulus (GPa) = 27.58921 36.99092 32.29007
# Shear Modulus (GPa) = 25.61373 31.52697 28.57035
#
# Velocity S-wave (km/s) = 3.63927 4.03756 3.84358
# Velocity P-wave (km/s) = 5.65020 6.39242 6.03274
#
# Compressibility (1/GPa) = 0.03624605
#
# Stress axis : x y z
#
# Youngs Moduli (GPa) = 55.36529 70.19860 63.54884
#
# Poissons Ratio (x) = 0.13301 0.19567
# Poissons Ratio (y) = 0.10491 0.05876
# Poissons Ratio (z) = 0.17048 0.06491
#
# Static dielectric constant tensor:
#      x y z
#    x 1.710640 0.000000 -0.006910 
#    y 0.000000 1.671280 0.000000 
#    z -0.006910 0.000000 1.739000 
# 
# From -- ./inp_files/77161.got.cif
#   From: 2010.05.17/outbox.cif.g08.bks.cpg/sg10_39_cif.got.tgz:77161.got - 2010.06.03 11:33:40.
