data_PCOD9144255
_publ_section_title
;
Structure prediction by ZEFSAII (Michael W. Deem and Ramdas Pophale) SiO2 
 PCOD9144255
Probable space group: P 2/M
;
_chemical_formula_sum "Si O2"
_cell_formula_units_Z 32
_cell_length_a 17.051290
_cell_length_b 7.836275
_cell_length_c 24.859805
_cell_angle_alpha 90.000000
_cell_angle_beta 28.399926
_cell_angle_gamma 90.000000
_cell_volume 1579.892514
_symmetry_space_group_name_H-M "P 2/M"
_symmetry_group_IT_number 10
_symmetry_cell_setting 'monoclinic'
loop_
_space_group_symop_operation_xyz
x,y,z
-x,y,-z
-x,-y,-z
x,-y,z
loop_
_atom_site_type_symbol
_atom_site_label
_atom_site_fract_x
_atom_site_fract_y
_atom_site_fract_z
Si Si1 0.987380 0.295882 0.788912
Si Si2 0.713396 0.693301 0.319867
Si Si3 0.432233 0.798938 0.416399
Si Si4 0.939270 0.697446 0.368584
Si Si5 0.265258 0.191687 0.971685
Si Si6 0.488827 0.201732 0.263430
Si Si7 0.054219 0.805133 0.910362
Si Si8 0.891085 0.292090 0.515039
O O1 0.012819 0.500000 0.771154
O O2 0.154355 0.227487 0.717942
O O3 0.976977 0.225848 0.734821
O O4 0.822508 0.268995 0.923032
O O5 0.677768 0.500000 0.357611
O O6 0.543209 0.775069 0.402494
O O7 0.819576 0.699024 0.200755
O O8 0.256844 0.706573 0.525188
O O9 0.515352 0.739129 0.309417
O O10 0.399239 0.000000 0.429842
O O11 0.991006 0.500000 0.340658
O O12 0.960787 0.770073 0.415360
O O13 0.111344 0.181568 0.023990
O O14 0.319226 0.000000 0.954078
O O15 0.405773 0.276535 0.849764
O O16 0.296154 0.228694 0.368532
O O17 0.529689 0.000000 0.239175
O O18 0.120852 0.000000 0.877721
O O19 0.000000 0.734017 0.000000
O O20 0.885677 0.500000 0.516975
O O21 0.000000 0.239566 0.500000
#
# Coordination Sequence:
#
# PCOD9144255 Si02
#       8
#     4   4   4   4   4   4   4   4
#     4   9  19  33  47  65  92 129 167 197 230 275
#     4  10  19  29  41  61  90 124 164 203 236 272
#     4  10  19  31  47  68  94 124 162 203 242 282
#     4   9  18  34  52  69  94 125 154 190 238 285
#     4   9  17  29  46  67  92 123 159 197 232 271
#     4   9  18  32  50  73  99 126 155 190 236 284
#     4   9  16  27  42  59  84 120 159 200 244 280
#     4   9  18  33  55  81 101 117 144 186 235 286
#
# _framework density 20.254543000000002
#
# number of rings (size 3 to 8) (size 9 to 14) (size 15 to 20)
#    0.000    2.750    0.000    1.500    0.000    5.000 
#    0.000    5.000    0.000    0.750    0.000    5.250 
#    0.000    0.000    0.000    0.000    0.000    0.000 
#
# Total GULP energy -178255.684999 kJ/mol
# GULP energy per Si atom -5570.490156 kJ/mol
# Density = 2.020844 g / cm^3
# Si number density = 20.254543 Si / 1000 Ang^3
#
#
#
# Elastic Constant Matrix: (Units=GPa)
#
#
# Indices 1 2 3 4 5 6 
#
# 1 90.3685 0.7575 40.1127 0.0000 20.9759 0.0000
# 2 0.7575 26.4562 -1.2888 0.0000 2.6668 0.0000
# 3 40.1127 -1.2888 89.6977 0.0000 33.9066 0.0000
# 4 0.0000 0.0000 0.0000 19.0777 0.0000 -1.7684
# 5 20.9759 2.6668 33.9066 0.0000 30.7538 0.0000
# 6 0.0000 0.0000 0.0000 -1.7684 0.0000 9.2488
#
#
#
# Elastic Compliance Matrix: (Units=1/GPa)
#
#
# Indices 1 2 3 4 5 6 
#
# 1 0.014176 -0.000171 -0.004617 0.000000 -0.004564 0.000000
# 2 -0.000171 0.038637 0.003179 0.000000 -0.006739 0.000000
# 3 -0.004617 0.003179 0.020871 0.000000 -0.020137 0.000000
# 4 0.000000 0.000000 0.000000 0.053363 0.000000 0.010203
# 5 -0.004564 -0.006739 -0.020137 0.000000 0.058415 0.000000
# 6 0.000000 0.000000 0.000000 0.010203 0.000000 0.110073
#
#
# Mechanical properties :
#
#
# Convention : Reuss Voigt Hill
#
# Bulk Modulus (GPa) = 14.19107 31.74280 22.96693
# Shear Modulus (GPa) = 15.51631 22.94548 19.23089
#
# Velocity S-wave (km/s) = 2.77079 3.36944 3.08467
# Velocity P-wave (km/s) = 4.15427 5.55369 4.90415
#
# Compressibility (1/GPa) = 0.07046683
#
# Stress axis : x y z
#
# Youngs Moduli (GPa) = 70.54263 25.88173 47.91373
#
# Poissons Ratio (x) = 0.00442 0.22120
# Poissons Ratio (y) = 0.01204 -0.15231
# Poissons Ratio (z) = 0.32567 -0.08227
#
# Static dielectric constant tensor:
#      x y z
#    x 1.724500 0.000000 0.053640 
#    y 0.000000 1.769010 0.000000 
#    z 0.053640 0.000000 1.770290 
# 
# From -- ./inp_files/56403.got.cif
#   From: 2010.05.17/outbox.cif.g08.bks.cpg/sg10_29_cif.got.tgz:56403.got - 2010.06.03 11:33:40.
