data_PCOD9144541
_publ_section_title
;
Structure prediction by ZEFSAII (Michael W. Deem and Ramdas Pophale) SiO2 
 PCOD9144541
Probable space group: P 2/M
;
_chemical_formula_sum "Si O2"
_cell_formula_units_Z 28
_cell_length_a 12.347800
_cell_length_b 7.301462
_cell_length_c 17.533667
_cell_angle_alpha 90.000000
_cell_angle_beta 134.525758
_cell_angle_gamma 90.000000
_cell_volume 1126.995737
_symmetry_space_group_name_H-M "P 2/M"
_symmetry_group_IT_number 10
_symmetry_cell_setting 'monoclinic'
loop_
_space_group_symop_operation_xyz
x,y,z
-x,y,-z
-x,-y,-z
x,-y,z
loop_
_atom_site_type_symbol
_atom_site_label
_atom_site_fract_x
_atom_site_fract_y
_atom_site_fract_z
Si Si1 0.835159 0.275697 0.665811
Si Si2 0.657420 0.279145 0.258995
Si Si3 0.670624 0.788141 0.093687
Si Si4 0.244856 0.277336 0.531974
Si Si5 0.416235 0.721517 0.349148
Si Si6 0.917233 0.703531 0.096889
Si Si7 0.684137 0.277153 0.863388
O O1 0.843717 0.500000 0.669825
O O2 0.859868 0.217936 0.590501
O O3 0.670096 0.223219 0.617276
O O4 0.951862 0.209390 0.787351
O O5 0.655878 0.500000 0.259766
O O6 0.712429 0.222960 0.203106
O O7 0.758072 0.217925 0.381357
O O8 0.480712 0.220539 0.183998
O O9 0.783290 0.688825 0.093118
O O10 0.670544 0.000000 0.069853
O O11 0.500000 0.716418 0.000000
O O12 0.235847 0.500000 0.529639
O O13 0.413425 0.223174 0.586602
O O14 0.423127 0.500000 0.355318
O O15 0.318119 0.772564 0.226304
O O16 0.972031 0.500000 0.100533
O O17 0.830437 0.788031 0.982121
O O18 0.685835 0.500000 0.869136
#
# Coordination Sequence:
#
# PCOD9144541 Si02
#       7
#     4   4   4   4   4   4   4
#     4   9  16  25  40  67 100 131 158 186 224 269
#     4   9  16  29  50  71  93 121 153 192 232 273
#     4  11  22  34  50  71  91 115 153 198 240 283
#     4   8  14  25  43  68  97 127 158 189 224 266
#     4   8  13  22  39  65  99 131 155 186 226 266
#     4  10  19  30  46  69  99 128 154 188 231 280
#     4   8  14  24  40  66  95 123 153 185 228 273
#
# _framework density 24.844812000000001
#
# number of rings (size 3 to 8) (size 9 to 14) (size 15 to 20)
#    0.000    3.000    1.429    2.571    0.000    2.857 
#    0.000    3.571    0.000    5.143    0.000    6.000 
#    0.000    5.714    0.000    0.000    0.000    0.000 
#
# Total GULP energy -156309.531802 kJ/mol
# GULP energy per Si atom -5582.483279 kJ/mol
# Density = 2.478826 g / cm^3
# Si number density = 24.844812 Si / 1000 Ang^3
#
#
#
# Elastic Constant Matrix: (Units=GPa)
#
#
# Indices 1 2 3 4 5 6 
#
# 1 27.2330 -8.0124 -8.8449 0.0000 -16.2729 0.0000
# 2 -8.0124 103.0413 -4.5409 0.0000 2.4686 0.0000
# 3 -8.8449 -4.5409 115.7359 0.0000 -33.5072 0.0000
# 4 0.0000 0.0000 0.0000 -9.8851 0.0000 13.0590
# 5 -16.2729 2.4686 -33.5072 0.0000 40.8613 0.0000
# 6 0.0000 0.0000 0.0000 13.0590 0.0000 -107.6360
#
#
#
# Elastic Compliance Matrix: (Units=1/GPa)
#
#
# Indices 1 2 3 4 5 6 
#
# 1 0.068479 0.005103 0.017362 0.000000 0.041200 0.000000
# 2 0.005103 0.010106 0.001571 0.000000 0.002710 0.000000
# 3 0.017362 0.001571 0.015740 0.000000 0.019726 0.000000
# 4 0.000000 0.000000 0.000000 -0.120472 0.000000 -0.014616
# 5 0.041200 0.002710 0.019726 0.000000 0.056893 0.000000
# 6 0.000000 0.000000 0.000000 -0.014616 0.000000 -0.011064
#
#
# Mechanical properties :
#
#
# Convention : Reuss Voigt Hill
#
# Bulk Modulus (GPa) = 7.02264 22.57932 14.80098
# Shear Modulus (GPa) = 262.10071 2.49527 132.29799
#
# Velocity S-wave (km/s) = 10.28223 1.00326 7.30516
# Velocity P-wave (km/s) = 11.99159 3.23263 8.78203
#
# Compressibility (1/GPa) = 0.14239668
#
# Stress axis : x y z
#
# Youngs Moduli (GPa) = 14.60295 98.95153 63.53267
#
# Poissons Ratio (x) = -0.50495 -1.10304
# Poissons Ratio (y) = -0.07452 -0.09981
# Poissons Ratio (z) = -0.25353 -0.15546
#
# Static dielectric constant tensor:
#      x y z
#    x 1.901490 0.000000 0.027490 
#    y 0.000000 2.010580 0.000000 
#    z 0.027490 0.000000 2.034860 
# 
# From -- ./inp_files/55569.got.cif
#   From: 2010.05.17/outbox.cif.g08.bks.cpg/sg10_28_cif.got.tgz:55569.got - 2010.06.03 11:33:40.
