data_PCOD9144429
_publ_section_title
;
Structure prediction by ZEFSAII (Michael W. Deem and Ramdas Pophale) SiO2 
 PCOD9144429
Probable space group: P 2/M
;
_chemical_formula_sum "Si O2"
_cell_formula_units_Z 28
_cell_length_a 19.552700
_cell_length_b 7.663845
_cell_length_c 12.127226
_cell_angle_alpha 90.000000
_cell_angle_beta 51.668139
_cell_angle_gamma 90.000000
_cell_volume 1425.509128
_symmetry_space_group_name_H-M "P 2/M"
_symmetry_group_IT_number 10
_symmetry_cell_setting 'monoclinic'
loop_
_space_group_symop_operation_xyz
x,y,z
-x,y,-z
-x,-y,-z
x,-y,z
loop_
_atom_site_type_symbol
_atom_site_label
_atom_site_fract_x
_atom_site_fract_y
_atom_site_fract_z
Si Si1 0.175491 0.697661 0.479294
Si Si2 0.832520 0.286678 0.760431
Si Si3 0.879979 0.297840 0.058119
Si Si4 0.596935 0.286000 0.372718
Si Si5 0.757165 0.285148 0.366448
Si Si6 0.997744 0.803955 0.746404
Si Si7 0.710831 0.703263 0.065935
O O1 0.207624 0.500000 0.429991
O O2 0.169070 0.775133 0.363824
O O3 0.234581 0.776649 0.516709
O O4 0.079431 0.689966 0.629234
O O5 0.834706 0.500000 0.761147
O O6 0.918394 0.229017 0.740829
O O7 0.748291 0.224676 0.914343
O O8 0.901934 0.500000 0.053573
O O9 0.840733 0.224658 0.210629
O O10 0.795224 0.291786 0.062390
O O11 0.958150 0.220360 0.908376
O O12 0.500000 0.229941 0.500000
O O13 0.597692 0.500000 0.369053
O O14 0.669101 0.235029 0.391346
O O15 0.632675 0.223581 0.218007
O O16 0.760420 0.500000 0.362159
O O17 0.028806 0.000000 0.702777
O O18 0.690007 0.500000 0.066460
#
# Coordination Sequence:
#
# PCOD9144429 Si02
#       7
#     4   4   4   4   4   4   4
#     4  10  19  30  44  60  82 116 153 182 209 248
#     4   9  17  30  46  60  80 115 154 184 208 243
#     4   8  14  28  46  60  81 113 146 177 209 251
#     4   8  12  20  39  66  91 110 131 168 216 258
#     4   8  15  27  43  63  85 113 147 175 205 255
#     4  11  21  30  42  62  86 110 144 189 226 252
#     4   7  11  21  38  59  80 106 139 169 201 244
#
# _framework density 19.642104
#
# number of rings (size 3 to 8) (size 9 to 14) (size 15 to 20)
#    0.000    3.286    0.000    4.286    0.000    2.857 
#    0.000    3.571    0.000    0.857    0.000    6.000 
#    0.000   57.143    0.000   12.857    0.000   14.286 
#
# Total GULP energy -155995.258282 kJ/mol
# GULP energy per Si atom -5571.259224 kJ/mol
# Density = 1.959740 g / cm^3
# Si number density = 19.642104 Si / 1000 Ang^3
#
#
#
# Elastic Constant Matrix: (Units=GPa)
#
#
# Indices 1 2 3 4 5 6 
#
# 1 77.0740 -3.5455 57.2438 0.0000 2.0266 0.0000
# 2 -3.5455 45.6034 -4.6319 0.0000 0.0086 0.0000
# 3 57.2438 -4.6319 104.9238 0.0000 -8.0418 0.0000
# 4 0.0000 0.0000 0.0000 -19.9254 0.0000 10.6486
# 5 2.0266 0.0086 -8.0418 0.0000 31.0111 0.0000
# 6 0.0000 0.0000 0.0000 10.6486 0.0000 -13.7035
#
#
#
# Elastic Compliance Matrix: (Units=1/GPa)
#
#
# Indices 1 2 3 4 5 6 
#
# 1 0.022487 0.000468 -0.012611 0.000000 -0.004740 0.000000
# 2 0.000468 0.022039 0.000729 0.000000 0.000152 0.000000
# 3 -0.012611 0.000729 0.016841 0.000000 0.005191 0.000000
# 4 0.000000 0.000000 0.000000 -0.085832 0.000000 -0.066698
# 5 -0.004740 0.000152 0.005191 0.000000 0.033902 0.000000
# 6 0.000000 0.000000 0.000000 -0.066698 0.000000 -0.124803
#
#
# Mechanical properties :
#
#
# Convention : Reuss Voigt Hill
#
# Bulk Modulus (GPa) = 25.94742 36.19267 31.07004
# Shear Modulus (GPa) = -62.74121 11.37878 -25.68122
#
# Velocity S-wave (km/s) = -5.65788 2.40949 -3.61980
# Velocity P-wave (km/s) = 5.42617 5.11927 1.27208
#
# Compressibility (1/GPa) = 0.03853948
#
# Stress axis : x y z
#
# Youngs Moduli (GPa) = 44.47000 45.37492 59.37876
#
# Poissons Ratio (x) = -0.02125 0.74883
# Poissons Ratio (y) = -0.02083 -0.04329
# Poissons Ratio (z) = 0.56081 -0.03308
#
# Static dielectric constant tensor:
#      x y z
#    x 1.676910 0.000000 0.029580 
#    y 0.000000 1.727910 0.000000 
#    z 0.029580 0.000000 1.724370 
# 
# From -- ./inp_files/54663.got.cif
#   From: 2010.05.17/outbox.cif.g08.bks.cpg/sg10_28_cif.got.tgz:54663.got - 2010.06.03 11:33:40.
