data_PCOD9144281
_publ_section_title
;
Structure prediction by ZEFSAII (Michael W. Deem and Ramdas Pophale) SiO2 
 PCOD9144281
Probable space group: P 2/M
;
_chemical_formula_sum "Si O2"
_cell_formula_units_Z 24
_cell_length_a 5.086729
_cell_length_b 22.922153
_cell_length_c 14.724998
_cell_angle_alpha 90.000000
_cell_angle_beta 120.380459
_cell_angle_gamma 90.000000
_cell_volume 1481.160444
_symmetry_space_group_name_H-M "P 2/M"
_symmetry_group_IT_number 10
_symmetry_cell_setting 'monoclinic'
loop_
_space_group_symop_operation_xyz
x,y,z
-x,y,-z
-x,-y,-z
x,-y,z
loop_
_atom_site_type_symbol
_atom_site_label
_atom_site_fract_x
_atom_site_fract_y
_atom_site_fract_z
Si Si1 0.642479 0.564828 0.925053
Si Si2 0.668234 0.679225 0.127616
Si Si3 0.438184 0.930437 0.884364
Si Si4 0.199103 0.875283 0.211263
Si Si5 0.172105 0.747552 0.127996
Si Si6 0.646192 0.932876 0.426205
O O1 0.636728 0.500000 0.880590
O O2 0.434563 0.616809 0.849124
O O3 0.500000 0.558190 0.000000
O O4 0.000000 0.581911 0.000000
O O5 0.511861 0.728291 0.161733
O O6 0.007048 0.697451 0.159116
O O7 0.500000 0.680489 0.000000
O O8 0.700938 0.907472 0.864330
O O9 0.114273 0.901544 0.804950
O O10 0.416837 0.000000 0.873186
O O11 0.500000 0.914896 0.000000
O O12 0.159930 0.807963 0.178959
O O13 0.465981 0.890259 0.328332
O O14 0.000000 0.753261 0.000000
O O15 0.500000 0.931718 0.500000
O O16 0.000000 0.918886 0.500000
O O17 0.621268 0.000000 0.386316
#
# Coordination Sequence:
#
# PCOD9144281 Si02
#       6
#     4   4   4   4   4   4
#     4   9  15  23  37  56  78 110 155 198 225 244
#     4   9  16  27  39  56  84 117 151 186 217 246
#     4  11  22  34  49  70  95 120 147 183 226 273
#     4  12  22  35  52  70  92 120 153 186 230 282
#     4  10  19  29  43  62  88 120 150 178 213 264
#     4  10  21  37  55  72  88 109 144 192 242 287
#
# _framework density 16.203510999999999
#
# number of rings (size 3 to 8) (size 9 to 14) (size 15 to 20)
#    0.000    1.833    0.000    7.500    0.000    4.000 
#    0.000    0.000    0.000    0.000    0.000    0.000 
#    0.000    0.000    0.000    0.000    0.000   16.667 
#
# Total GULP energy -133783.143322 kJ/mol
# GULP energy per Si atom -5574.297638 kJ/mol
# Density = 1.616663 g / cm^3
# Si number density = 16.203511 Si / 1000 Ang^3
#
#
#
# Elastic Constant Matrix: (Units=GPa)
#
#
# Indices 1 2 3 4 5 6 
#
# 1 79.8966 8.5448 6.8486 0.0000 9.5078 0.0000
# 2 8.5448 75.3681 19.7639 0.0000 6.6252 0.0000
# 3 6.8486 19.7639 36.0317 0.0000 4.3299 0.0000
# 4 0.0000 0.0000 0.0000 -16.8720 0.0000 41.0637
# 5 9.5078 6.6252 4.3299 0.0000 14.4608 0.0000
# 6 0.0000 0.0000 0.0000 41.0637 0.0000 -38.0566
#
#
#
# Elastic Compliance Matrix: (Units=1/GPa)
#
#
# Indices 1 2 3 4 5 6 
#
# 1 0.013678 -0.000463 -0.001339 0.000000 -0.008380 0.000000
# 2 -0.000463 0.015831 -0.008050 0.000000 -0.004538 0.000000
# 3 -0.001339 -0.008050 0.033064 0.000000 -0.005332 0.000000
# 4 0.000000 0.000000 0.000000 0.036448 0.000000 0.039328
# 5 -0.008380 -0.004538 -0.005332 0.000000 0.078338 0.000000
# 6 0.000000 0.000000 0.000000 0.039328 0.000000 0.016159
#
#
# Mechanical properties :
#
#
# Convention : Reuss Voigt Hill
#
# Bulk Modulus (GPa) = 23.32697 29.06790 26.19743
# Shear Modulus (GPa) = 21.97705 2.31570 12.14638
#
# Velocity S-wave (km/s) = 3.68681 1.19676 2.74088
# Velocity P-wave (km/s) = 5.70534 4.45958 5.12049
#
# Compressibility (1/GPa) = 0.04286883
#
# Stress axis : x y z
#
# Youngs Moduli (GPa) = 73.11190 63.16891 30.24430
#
# Poissons Ratio (x) = 0.02925 0.04049
# Poissons Ratio (y) = 0.03385 0.24347
# Poissons Ratio (z) = 0.09788 0.50851
#
# Static dielectric constant tensor:
#      x y z
#    x 1.555000 0.000000 0.003460 
#    y 0.000000 1.607020 0.000000 
#    z 0.003460 0.000000 1.523800 
# 
# From -- ./inp_files/59584.got.cif
#   From: 2010.05.17/outbox.cif.g08.bks.cpg/sg10_30_cif.got.tgz:59584.got - 2010.06.03 11:33:40.
