data_PCOD9144775
_publ_section_title
;
Structure prediction by ZEFSAII (Michael W. Deem and Ramdas Pophale) SiO2 
 PCOD9144775
Probable space group: P 2/M
;
_chemical_formula_sum "Si O2"
_cell_formula_units_Z 32
_cell_length_a 17.398911
_cell_length_b 13.495389
_cell_length_c 20.922234
_cell_angle_alpha 90.000000
_cell_angle_beta 20.090102
_cell_angle_gamma 90.000000
_cell_volume 1687.481643
_symmetry_space_group_name_H-M "P 2/M"
_symmetry_group_IT_number 10
_symmetry_cell_setting 'monoclinic'
loop_
_space_group_symop_operation_xyz
x,y,z
-x,y,-z
-x,-y,-z
x,-y,z
loop_
_atom_site_type_symbol
_atom_site_label
_atom_site_fract_x
_atom_site_fract_y
_atom_site_fract_z
Si Si1 0.695622 0.615719 0.933675
Si Si2 0.255294 0.887287 0.279016
Si Si3 0.315389 0.879423 0.486106
Si Si4 0.927865 0.115131 0.706641
Si Si5 0.782067 0.880337 0.077622
Si Si6 0.338508 0.808594 0.968910
Si Si7 0.251251 0.879435 0.678062
Si Si8 0.166135 0.383152 0.314191
O O1 0.740971 0.500000 0.912967
O O2 0.833752 0.645151 0.761513
O O3 0.735744 0.696385 0.957347
O O4 0.428557 0.623279 0.127957
O O5 0.228003 0.845536 0.228730
O O6 0.405454 0.824914 0.209440
O O7 0.000000 0.891353 0.500000
O O8 0.344744 0.000000 0.207622
O O9 0.574766 0.848633 0.283308
O O10 0.209329 0.852111 0.636804
O O11 0.170272 0.843991 0.538664
O O12 0.310853 0.000000 0.486650
O O13 0.962941 0.000000 0.661179
O O14 0.791513 0.124065 0.878227
O O15 0.707615 0.845726 0.065489
O O16 0.786397 0.000000 0.076582
O O17 0.038548 0.847071 0.886099
O O18 0.500000 0.844413 0.500000
O O19 0.257674 0.000000 0.676865
O O20 0.111489 0.500000 0.354153
O O21 0.000000 0.341362 0.500000
#
# Coordination Sequence:
#
# PCOD9144775 Si02
#       8
#     4   4   4   4   4   4   4   4
#     4   9  20  34  46  66  90 112 151 201 244 293
#     4  10  21  33  44  64  93 125 168 212 241 273
#     4   9  17  31  48  66  94 128 159 193 230 268
#     4  10  19  31  45  62  89 123 160 200 236 271
#     4  10  19  32  49  69  96 128 160 193 230 274
#     4  12  21  31  48  66  89 127 163 197 244 284
#     4   9  17  30  48  70  97 128 158 187 223 272
#     4   8  15  32  52  63  79 110 147 197 254 292
#
# _framework density 18.963170000000002
#
# number of rings (size 3 to 8) (size 9 to 14) (size 15 to 20)
#    0.000    2.375    1.250    3.000    3.500    4.000 
#    2.250    2.500    0.000    0.000    0.000    0.000 
#    0.000    0.500    0.000    1.250    0.000    0.250 
#
# Total GULP energy -178267.068218 kJ/mol
# GULP energy per Si atom -5570.845882 kJ/mol
# Density = 1.892001 g / cm^3
# Si number density = 18.963170 Si / 1000 Ang^3
#
#
#
# Elastic Constant Matrix: (Units=GPa)
#
#
# Indices 1 2 3 4 5 6 
#
# 1 20.4329 -14.7335 14.2920 0.0000 -9.9581 0.0000
# 2 -14.7335 44.5918 -1.1667 0.0000 -1.9002 0.0000
# 3 14.2920 -1.1667 114.2904 0.0000 -6.0366 0.0000
# 4 0.0000 0.0000 0.0000 157.6035 0.0000 64.6483
# 5 -9.9581 -1.9002 -6.0366 0.0000 31.7070 0.0000
# 6 0.0000 0.0000 0.0000 64.6483 0.0000 34.9278
#
#
#
# Elastic Compliance Matrix: (Units=1/GPa)
#
#
# Indices 1 2 3 4 5 6 
#
# 1 0.092801 0.031651 -0.009740 0.000000 0.029188 0.000000
# 2 0.031651 0.033289 -0.003018 0.000000 0.011361 0.000000
# 3 -0.009740 -0.003018 0.009865 0.000000 -0.001362 0.000000
# 4 0.000000 0.000000 0.000000 0.026354 0.000000 -0.048779
# 5 0.029188 0.011361 -0.001362 0.000000 0.041127 0.000000
# 6 0.000000 0.000000 0.000000 -0.048779 0.000000 0.118916
#
#
# Mechanical properties :
#
#
# Convention : Reuss Voigt Hill
#
# Bulk Modulus (GPa) = 5.75571 19.56653 12.66112
# Shear Modulus (GPa) = 14.59943 56.90921 35.75432
#
# Velocity S-wave (km/s) = 2.77769 5.48412 4.34690
# Velocity P-wave (km/s) = 3.65092 7.10220 5.64670
#
# Compressibility (1/GPa) = 0.17374041
#
# Stress axis : x y z
#
# Youngs Moduli (GPa) = 10.77575 30.04037 101.36959
#
# Poissons Ratio (x) = -0.95081 0.98734
# Poissons Ratio (y) = -0.34106 0.30594
# Poissons Ratio (z) = 0.10496 0.09066
#
# Static dielectric constant tensor:
#      x y z
#    x 1.668730 0.000000 0.004640 
#    y 0.000000 1.670670 0.000000 
#    z 0.004640 0.000000 1.755580 
# 
# From -- ./inp_files/85945.got.cif
#   From: 2010.05.17/outbox.cif.g08.bks.cpg/sg10_43_cif.got.tgz:85945.got - 2010.06.03 11:33:40.
