data_PCOD9144018
_publ_section_title
;
Structure prediction by ZEFSAII (Michael W. Deem and Ramdas Pophale) SiO2 
 PCOD9144018
Probable space group: P 2/M
;
_chemical_formula_sum "Si O2"
_cell_formula_units_Z 26
_cell_length_a 12.089931
_cell_length_b 9.375077
_cell_length_c 26.628199
_cell_angle_alpha 90.000000
_cell_angle_beta 22.807321
_cell_angle_gamma 90.000000
_cell_volume 1169.934699
_symmetry_space_group_name_H-M "P 2/M"
_symmetry_group_IT_number 10
_symmetry_cell_setting 'monoclinic'
loop_
_space_group_symop_operation_xyz
x,y,z
-x,y,-z
-x,-y,-z
x,-y,z
loop_
_atom_site_type_symbol
_atom_site_label
_atom_site_fract_x
_atom_site_fract_y
_atom_site_fract_z
Si Si1 0.931228 0.832738 0.953523
Si Si2 0.858672 0.163502 0.765735
Si Si3 0.643558 0.167371 0.750005
Si Si4 0.500000 0.753996 0.500000
Si Si5 0.473719 0.667675 0.295104
Si Si6 0.851329 0.829916 0.877707
Si Si7 0.422940 0.659836 0.640439
O O1 0.761903 0.797671 0.972363
O O2 0.202673 0.730331 0.842966
O O3 0.023405 0.000000 0.912270
O O4 0.695502 0.822302 0.095412
O O5 0.791142 0.225893 0.739069
O O6 0.752747 0.226291 0.863986
O O7 0.202555 0.162210 0.627500
O O8 0.753986 0.000000 0.806617
O O9 0.696704 0.249601 0.676373
O O10 0.715697 0.000000 0.713980
O O11 0.536448 0.666949 0.536485
O O12 0.470390 0.500000 0.285434
O O13 0.385242 0.686660 0.390670
O O14 0.177546 0.777732 0.744434
O O15 0.830141 0.000000 0.881466
O O16 0.301047 0.500000 0.699147
#
# Coordination Sequence:
#
# PCOD9144018 Si02
#       7
#     4   4   4   2   4   4   4
#     4   9  17  30  51  76 102 135 170 202 239 287
#     4   9  18  32  51  76 103 129 162 208 254 296
#     4  10  20  33  49  73 105 137 169 203 240 287
#     4  10  18  34  58  76  93 122 163 208 259 308
#     4  10  20  34  51  73 103 136 168 201 240 290
#     4   8  15  29  49  74 101 129 162 201 246 292
#     4   9  18  32  52  76  98 123 160 206 251 297
#
# _framework density 22.223462000000001
#
# number of rings (size 3 to 8) (size 9 to 14) (size 15 to 20)
#    0.000    2.769    0.000    1.385    0.000    4.308 
#    0.000    7.692    0.000    3.692    0.000   15.077 
#    0.000    0.000    0.000    0.000    0.000    0.000 
#
# Total GULP energy -144759.333588 kJ/mol
# GULP energy per Si atom -5567.666676 kJ/mol
# Density = 2.217288 g / cm^3
# Si number density = 22.223462 Si / 1000 Ang^3
#
#
#
# Elastic Constant Matrix: (Units=GPa)
#
#
# Indices 1 2 3 4 5 6 
#
# 1 218.0314 51.3286 31.6381 0.0000 41.8201 0.0000
# 2 51.3286 49.1309 17.9947 0.0000 8.5729 0.0000
# 3 31.6381 17.9947 44.7573 0.0000 6.5587 0.0000
# 4 0.0000 0.0000 0.0000 -54.4260 0.0000 18.0932
# 5 41.8201 8.5729 6.5587 0.0000 42.5420 0.0000
# 6 0.0000 0.0000 0.0000 18.0932 0.0000 14.0452
#
#
#
# Elastic Compliance Matrix: (Units=1/GPa)
#
#
# Indices 1 2 3 4 5 6 
#
# 1 0.007385 -0.005991 -0.001969 0.000000 -0.005749 0.000000
# 2 -0.005991 0.029222 -0.007687 0.000000 0.001186 0.000000
# 3 -0.001969 -0.007687 0.026923 0.000000 -0.000666 0.000000
# 4 0.000000 0.000000 0.000000 -0.012864 0.000000 0.016572
# 5 -0.005749 0.001186 -0.000666 0.000000 0.029021 0.000000
# 6 0.000000 0.000000 0.000000 0.016572 0.000000 0.049850
#
#
# Mechanical properties :
#
#
# Convention : Reuss Voigt Hill
#
# Bulk Modulus (GPa) = 31.02283 57.09361 44.05822
# Shear Modulus (GPa) = 29.14123 14.49612 21.81867
#
# Velocity S-wave (km/s) = 3.62509 2.55677 3.13674
# Velocity P-wave (km/s) = 5.61351 5.87048 5.74343
#
# Compressibility (1/GPa) = 0.03223433
#
# Stress axis : x y z
#
# Youngs Moduli (GPa) = 135.40080 34.22109 37.14293
#
# Poissons Ratio (x) = 0.20503 0.07315
# Poissons Ratio (y) = 0.81124 0.28553
# Poissons Ratio (z) = 0.26665 0.26307
#
# Static dielectric constant tensor:
#      x y z
#    x 1.931790 0.000000 0.016200 
#    y 0.000000 1.754940 0.000000 
#    z 0.016200 0.000000 1.894670 
# 
# From -- ./inp_files/92650.got.cif
#   From: 2010.05.17/outbox.cif.g08.bks.cpg/sg10_47_cif.got.tgz:92650.got - 2010.06.03 11:33:40.
