data_PCOD9144765
_publ_section_title
;
Structure prediction by ZEFSAII (Michael W. Deem and Ramdas Pophale) SiO2 
 PCOD9144765
Probable space group: P 2/M
;
_chemical_formula_sum "Si O2"
_cell_formula_units_Z 28
_cell_length_a 24.157515
_cell_length_b 7.298692
_cell_length_c 22.072057
_cell_angle_alpha 90.000000
_cell_angle_beta 161.695772
_cell_angle_gamma 90.000000
_cell_volume 1222.239202
_symmetry_space_group_name_H-M "P 2/M"
_symmetry_group_IT_number 10
_symmetry_cell_setting 'monoclinic'
loop_
_space_group_symop_operation_xyz
x,y,z
-x,y,-z
-x,-y,-z
x,-y,z
loop_
_atom_site_type_symbol
_atom_site_label
_atom_site_fract_x
_atom_site_fract_y
_atom_site_fract_z
Si Si1 0.964220 0.718978 0.191718
Si Si2 0.701018 0.776528 0.698186
Si Si3 0.226517 0.278433 0.675337
Si Si4 0.189791 0.278013 0.768051
Si Si5 0.714668 0.723773 0.395380
Si Si6 0.972607 0.216236 0.881814
Si Si7 0.645695 0.723217 0.933600
O O1 0.961353 0.500000 0.194566
O O2 0.102718 0.785150 0.385813
O O3 0.024851 0.756564 0.186994
O O4 0.770239 0.785205 0.008634
O O5 0.500000 0.714049 0.500000
O O6 0.799526 0.717717 0.738262
O O7 0.692561 0.000000 0.690044
O O8 0.843850 0.717138 0.897523
O O9 0.244658 0.500000 0.695477
O O10 0.276139 0.215153 0.794385
O O11 0.314148 0.216392 0.703942
O O12 0.018253 0.236430 0.451027
O O13 0.202129 0.500000 0.781190
O O14 0.271339 0.217831 0.915886
O O15 0.718321 0.500000 0.397257
O O16 0.555910 0.780652 0.273712
O O17 0.974197 0.000000 0.894548
O O18 0.645256 0.500000 0.932855
#
# Coordination Sequence:
#
# PCOD9144765 Si02
#       7
#     4   4   4   4   4   4   4
#     4  10  19  31  44  62  94 127 150 178 216 258
#     4   8  15  31  54  76  96 116 142 180 220 254
#     4   8  12  19  32  49  72 105 145 188 230 267
#     4   8  12  19  32  49  72 105 145 188 230 267
#     4   9  16  25  37  54  80 117 154 183 220 270
#     4   9  18  32  52  75  93 116 150 180 211 256
#     4   9  16  25  37  54  80 117 154 183 220 270
#
# _framework density 22.908774000000001
#
# number of rings (size 3 to 8) (size 9 to 14) (size 15 to 20)
#    0.000    3.286    1.429    1.714    0.000    1.714 
#    0.000    4.286    0.000    0.857    0.000    0.000 
#    0.000    2.286    0.000    2.571    0.000    2.857 
#
# Total GULP energy -156204.128988 kJ/mol
# GULP energy per Si atom -5578.718892 kJ/mol
# Density = 2.285663 g / cm^3
# Si number density = 22.908774 Si / 1000 Ang^3
#
#
#
# Elastic Constant Matrix: (Units=GPa)
#
#
# Indices 1 2 3 4 5 6 
#
# 1 168.3778 -1.7205 51.6091 0.0000 19.3736 0.0000
# 2 -1.7205 91.1488 2.2883 0.0000 5.1929 0.0000
# 3 51.6091 2.2883 56.6676 0.0000 27.2981 0.0000
# 4 0.0000 0.0000 0.0000 -16.4438 0.0000 -4.5294
# 5 19.3736 5.1929 27.2981 0.0000 36.4185 0.0000
# 6 0.0000 0.0000 0.0000 -4.5294 0.0000 5.1569
#
#
#
# Elastic Compliance Matrix: (Units=1/GPa)
#
#
# Indices 1 2 3 4 5 6 
#
# 1 0.008334 0.000262 -0.008525 0.000000 0.001919 0.000000
# 2 0.000262 0.011078 0.000222 0.000000 -0.001886 0.000000
# 3 -0.008525 0.000222 0.036362 0.000000 -0.022753 0.000000
# 4 0.000000 0.000000 0.000000 -0.048967 0.000000 -0.043008
# 5 0.001919 -0.001886 -0.022753 0.000000 0.043761 0.000000
# 6 0.000000 0.000000 0.000000 -0.043008 0.000000 0.156139
#
#
# Mechanical properties :
#
#
# Convention : Reuss Voigt Hill
#
# Bulk Modulus (GPa) = 25.19356 46.72756 35.96056
# Shear Modulus (GPa) = 21.18465 22.62748 21.90606
#
# Velocity S-wave (km/s) = 3.04425 3.14621 3.09565
# Velocity P-wave (km/s) = 4.83506 5.79998 5.33936
#
# Compressibility (1/GPa) = 0.03969268
#
# Stress axis : x y z
#
# Youngs Moduli (GPa) = 119.99215 90.27007 27.50095
#
# Poissons Ratio (x) = -0.02365 0.23445
# Poissons Ratio (y) = -0.03144 -0.00612
# Poissons Ratio (z) = 1.02295 -0.02008
#
# Static dielectric constant tensor:
#      x y z
#    x 1.871000 0.000000 0.021080 
#    y 0.000000 1.936370 0.000000 
#    z 0.021080 0.000000 1.825830 
# 
# From -- ./inp_files/79592.got.cif
#   From: 2010.05.17/outbox.cif.g08.bks.cpg/sg10_40_cif.got.tgz:79592.got - 2010.06.03 11:33:40.
