data_PCOD9144777
_publ_section_title
;
Structure prediction by ZEFSAII (Michael W. Deem and Ramdas Pophale) SiO2 
 PCOD9144777
Probable space group: P 2/M
;
_chemical_formula_sum "Si O2"
_cell_formula_units_Z 32
_cell_length_a 16.109453
_cell_length_b 7.770852
_cell_length_c 13.387608
_cell_angle_alpha 90.000000
_cell_angle_beta 106.596666
_cell_angle_gamma 90.000000
_cell_volume 1606.096629
_symmetry_space_group_name_H-M "P 2/M"
_symmetry_group_IT_number 10
_symmetry_cell_setting 'monoclinic'
loop_
_space_group_symop_operation_xyz
x,y,z
-x,y,-z
-x,-y,-z
x,-y,z
loop_
_atom_site_type_symbol
_atom_site_label
_atom_site_fract_x
_atom_site_fract_y
_atom_site_fract_z
Si Si1 0.301878 0.307778 0.765841
Si Si2 0.933622 0.709275 0.619939
Si Si3 0.098259 0.791934 0.038376
Si Si4 0.881109 0.709020 0.374035
Si Si5 0.796251 0.697001 0.732880
Si Si6 0.657859 0.702643 0.829167
Si Si7 0.491394 0.799955 0.881231
Si Si8 0.762369 0.195775 0.056460
O O1 0.315140 0.500000 0.729290
O O2 0.215378 0.228677 0.686311
O O3 0.394646 0.217503 0.804761
O O4 0.274716 0.314736 0.872186
O O5 0.936651 0.500000 0.631612
O O6 0.902822 0.746632 0.496699
O O7 0.860661 0.775678 0.671877
O O8 0.034468 0.768576 0.660590
O O9 0.147112 0.705108 0.146646
O O10 0.143910 0.751157 0.949681
O O11 0.105119 0.000000 0.053937
O O12 0.000000 0.740595 0.000000
O O13 0.877917 0.500000 0.362258
O O14 0.780591 0.500000 0.695111
O O15 0.703151 0.766377 0.741591
O O16 0.678790 0.500000 0.841671
O O17 0.557692 0.721535 0.823513
O O18 0.704992 0.795694 0.937328
O O19 0.514424 0.000000 0.897290
O O20 0.500000 0.730536 0.000000
O O21 0.762316 0.000000 0.093959
#
# Coordination Sequence:
#
# PCOD9144777 Si02
#       8
#     4   4   4   4   4   4   4   4
#     4  11  21  31  49  77 102 128 165 211 253 288
#     4   8  14  30  52  75 105 134 162 200 249 302
#     4   9  19  32  43  61  95 137 171 199 236 289
#     4   8  16  29  49  77 105 133 164 201 248 299
#     4   9  18  30  50  76  98 125 163 207 250 290
#     4  10  19  32  49  73 100 126 163 209 247 286
#     4  11  22  35  52  71  96 136 174 201 246 304
#     4  10  19  31  45  64  96 136 170 198 239 294
#
# _framework density 19.92408
#
# number of rings (size 3 to 8) (size 9 to 14) (size 15 to 20)
#    0.000    2.500    1.250    2.250    1.750    1.750 
#    0.000    0.000    0.000    2.250    0.000    9.625 
#    0.000    0.000    0.000    0.000    0.000    0.000 
#
# Total GULP energy -178160.557237 kJ/mol
# GULP energy per Si atom -5567.517414 kJ/mol
# Density = 1.987873 g / cm^3
# Si number density = 19.924080 Si / 1000 Ang^3
#
#
#
# Elastic Constant Matrix: (Units=GPa)
#
#
# Indices 1 2 3 4 5 6 
#
# 1 189.6469 12.5271 45.5197 0.0000 6.2316 0.0000
# 2 12.5271 33.1854 -2.8550 0.0000 -3.3558 0.0000
# 3 45.5197 -2.8550 42.4617 0.0000 7.1946 0.0000
# 4 0.0000 0.0000 0.0000 -40.2927 0.0000 31.7445
# 5 6.2316 -3.3558 7.1946 0.0000 30.5567 0.0000
# 6 0.0000 0.0000 0.0000 31.7445 0.0000 -30.7876
#
#
#
# Elastic Compliance Matrix: (Units=1/GPa)
#
#
# Indices 1 2 3 4 5 6 
#
# 1 0.007492 -0.003537 -0.008274 0.000000 0.000032 0.000000
# 2 -0.003537 0.032239 0.005454 0.000000 0.002978 0.000000
# 3 -0.008274 0.005454 0.033746 0.000000 -0.005659 0.000000
# 4 0.000000 0.000000 0.000000 -0.132247 0.000000 -0.136357
# 5 0.000032 0.002978 -0.005659 0.000000 0.034379 0.000000
# 6 0.000000 0.000000 0.000000 -0.136357 0.000000 -0.173075
#
#
# Mechanical properties :
#
#
# Convention : Reuss Voigt Hill
#
# Bulk Modulus (GPa) = 16.45708 41.74195 29.09951
# Shear Modulus (GPa) = -30.39548 5.90209 -12.24669
#
# Velocity S-wave (km/s) = -3.91009 1.72300 -2.48194
# Velocity P-wave (km/s) = 3.47954 4.99543 2.53447
#
# Compressibility (1/GPa) = 0.06076414
#
# Stress axis : x y z
#
# Youngs Moduli (GPa) = 133.48411 31.01828 29.63275
#
# Poissons Ratio (x) = 0.10970 0.24519
# Poissons Ratio (y) = 0.47207 -0.16163
# Poissons Ratio (z) = 1.10448 -0.16919
#
# Static dielectric constant tensor:
#      x y z
#    x 1.794070 0.000000 0.008970 
#    y 0.000000 1.745250 0.000000 
#    z 0.008970 0.000000 1.671250 
# 
# From -- ./inp_files/66571.got.cif
#   From: 2010.05.17/outbox.cif.g08.bks.cpg/sg10_34_cif.got.tgz:66571.got - 2010.06.03 11:33:40.
