data_PCOD9144325
_publ_section_title
;
Structure prediction by ZEFSAII (Michael W. Deem and Ramdas Pophale) SiO2 
 PCOD9144325
Probable space group: P 2/M
;
_chemical_formula_sum "Si O2"
_cell_formula_units_Z 28
_cell_length_a 14.190916
_cell_length_b 8.983592
_cell_length_c 21.374899
_cell_angle_alpha 90.000000
_cell_angle_beta 138.861282
_cell_angle_gamma 90.000000
_cell_volume 1792.726576
_symmetry_space_group_name_H-M "P 2/M"
_symmetry_group_IT_number 10
_symmetry_cell_setting 'monoclinic'
loop_
_space_group_symop_operation_xyz
x,y,z
-x,y,-z
-x,-y,-z
x,-y,z
loop_
_atom_site_type_symbol
_atom_site_label
_atom_site_fract_x
_atom_site_fract_y
_atom_site_fract_z
Si Si1 0.801356 0.320474 0.526533
Si Si2 0.665977 0.176739 0.335314
Si Si3 0.665977 0.823261 0.830663
Si Si4 0.801356 0.320474 0.774823
Si Si5 0.088641 0.671014 0.978899
Si Si6 0.911359 0.671014 0.390258
Si Si7 0.329206 0.177470 0.414603
O O1 0.792169 0.500000 0.522379
O O2 0.714694 0.258507 0.423392
O O3 0.738379 0.250931 0.557650
O O4 0.969117 0.280464 0.599883
O O5 0.500000 0.209842 0.239279
O O6 0.772569 0.230923 0.334054
O O7 0.681756 0.000000 0.352363
O O8 0.714694 0.741493 0.791302
O O9 0.681756 0.000000 0.829393
O O10 0.772569 0.769077 0.938515
O O11 0.792169 0.500000 0.769790
O O12 0.738379 0.250931 0.680729
O O13 0.969117 0.280464 0.869234
O O14 0.130365 0.500000 0.987559
O O15 0.000000 0.672063 0.000000
O O16 0.869635 0.500000 0.357194
O O17 0.000000 0.672063 0.500000
O O18 0.500000 0.202898 0.500000
O O19 0.304980 0.000000 0.402490
#
# Coordination Sequence:
#
# PCOD9144325 Si02
#       7
#     4   4   4   4   4   4   4
#     4  10  20  33  48  66  90 122 158 191 224 266
#     4  10  19  29  44  69  97 122 150 186 228 272
#     4  10  19  29  44  69  97 122 150 186 228 272
#     4  10  20  33  48  66  90 122 158 191 224 266
#     4   8  16  30  46  65  88 116 152 189 225 269
#     4   8  16  30  46  65  88 116 152 189 225 269
#     4  11  23  35  47  67  94 123 156 189 221 264
#
# _framework density 15.618668
#
# number of rings (size 3 to 8) (size 9 to 14) (size 15 to 20)
#    0.000    2.429    0.000    4.714    0.000   13.143 
#    0.000    0.000    0.000    0.000    0.000    1.000 
#    0.000    8.000    0.000    0.000    0.000    0.000 
#
# Total GULP energy -156076.844349 kJ/mol
# GULP energy per Si atom -5574.173012 kJ/mol
# Density = 1.558312 g / cm^3
# Si number density = 15.618668 Si / 1000 Ang^3
#
#
#
# Elastic Constant Matrix: (Units=GPa)
#
#
# Indices 1 2 3 4 5 6 
#
# 1 108.4409 59.8429 58.3387 0.0000 19.1308 0.0000
# 2 59.8429 76.9289 64.4850 0.0000 18.2302 0.0000
# 3 58.3387 64.4850 117.8150 0.0000 17.6828 0.0000
# 4 0.0000 0.0000 0.0000 26.0793 0.0000 3.3458
# 5 19.1308 18.2302 17.6828 0.0000 21.8003 0.0000
# 6 0.0000 0.0000 0.0000 3.3458 0.0000 25.2273
#
#
#
# Elastic Compliance Matrix: (Units=1/GPa)
#
#
# Indices 1 2 3 4 5 6 
#
# 1 0.016778 -0.010328 -0.001983 0.000000 -0.004478 0.000000
# 2 -0.010328 0.032803 -0.011481 0.000000 -0.009055 0.000000
# 3 -0.001983 -0.011481 0.015999 0.000000 -0.001637 0.000000
# 4 0.000000 0.000000 0.000000 0.039008 0.000000 -0.005174
# 5 -0.004478 -0.009055 -0.001637 0.000000 0.058700 0.000000
# 6 0.000000 0.000000 0.000000 -0.005174 0.000000 0.040326
#
#
# Mechanical properties :
#
#
# Convention : Reuss Voigt Hill
#
# Bulk Modulus (GPa) = 55.56747 74.27977 64.92362
# Shear Modulus (GPa) = 19.44025 22.65594 21.04809
#
# Velocity S-wave (km/s) = 3.53183 3.81276 3.67498
# Velocity P-wave (km/s) = 7.23095 8.18807 7.72435
#
# Compressibility (1/GPa) = 0.01799614
#
# Stress axis : x y z
#
# Youngs Moduli (GPa) = 59.60191 30.48474 62.50214
#
# Poissons Ratio (x) = 0.31486 0.12392
# Poissons Ratio (y) = 0.61559 0.71760
# Poissons Ratio (z) = 0.11817 0.35000
#
# Static dielectric constant tensor:
#      x y z
#    x 1.515950 0.000000 0.015640 
#    y 0.000000 1.522830 0.000000 
#    z 0.015640 0.000000 1.519930 
# 
# From -- ./inp_files/83413.got.cif
#   From: 2010.05.17/outbox.cif.g08.bks.cpg/sg10_42_cif.got.tgz:83413.got - 2010.06.03 11:33:40.
