data_PCOD9144214
_publ_section_title
;
Structure prediction by ZEFSAII (Michael W. Deem and Ramdas Pophale) SiO2 
 PCOD9144214
Probable space group: P 2/M
;
_chemical_formula_sum "Si O2"
_cell_formula_units_Z 32
_cell_length_a 27.599624
_cell_length_b 8.918550
_cell_length_c 14.043477
_cell_angle_alpha 90.000000
_cell_angle_beta 139.750873
_cell_angle_gamma 90.000000
_cell_volume 2233.469915
_symmetry_space_group_name_H-M "P 2/M"
_symmetry_group_IT_number 10
_symmetry_cell_setting 'monoclinic'
loop_
_space_group_symop_operation_xyz
x,y,z
-x,y,-z
-x,-y,-z
x,-y,z
loop_
_atom_site_type_symbol
_atom_site_label
_atom_site_fract_x
_atom_site_fract_y
_atom_site_fract_z
Si Si1 0.758906 0.679105 0.032811
Si Si2 0.925933 0.320918 0.283033
Si Si3 0.381953 0.319169 0.866007
Si Si4 0.464760 0.180220 0.595282
Si Si5 0.074066 0.820918 0.505231
Si Si6 0.381953 0.819169 0.279851
Si Si7 0.464760 0.319780 0.798997
Si Si8 0.241094 0.179105 0.756091
O O1 0.751978 0.500000 0.031381
O O2 0.693568 0.744014 0.869468
O O3 0.842814 0.711659 0.119130
O O4 0.752309 0.750000 0.128464
O O5 0.934988 0.500000 0.303099
O O6 0.923347 0.249997 0.385021
O O7 1.000000 0.250002 0.346871
O O8 0.374748 0.500000 0.858461
O O9 0.407807 0.276699 0.798208
O O10 0.306432 0.244014 0.788761
O O11 0.451761 0.277684 0.039417
O O12 0.548238 0.222316 0.684131
O O13 0.407806 0.223301 0.425213
O O14 0.448382 0.250000 0.672573
O O15 0.463339 0.000000 0.599770
O O16 0.157186 0.788340 0.590686
O O17 0.065011 0.000000 0.498129
O O18 0.374748 0.000000 0.265783
O O19 0.463340 0.500000 0.790248
O O20 0.248021 0.000000 0.775443
#
# Coordination Sequence:
#
# PCOD9144214 Si02
#       8
#     4   4   4   4   4   4   4   4
#     4  10  19  28  40  60  84 110 140 172 204 240
#     4   9  16  25  37  54  77 105 136 166 197 236
#     4   9  18  31  44  60  83 109 138 171 205 242
#     4   9  18  31  45  61  82 108 138 172 207 242
#     4   9  16  25  37  54  77 105 136 166 197 236
#     4   9  18  31  44  60  83 109 138 171 205 242
#     4   9  18  31  45  61  82 108 138 172 207 242
#     4  10  19  28  40  60  84 110 140 172 204 240
#
# _framework density 14.327482
#
# number of rings (size 3 to 8) (size 9 to 14) (size 15 to 20)
#    0.000    2.750    0.000    4.500    0.000    7.000 
#    0.000    2.500    0.000    0.000    0.000    0.000 
#    0.000    1.000    0.000   11.000    0.000    8.000 
#
# Total GULP energy -178200.433309 kJ/mol
# GULP energy per Si atom -5568.763541 kJ/mol
# Density = 1.429487 g / cm^3
# Si number density = 14.327482 Si / 1000 Ang^3
#
#
#
# Elastic Constant Matrix: (Units=GPa)
#
#
# Indices 1 2 3 4 5 6 
#
# 1 94.8130 37.3970 67.9647 0.0000 16.1495 0.0000
# 2 37.3970 43.7073 44.5600 0.0000 12.7280 0.0000
# 3 67.9647 44.5600 116.4523 0.0000 22.3018 0.0000
# 4 0.0000 0.0000 0.0000 26.6763 0.0000 3.5175
# 5 16.1495 12.7280 22.3018 0.0000 28.9017 0.0000
# 6 0.0000 0.0000 0.0000 3.5175 0.0000 24.6969
#
#
#
# Elastic Compliance Matrix: (Units=1/GPa)
#
#
# Indices 1 2 3 4 5 6 
#
# 1 0.019918 -0.008336 -0.008222 0.000000 -0.001115 0.000000
# 2 -0.008336 0.042036 -0.010052 0.000000 -0.006098 0.000000
# 3 -0.008222 -0.010052 0.018193 0.000000 -0.005018 0.000000
# 4 0.000000 0.000000 0.000000 0.038204 0.000000 -0.005441
# 5 -0.001115 -0.006098 -0.005018 0.000000 0.041780 0.000000
# 6 0.000000 0.000000 0.000000 -0.005441 0.000000 0.041266
#
#
# Mechanical properties :
#
#
# Convention : Reuss Voigt Hill
#
# Bulk Modulus (GPa) = 37.13644 61.64622 49.39133
# Shear Modulus (GPa) = 18.96868 23.05835 21.01351
#
# Velocity S-wave (km/s) = 3.64254 4.01606 3.83385
# Velocity P-wave (km/s) = 6.60809 8.03896 7.35839
#
# Compressibility (1/GPa) = 0.02692773
#
# Stress axis : x y z
#
# Youngs Moduli (GPa) = 50.20460 23.78927 54.96651
#
# Poissons Ratio (x) = 0.19831 0.45192
# Poissons Ratio (y) = 0.41851 0.55252
# Poissons Ratio (z) = 0.41277 0.23913
#
# Static dielectric constant tensor:
#      x y z
#    x 1.466330 0.000000 0.032200 
#    y 0.000000 1.477650 0.000000 
#    z 0.032200 0.000000 1.484450 
# 
# From -- ./inp_files/72043.got.cif
#   From: 2010.05.17/outbox.cif.g08.bks.cpg/sg10_37_cif.got.tgz:72043.got - 2010.06.03 11:33:40.
