data_PCOD9144448
_publ_section_title
;
Structure prediction by ZEFSAII (Michael W. Deem and Ramdas Pophale) SiO2 
 PCOD9144448
Probable space group: P 2/M
;
_chemical_formula_sum "Si O2"
_cell_formula_units_Z 32
_cell_length_a 11.922457
_cell_length_b 7.355291
_cell_length_c 20.224886
_cell_angle_alpha 90.000000
_cell_angle_beta 125.181094
_cell_angle_gamma 90.000000
_cell_volume 1449.612200
_symmetry_space_group_name_H-M "P 2/M"
_symmetry_group_IT_number 10
_symmetry_cell_setting 'monoclinic'
loop_
_space_group_symop_operation_xyz
x,y,z
-x,y,-z
-x,-y,-z
x,-y,z
loop_
_atom_site_type_symbol
_atom_site_label
_atom_site_fract_x
_atom_site_fract_y
_atom_site_fract_z
Si Si1 0.970452 0.705626 0.742495
Si Si2 0.388002 0.279777 0.557278
Si Si3 0.770562 0.780287 0.933081
Si Si4 0.511469 0.786939 0.928025
Si Si5 0.327387 0.278626 0.384469
Si Si6 0.151994 0.278099 0.577017
Si Si7 0.768203 0.720031 0.246636
Si Si8 0.037966 0.219062 0.111430
O O1 0.960486 0.500000 0.711499
O O2 0.822370 0.792122 0.682392
O O3 0.987544 0.700476 0.826150
O O4 0.102658 0.786149 0.752560
O O5 0.387326 0.500000 0.561755
O O6 0.353452 0.234528 0.469847
O O7 0.545753 0.218031 0.618048
O O8 0.270798 0.216737 0.566978
O O9 0.635020 0.711598 0.924132
O O10 0.822821 0.719063 0.878418
O O11 0.758095 0.000000 0.924037
O O12 0.903396 0.740213 0.022781
O O13 0.371609 0.774220 0.838112
O O14 0.544426 0.000000 0.948036
O O15 0.500000 0.713758 0.000000
O O16 0.326863 0.500000 0.379302
O O17 0.148543 0.500000 0.575797
O O18 0.199257 0.223270 0.666875
O O19 0.000000 0.221214 0.500000
O O20 0.764136 0.500000 0.245365
O O21 0.044243 0.000000 0.119556
#
# Coordination Sequence:
#
# PCOD9144448 Si02
#       8
#     4   4   4   4   4   4   4   4
#     4  10  19  30  44  67  99 125 150 193 245 285
#     4   8  13  23  40  61  85 118 160 194 226 277
#     4   8  16  32  52  72  92 117 155 199 236 275
#     4  10  20  35  55  75  97 130 168 201 238 291
#     4   8  14  24  39  61  89 118 149 193 239 274
#     4   9  16  27  44  65  93 130 165 196 236 290
#     4  10  21  33  47  73 104 131 163 205 249 289
#     4   9  17  32  53  71  89 118 156 195 234 282
#
# _framework density 22.074871000000002
#
# number of rings (size 3 to 8) (size 9 to 14) (size 15 to 20)
#    0.000    3.000    0.000    3.000    0.000    5.750 
#    0.000    3.750    0.000    0.375    0.000    2.625 
#    0.000    0.000    0.000    0.000    0.000    0.000 
#
# Total GULP energy -178404.936394 kJ/mol
# GULP energy per Si atom -5575.154262 kJ/mol
# Density = 2.202463 g / cm^3
# Si number density = 22.074871 Si / 1000 Ang^3
#
#
#
# Elastic Constant Matrix: (Units=GPa)
#
#
# Indices 1 2 3 4 5 6 
#
# 1 256.7200 4.4839 83.0282 0.0000 10.3637 0.0000
# 2 4.4839 76.7246 -6.4824 0.0000 0.4326 0.0000
# 3 83.0282 -6.4824 86.8131 0.0000 6.3725 0.0000
# 4 0.0000 0.0000 0.0000 23.5003 0.0000 -3.5324
# 5 10.3637 0.4326 6.3725 0.0000 36.4651 0.0000
# 6 0.0000 0.0000 0.0000 -3.5324 0.0000 -3.1213
#
#
#
# Elastic Compliance Matrix: (Units=1/GPa)
#
#
# Indices 1 2 3 4 5 6 
#
# 1 0.005703 -0.000791 -0.005466 0.000000 -0.000656 0.000000
# 2 -0.000791 0.013230 0.001762 0.000000 -0.000240 0.000000
# 3 -0.005466 0.001762 0.016983 0.000000 -0.001435 0.000000
# 4 0.000000 0.000000 0.000000 0.036366 0.000000 -0.041157
# 5 -0.000656 -0.000240 -0.001435 0.000000 0.027864 0.000000
# 6 0.000000 0.000000 0.000000 -0.041157 0.000000 -0.273804
#
#
# Mechanical properties :
#
#
# Convention : Reuss Voigt Hill
#
# Bulk Modulus (GPa) = 37.13662 64.70191 50.91927
# Shear Modulus (GPa) = -32.11459 33.98404 0.93472
#
# Velocity S-wave (km/s) = -3.81833 3.92789 0.65142
# Velocity P-wave (km/s) = 1.60622 7.06717 4.86647
#
# Compressibility (1/GPa) = 0.02692760
#
# Stress axis : x y z
#
# Youngs Moduli (GPa) = 175.33790 75.58506 58.88164
#
# Poissons Ratio (x) = 0.05982 0.32182
# Poissons Ratio (y) = 0.13876 -0.10377
# Poissons Ratio (z) = 0.95832 -0.13321
#
# Static dielectric constant tensor:
#      x y z
#    x 1.812420 0.000000 0.007920 
#    y 0.000000 1.916070 0.000000 
#    z 0.007920 0.000000 1.799690 
# 
# From -- ./inp_files/83645.got.cif
#   From: 2010.05.17/outbox.cif.g08.bks.cpg/sg10_42_cif.got.tgz:83645.got - 2010.06.03 11:33:40.
