data_PCOD9144289
_publ_section_title
;
Structure prediction by ZEFSAII (Michael W. Deem and Ramdas Pophale) SiO2 
 PCOD9144289
Probable space group: P 2/M
;
_chemical_formula_sum "Si O2"
_cell_formula_units_Z 24
_cell_length_a 14.694110
_cell_length_b 7.617940
_cell_length_c 11.297825
_cell_angle_alpha 90.000000
_cell_angle_beta 78.909646
_cell_angle_gamma 90.000000
_cell_volume 1241.047969
_symmetry_space_group_name_H-M "P 2/M"
_symmetry_group_IT_number 10
_symmetry_cell_setting 'monoclinic'
loop_
_space_group_symop_operation_xyz
x,y,z
-x,y,-z
-x,-y,-z
x,-y,z
loop_
_atom_site_type_symbol
_atom_site_label
_atom_site_fract_x
_atom_site_fract_y
_atom_site_fract_z
Si Si1 0.905869 0.792360 0.579801
Si Si2 0.859078 0.285025 0.101885
Si Si3 0.521908 0.287918 0.628940
Si Si4 0.329319 0.296674 0.742965
Si Si5 0.283391 0.792371 0.486913
Si Si6 0.048707 0.288333 0.166381
O O1 0.811222 0.722420 0.546509
O O2 0.911914 0.771018 0.718828
O O3 0.000000 0.716774 0.500000
O O4 0.905152 0.000000 0.553992
O O5 0.857491 0.500000 0.105334
O O6 0.758452 0.219171 0.166326
O O7 0.942407 0.230590 0.169133
O O8 0.891165 0.232789 0.962487
O O9 0.500000 0.229063 0.500000
O O10 0.519088 0.500000 0.631235
O O11 0.433923 0.222824 0.726645
O O12 0.627981 0.234998 0.620954
O O13 0.335328 0.500000 0.778310
O O14 0.304024 0.291721 0.609497
O O15 0.275541 0.000000 0.510423
O O16 0.048112 0.500000 0.166367
#
# Coordination Sequence:
#
# PCOD9144289 Si02
#       6
#     4   4   4   4   4   4
#     4  10  21  34  45  62  92 123 148 178 217 260
#     4   8  15  29  48  70  93 113 140 183 225 258
#     4   8  15  27  43  64  88 115 146 180 219 261
#     4   9  16  28  47  68  91 117 144 178 221 265
#     4  10  19  29  43  64  91 120 147 181 221 257
#     4   9  17  30  49  70  90 115 147 181 218 260
#
# _framework density 19.338495999999999
#
# number of rings (size 3 to 8) (size 9 to 14) (size 15 to 20)
#    0.000    3.000    0.000    3.500    0.000    4.667 
#    0.000    2.500    0.000    1.000    0.000    7.000 
#    0.000    0.000    0.000    0.000    0.000    0.000 
#
# Total GULP energy -133715.682897 kJ/mol
# GULP energy per Si atom -5571.486787 kJ/mol
# Density = 1.929448 g / cm^3
# Si number density = 19.338496 Si / 1000 Ang^3
#
#
#
# Elastic Constant Matrix: (Units=GPa)
#
#
# Indices 1 2 3 4 5 6 
#
# 1 167.0590 2.7845 42.3766 0.0000 -26.7562 0.0000
# 2 2.7845 39.4515 -11.9308 0.0000 -5.0200 0.0000
# 3 42.3766 -11.9308 37.4955 0.0000 -8.4474 0.0000
# 4 0.0000 0.0000 0.0000 13.2345 0.0000 5.0437
# 5 -26.7562 -5.0200 -8.4474 0.0000 33.3897 0.0000
# 6 0.0000 0.0000 0.0000 5.0437 0.0000 14.2157
#
#
#
# Elastic Compliance Matrix: (Units=1/GPa)
#
#
# Indices 1 2 3 4 5 6 
#
# 1 0.009483 -0.003385 -0.010813 0.000000 0.004354 0.000000
# 2 -0.003385 0.030822 0.014916 0.000000 0.005695 0.000000
# 3 -0.010813 0.014916 0.044740 0.000000 0.004897 0.000000
# 4 0.000000 0.000000 0.000000 0.087375 0.000000 -0.031000
# 5 0.004354 0.005695 0.004897 0.000000 0.035533 0.000000
# 6 0.000000 0.000000 0.000000 -0.031000 0.000000 0.081344
#
#
# Mechanical properties :
#
#
# Convention : Reuss Voigt Hill
#
# Bulk Modulus (GPa) = 11.56328 34.49631 23.02979
# Shear Modulus (GPa) = 15.78841 26.21968 21.00404
#
# Velocity S-wave (km/s) = 2.86041 3.68615 3.29922
# Velocity P-wave (km/s) = 4.11116 5.99949 5.14274
#
# Compressibility (1/GPa) = 0.08648063
#
# Stress axis : x y z
#
# Youngs Moduli (GPa) = 105.45618 32.44420 22.35120
#
# Poissons Ratio (x) = 0.10984 0.24169
# Poissons Ratio (y) = 0.35701 -0.33340
# Poissons Ratio (z) = 1.14033 -0.48395
#
# Static dielectric constant tensor:
#      x y z
#    x 1.734510 0.000000 -0.040570 
#    y 0.000000 1.728730 0.000000 
#    z -0.040570 0.000000 1.639920 
# 
# From -- ./inp_files/45160.got.cif
#   From: 2010.05.17/outbox.cif.g08.bks.cpg/sg10_23_cif.got.tgz:45160.got - 2010.06.03 11:33:40.
