data_PCOD9144770
_publ_section_title
;
Structure prediction by ZEFSAII (Michael W. Deem and Ramdas Pophale) SiO2 
 PCOD9144770
Probable space group: P 2/M
;
_chemical_formula_sum "Si O2"
_cell_formula_units_Z 32
_cell_length_a 11.084005
_cell_length_b 8.030454
_cell_length_c 23.839033
_cell_angle_alpha 90.000000
_cell_angle_beta 37.673467
_cell_angle_gamma 90.000000
_cell_volume 1296.823204
_symmetry_space_group_name_H-M "P 2/M"
_symmetry_group_IT_number 10
_symmetry_cell_setting 'monoclinic'
loop_
_space_group_symop_operation_xyz
x,y,z
-x,y,-z
-x,-y,-z
x,-y,z
loop_
_atom_site_type_symbol
_atom_site_label
_atom_site_fract_x
_atom_site_fract_y
_atom_site_fract_z
Si Si1 0.746682 0.806725 0.706124
Si Si2 0.299420 0.310819 0.156941
Si Si3 0.769914 0.799041 0.576589
Si Si4 0.149360 0.703755 0.692987
Si Si5 0.231662 0.310569 0.902627
Si Si6 0.717017 0.184669 0.996314
Si Si7 0.854978 0.695691 0.184708
Si Si8 0.809681 0.301423 0.444826
O O1 0.684223 0.698081 0.781623
O O2 0.677455 0.747412 0.670282
O O3 0.984934 0.794302 0.620361
O O4 0.692181 0.000000 0.734283
O O5 0.299353 0.500000 0.137514
O O6 0.080805 0.240911 0.226340
O O7 0.494527 0.227675 0.061209
O O8 0.692098 0.733039 0.545621
O O9 0.000000 0.744903 0.500000
O O10 0.233285 0.000000 0.423600
O O11 0.151465 0.500000 0.694320
O O12 0.217066 0.764170 0.729058
O O13 0.252991 0.747202 0.595609
O O14 0.313444 0.500000 0.875035
O O15 0.294432 0.200475 0.931903
O O16 0.235368 0.232114 0.839224
O O17 0.000000 0.330151 0.000000
O O18 0.767458 0.000000 0.960040
O O19 0.904761 0.291785 0.907292
O O20 0.807711 0.500000 0.199691
O O21 0.846570 0.500000 0.429453
#
# Coordination Sequence:
#
# PCOD9144770 Si02
#       8
#     4   4   4   4   4   4   4   4
#     4   9  16  26  38  54  79 109 140 173 211 247
#     4  10  19  31  45  61  84 114 147 175 205 249
#     4   8  14  23  35  52  76 107 139 171 207 244
#     4   8  16  29  44  62  84 113 144 176 210 243
#     4   8  15  29  49  67  80 101 135 174 214 254
#     4  11  21  31  44  63  87 111 138 175 216 252
#     4   9  17  32  50  64  82 109 142 176 212 252
#     4   9  15  23  37  57  80 108 142 173 203 242
#
# _framework density 24.675685000000001
#
# number of rings (size 3 to 8) (size 9 to 14) (size 15 to 20)
#    0.000    3.000    0.000    4.500    0.000    5.500 
#    0.000    6.250    0.000    0.000    0.000    0.000 
#    0.000    1.000    0.000   11.500    0.000    5.000 
#
# Total GULP energy -178413.597940 kJ/mol
# GULP energy per Si atom -5575.424936 kJ/mol
# Density = 2.461952 g / cm^3
# Si number density = 24.675685 Si / 1000 Ang^3
#
#
#
# Elastic Constant Matrix: (Units=GPa)
#
#
# Indices 1 2 3 4 5 6 
#
# 1 43.3856 10.2762 100.4072 0.0000 41.3894 0.0000
# 2 10.2762 38.7741 -1.4957 0.0000 4.9897 0.0000
# 3 100.4072 -1.4957 76.3288 0.0000 43.5085 0.0000
# 4 0.0000 0.0000 0.0000 9.5211 0.0000 -14.2989
# 5 41.3894 4.9897 43.5085 0.0000 75.6070 0.0000
# 6 0.0000 0.0000 0.0000 -14.2989 0.0000 -78.8894
#
#
#
# Elastic Compliance Matrix: (Units=1/GPa)
#
#
# Indices 1 2 3 4 5 6 
#
# 1 -0.010118 0.003738 0.015427 0.000000 -0.003585 0.000000
# 2 0.003738 0.024884 -0.003463 0.000000 -0.001696 0.000000
# 3 0.015427 -0.003463 -0.003834 0.000000 -0.006010 0.000000
# 4 0.000000 0.000000 0.000000 0.082557 0.000000 -0.014964
# 5 -0.003585 -0.001696 -0.006010 0.000000 0.018759 0.000000
# 6 0.000000 0.000000 0.000000 -0.014964 0.000000 -0.009964
#
#
# Mechanical properties :
#
#
# Convention : Reuss Voigt Hill
#
# Bulk Modulus (GPa) = 23.62056 41.87374 32.74715
# Shear Modulus (GPa) = 58.82795 4.53447 31.68121
#
# Velocity S-wave (km/s) = 4.88797 1.35706 3.58705
# Velocity P-wave (km/s) = 6.43813 4.41157 5.51867
#
# Compressibility (1/GPa) = 0.04233601
#
# Stress axis : x y z
#
# Youngs Moduli (GPa) = -98.83306 40.18583 -260.83079
#
# Poissons Ratio (x) = -0.15022 4.02377
# Poissons Ratio (y) = 0.36944 -0.90325
# Poissons Ratio (z) = 1.52467 0.13916
#
# Static dielectric constant tensor:
#      x y z
#    x 2.035980 0.000000 0.021610 
#    y 0.000000 1.875350 0.000000 
#    z 0.021610 0.000000 2.040050 
# 
# From -- ./inp_files/88543.got.cif
#   From: 2010.05.17/outbox.cif.g08.bks.cpg/sg10_45_cif.got.tgz:88543.got - 2010.06.03 11:33:40.
