data_PCOD9144309
_publ_section_title
;
Structure prediction by ZEFSAII (Michael W. Deem and Ramdas Pophale) SiO2 
 PCOD9144309
Probable space group: P 2/M
;
_chemical_formula_sum "Si O2"
_cell_formula_units_Z 32
_cell_length_a 13.705943
_cell_length_b 8.838754
_cell_length_c 20.244651
_cell_angle_alpha 90.000000
_cell_angle_beta 59.820966
_cell_angle_gamma 90.000000
_cell_volume 2120.091321
_symmetry_space_group_name_H-M "P 2/M"
_symmetry_group_IT_number 10
_symmetry_cell_setting 'monoclinic'
loop_
_space_group_symop_operation_xyz
x,y,z
-x,y,-z
-x,-y,-z
x,-y,z
loop_
_atom_site_type_symbol
_atom_site_label
_atom_site_fract_x
_atom_site_fract_y
_atom_site_fract_z
Si Si1 0.332300 0.180465 0.943254
Si Si2 0.337555 0.175598 0.092494
Si Si3 0.017992 0.683479 0.329609
Si Si4 0.933928 0.823979 0.823680
Si Si5 0.914714 0.318919 0.970594
Si Si6 0.883747 0.324370 0.496963
Si Si7 0.449317 0.679696 0.179998
Si Si8 0.759237 0.684842 0.663458
O O1 0.429638 0.240760 0.862521
O O2 0.321742 0.000000 0.943417
O O3 0.368469 0.216957 0.006809
O O4 0.210117 0.253331 0.974030
O O5 0.201706 0.184815 0.140834
O O6 0.389745 0.279131 0.130865
O O7 0.370829 0.000000 0.093104
O O8 0.015665 0.500000 0.329020
O O9 0.010544 0.747395 0.258873
O O10 0.138571 0.727439 0.321682
O O11 0.920725 0.738678 0.413434
O O12 0.955740 0.743842 0.885977
O O13 0.964197 0.000000 0.817549
O O14 0.907754 0.500000 0.969574
O O15 0.000000 0.275991 0.000000
O O16 0.852949 0.500000 0.496230
O O17 0.791886 0.259036 0.578951
O O18 0.000000 0.324873 0.500000
O O19 0.463756 0.500000 0.180290
O O20 0.360530 0.731702 0.266132
O O21 0.760544 0.500000 0.661123
#
# Coordination Sequence:
#
# PCOD9144309 Si02
#       8
#     4   4   4   4   4   4   4   4
#     4  10  21  34  46  62  86 116 145 175 216 266
#     4   9  18  30  40  54  82 118 150 180 214 253
#     4   9  14  24  42  61  83 115 155 192 219 251
#     4  10  19  29  44  66  92 120 146 177 219 267
#     4  10  21  37  55  71  86 105 137 183 225 261
#     4   7  11  20  36  56  80 112 151 190 223 253
#     4  11  19  26  41  63  87 116 152 190 218 249
#     4   8  14  23  36  59  86 116 153 190 225 252
#
# _framework density 15.093691
#
# number of rings (size 3 to 8) (size 9 to 14) (size 15 to 20)
#    0.000    2.750    1.250    4.125    0.000    5.000 
#    0.000    0.000    0.000    4.875    0.000    0.000 
#    0.000    1.000    0.000   11.500    0.000    3.250 
#
# Total GULP energy -178227.213800 kJ/mol
# GULP energy per Si atom -5569.600431 kJ/mol
# Density = 1.505934 g / cm^3
# Si number density = 15.093691 Si / 1000 Ang^3
#
#
#
# Elastic Constant Matrix: (Units=GPa)
#
#
# Indices 1 2 3 4 5 6 
#
# 1 49.9188 22.9124 49.8184 0.0000 5.7653 0.0000
# 2 22.9124 29.1325 35.9183 0.0000 2.2947 0.0000
# 3 49.8184 35.9183 163.2704 0.0000 -2.9725 0.0000
# 4 0.0000 0.0000 0.0000 -2.8162 0.0000 -16.9806
# 5 5.7653 2.2947 -2.9725 0.0000 14.2690 0.0000
# 6 0.0000 0.0000 0.0000 -16.9806 0.0000 -8.5569
#
#
#
# Elastic Compliance Matrix: (Units=1/GPa)
#
#
# Indices 1 2 3 4 5 6 
#
# 1 0.038213 -0.019587 -0.007604 0.000000 -0.013874 0.000000
# 2 -0.019587 0.058538 -0.006955 0.000000 -0.002949 0.000000
# 3 -0.007604 -0.006955 0.010090 0.000000 0.006293 0.000000
# 4 0.000000 0.000000 0.000000 0.032383 0.000000 -0.064261
# 5 -0.013874 -0.002949 0.006293 0.000000 0.077473 0.000000
# 6 0.000000 0.000000 0.000000 -0.064261 0.000000 0.010658
#
#
# Mechanical properties :
#
#
# Convention : Reuss Voigt Hill
#
# Bulk Modulus (GPa) = 25.94039 51.06886 38.50463
# Shear Modulus (GPa) = 16.20766 9.49067 12.84917
#
# Velocity S-wave (km/s) = 3.28045 2.51028 2.92086
# Velocity P-wave (km/s) = 5.61890 6.50462 6.07791
#
# Compressibility (1/GPa) = 0.03854993
#
# Stress axis : x y z
#
# Youngs Moduli (GPa) = 26.16877 17.08282 99.11264
#
# Poissons Ratio (x) = 0.33460 0.75362
# Poissons Ratio (y) = 0.51257 0.68934
# Poissons Ratio (z) = 0.19898 0.11881
#
# Static dielectric constant tensor:
#      x y z
#    x 1.471180 0.000000 -0.012770 
#    y 0.000000 1.502980 0.000000 
#    z -0.012770 0.000000 1.546080 
# 
# From -- ./inp_files/83365.got.cif
#   From: 2010.05.17/outbox.cif.g08.bks.cpg/sg10_42_cif.got.tgz:83365.got - 2010.06.03 11:33:40.
