data_PCOD9144992
_publ_section_title
;
Structure prediction by ZEFSAII (Michael W. Deem and Ramdas Pophale) SiO2 
 PCOD9144992
Probable space group: P 2/M
;
_chemical_formula_sum "Si O2"
_cell_formula_units_Z 24
_cell_length_a 19.078282
_cell_length_b 9.209517
_cell_length_c 9.379593
_cell_angle_alpha 90.000000
_cell_angle_beta 59.417393
_cell_angle_gamma 90.000000
_cell_volume 1418.766944
_symmetry_space_group_name_H-M "P 2/M"
_symmetry_group_IT_number 10
_symmetry_cell_setting 'monoclinic'
loop_
_space_group_symop_operation_xyz
x,y,z
-x,y,-z
-x,-y,-z
x,-y,z
loop_
_atom_site_type_symbol
_atom_site_label
_atom_site_fract_x
_atom_site_fract_y
_atom_site_fract_z
Si Si1 0.162208 0.174837 0.149933
Si Si2 0.487578 0.674661 0.847943
Si Si3 0.660852 0.173001 0.157848
Si Si4 0.081810 0.832727 0.513392
Si Si5 0.588675 0.333020 0.486052
Si Si6 0.010369 0.326612 0.155890
O O1 0.150611 0.214123 0.329144
O O2 0.092565 0.254351 0.131676
O O3 0.148947 0.000000 0.155459
O O4 0.250716 0.208128 0.996695
O O5 0.476984 0.500000 0.842602
O O6 0.408951 0.753955 0.866117
O O7 0.565806 0.713837 0.669552
O O8 0.500000 0.708128 0.000000
O O9 0.647287 0.234935 0.330928
O O10 0.650602 0.000000 0.168853
O O11 0.000000 0.829408 0.500000
O O12 0.062309 0.736032 0.670346
O O13 0.095189 0.000000 0.542611
O O14 0.500000 0.330011 0.500000
O O15 0.616925 0.500000 0.455724
O O16 0.014370 0.500000 0.167601
O O17 0.000000 0.291487 0.000000
#
# Coordination Sequence:
#
# PCOD9144992 Si02
#       6
#     4   4   4   4   4   4
#     4   9  19  34  50  70  95 125 159 192 231 281
#     4   9  18  33  51  70  94 126 161 193 231 282
#     4  10  19  31  49  73  98 122 155 197 235 275
#     4   8  15  30  50  68  90 123 159 190 226 278
#     4   8  15  29  48  68  92 124 159 191 228 279
#     4  10  20  32  48  73  99 121 153 196 235 274
#
# _framework density 16.916098000000002
#
# number of rings (size 3 to 8) (size 9 to 14) (size 15 to 20)
#    0.000    3.000    0.000    3.000    0.000    9.000 
#    0.000    1.667    0.000    8.000    0.000    0.000 
#    0.000    0.000    0.000    0.000    0.000    0.000 
#
# Total GULP energy -133672.400245 kJ/mol
# GULP energy per Si atom -5569.683344 kJ/mol
# Density = 1.687760 g / cm^3
# Si number density = 16.916098 Si / 1000 Ang^3
#
#
#
# Elastic Constant Matrix: (Units=GPa)
#
#
# Indices 1 2 3 4 5 6 
#
# 1 40.3747 35.5231 63.8939 0.0000 2.7078 0.0000
# 2 35.5231 53.2555 75.0288 0.0000 0.9569 0.0000
# 3 63.8939 75.0288 208.5045 0.0000 3.3573 0.0000
# 4 0.0000 0.0000 0.0000 29.7592 0.0000 5.0465
# 5 2.7078 0.9569 3.3573 0.0000 28.4524 0.0000
# 6 0.0000 0.0000 0.0000 5.0465 0.0000 1.4715
#
#
#
# Elastic Compliance Matrix: (Units=1/GPa)
#
#
# Indices 1 2 3 4 5 6 
#
# 1 0.068025 -0.032507 -0.009079 0.000000 -0.004309 0.000000
# 2 -0.032507 0.053622 -0.009373 0.000000 0.002396 0.000000
# 3 -0.009079 -0.009373 0.010953 0.000000 -0.000113 0.000000
# 4 0.000000 0.000000 0.000000 0.080310 0.000000 -0.275427
# 5 -0.004309 0.002396 -0.000113 0.000000 0.035489 0.000000
# 6 0.000000 0.000000 0.000000 -0.275427 0.000000 1.624187
#
#
# Mechanical properties :
#
#
# Convention : Reuss Voigt Hill
#
# Bulk Modulus (GPa) = 32.59112 72.33628 52.46370
# Shear Modulus (GPa) = 2.51923 20.44921 11.48422
#
# Velocity S-wave (km/s) = 1.22167 3.48064 2.60838
# Velocity P-wave (km/s) = 4.61499 7.68165 6.33664
#
# Compressibility (1/GPa) = 0.03068321
#
# Stress axis : x y z
#
# Youngs Moduli (GPa) = 14.70046 18.64893 91.30142
#
# Poissons Ratio (x) = 0.60622 0.82891
# Poissons Ratio (y) = 0.47787 0.85575
# Poissons Ratio (z) = 0.13346 0.17479
#
# Static dielectric constant tensor:
#      x y z
#    x 1.543470 0.000000 0.003220 
#    y 0.000000 1.565490 0.000000 
#    z 0.003220 0.000000 1.618680 
# 
# From -- ./inp_files/33751.got.cif
#   From: 2010.05.17/outbox.cif.g08.bks.cpg/sg10_17_cif.got.tgz:33751.got - 2010.06.03 11:33:40.
