data_PCOD9144867
_publ_section_title
;
Structure prediction by ZEFSAII (Michael W. Deem and Ramdas Pophale) SiO2 
 PCOD9144867
Probable space group: P 2/M
;
_chemical_formula_sum "Si O2"
_cell_formula_units_Z 30
_cell_length_a 24.430284
_cell_length_b 10.174640
_cell_length_c 10.852750
_cell_angle_alpha 90.000000
_cell_angle_beta 38.066707
_cell_angle_gamma 90.000000
_cell_volume 1663.319759
_symmetry_space_group_name_H-M "P 2/M"
_symmetry_group_IT_number 10
_symmetry_cell_setting 'monoclinic'
loop_
_space_group_symop_operation_xyz
x,y,z
-x,y,-z
-x,-y,-z
x,-y,z
loop_
_atom_site_type_symbol
_atom_site_label
_atom_site_fract_x
_atom_site_fract_y
_atom_site_fract_z
Si Si1 0.188769 0.355519 0.601590
Si Si2 0.904397 0.642517 0.738218
Si Si3 0.014381 0.853840 0.240644
Si Si4 0.487656 0.652544 0.171423
Si Si5 0.332729 0.848527 0.411509
Si Si6 0.000000 0.741908 0.000000
Si Si7 0.632358 0.143198 0.943371
Si Si8 0.179608 0.247335 0.346519
O O1 0.226051 0.500000 0.565110
O O2 0.241656 0.234425 0.568445
O O3 0.191497 0.335429 0.448474
O O4 0.087140 0.344044 0.822096
O O5 0.887085 0.500000 0.824658
O O6 0.918988 0.752257 0.814141
O O7 0.835031 0.675307 0.754098
O O8 0.000000 0.637302 0.500000
O O9 0.913178 0.828954 0.466239
O O10 0.040761 0.000000 0.226796
O O11 0.012903 0.829455 0.098025
O O12 0.478171 0.500000 0.227406
O O13 0.405162 0.750728 0.342230
O O14 0.500000 0.648296 0.000000
O O15 0.572035 0.730275 0.077564
O O16 0.360018 0.859306 0.218948
O O17 0.327130 0.000000 0.467232
O O18 0.732099 0.160762 0.815570
O O19 0.595481 0.000000 0.046415
#
# Coordination Sequence:
#
# PCOD9144867 Si02
#       8
#     4   4   4   4   4   2   4   4
#     4  10  19  31  48  67  89 121 158 192 228 273
#     4   9  18  31  46  65  90 119 151 189 232 275
#     4  10  20  33  49  66  88 121 158 194 230 272
#     4   9  16  25  38  57  83 116 152 186 221 267
#     4   9  17  28  41  59  85 117 151 187 228 270
#     4  10  22  34  48  68  94 120 152 194 236 270
#     4   9  16  25  39  60  87 118 150 185 225 269
#     4   9  18  29  46  68  93 121 154 190 229 273
#
# _framework density 18.03622
#
# number of rings (size 3 to 8) (size 9 to 14) (size 15 to 20)
#    0.000    2.667    0.000    2.000    0.000   15.733 
#    0.000    0.000    0.000    0.000    0.000    0.000 
#    0.000    1.067    0.000    7.467    0.000    7.600 
#
# Total GULP energy -167062.750297 kJ/mol
# GULP energy per Si atom -5568.758343 kJ/mol
# Density = 1.799517 g / cm^3
# Si number density = 18.036220 Si / 1000 Ang^3
#
#
#
# Elastic Constant Matrix: (Units=GPa)
#
#
# Indices 1 2 3 4 5 6 
#
# 1 59.7248 47.8137 22.2692 0.0000 -13.9554 0.0000
# 2 47.8137 186.7779 34.5201 0.0000 -14.1593 0.0000
# 3 22.2692 34.5201 33.9746 0.0000 -12.1195 0.0000
# 4 0.0000 0.0000 0.0000 -0.5798 0.0000 -5.8272
# 5 -13.9554 -14.1593 -12.1195 0.0000 16.9968 0.0000
# 6 0.0000 0.0000 0.0000 -5.8272 0.0000 13.7714
#
#
#
# Elastic Compliance Matrix: (Units=1/GPa)
#
#
# Indices 1 2 3 4 5 6 
#
# 1 0.026060 -0.004184 -0.008638 0.000000 0.011752 0.000000
# 2 -0.004184 0.007275 -0.004980 0.000000 -0.000925 0.000000
# 3 -0.008638 -0.004980 0.048476 0.000000 0.023325 0.000000
# 4 0.000000 0.000000 0.000000 -0.328356 0.000000 -0.138938
# 5 0.011752 -0.000925 0.023325 0.000000 0.084344 0.000000
# 6 0.000000 0.000000 0.000000 -0.138938 0.000000 0.013825
#
#
# Mechanical properties :
#
#
# Convention : Reuss Voigt Hill
#
# Bulk Modulus (GPa) = 21.64162 54.40929 38.02545
# Shear Modulus (GPa) = -51.34997 17.76264 -16.79367
#
# Velocity S-wave (km/s) = -5.34156 3.14161 -3.05472
# Velocity P-wave (km/s) = 5.10079 6.58724 2.94735
#
# Compressibility (1/GPa) = 0.04620727
#
# Stress axis : x y z
#
# Youngs Moduli (GPa) = 38.37361 137.45415 20.62883
#
# Poissons Ratio (x) = 0.57506 0.17820
# Poissons Ratio (y) = 0.16054 0.10273
# Poissons Ratio (z) = 0.33148 0.68449
#
# Static dielectric constant tensor:
#      x y z
#    x 1.609910 0.000000 -0.027070 
#    y 0.000000 1.663670 0.000000 
#    z -0.027070 0.000000 1.613790 
# 
# From -- ./inp_files/56614.got.cif
#   From: 2010.05.17/outbox.cif.g08.bks.cpg/sg10_29_cif.got.tgz:56614.got - 2010.06.03 11:33:40.
