data_PCOD9144027
_publ_section_title
;
Structure prediction by ZEFSAII (Michael W. Deem and Ramdas Pophale) SiO2 
 PCOD9144027
Probable space group: P 2/M
;
_chemical_formula_sum "Si O2"
_cell_formula_units_Z 28
_cell_length_a 15.677515
_cell_length_b 7.636930
_cell_length_c 12.210041
_cell_angle_alpha 90.000000
_cell_angle_beta 123.171392
_cell_angle_gamma 90.000000
_cell_volume 1223.652577
_symmetry_space_group_name_H-M "P 2/M"
_symmetry_group_IT_number 10
_symmetry_cell_setting 'monoclinic'
loop_
_space_group_symop_operation_xyz
x,y,z
-x,y,-z
-x,-y,-z
x,-y,z
loop_
_atom_site_type_symbol
_atom_site_label
_atom_site_fract_x
_atom_site_fract_y
_atom_site_fract_z
Si Si1 0.837521 0.297360 0.624439
Si Si2 0.783654 0.202776 0.827471
Si Si3 0.966106 0.200189 0.360592
Si Si4 0.616887 0.288411 0.086562
Si Si5 0.803973 0.792770 0.080377
Si Si6 0.355119 0.286433 0.650991
Si Si7 0.548351 0.711613 0.652252
O O1 0.850078 0.500000 0.601196
O O2 0.823113 0.288221 0.744213
O O3 0.735146 0.229901 0.492932
O O4 0.935897 0.200107 0.648794
O O5 0.660760 0.213402 0.742145
O O6 0.814204 0.000000 0.842893
O O7 0.819483 0.278917 0.969196
O O8 0.875433 0.283315 0.226067
O O9 0.000000 0.281585 0.500000
O O10 0.934012 0.000000 0.364015
O O11 0.616334 0.500000 0.082685
O O12 0.688156 0.227528 0.038586
O O13 0.661229 0.232230 0.235480
O O14 0.500000 0.229805 0.000000
O O15 0.826522 0.000000 0.089323
O O16 0.356697 0.500000 0.649229
O O17 0.465531 0.231175 0.683773
O O18 0.500000 0.753027 0.500000
O O19 0.558607 0.500000 0.665468
#
# Coordination Sequence:
#
# PCOD9144027 Si02
#       7
#     4   4   4   4   4   4   4
#     4  11  22  38  60  86 115 149 193 241 289 341
#     4  11  23  38  56  83 119 155 193 235 285 346
#     4  10  22  42  65  87 113 148 192 240 292 346
#     4  10  20  35  58  86 115 148 190 235 280 340
#     4  10  23  41  59  82 117 155 189 235 292 344
#     4   9  18  33  54  83 116 148 184 234 292 339
#     4  10  18  34  58  82 115 156 192 233 284 336
#
# _framework density 22.882314000000001
#
# number of rings (size 3 to 8) (size 9 to 14) (size 15 to 20)
#    0.000    1.857    1.429    2.571    0.000    4.286 
#    0.000    4.286    0.000    0.000    0.000    0.000 
#    0.000    0.000    0.000    0.000    0.000    0.000 
#
# Total GULP energy -156536.781718 kJ/mol
# GULP energy per Si atom -5590.599347 kJ/mol
# Density = 2.283023 g / cm^3
# Si number density = 22.882314 Si / 1000 Ang^3
#
#
#
# Elastic Constant Matrix: (Units=GPa)
#
#
# Indices 1 2 3 4 5 6 
#
# 1 91.1050 -11.9323 33.7855 0.0000 -11.1138 0.0000
# 2 -11.9323 47.9912 4.8084 0.0000 0.2007 0.0000
# 3 33.7855 4.8084 144.5515 0.0000 -16.7999 0.0000
# 4 0.0000 0.0000 0.0000 8.5324 0.0000 -0.0039
# 5 -11.1138 0.2007 -16.7999 0.0000 38.3812 0.0000
# 6 0.0000 0.0000 0.0000 -0.0039 0.0000 24.8054
#
#
#
# Elastic Compliance Matrix: (Units=1/GPa)
#
#
# Indices 1 2 3 4 5 6 
#
# 1 0.012770 0.003447 -0.002815 0.000000 0.002448 0.000000
# 2 0.003447 0.021844 -0.001506 0.000000 0.000225 0.000000
# 3 -0.002815 -0.001506 0.007936 0.000000 0.002666 0.000000
# 4 0.000000 0.000000 0.000000 0.117200 0.000000 0.000018
# 5 0.002448 0.000225 0.002666 0.000000 0.027929 0.000000
# 6 0.000000 0.000000 0.000000 0.000018 0.000000 0.040314
#
#
# Mechanical properties :
#
#
# Convention : Reuss Voigt Hill
#
# Bulk Modulus (GPa) = 24.50864 37.44123 30.97494
# Shear Modulus (GPa) = 20.54720 31.47620 26.01170
#
# Velocity S-wave (km/s) = 2.99983 3.71289 3.37524
# Velocity P-wave (km/s) = 4.76788 5.89735 5.36244
#
# Compressibility (1/GPa) = 0.04080194
#
# Stress axis : x y z
#
# Youngs Moduli (GPa) = 78.30680 45.77884 126.01011
#
# Poissons Ratio (x) = -0.15780 0.35471
# Poissons Ratio (y) = -0.26992 0.18979
# Poissons Ratio (z) = 0.22043 0.06895
#
# Static dielectric constant tensor:
#      x y z
#    x 1.791960 0.000000 0.001330 
#    y 0.000000 1.887250 0.000000 
#    z 0.001330 0.000000 1.878450 
# 
# From -- ./inp_files/50059.got.cif
#   From: 2010.05.17/outbox.cif.g08.bks.cpg/sg10_26_cif.got.tgz:50059.got - 2010.06.03 11:33:40.
