data_PCOD9144975
_publ_section_title
;
Structure prediction by ZEFSAII (Michael W. Deem and Ramdas Pophale) SiO2 
 PCOD9144975
Probable space group: P 2/M
;
_chemical_formula_sum "Si O2"
_cell_formula_units_Z 28
_cell_length_a 18.036537
_cell_length_b 9.531456
_cell_length_c 18.666654
_cell_angle_alpha 90.000000
_cell_angle_beta 30.687713
_cell_angle_gamma 90.000000
_cell_volume 1637.775027
_symmetry_space_group_name_H-M "P 2/M"
_symmetry_group_IT_number 10
_symmetry_cell_setting 'monoclinic'
loop_
_space_group_symop_operation_xyz
x,y,z
-x,y,-z
-x,-y,-z
x,-y,z
loop_
_atom_site_type_symbol
_atom_site_label
_atom_site_fract_x
_atom_site_fract_y
_atom_site_fract_z
Si Si1 0.740113 0.335436 0.176145
Si Si2 0.547535 0.663017 0.876531
Si Si3 0.123750 0.157870 0.058706
Si Si4 0.163816 0.831574 0.336132
Si Si5 0.571786 0.345672 0.519625
Si Si6 0.198505 0.158969 0.733153
Si Si7 0.265305 0.164479 0.090534
O O1 0.770703 0.500000 0.160640
O O2 0.804624 0.272692 0.051052
O O3 0.566134 0.318014 0.316841
O O4 0.798748 0.251109 0.196672
O O5 0.559652 0.500000 0.844153
O O6 0.701238 0.744958 0.741421
O O7 0.500000 0.664139 0.000000
O O8 0.410300 0.744423 0.956745
O O9 0.179683 0.000000 0.995173
O O10 0.157025 0.183301 0.114022
O O11 0.956284 0.159125 0.175875
O O12 0.186896 0.804168 0.231592
O O13 0.000000 0.796014 0.500000
O O14 0.182933 0.000000 0.331812
O O15 0.500000 0.352095 0.500000
O O16 0.634740 0.500000 0.482143
O O17 0.689072 0.226058 0.415829
O O18 0.239134 0.000000 0.718524
O O19 0.308075 0.000000 0.058659
#
# Coordination Sequence:
#
# PCOD9144975 Si02
#       7
#     4   4   4   4   4   4   4
#     4  10  20  33  50  71  95 127 168 209 249 298
#     4   9  17  30  50  75 101 128 159 195 236 285
#     4  10  21  34  48  70  99 129 163 207 252 292
#     4   9  17  31  54  80 102 129 166 202 239 289
#     4   8  16  31  48  67  91 119 156 201 246 293
#     4  10  19  31  49  72  97 127 166 209 252 296
#     4   9  18  34  52  70  98 133 166 201 243 291
#
# _framework density 17.096364999999999
#
# number of rings (size 3 to 8) (size 9 to 14) (size 15 to 20)
#    0.000    2.714    0.000    2.571    0.000    8.571 
#    0.000    1.429    0.000    3.429    0.000    0.000 
#    0.000    0.000    0.000    0.000    0.000    0.000 
#
# Total GULP energy -155897.699229 kJ/mol
# GULP energy per Si atom -5567.774972 kJ/mol
# Density = 1.705745 g / cm^3
# Si number density = 17.096365 Si / 1000 Ang^3
#
#
#
# Elastic Constant Matrix: (Units=GPa)
#
#
# Indices 1 2 3 4 5 6 
#
# 1 -26.2235 -22.9353 6.5502 0.0000 135.8029 0.0000
# 2 -22.9353 55.2107 53.2673 0.0000 105.7759 0.0000
# 3 6.5502 53.2673 99.0365 0.0000 28.1252 0.0000
# 4 0.0000 0.0000 0.0000 27.6501 0.0000 0.6844
# 5 135.8029 105.7759 28.1252 0.0000 -222.1468 0.0000
# 6 0.0000 0.0000 0.0000 0.6844 0.0000 9.8066
#
#
#
# Elastic Compliance Matrix: (Units=1/GPa)
#
#
# Indices 1 2 3 4 5 6 
#
# 1 0.024881 -0.010510 0.001070 0.000000 0.010342 0.000000
# 2 -0.010510 0.020499 -0.010886 0.000000 0.001958 0.000000
# 3 0.001070 -0.010886 0.016572 0.000000 -0.002431 0.000000
# 4 0.000000 0.000000 0.000000 0.036229 0.000000 -0.002529
# 5 0.010342 0.001958 -0.002431 0.000000 0.002445 0.000000
# 6 0.000000 0.000000 0.000000 -0.002529 0.000000 0.102148
#
#
# Mechanical properties :
#
#
# Convention : Reuss Voigt Hill
#
# Bulk Modulus (GPa) = 46.94687 22.42090 34.68389
# Shear Modulus (GPa) = 19.95798 -30.86192 -5.45197
#
# Velocity S-wave (km/s) = 3.42040 -4.25334 -1.78770
# Velocity P-wave (km/s) = 6.56648 3.31336 4.00876
#
# Compressibility (1/GPa) = 0.02130068
#
# Stress axis : x y z
#
# Youngs Moduli (GPa) = 40.19121 48.78255 60.34169
#
# Poissons Ratio (x) = 0.51268 -0.06457
# Poissons Ratio (y) = 0.42239 0.65691
# Poissons Ratio (z) = -0.04301 0.53107
#
# Static dielectric constant tensor:
#      x y z
#    x 1.569210 0.000000 0.000950 
#    y 0.000000 1.612510 0.000000 
#    z 0.000950 0.000000 1.600540 
# 
# From -- ./inp_files/85612.got.cif
#   From: 2010.05.17/outbox.cif.g08.bks.cpg/sg10_43_cif.got.tgz:85612.got - 2010.06.03 11:33:40.
