data_PCOD9144162
_publ_section_title
;
Structure prediction by ZEFSAII (Michael W. Deem and Ramdas Pophale) SiO2 
 PCOD9144162
Probable space group: P 2/M
;
_chemical_formula_sum "Si O2"
_cell_formula_units_Z 30
_cell_length_a 18.152080
_cell_length_b 19.420655
_cell_length_c 8.852038
_cell_angle_alpha 90.000000
_cell_angle_beta 147.387539
_cell_angle_gamma 90.000000
_cell_volume 1681.842156
_symmetry_space_group_name_H-M "P 2/M"
_symmetry_group_IT_number 10
_symmetry_cell_setting 'monoclinic'
loop_
_space_group_symop_operation_xyz
x,y,z
-x,y,-z
-x,-y,-z
x,-y,z
loop_
_atom_site_type_symbol
_atom_site_label
_atom_site_fract_x
_atom_site_fract_y
_atom_site_fract_z
Si Si1 0.002549 0.298926 0.679063
Si Si2 0.858571 0.217591 0.672055
Si Si3 0.301729 0.709986 0.351305
Si Si4 0.719848 0.077327 0.429383
Si Si5 0.613536 0.579846 0.322956
Si Si6 0.500000 0.191156 0.500000
Si Si7 0.542913 0.078796 0.818072
Si Si8 0.915449 0.578356 0.709267
O O1 0.000000 0.284603 0.500000
O O2 0.892512 0.248825 0.568767
O O3 0.948418 0.374709 0.625570
O O4 0.156692 0.295770 0.012678
O O5 0.738349 0.254864 0.557210
O O6 0.828306 0.137352 0.621892
O O7 0.000000 0.231436 0.000000
O O8 0.370308 0.636776 0.516533
O O9 0.398635 0.759440 0.419752
O O10 0.608895 0.085937 0.372022
O O11 0.775023 0.000000 0.534274
O O12 0.640313 0.084271 0.132553
O O13 0.590090 0.500000 0.333641
O O14 0.758762 0.580359 0.487687
O O15 0.500000 0.596932 0.000000
O O16 0.567228 0.138045 0.737239
O O17 0.556513 0.000000 0.782750
O O18 0.958725 0.500000 0.758928
O O19 0.000000 0.605583 0.000000
#
# Coordination Sequence:
#
# PCOD9144162 Si02
#       8
#     4   4   4   4   4   2   4   4
#     4  11  23  37  58  86 119 151 196 250 292 338
#     4  10  20  38  58  80 117 153 189 240 288 348
#     4  11  23  39  56  89 118 156 200 239 291 359
#     4   9  18  35  58  82 108 149 195 236 287 347
#     4  10  21  38  63  89 118 156 199 244 294 350
#     4  12  23  34  57  88 120 154 188 234 303 352
#     4   9  19  35  56  82 114 147 190 242 286 341
#     4  10  18  36  65  86 110 156 202 239 286 351
#
# _framework density 17.837584
#
# number of rings (size 3 to 8) (size 9 to 14) (size 15 to 20)
#    0.000    1.867    4.000    1.400    1.867    2.667 
#    0.000    0.333    0.000    0.400    0.000    0.000 
#    0.000    0.000    0.000    0.000    0.000    0.000 
#
# Total GULP energy -167189.653870 kJ/mol
# GULP energy per Si atom -5572.988462 kJ/mol
# Density = 1.779698 g / cm^3
# Si number density = 17.837584 Si / 1000 Ang^3
#
#
#
# Elastic Constant Matrix: (Units=GPa)
#
#
# Indices 1 2 3 4 5 6 
#
# 1 104.6213 55.2727 22.6689 0.0000 -12.6982 0.0000
# 2 55.2727 129.5148 16.9621 0.0000 -3.3333 0.0000
# 3 22.6689 16.9621 45.0280 0.0000 2.0335 0.0000
# 4 0.0000 0.0000 0.0000 -9.7053 0.0000 1.1613
# 5 -12.6982 -3.3333 2.0335 0.0000 23.6393 0.0000
# 6 0.0000 0.0000 0.0000 1.1613 0.0000 -31.4940
#
#
#
# Elastic Compliance Matrix: (Units=1/GPa)
#
#
# Indices 1 2 3 4 5 6 
#
# 1 0.014462 -0.005239 -0.005646 0.000000 0.007515 0.000000
# 2 -0.005239 0.010067 -0.001096 0.000000 -0.001300 0.000000
# 3 -0.005646 -0.001096 0.025708 0.000000 -0.005399 0.000000
# 4 0.000000 0.000000 0.000000 -0.103493 0.000000 -0.003816
# 5 0.007515 -0.001300 -0.005399 0.000000 0.046621 0.000000
# 6 0.000000 0.000000 0.000000 -0.003816 0.000000 -0.031893
#
#
# Mechanical properties :
#
#
# Convention : Reuss Voigt Hill
#
# Bulk Modulus (GPa) = 38.06100 52.10794 45.08447
# Shear Modulus (GPa) = -860.84791 8.77203 -426.03794
#
# Velocity S-wave (km/s) = -21.99207 2.22000 -15.47131
# Velocity P-wave (km/s) = 24.96967 5.98724 17.14114
#
# Compressibility (1/GPa) = 0.02627361
#
# Stress axis : x y z
#
# Youngs Moduli (GPa) = 69.14850 99.33472 38.89871
#
# Poissons Ratio (x) = 0.52040 0.21964
# Poissons Ratio (y) = 0.36226 0.04264
# Poissons Ratio (z) = 0.39045 0.10888
#
# Static dielectric constant tensor:
#      x y z
#    x 1.604370 0.000000 -0.006870 
#    y 0.000000 1.636170 0.000000 
#    z -0.006870 0.000000 1.623460 
# 
# From -- ./inp_files/32994.got.cif
#   From: 2010.05.17/outbox.cif.g08.bks.cpg/sg10_17_cif.got.tgz:32994.got - 2010.06.03 11:33:40.
