data_PCOD9144943
_publ_section_title
;
Structure prediction by ZEFSAII (Michael W. Deem and Ramdas Pophale) SiO2 
 PCOD9144943
Probable space group: P 2/M
;
_chemical_formula_sum "Si O2"
_cell_formula_units_Z 24
_cell_length_a 11.808535
_cell_length_b 8.656696
_cell_length_c 27.312923
_cell_angle_alpha 90.000000
_cell_angle_beta 151.655058
_cell_angle_gamma 90.000000
_cell_volume 1325.585035
_symmetry_space_group_name_H-M "P 2/M"
_symmetry_group_IT_number 10
_symmetry_cell_setting 'monoclinic'
loop_
_space_group_symop_operation_xyz
x,y,z
-x,y,-z
-x,-y,-z
x,-y,z
loop_
_atom_site_type_symbol
_atom_site_label
_atom_site_fract_x
_atom_site_fract_y
_atom_site_fract_z
Si Si1 0.350651 0.678487 0.815449
Si Si2 0.100495 0.314129 0.984623
Si Si3 0.854111 0.817295 0.614755
Si Si4 0.171055 0.178963 0.211254
Si Si5 0.737957 0.830668 0.121660
Si Si6 0.407043 0.682642 0.390604
O O1 0.344890 0.500000 0.797880
O O2 0.292389 0.697156 0.850711
O O3 0.125950 0.768404 0.707171
O O4 0.621939 0.738715 0.912735
O O5 0.104545 0.500000 0.979839
O O6 0.927001 0.246785 0.876865
O O7 0.000000 0.277969 0.000000
O O8 0.668142 0.730594 0.508784
O O9 0.771515 0.767326 0.638511
O O10 0.821331 0.000000 0.597648
O O11 0.364672 0.266724 0.318342
O O12 0.945636 0.187441 0.161923
O O13 0.238949 0.000000 0.230644
O O14 0.767396 0.000000 0.158058
O O15 0.500000 0.836066 0.000000
O O16 0.370261 0.500000 0.381711
#
# Coordination Sequence:
#
# PCOD9144943 Si02
#       6
#     4   4   4   4   4   4
#     4  11  21  33  54  80 109 145 185 225 271 328
#     4  10  23  41  58  79 109 146 188 234 280 325
#     4  11  21  34  52  78 115 151 182 220 270 324
#     4  11  21  34  55  82 113 147 182 224 275 329
#     4  10  19  31  48  75 111 144 174 216 273 330
#     4  11  21  34  53  80 114 149 185 220 264 326
#
# _framework density 18.105214
#
# number of rings (size 3 to 8) (size 9 to 14) (size 15 to 20)
#    0.000    1.333    3.333    5.000    0.000    2.000 
#    0.000    0.000    0.000    1.000    0.000    7.000 
#    0.000    0.000    0.000    0.000    0.000    0.000 
#
# Total GULP energy -133846.012826 kJ/mol
# GULP energy per Si atom -5576.917201 kJ/mol
# Density = 1.806401 g / cm^3
# Si number density = 18.105214 Si / 1000 Ang^3
#
#
#
# Elastic Constant Matrix: (Units=GPa)
#
#
# Indices 1 2 3 4 5 6 
#
# 1 50.4592 23.1831 38.3846 0.0000 -12.6064 0.0000
# 2 23.1831 75.9457 24.7205 0.0000 -7.7270 0.0000
# 3 38.3846 24.7205 115.1430 0.0000 -18.0219 0.0000
# 4 0.0000 0.0000 0.0000 44.4747 0.0000 -13.7414
# 5 -12.6064 -7.7270 -18.0219 0.0000 15.9167 0.0000
# 6 0.0000 0.0000 0.0000 -13.7414 0.0000 21.6165
#
#
#
# Elastic Compliance Matrix: (Units=1/GPa)
#
#
# Indices 1 2 3 4 5 6 
#
# 1 0.031341 -0.005861 -0.006988 0.000000 0.014065 0.000000
# 2 -0.005861 0.015484 -0.001119 0.000000 0.001608 0.000000
# 3 -0.006988 -0.001119 0.012523 0.000000 0.008101 0.000000
# 4 0.000000 0.000000 0.000000 0.027980 0.000000 0.017787
# 5 0.014065 0.001608 0.008101 0.000000 0.083920 0.000000
# 6 0.000000 0.000000 0.000000 0.017787 0.000000 0.057568
#
#
# Mechanical properties :
#
#
# Convention : Reuss Voigt Hill
#
# Bulk Modulus (GPa) = 31.83584 46.01381 38.92482
# Shear Modulus (GPa) = 18.71105 26.75225 22.73165
#
# Velocity S-wave (km/s) = 3.21824 3.84813 3.54719
# Velocity P-wave (km/s) = 5.60637 6.72413 6.19053
#
# Compressibility (1/GPa) = 0.03141114
#
# Stress axis : x y z
#
# Youngs Moduli (GPa) = 31.90746 64.58158 79.85577
#
# Poissons Ratio (x) = 0.37854 0.55804
# Poissons Ratio (y) = 0.18702 0.08934
# Poissons Ratio (z) = 0.22297 0.07225
#
# Static dielectric constant tensor:
#      x y z
#    x 1.588760 0.000000 0.003930 
#    y 0.000000 1.662170 0.000000 
#    z 0.003930 0.000000 1.689920 
# 
# From -- ./inp_files/80426.got.cif
#   From: 2010.05.17/outbox.cif.g08.bks.cpg/sg10_41_cif.got.tgz:80426.got - 2010.06.03 11:33:40.
