data_PCOD9144242
_publ_section_title
;
Structure prediction by ZEFSAII (Michael W. Deem and Ramdas Pophale) SiO2 
 PCOD9144242
Probable space group: P 2/M
;
_chemical_formula_sum "Si O2"
_cell_formula_units_Z 30
_cell_length_a 30.525674
_cell_length_b 16.563692
_cell_length_c 28.224839
_cell_angle_alpha 90.000000
_cell_angle_beta 8.956939
_cell_angle_gamma 90.000000
_cell_volume 2221.879526
_symmetry_space_group_name_H-M "P 2/M"
_symmetry_group_IT_number 10
_symmetry_cell_setting 'monoclinic'
loop_
_space_group_symop_operation_xyz
x,y,z
-x,y,-z
-x,-y,-z
x,-y,z
loop_
_atom_site_type_symbol
_atom_site_label
_atom_site_fract_x
_atom_site_fract_y
_atom_site_fract_z
Si Si1 0.675529 0.401571 0.442370
Si Si2 0.410588 0.402928 0.358503
Si Si3 0.301968 0.401747 0.754574
Si Si4 0.672319 0.822284 0.865097
Si Si5 0.451608 0.335467 0.148064
Si Si6 0.674981 0.000000 0.861463
Si Si7 0.961577 0.402469 0.333112
Si Si8 0.962498 0.595042 0.485812
O O1 0.674120 0.500000 0.445137
O O2 0.636187 0.372598 0.538171
O O3 0.433856 0.377499 0.663999
O O4 0.978075 0.376893 0.098450
O O5 0.426488 0.500000 0.345546
O O6 0.162274 0.386856 0.586926
O O7 0.711992 0.378722 0.015327
O O8 0.500000 0.374406 0.500000
O O9 0.303735 0.500000 0.751183
O O10 0.000000 0.813571 0.500000
O O11 0.623878 0.912129 0.938457
O O12 0.500000 0.816214 0.000000
O O13 0.566366 0.753608 0.014035
O O14 0.223653 0.352335 0.432061
O O15 0.289478 0.364407 0.273656
O O16 0.728837 0.387412 0.864848
O O17 0.000000 0.000000 0.500000
O O18 0.500000 0.000000 0.000000
O O19 0.935351 0.500000 0.371001
O O20 0.905303 0.500000 0.547181
O O21 0.000000 0.623008 0.500000
#
# Coordination Sequence:
#
# PCOD9144242 Si02
#       8
#     4   4   4   4   4   2   4   4
#     4   9  15  23  34  45  59  81 108 137 171 214
#     4   9  17  28  39  49  62  86 120 152 179 210
#     4   9  15  21  30  46  65  81  99 130 175 223
#     4  10  19  32  48  65  82  98 118 143 177 226
#     4  12  21  31  45  60  77  98 123 153 187 221
#     4   8  16  30  48  66  82  98 114 138 172 216
#     4  10  19  29  39  51  68  90 119 153 183 209
#     4  11  22  33  43  56  76 101 126 149 177 218
#
# _framework density 13.502082
#
# number of rings (size 3 to 8) (size 9 to 14) (size 15 to 20)
#    0.000    2.133    0.000    5.600    0.000    6.933 
#    0.000    0.000    0.000    0.000    0.000    0.000 
#    0.000    0.000    0.000    0.000    0.000    0.000 
#
# Total GULP energy -167182.859785 kJ/mol
# GULP energy per Si atom -5572.761993 kJ/mol
# Density = 1.347135 g / cm^3
# Si number density = 13.502082 Si / 1000 Ang^3
#
#
#
# Elastic Constant Matrix: (Units=GPa)
#
#
# Indices 1 2 3 4 5 6 
#
# 1 29.7125 8.3999 -2.2121 0.0000 -1.1865 0.0000
# 2 8.3999 50.4160 3.2643 0.0000 2.1009 0.0000
# 3 -2.2121 3.2643 40.2280 0.0000 -10.1438 0.0000
# 4 0.0000 0.0000 0.0000 4.0076 0.0000 -2.6413
# 5 -1.1865 2.1009 -10.1438 0.0000 28.2521 0.0000
# 6 0.0000 0.0000 0.0000 -2.6413 0.0000 4.2363
#
#
#
# Elastic Compliance Matrix: (Units=1/GPa)
#
#
# Indices 1 2 3 4 5 6 
#
# 1 0.035809 -0.006309 0.003275 0.000000 0.003149 0.000000
# 2 -0.006309 0.021185 -0.002782 0.000000 -0.002839 0.000000
# 3 0.003275 -0.002782 0.027875 0.000000 0.010353 0.000000
# 4 0.000000 0.000000 0.000000 0.423587 0.000000 0.264101
# 5 0.003149 -0.002839 0.010353 0.000000 0.039456 0.000000
# 6 0.000000 0.000000 0.000000 0.264101 0.000000 0.400721
#
#
# Mechanical properties :
#
#
# Convention : Reuss Voigt Hill
#
# Bulk Modulus (GPa) = 13.65448 15.47339 14.56394
# Shear Modulus (GPa) = 5.07781 14.69283 9.88532
#
# Velocity S-wave (km/s) = 1.94137 3.30235 2.70873
# Velocity P-wave (km/s) = 3.89359 5.10153 4.53793
#
# Compressibility (1/GPa) = 0.07323604
#
# Stress axis : x y z
#
# Youngs Moduli (GPa) = 27.92579 47.20403 35.87487
#
# Poissons Ratio (x) = 0.29783 -0.11750
# Poissons Ratio (y) = 0.17620 0.09980
# Poissons Ratio (z) = -0.09146 0.13132
#
# Static dielectric constant tensor:
#      x y z
#    x 1.461840 0.000000 -0.000960 
#    y 0.000000 1.433600 0.000000 
#    z -0.000960 0.000000 1.470390 
# 
# From -- ./inp_files/94257.got.cif
#   From: 2010.05.17/outbox.cif.g08.bks.cpg/sg10_48_cif.got.tgz:94257.got - 2010.06.03 11:33:40.
