data_PCOD9144831
_publ_section_title
;
Structure prediction by ZEFSAII (Michael W. Deem and Ramdas Pophale) SiO2 
 PCOD9144831
Probable space group: P 2/M
;
_chemical_formula_sum "Si O2"
_cell_formula_units_Z 32
_cell_length_a 8.003424
_cell_length_b 8.921609
_cell_length_c 19.407030
_cell_angle_alpha 90.000000
_cell_angle_beta 99.381154
_cell_angle_gamma 90.000000
_cell_volume 1367.195340
_symmetry_space_group_name_H-M "P 2/M"
_symmetry_group_IT_number 10
_symmetry_cell_setting 'monoclinic'
loop_
_space_group_symop_operation_xyz
x,y,z
-x,y,-z
-x,-y,-z
x,-y,z
loop_
_atom_site_type_symbol
_atom_site_label
_atom_site_fract_x
_atom_site_fract_y
_atom_site_fract_z
Si Si1 0.116483 0.177155 0.922941
Si Si2 0.983209 0.177022 0.341527
Si Si3 0.331802 0.318588 0.419594
Si Si4 0.582333 0.825752 0.167409
Si Si5 0.812951 0.324946 0.450836
Si Si6 0.654137 0.328644 0.954139
Si Si7 0.875326 0.820758 0.792478
Si Si8 0.468123 0.321553 0.288134
O O1 0.263976 0.192241 0.875295
O O2 0.952507 0.231522 0.870104
O O3 0.098339 0.000000 0.936259
O O4 0.186886 0.259541 0.994655
O O5 0.836476 0.239100 0.380879
O O6 0.152537 0.262848 0.377274
O O7 0.985620 0.196632 0.259407
O O8 0.001355 0.000000 0.356040
O O9 0.335397 0.500000 0.422632
O O10 0.318132 0.271116 0.498874
O O11 0.462538 0.272402 0.368076
O O12 0.420054 0.767291 0.113557
O O13 0.597700 0.741509 0.240780
O O14 0.563260 0.000000 0.181735
O O15 0.778598 0.500000 0.434135
O O16 0.000000 0.317314 0.500000
O O17 0.684312 0.500000 0.935235
O O18 0.500000 0.329450 0.000000
O O19 0.710666 0.735212 0.755381
O O20 0.841519 0.000000 0.794554
O O21 0.476038 0.500000 0.288027
#
# Coordination Sequence:
#
# PCOD9144831 Si02
#       8
#     4   4   4   4   4   4   4   4
#     4   9  18  33  52  71  92 121 154 186 223 270
#     4   9  15  22  36  59  85 112 143 182 223 260
#     4   8  15  26  38  54  81 117 149 178 219 267
#     4  10  19  32  51  72  93 120 153 186 224 272
#     4   8  13  22  35  52  78 112 147 180 217 263
#     4   9  17  30  49  72  95 117 146 188 230 265
#     4   9  18  32  47  66  95 126 153 184 226 274
#     4  10  19  31  47  68  95 124 153 188 230 272
#
# _framework density 23.405578999999999
#
# number of rings (size 3 to 8) (size 9 to 14) (size 15 to 20)
#    0.000    3.000    0.000    2.250    0.000    5.750 
#    0.000    0.625    0.000    3.750    0.000    0.875 
#    0.000    7.000    0.000    0.000    0.000    0.000 
#
# Total GULP energy -178753.554284 kJ/mol
# GULP energy per Si atom -5586.048571 kJ/mol
# Density = 2.335231 g / cm^3
# Si number density = 23.405579 Si / 1000 Ang^3
#
#
#
# Elastic Constant Matrix: (Units=GPa)
#
#
# Indices 1 2 3 4 5 6 
#
# 1 89.6424 4.9211 32.9940 0.0000 -12.1435 0.0000
# 2 4.9211 22.8157 25.1617 0.0000 1.0257 0.0000
# 3 32.9940 25.1617 165.4196 0.0000 -10.8960 0.0000
# 4 0.0000 0.0000 0.0000 31.9948 0.0000 -10.5803
# 5 -12.1435 1.0257 -10.8960 0.0000 54.4993 0.0000
# 6 0.0000 0.0000 0.0000 -10.5803 0.0000 8.0730
#
#
#
# Elastic Compliance Matrix: (Units=1/GPa)
#
#
# Indices 1 2 3 4 5 6 
#
# 1 0.012315 -0.000261 -0.002265 0.000000 0.002296 0.000000
# 2 -0.000261 0.053043 -0.008194 0.000000 -0.002695 0.000000
# 3 -0.002265 -0.008194 0.007823 0.000000 0.001214 0.000000
# 4 0.000000 0.000000 0.000000 0.055161 0.000000 0.072293
# 5 0.002296 -0.002695 0.001214 0.000000 0.019154 0.000000
# 6 0.000000 0.000000 0.000000 0.072293 0.000000 0.218614
#
#
# Mechanical properties :
#
#
# Convention : Reuss Voigt Hill
#
# Bulk Modulus (GPa) = 19.32709 44.89238 32.10974
# Shear Modulus (GPa) = 12.35184 33.23348 22.79266
#
# Velocity S-wave (km/s) = 2.29973 3.77224 3.12398
# Velocity P-wave (km/s) = 3.91498 6.18020 5.17310
#
# Compressibility (1/GPa) = 0.05174084
#
# Stress axis : x y z
#
# Youngs Moduli (GPa) = 81.20472 18.85252 127.82281
#
# Poissons Ratio (x) = 0.00492 0.28955
# Poissons Ratio (y) = 0.02121 1.04735
# Poissons Ratio (z) = 0.18395 0.15447
#
# Static dielectric constant tensor:
#      x y z
#    x 2.004600 0.000000 -0.024030 
#    y 0.000000 1.778790 0.000000 
#    z -0.024030 0.000000 1.890550 
# 
# From -- ./inp_files/83232.got.cif
#   From: 2010.05.17/outbox.cif.g08.bks.cpg/sg10_42_cif.got.tgz:83232.got - 2010.06.03 11:33:40.
