data_PCOD9144494
_publ_section_title
;
Structure prediction by ZEFSAII (Michael W. Deem and Ramdas Pophale) SiO2 
 PCOD9144494
Probable space group: P 2/M
;
_chemical_formula_sum "Si O2"
_cell_formula_units_Z 28
_cell_length_a 10.446545
_cell_length_b 13.331430
_cell_length_c 15.607288
_cell_angle_alpha 90.000000
_cell_angle_beta 119.851299
_cell_angle_gamma 90.000000
_cell_volume 1885.195069
_symmetry_space_group_name_H-M "P 2/M"
_symmetry_group_IT_number 10
_symmetry_cell_setting 'monoclinic'
loop_
_space_group_symop_operation_xyz
x,y,z
-x,y,-z
-x,-y,-z
x,-y,z
loop_
_atom_site_type_symbol
_atom_site_label
_atom_site_fract_x
_atom_site_fract_y
_atom_site_fract_z
Si Si1 0.805814 0.694921 0.791953
Si Si2 0.033575 0.883638 0.112689
Si Si3 0.137968 0.709243 0.880729
Si Si4 0.326559 0.380000 0.427622
Si Si5 0.169103 0.378283 0.549485
Si Si6 0.647538 0.618385 0.907448
Si Si7 0.302828 0.379011 0.776149
O O1 0.732427 0.673490 0.676689
O O2 0.715434 0.642818 0.837258
O O3 0.826184 0.813247 0.819390
O O4 0.977553 0.659106 0.846345
O O5 0.902709 0.826420 0.120114
O O6 0.049580 0.000000 0.139011
O O7 0.000000 0.874063 0.000000
O O8 0.198507 0.676290 0.809236
O O9 0.256904 0.676026 0.990313
O O10 0.500000 0.364685 0.500000
O O11 0.302611 0.500000 0.408527
O O12 0.241846 0.345766 0.484832
O O13 0.169203 0.500000 0.547366
O O14 0.259064 0.350837 0.664665
O O15 0.000000 0.344862 0.500000
O O16 0.660181 0.500000 0.928873
O O17 0.474206 0.643886 0.851158
O O18 0.283407 0.500000 0.778777
#
# Coordination Sequence:
#
# PCOD9144494 Si02
#       7
#     4   4   4   4   4   4   4
#     4  10  19  32  50  76  91 131 169 208 243 288
#     4   9  18  36  56  74  95 119 161 218 267 295
#     4  10  19  32  48  75  91 130 167 199 243 292
#     4  10  19  30  45  69 104 135 163 199 237 281
#     4   9  17  29  43  62  90 132 173 197 221 262
#     4  11  20  30  43  70 110 138 158 187 238 297
#     4  10  20  31  45  67 106 144 162 189 233 288
#
# _framework density 14.852575
#
# number of rings (size 3 to 8) (size 9 to 14) (size 15 to 20)
#    0.857    1.286    1.429    3.429    0.000    7.429 
#    0.000    0.000    0.000    3.000    0.000    2.000 
#    0.000    0.000    0.000    0.000    0.000    0.000 
#
# Total GULP energy -155926.910529 kJ/mol
# GULP energy per Si atom -5568.818233 kJ/mol
# Density = 1.481877 g / cm^3
# Si number density = 14.852575 Si / 1000 Ang^3
#
#
#
# Elastic Constant Matrix: (Units=GPa)
#
#
# Indices 1 2 3 4 5 6 
#
# 1 40.1274 1.2272 -8.2798 0.0000 -2.8103 0.0000
# 2 1.2272 33.5334 5.6458 0.0000 6.6535 0.0000
# 3 -8.2798 5.6458 60.2025 0.0000 -5.3321 0.0000
# 4 0.0000 0.0000 0.0000 0.8618 0.0000 4.3053
# 5 -2.8103 6.6535 -5.3321 0.0000 26.1347 0.0000
# 6 0.0000 0.0000 0.0000 4.3053 0.0000 -5.0163
#
#
#
# Elastic Compliance Matrix: (Units=1/GPa)
#
#
# Indices 1 2 3 4 5 6 
#
# 1 0.026171 -0.002525 0.004218 0.000000 0.004318 0.000000
# 2 -0.002525 0.032491 -0.004227 0.000000 -0.009406 0.000000
# 3 0.004218 -0.004227 0.018049 0.000000 0.005212 0.000000
# 4 0.000000 0.000000 0.000000 0.219452 0.000000 0.188346
# 5 0.004318 -0.009406 0.005212 0.000000 0.042186 0.000000
# 6 0.000000 0.000000 0.000000 0.188346 0.000000 -0.037701
#
#
# Mechanical properties :
#
#
# Convention : Reuss Voigt Hill
#
# Bulk Modulus (GPa) = 13.95792 14.56108 14.25950
# Shear Modulus (GPa) = 15.17012 13.41404 14.29208
#
# Velocity S-wave (km/s) = 3.19937 3.00850 3.10540
# Velocity P-wave (km/s) = 4.80271 4.67901 4.74126
#
# Compressibility (1/GPa) = 0.07164390
#
# Stress axis : x y z
#
# Youngs Moduli (GPa) = 38.21073 30.77734 55.40515
#
# Poissons Ratio (x) = 0.07770 -0.23373
# Poissons Ratio (y) = 0.09647 0.23422
# Poissons Ratio (z) = -0.16119 0.13011
#
# Static dielectric constant tensor:
#      x y z
#    x 1.500540 0.000000 0.000750 
#    y 0.000000 1.471340 0.000000 
#    z 0.000750 0.000000 1.486560 
# 
# From -- ./inp_files/61630.got.cif
#   From: 2010.05.17/outbox.cif.g08.bks.cpg/sg10_31_cif.got.tgz:61630.got - 2010.06.03 11:33:40.
