data_PCOD9144323
_publ_section_title
;
Structure prediction by ZEFSAII (Michael W. Deem and Ramdas Pophale) SiO2 
 PCOD9144323
Probable space group: P 2/M
;
_chemical_formula_sum "Si O2"
_cell_formula_units_Z 32
_cell_length_a 24.167317
_cell_length_b 9.071870
_cell_length_c 12.681644
_cell_angle_alpha 90.000000
_cell_angle_beta 133.334441
_cell_angle_gamma 90.000000
_cell_volume 2022.322679
_symmetry_space_group_name_H-M "P 2/M"
_symmetry_group_IT_number 10
_symmetry_cell_setting 'monoclinic'
loop_
_space_group_symop_operation_xyz
x,y,z
-x,y,-z
-x,-y,-z
x,-y,z
loop_
_atom_site_type_symbol
_atom_site_label
_atom_site_fract_x
_atom_site_fract_y
_atom_site_fract_z
Si Si1 0.183210 0.176010 0.863493
Si Si2 0.092940 0.175234 0.962569
Si Si3 0.174767 0.676010 0.266681
Si Si4 0.508965 0.829905 0.383988
Si Si5 0.338413 0.675361 0.392736
Si Si6 0.342069 0.822169 0.168228
Si Si7 0.080934 0.176079 0.326446
Si Si8 0.917634 0.324197 0.443644
O O1 0.137206 0.207014 0.911548
O O2 0.145451 0.263230 0.718931
O O3 0.177039 0.000000 0.836294
O O4 0.271138 0.213140 0.001102
O O5 0.004013 0.206589 0.828943
O O6 0.101639 0.000000 0.995829
O O7 0.128542 0.265769 0.104679
O O8 0.166482 0.500000 0.264637
O O9 0.263425 0.710604 0.361747
O O10 0.141028 0.754685 0.324764
O O11 0.500000 0.826242 0.500000
O O12 0.583036 0.735330 0.455818
O O13 0.425897 0.779641 0.236200
O O14 0.521613 0.000000 0.370302
O O15 0.342992 0.500000 0.385475
O O16 0.329677 0.749182 0.266105
O O17 0.343350 0.000000 0.185061
O O18 0.087599 0.246402 0.450418
O O19 0.089418 0.000000 0.343708
O O20 0.911487 0.500000 0.447430
O O21 0.000000 0.290544 0.500000
#
# Coordination Sequence:
#
# PCOD9144323 Si02
#       8
#     4   4   4   4   4   4   4   4
#     4  10  19  33  54  76 101 133 170 210 249 293
#     4  10  20  34  53  75  99 132 172 210 248 295
#     4  11  23  35  49  73 105 137 170 208 252 302
#     4   8  15  27  44  67  96 130 165 199 240 292
#     4  10  19  29  44  69 101 135 166 199 244 298
#     4   9  17  30  48  71  99 131 166 204 245 292
#     4  11  23  38  55  73  96 131 176 216 251 295
#     4  11  23  37  54  75 101 131 166 210 258 301
#
# _framework density 15.823388
#
# number of rings (size 3 to 8) (size 9 to 14) (size 15 to 20)
#    0.000    2.000    2.500    2.625    0.000    7.750 
#    0.000    0.000    0.000    0.000    0.000    0.875 
#    0.000    7.000    0.000    0.000    0.000    0.000 
#
# Total GULP energy -178554.464536 kJ/mol
# GULP energy per Si atom -5579.827017 kJ/mol
# Density = 1.578737 g / cm^3
# Si number density = 15.823388 Si / 1000 Ang^3
#
#
#
# Elastic Constant Matrix: (Units=GPa)
#
#
# Indices 1 2 3 4 5 6 
#
# 1 116.6094 66.0607 85.5030 0.0000 13.2724 0.0000
# 2 66.0607 56.0047 58.5094 0.0000 9.4020 0.0000
# 3 85.5030 58.5094 105.6934 0.0000 24.3856 0.0000
# 4 0.0000 0.0000 0.0000 -3.8070 0.0000 -3.2573
# 5 13.2724 9.4020 24.3856 0.0000 26.2328 0.0000
# 6 0.0000 0.0000 0.0000 -3.2573 0.0000 25.8351
#
#
#
# Elastic Compliance Matrix: (Units=1/GPa)
#
#
# Indices 1 2 3 4 5 6 
#
# 1 0.031181 -0.023857 -0.013177 0.000000 0.005024 0.000000
# 2 -0.023857 0.062111 -0.016209 0.000000 0.004877 0.000000
# 3 -0.013177 -0.016209 0.033373 0.000000 -0.018547 0.000000
# 4 0.000000 0.000000 0.000000 -0.237095 0.000000 -0.029893
# 5 0.005024 0.004877 -0.018547 0.000000 0.051072 0.000000
# 6 0.000000 0.000000 0.000000 -0.029893 0.000000 0.034938
#
#
# Mechanical properties :
#
#
# Convention : Reuss Voigt Hill
#
# Bulk Modulus (GPa) = 49.55446 77.60596 63.58021
# Shear Modulus (GPa) = 56.31073 14.20113 35.25593
#
# Velocity S-wave (km/s) = 5.97196 2.99904 4.72539
# Velocity P-wave (km/s) = 8.88468 7.81946 8.36903
#
# Compressibility (1/GPa) = 0.02017982
#
# Stress axis : x y z
#
# Youngs Moduli (GPa) = 32.07081 16.10010 29.96390
#
# Poissons Ratio (x) = 0.38410 0.39484
# Poissons Ratio (y) = 0.76510 0.48569
# Poissons Ratio (z) = 0.42260 0.26097
#
# Static dielectric constant tensor:
#      x y z
#    x 1.518970 0.000000 0.032240 
#    y 0.000000 1.525590 0.000000 
#    z 0.032240 0.000000 1.519950 
# 
# From -- ./inp_files/54924.got.cif
#   From: 2010.05.17/outbox.cif.g08.bks.cpg/sg10_28_cif.got.tgz:54924.got - 2010.06.03 11:33:40.
