data_PCOD9144780
_publ_section_title
;
Structure prediction by ZEFSAII (Michael W. Deem and Ramdas Pophale) SiO2 
 PCOD9144780
Probable space group: P 2/M
;
_chemical_formula_sum "Si O2"
_cell_formula_units_Z 32
_cell_length_a 29.396181
_cell_length_b 14.910331
_cell_length_c 10.371730
_cell_angle_alpha 90.000000
_cell_angle_beta 28.107667
_cell_angle_gamma 90.000000
_cell_volume 2141.756454
_symmetry_space_group_name_H-M "P 2/M"
_symmetry_group_IT_number 10
_symmetry_cell_setting 'monoclinic'
loop_
_space_group_symop_operation_xyz
x,y,z
-x,y,-z
-x,-y,-z
x,-y,z
loop_
_atom_site_type_symbol
_atom_site_label
_atom_site_fract_x
_atom_site_fract_y
_atom_site_fract_z
Si Si1 0.272831 0.892055 0.092223
Si Si2 0.419857 0.891512 0.950352
Si Si3 0.272835 0.107945 0.543605
Si Si4 0.640539 0.891002 0.398654
Si Si5 0.117308 0.397503 0.060248
Si Si6 0.114619 0.753468 0.863595
Si Si7 0.117304 0.602497 0.353220
Si Si8 0.885383 0.753468 0.436685
O O1 0.358280 0.867083 0.978182
O O2 0.176880 0.840804 0.374479
O O3 0.260583 0.000000 0.128568
O O4 0.304607 0.865750 0.868918
O O5 0.358280 0.867083 0.230405
O O6 0.425219 0.000000 0.936945
O O7 0.529705 0.858419 0.675733
O O8 0.304613 0.134249 0.608025
O O9 0.176883 0.159196 0.741112
O O10 0.260586 0.000000 0.568504
O O11 0.636641 0.000000 0.408399
O O12 0.148356 0.500000 0.956306
O O13 0.146959 0.373460 0.132604
O O14 0.000001 0.398274 0.352851
O O15 0.146535 0.326257 0.879460
O O16 0.129013 0.729685 0.677467
O O17 0.000001 0.769003 0.169104
O O18 0.148352 0.500000 0.301927
O O19 0.146532 0.673742 0.387871
#
# Coordination Sequence:
#
# PCOD9144780 Si02
#       8
#     4   4   4   4   4   4   4   4
#     4  10  19  31  45  66  94 124 157 189 222 267
#     4   9  16  30  49  65  86 117 151 193 239 272
#     4  10  19  31  45  66  94 124 157 189 222 267
#     4   9  18  30  47  67  86 113 153 199 243 272
#     4   8  15  29  48  67  87 114 148 188 233 271
#     4  10  20  31  44  65  94 128 159 185 217 262
#     4   8  15  29  48  67  87 114 148 188 233 271
#     4  10  20  31  44  65  94 128 159 185 217 262
#
# _framework density 14.941007000000001
#
# number of rings (size 3 to 8) (size 9 to 14) (size 15 to 20)
#    0.000    2.750    1.250    1.500    1.750    4.000 
#    0.000    3.750    0.000    2.250    0.000    0.000 
#    0.000    6.000    0.000    0.000    0.000    0.000 
#
# Total GULP energy -178170.836073 kJ/mol
# GULP energy per Si atom -5567.838627 kJ/mol
# Density = 1.490700 g / cm^3
# Si number density = 14.941007 Si / 1000 Ang^3
#
#
#
# Elastic Constant Matrix: (Units=GPa)
#
#
# Indices 1 2 3 4 5 6 
#
# 1 102.2827 40.7750 47.0996 0.0000 19.3363 0.0000
# 2 40.7750 52.9716 33.5444 0.0000 7.4008 0.0000
# 3 47.0996 33.5444 68.0848 0.0000 15.6639 0.0000
# 4 0.0000 0.0000 0.0000 4.5455 0.0000 9.3804
# 5 19.3363 7.4008 15.6639 0.0000 21.9030 0.0000
# 6 0.0000 0.0000 0.0000 9.3804 0.0000 13.7108
#
#
#
# Elastic Compliance Matrix: (Units=1/GPa)
#
#
# Indices 1 2 3 4 5 6 
#
# 1 0.017502 -0.008509 -0.006011 0.000000 -0.008277 0.000000
# 2 -0.008509 0.031580 -0.010708 0.000000 0.004499 0.000000
# 3 -0.006011 -0.010708 0.026414 0.000000 -0.009965 0.000000
# 4 0.000000 0.000000 0.000000 -0.534114 0.000000 0.365421
# 5 -0.008277 0.004499 -0.009965 0.000000 0.058570 0.000000
# 6 0.000000 0.000000 0.000000 0.365421 0.000000 -0.177072
#
#
# Mechanical properties :
#
#
# Convention : Reuss Voigt Hill
#
# Bulk Modulus (GPa) = 39.93525 51.79747 45.86636
# Shear Modulus (GPa) = -9.64656 14.82651 2.58998
#
# Velocity S-wave (km/s) = -2.54371 3.15356 1.31804
# Velocity P-wave (km/s) = 4.26138 6.92843 5.75163
#
# Compressibility (1/GPa) = 0.02504053
#
# Stress axis : x y z
#
# Youngs Moduli (GPa) = 57.13775 31.66553 37.85910
#
# Poissons Ratio (x) = 0.26945 0.22756
# Poissons Ratio (y) = 0.48620 0.40538
# Poissons Ratio (z) = 0.34343 0.33906
#
# Static dielectric constant tensor:
#      x y z
#    x 1.503710 0.000000 0.015160 
#    y 0.000000 1.477930 0.000000 
#    z 0.015160 0.000000 1.488890 
# 
# From -- ./inp_files/37701.got.cif
#   From: 2010.05.17/outbox.cif.g08.bks.cpg/sg10_19_cif.got.tgz:37701.got - 2010.06.03 11:33:40.
