data_PCOD9144609
_publ_section_title
;
Structure prediction by ZEFSAII (Michael W. Deem and Ramdas Pophale) SiO2 
 PCOD9144609
Probable space group: P 2/M
;
_chemical_formula_sum "Si O2"
_cell_formula_units_Z 32
_cell_length_a 15.707388
_cell_length_b 7.548758
_cell_length_c 12.245101
_cell_angle_alpha 90.000000
_cell_angle_beta 93.584101
_cell_angle_gamma 90.000000
_cell_volume 1449.077402
_symmetry_space_group_name_H-M "P 2/M"
_symmetry_group_IT_number 10
_symmetry_cell_setting 'monoclinic'
loop_
_space_group_symop_operation_xyz
x,y,z
-x,y,-z
-x,-y,-z
x,-y,z
loop_
_atom_site_type_symbol
_atom_site_label
_atom_site_fract_x
_atom_site_fract_y
_atom_site_fract_z
Si Si1 0.200020 0.786844 0.967785
Si Si2 0.573553 0.783113 0.589159
Si Si3 0.084145 0.216180 0.573374
Si Si4 0.764908 0.783741 0.568129
Si Si5 0.449736 0.801246 0.164742
Si Si6 0.042409 0.216406 0.814201
Si Si7 0.846461 0.783694 0.803254
Si Si8 0.616160 0.302440 0.075355
O O1 0.111843 0.724264 0.907438
O O2 0.197123 0.000000 0.969112
O O3 0.203799 0.725921 0.093274
O O4 0.284292 0.737541 0.908514
O O5 0.500000 0.724772 0.500000
O O6 0.666835 0.729187 0.554384
O O7 0.562064 0.726255 0.714810
O O8 0.570499 0.000000 0.591290
O O9 0.170456 0.274671 0.521088
O O10 0.074200 0.270635 0.697255
O O11 0.000000 0.271545 0.500000
O O12 0.084061 0.000000 0.572024
O O13 0.804480 0.726421 0.687120
O O14 0.765448 0.000000 0.567356
O O15 0.407680 0.712917 0.055102
O O16 0.412770 0.000000 0.163625
O O17 0.549629 0.809853 0.140150
O O18 0.944911 0.272585 0.821519
O O19 0.040981 0.000000 0.817716
O O20 0.846490 0.000000 0.800877
O O21 0.598788 0.500000 0.110745
#
# Coordination Sequence:
#
# PCOD9144609 Si02
#       8
#     4   4   4   4   4   4   4   4
#     4  10  19  30  47  73 102 131 166 209 262 316
#     4   9  18  30  46  75 112 141 166 206 262 316
#     4   9  14  22  36  58  94 133 164 198 248 308
#     4   9  15  23  38  59  91 135 170 196 240 301
#     4  10  19  35  59  81 104 134 173 217 262 313
#     4   9  16  25  40  66  99 133 166 207 256 306
#     4   9  15  25  42  65  95 129 168 211 254 299
#     4  11  22  36  54  76 104 138 176 219 265 315
#
# _framework density 22.083015
#
# number of rings (size 3 to 8) (size 9 to 14) (size 15 to 20)
#    0.000    2.500    1.250    3.375    0.000    4.500 
#    0.000    3.750    0.000    3.000    0.000    0.000 
#    0.000    0.500    0.000    0.250    0.000    0.000 
#
# Total GULP energy -178719.163408 kJ/mol
# GULP energy per Si atom -5584.973857 kJ/mol
# Density = 2.203275 g / cm^3
# Si number density = 22.083015 Si / 1000 Ang^3
#
#
#
# Elastic Constant Matrix: (Units=GPa)
#
#
# Indices 1 2 3 4 5 6 
#
# 1 144.4521 -3.9661 16.8391 0.0000 -14.2620 0.0000
# 2 -3.9661 54.9206 -1.7806 0.0000 1.3690 0.0000
# 3 16.8391 -1.7806 52.1014 0.0000 -22.6774 0.0000
# 4 0.0000 0.0000 0.0000 19.6518 0.0000 19.5178
# 5 -14.2620 1.3690 -22.6774 0.0000 31.2786 0.0000
# 6 0.0000 0.0000 0.0000 19.5178 0.0000 -24.5056
#
#
#
# Elastic Compliance Matrix: (Units=1/GPa)
#
#
# Indices 1 2 3 4 5 6 
#
# 1 0.007322 0.000427 -0.001325 0.000000 0.002359 0.000000
# 2 0.000427 0.018259 0.000326 0.000000 -0.000368 0.000000
# 3 -0.001325 0.000326 0.028291 0.000000 0.019893 0.000000
# 4 0.000000 0.000000 0.000000 0.028411 0.000000 0.022629
# 5 0.002359 -0.000368 0.019893 0.000000 0.047485 0.000000
# 6 0.000000 0.000000 0.000000 0.022629 0.000000 -0.022784
#
#
# Mechanical properties :
#
#
# Convention : Reuss Voigt Hill
#
# Bulk Modulus (GPa) = 18.96557 30.40656 24.68607
# Shear Modulus (GPa) = 39.77572 21.31040 30.54306
#
# Velocity S-wave (km/s) = 4.24865 3.10984 3.72304
# Velocity P-wave (km/s) = 5.71620 5.16661 5.44834
#
# Compressibility (1/GPa) = 0.05272712
#
# Stress axis : x y z
#
# Youngs Moduli (GPa) = 136.57814 54.76846 35.34661
#
# Poissons Ratio (x) = -0.02338 0.04683
# Poissons Ratio (y) = -0.05832 -0.01151
# Poissons Ratio (z) = 0.18096 -0.01784
#
# Static dielectric constant tensor:
#      x y z
#    x 1.794630 0.000000 -0.002810 
#    y 0.000000 1.849710 0.000000 
#    z -0.002810 0.000000 1.768350 
# 
# From -- ./inp_files/52779.got.cif
#   From: 2010.05.17/outbox.cif.g08.bks.cpg/sg10_27_cif.got.tgz:52779.got - 2010.06.03 11:33:40.
