data_PCOD9144089
_publ_section_title
;
Structure prediction by ZEFSAII (Michael W. Deem and Ramdas Pophale) SiO2 
 PCOD9144089
Probable space group: P 2/M
;
_chemical_formula_sum "Si O2"
_cell_formula_units_Z 32
_cell_length_a 13.761527
_cell_length_b 17.898445
_cell_length_c 16.680655
_cell_angle_alpha 90.000000
_cell_angle_beta 26.207279
_cell_angle_gamma 90.000000
_cell_volume 1814.444144
_symmetry_space_group_name_H-M "P 2/M"
_symmetry_group_IT_number 10
_symmetry_cell_setting 'monoclinic'
loop_
_space_group_symop_operation_xyz
x,y,z
-x,y,-z
-x,-y,-z
x,-y,z
loop_
_atom_site_type_symbol
_atom_site_label
_atom_site_fract_x
_atom_site_fract_y
_atom_site_fract_z
Si Si1 0.470128 0.699983 0.826144
Si Si2 0.012656 0.913236 0.187329
Si Si3 0.278996 0.635974 0.123625
Si Si4 0.480060 0.913526 0.418474
Si Si5 0.808639 0.803918 0.081269
Si Si6 0.788901 0.771369 0.705223
Si Si7 0.760671 0.081138 0.816332
Si Si8 0.135529 0.416305 0.483729
O O1 0.327515 0.738652 0.862628
O O2 0.584879 0.764743 0.795505
O O3 0.671496 0.645131 0.652320
O O4 0.324449 0.653525 0.997656
O O5 0.186550 0.906950 0.129794
O O6 0.777899 0.897695 0.403120
O O7 0.004059 0.000000 0.164870
O O8 0.072918 0.856559 0.072616
O O9 0.253517 0.713960 0.191280
O O10 0.054488 0.593662 0.309103
O O11 0.500000 0.600675 0.000000
O O12 0.500000 0.907695 0.500000
O O13 0.638661 0.856845 0.255633
O O14 0.528277 0.000000 0.360334
O O15 0.000000 0.777104 0.000000
O O16 0.839397 0.851594 0.703802
O O17 0.000000 0.746480 0.500000
O O18 0.853812 0.000000 0.724733
O O19 0.500000 0.079932 0.000000
O O20 0.229724 0.500000 0.417230
O O21 0.000000 0.410770 0.500000
#
# Coordination Sequence:
#
# PCOD9144089 Si02
#       8
#     4   4   4   4   4   4   4   4
#     4  11  23  38  57  86 119 155 186 232 287 341
#     4  10  21  38  57  80 110 150 199 254 302 343
#     4  10  18  35  56  86 119 153 182 216 281 334
#     4  10  21  38  59  82 111 148 196 257 316 346
#     4  12  24  37  58  85 111 151 200 248 297 345
#     4  11  19  33  53  76 112 150 189 229 279 335
#     4  10  21  36  51  73 109 154 202 243 279 338
#     4  11  21  38  63  96 126 150 183 220 271 349
#
# _framework density 17.636254999999998
#
# number of rings (size 3 to 8) (size 9 to 14) (size 15 to 20)
#    0.000    1.375    5.000    3.000    1.750    2.500 
#    0.000    0.625    0.000    0.375    0.000    0.875 
#    0.000    0.000    0.000    0.000    0.000    0.000 
#
# Total GULP energy -178528.818163 kJ/mol
# GULP energy per Si atom -5579.025568 kJ/mol
# Density = 1.759611 g / cm^3
# Si number density = 17.636255 Si / 1000 Ang^3
#
#
#
# Elastic Constant Matrix: (Units=GPa)
#
#
# Indices 1 2 3 4 5 6 
#
# 1 93.9169 37.4871 28.4844 0.0000 -15.8442 0.0000
# 2 37.4871 91.4353 30.1466 0.0000 -0.4959 0.0000
# 3 28.4844 30.1466 97.0517 0.0000 3.5079 0.0000
# 4 0.0000 0.0000 0.0000 19.8436 0.0000 -4.1898
# 5 -15.8442 -0.4959 3.5079 0.0000 21.1146 0.0000
# 6 0.0000 0.0000 0.0000 -4.1898 0.0000 10.4461
#
#
#
# Elastic Compliance Matrix: (Units=1/GPa)
#
#
# Indices 1 2 3 4 5 6 
#
# 1 0.015910 -0.005313 -0.003467 0.000000 0.012390 0.000000
# 2 -0.005313 0.013976 -0.002666 0.000000 -0.003215 0.000000
# 3 -0.003467 -0.002666 0.012320 0.000000 -0.004711 0.000000
# 4 0.000000 0.000000 0.000000 0.055057 0.000000 0.022082
# 5 0.012390 -0.003215 -0.004711 0.000000 0.057365 0.000000
# 6 0.000000 0.000000 0.000000 0.022082 0.000000 0.104587
#
#
# Mechanical properties :
#
#
# Convention : Reuss Voigt Hill
#
# Bulk Modulus (GPa) = 51.77381 52.73780 52.25580
# Shear Modulus (GPa) = 17.32837 22.69991 20.01414
#
# Velocity S-wave (km/s) = 3.13795 3.59153 3.37238
# Velocity P-wave (km/s) = 6.52297 6.86781 6.69761
#
# Compressibility (1/GPa) = 0.01931479
#
# Stress axis : x y z
#
# Youngs Moduli (GPa) = 62.85347 71.54980 81.17029
#
# Poissons Ratio (x) = 0.38011 0.28143
# Poissons Ratio (y) = 0.33391 0.21640
# Poissons Ratio (z) = 0.21792 0.19075
#
# Static dielectric constant tensor:
#      x y z
#    x 1.607570 0.000000 -0.017150 
#    y 0.000000 1.641000 0.000000 
#    z -0.017150 0.000000 1.635300 
# 
# From -- ./inp_files/65389.got.cif
#   From: 2010.05.17/outbox.cif.g08.bks.cpg/sg10_33_cif.got.tgz:65389.got - 2010.06.03 11:33:40.
