data_PCOD9144904
_publ_section_title
;
Structure prediction by ZEFSAII (Michael W. Deem and Ramdas Pophale) SiO2 
 PCOD9144904
Probable space group: P 2/M
;
_chemical_formula_sum "Si O2"
_cell_formula_units_Z 30
_cell_length_a 12.820688
_cell_length_b 14.361459
_cell_length_c 15.692236
_cell_angle_alpha 90.000000
_cell_angle_beta 147.340250
_cell_angle_gamma 90.000000
_cell_volume 1559.215438
_symmetry_space_group_name_H-M "P 2/M"
_symmetry_group_IT_number 10
_symmetry_cell_setting 'monoclinic'
loop_
_space_group_symop_operation_xyz
x,y,z
-x,y,-z
-x,-y,-z
x,-y,z
loop_
_atom_site_type_symbol
_atom_site_label
_atom_site_fract_x
_atom_site_fract_y
_atom_site_fract_z
Si Si1 0.348644 0.253791 0.633429
Si Si2 0.413496 0.393629 0.811768
Si Si3 0.979799 0.894497 0.885655
Si Si4 0.176621 0.609605 0.810288
Si Si5 0.886265 0.232274 0.677009
Si Si6 0.405976 0.105743 0.096908
Si Si7 0.183218 0.110431 0.784786
Si Si8 0.000000 0.802142 0.500000
O O1 0.436172 0.343767 0.737486
O O2 0.462394 0.167865 0.752332
O O3 0.314327 0.250415 0.509621
O O4 0.135021 0.253043 0.528411
O O5 0.359171 0.500000 0.761392
O O6 0.251334 0.356930 0.767697
O O7 0.621909 0.389343 0.999708
O O8 0.876087 0.809549 0.764773
O O9 0.897612 0.000000 0.815732
O O10 0.196484 0.896714 0.997004
O O11 0.000000 0.878826 0.000000
O O12 0.113900 0.500000 0.762335
O O13 0.025073 0.678569 0.752353
O O14 0.990386 0.146662 0.698931
O O15 0.479760 0.000000 0.139948
O O16 0.355794 0.144281 0.967183
O O17 0.148162 0.140773 0.663361
O O18 0.196472 0.000000 0.797312
#
# Coordination Sequence:
#
# PCOD9144904 Si02
#       8
#     4   4   4   4   4   4   4   2
#     4  11  21  31  44  69 103 136 168 201 242 288
#     4   9  17  30  48  70  97 133 176 215 245 277
#     4   9  18  36  60  79  94 119 159 206 258 312
#     4   9  18  32  50  71  97 133 176 215 246 281
#     4  10  19  31  48  71  98 126 156 200 250 296
#     4   9  19  33  49  69  95 128 163 202 246 295
#     4   9  17  30  45  63  90 125 165 202 236 276
#     4  10  21  30  41  64  96 138 173 202 235 272
#
# _framework density 19.240445999999999
#
# number of rings (size 3 to 8) (size 9 to 14) (size 15 to 20)
#    0.000    2.533    0.000    5.400    0.000    5.333 
#    0.000    3.667    0.000    2.800    0.000    0.933 
#    0.000    4.267    0.000    0.000    0.000    0.000 
#
# Total GULP energy -167017.506729 kJ/mol
# GULP energy per Si atom -5567.250224 kJ/mol
# Density = 1.919665 g / cm^3
# Si number density = 19.240446 Si / 1000 Ang^3
#
#
#
# Elastic Constant Matrix: (Units=GPa)
#
#
# Indices 1 2 3 4 5 6 
#
# 1 38.9927 9.7785 18.5215 0.0000 -25.0483 0.0000
# 2 9.7785 79.3218 42.7711 0.0000 -17.1500 0.0000
# 3 18.5215 42.7711 102.7325 0.0000 -25.5114 0.0000
# 4 0.0000 0.0000 0.0000 88.9756 0.0000 -13.3988
# 5 -25.0483 -17.1500 -25.5114 0.0000 27.0564 0.0000
# 6 0.0000 0.0000 0.0000 -13.3988 0.0000 23.1632
#
#
#
# Elastic Compliance Matrix: (Units=1/GPa)
#
#
# Indices 1 2 3 4 5 6 
#
# 1 0.066001 0.004857 0.002633 0.000000 0.066664 0.000000
# 2 0.004857 0.017176 -0.005492 0.000000 0.010205 0.000000
# 3 0.002633 -0.005492 0.014738 0.000000 0.012852 0.000000
# 4 0.000000 0.000000 0.000000 0.012311 0.000000 0.007122
# 5 0.066664 0.010205 0.012852 0.000000 0.117263 0.000000
# 6 0.000000 0.000000 0.000000 0.007122 0.000000 0.047291
#
#
# Mechanical properties :
#
#
# Convention : Reuss Voigt Hill
#
# Bulk Modulus (GPa) = 9.81254 40.35437 25.08345
# Shear Modulus (GPa) = 16.40659 37.83743 27.12201
#
# Velocity S-wave (km/s) = 2.92329 4.43940 3.75858
# Velocity P-wave (km/s) = 4.06266 6.87728 5.64810
#
# Compressibility (1/GPa) = 0.10191044
#
# Stress axis : x y z
#
# Youngs Moduli (GPa) = 15.15126 58.22035 67.85361
#
# Poissons Ratio (x) = -0.28278 -0.17867
# Poissons Ratio (y) = -0.07359 0.37269
# Poissons Ratio (z) = -0.03990 0.31978
#
# Static dielectric constant tensor:
#      x y z
#    x 1.696810 0.000000 -0.030640 
#    y 0.000000 1.715050 0.000000 
#    z -0.030640 0.000000 1.781340 
# 
# From -- ./inp_files/67614.got.cif
#   From: 2010.05.17/outbox.cif.g08.bks.cpg/sg10_34_cif.got.tgz:67614.got - 2010.06.03 11:33:40.
