data_PCOD9144966
_publ_section_title
;
Structure prediction by ZEFSAII (Michael W. Deem and Ramdas Pophale) SiO2 
 PCOD9144966
Probable space group: P 2/M
;
_chemical_formula_sum "Si O2"
_cell_formula_units_Z 28
_cell_length_a 11.612047
_cell_length_b 7.409076
_cell_length_c 15.671271
_cell_angle_alpha 90.000000
_cell_angle_beta 115.751442
_cell_angle_gamma 90.000000
_cell_volume 1214.370188
_symmetry_space_group_name_H-M "P 2/M"
_symmetry_group_IT_number 10
_symmetry_cell_setting 'monoclinic'
loop_
_space_group_symop_operation_xyz
x,y,z
-x,y,-z
-x,-y,-z
x,-y,z
loop_
_atom_site_type_symbol
_atom_site_label
_atom_site_fract_x
_atom_site_fract_y
_atom_site_fract_z
Si Si1 0.583312 0.779039 0.262199
Si Si2 0.144565 0.780010 0.719142
Si Si3 0.831891 0.292318 0.791148
Si Si4 0.403763 0.779050 0.542686
Si Si5 0.866596 0.207301 0.605584
Si Si6 0.117931 0.781474 0.907934
Si Si7 0.332338 0.794297 0.103787
O O1 0.726102 0.721597 0.284412
O O2 0.553474 0.725894 0.349386
O O3 0.472798 0.714820 0.162679
O O4 0.581496 0.000000 0.258855
O O5 0.148912 0.731846 0.820422
O O6 0.008393 0.714338 0.638947
O O7 0.140758 0.000000 0.714395
O O8 0.796181 0.500000 0.768972
O O9 0.841749 0.209287 0.699923
O O10 0.733117 0.204042 0.824077
O O11 0.973430 0.280767 0.877671
O O12 0.500000 0.719649 0.500000
O O13 0.259352 0.714901 0.478337
O O14 0.401608 0.000000 0.539118
O O15 0.873866 0.000000 0.578520
O O16 0.113161 0.000000 0.912549
O O17 0.227474 0.713128 0.006508
O O18 0.351116 0.000000 0.079881
#
# Coordination Sequence:
#
# PCOD9144966 Si02
#       7
#     4   4   4   4   4   4   4
#     4   9  17  28  46  74 102 127 161 204 242 280
#     4   8  15  28  45  70 100 126 160 203 241 280
#     4  11  21  32  49  73  99 126 161 204 245 289
#     4   9  16  26  44  72 102 130 161 197 239 286
#     4   9  17  31  51  72  98 130 161 199 245 290
#     4   9  18  32  50  72  98 128 161 198 242 291
#     4  10  19  31  49  71  98 132 163 196 242 290
#
# _framework density 23.057219
#
# number of rings (size 3 to 8) (size 9 to 14) (size 15 to 20)
#    0.000    2.714    0.000    3.429    0.000    5.714 
#    0.000    5.714    0.000    7.286    0.000    9.000 
#    0.000    0.000    0.000    0.000    0.000    0.000 
#
# Total GULP energy -156393.958301 kJ/mol
# GULP energy per Si atom -5585.498511 kJ/mol
# Density = 2.300474 g / cm^3
# Si number density = 23.057219 Si / 1000 Ang^3
#
#
#
# Elastic Constant Matrix: (Units=GPa)
#
#
# Indices 1 2 3 4 5 6 
#
# 1 95.5509 -1.9755 24.0585 0.0000 21.1031 0.0000
# 2 -1.9755 81.9290 -4.5725 0.0000 3.0806 0.0000
# 3 24.0585 -4.5725 82.4388 0.0000 40.5324 0.0000
# 4 0.0000 0.0000 0.0000 -35.4658 0.0000 -23.5167
# 5 21.1031 3.0806 40.5324 0.0000 35.9764 0.0000
# 6 0.0000 0.0000 0.0000 -23.5167 0.0000 -88.1809
#
#
#
# Elastic Compliance Matrix: (Units=1/GPa)
#
#
# Indices 1 2 3 4 5 6 
#
# 1 0.012049 0.000561 0.000030 0.000000 -0.007149 0.000000
# 2 0.000561 0.012541 0.002739 0.000000 -0.004488 0.000000
# 3 0.000030 0.002739 0.027792 0.000000 -0.031564 0.000000
# 4 0.000000 0.000000 0.000000 -0.034253 0.000000 0.009135
# 5 -0.007149 -0.004488 -0.031564 0.000000 0.067935 0.000000
# 6 0.000000 0.000000 0.000000 0.009135 0.000000 -0.013777
#
#
# Mechanical properties :
#
#
# Convention : Reuss Voigt Hill
#
# Bulk Modulus (GPa) = 16.93733 32.77108 24.85420
# Shear Modulus (GPa) = 58.61108 -1.37349 28.61880
#
# Velocity S-wave (km/s) = 5.04728 -0.77265 3.52690
# Velocity P-wave (km/s) = 6.42872 3.66713 5.23337
#
# Compressibility (1/GPa) = 0.05904118
#
# Stress axis : x y z
#
# Youngs Moduli (GPa) = 82.99675 79.73958 35.98119
#
# Poissons Ratio (x) = -0.04474 -0.00108
# Poissons Ratio (y) = -0.04656 -0.09854
# Poissons Ratio (z) = -0.00249 -0.21838
#
# Static dielectric constant tensor:
#      x y z
#    x 1.829730 0.000000 0.028610 
#    y 0.000000 1.913880 0.000000 
#    z 0.028610 0.000000 1.841110 
# 
# From -- ./inp_files/49144.got.cif
#   From: 2010.05.17/outbox.cif.g08.bks.cpg/sg10_25_cif.got.tgz:49144.got - 2010.06.03 11:33:40.
