data_PCOD9144412
_publ_section_title
;
Structure prediction by ZEFSAII (Michael W. Deem and Ramdas Pophale) SiO2 
 PCOD9144412
Probable space group: P 2/M
;
_chemical_formula_sum "Si O2"
_cell_formula_units_Z 28
_cell_length_a 5.595187
_cell_length_b 16.664926
_cell_length_c 15.199665
_cell_angle_alpha 90.000000
_cell_angle_beta 57.705621
_cell_angle_gamma 90.000000
_cell_volume 1198.036922
_symmetry_space_group_name_H-M "P 2/M"
_symmetry_group_IT_number 10
_symmetry_cell_setting 'monoclinic'
loop_
_space_group_symop_operation_xyz
x,y,z
-x,y,-z
-x,-y,-z
x,-y,z
loop_
_atom_site_type_symbol
_atom_site_label
_atom_site_fract_x
_atom_site_fract_y
_atom_site_fract_z
Si Si1 0.931666 0.405276 0.637637
Si Si2 0.146779 0.143949 0.226402
Si Si3 0.413474 0.594783 0.650929
Si Si4 0.197663 0.903924 0.879723
Si Si5 0.920662 0.359987 0.106639
Si Si6 0.808885 0.906161 0.459705
Si Si7 0.658994 0.314129 0.836303
O O1 0.965313 0.500000 0.614303
O O2 0.723603 0.370482 0.605677
O O3 0.746865 0.392536 0.763199
O O4 0.230539 0.371213 0.607613
O O5 0.475335 0.115894 0.161369
O O6 0.174568 0.238939 0.236497
O O7 0.953986 0.131352 0.177606
O O8 0.991195 0.099930 0.335995
O O9 0.446671 0.500000 0.628530
O O10 0.232311 0.602433 0.777302
O O11 0.183637 0.000000 0.871587
O O12 0.000000 0.880239 0.000000
O O13 0.673150 0.301725 0.117687
O O14 0.206327 0.324951 0.093813
O O15 0.000000 0.405690 0.000000
O O16 0.500000 0.870559 0.500000
O O17 0.000000 0.870133 0.500000
O O18 0.759409 0.000000 0.493718
#
# Coordination Sequence:
#
# PCOD9144412 Si02
#       7
#     4   4   4   4   4   4   4
#     4   8  14  27  43  59  86 122 162 208 252 303
#     4  12  23  38  60  84 115 148 183 233 281 322
#     4   8  14  24  38  55  76 111 161 214 264 304
#     4  11  24  40  58  82 113 153 196 229 265 319
#     4  10  19  30  42  59  90 129 171 218 260 304
#     4  10  21  38  61  87 111 137 173 218 276 343
#     4  10  21  32  46  70  96 129 171 213 263 316
#
# _framework density 23.371569000000001
#
# number of rings (size 3 to 8) (size 9 to 14) (size 15 to 20)
#    0.000    2.143    0.000    3.857    0.000    6.000 
#    0.000    0.000    0.000    8.571    0.000    0.000 
#    0.000    1.143    0.000    0.000    0.000    1.429 
#
# Total GULP energy -155951.644483 kJ/mol
# GULP energy per Si atom -5569.701589 kJ/mol
# Density = 2.331837 g / cm^3
# Si number density = 23.371569 Si / 1000 Ang^3
#
#
#
# Elastic Constant Matrix: (Units=GPa)
#
#
# Indices 1 2 3 4 5 6 
#
# 1 282.4601 2.4465 44.8119 0.0000 6.2009 0.0000
# 2 2.4465 32.5239 -6.3932 0.0000 -0.0626 0.0000
# 3 44.8119 -6.3932 80.9335 0.0000 0.4477 0.0000
# 4 0.0000 0.0000 0.0000 81.8933 0.0000 -4.1355
# 5 6.2009 -0.0626 0.4477 0.0000 47.3604 0.0000
# 6 0.0000 0.0000 0.0000 -4.1355 0.0000 18.6810
#
#
#
# Elastic Compliance Matrix: (Units=1/GPa)
#
#
# Indices 1 2 3 4 5 6 
#
# 1 0.003910 -0.000731 -0.002220 0.000000 -0.000492 0.000000
# 2 -0.000731 0.031368 0.002882 0.000000 0.000110 0.000000
# 3 -0.002220 0.002882 0.013812 0.000000 0.000164 0.000000
# 4 0.000000 0.000000 0.000000 0.012349 0.000000 0.002734
# 5 -0.000492 0.000110 0.000164 0.000000 0.021178 0.000000
# 6 0.000000 0.000000 0.000000 0.002734 0.000000 0.054136
#
#
# Mechanical properties :
#
#
# Convention : Reuss Voigt Hill
#
# Bulk Modulus (GPa) = 20.42826 53.07199 36.75012
# Shear Modulus (GPa) = 32.63558 53.25711 42.94635
#
# Velocity S-wave (km/s) = 3.74087 4.77877 4.29131
# Velocity P-wave (km/s) = 5.23626 7.29425 6.34919
#
# Compressibility (1/GPa) = 0.04895180
#
# Stress axis : x y z
#
# Youngs Moduli (GPa) = 255.77953 31.87926 72.40273
#
# Poissons Ratio (x) = 0.02332 0.16072
# Poissons Ratio (y) = 0.18707 -0.20868
# Poissons Ratio (z) = 0.56777 -0.09188
#
# Static dielectric constant tensor:
#      x y z
#    x 1.959010 0.000000 0.000080 
#    y 0.000000 1.850280 0.000000 
#    z 0.000080 0.000000 1.921990 
# 
# From -- ./inp_files/9763.got.cif
#   From: 2010.05.17/outbox.cif.g08.bks.cpg/sg10_5_cif.got.tgz:9763.got - 2010.06.03 11:33:40.
