data_PCOD9144185
_publ_section_title
;
Structure prediction by ZEFSAII (Michael W. Deem and Ramdas Pophale) SiO2 
 PCOD9144185
Probable space group: P 2/M
;
_chemical_formula_sum "Si O2"
_cell_formula_units_Z 26
_cell_length_a 5.206784
_cell_length_b 14.781193
_cell_length_c 18.076298
_cell_angle_alpha 90.000000
_cell_angle_beta 67.956157
_cell_angle_gamma 90.000000
_cell_volume 1289.495962
_symmetry_space_group_name_H-M "P 2/M"
_symmetry_group_IT_number 10
_symmetry_cell_setting 'monoclinic'
loop_
_space_group_symop_operation_xyz
x,y,z
-x,y,-z
-x,-y,-z
x,-y,z
loop_
_atom_site_type_symbol
_atom_site_label
_atom_site_fract_x
_atom_site_fract_y
_atom_site_fract_z
Si Si1 0.000000 0.318993 0.000000
Si Si2 0.322784 0.677077 0.447924
Si Si3 0.948446 0.104495 0.753870
Si Si4 0.481321 0.500000 0.655055
Si Si5 0.502437 0.215530 0.289903
Si Si6 0.468878 0.338414 0.849252
Si Si7 0.158112 0.500000 0.235861
Si Si8 0.289035 0.179159 0.079222
O O1 0.221386 0.375108 0.927850
O O2 0.882302 0.249716 0.951454
O O3 0.500000 0.706880 0.500000
O O4 0.467949 0.586782 0.401284
O O5 0.345744 0.747053 0.378118
O O6 0.000000 0.660457 0.500000
O O7 0.701096 0.149691 0.733726
O O8 0.878166 0.114487 0.848958
O O9 0.224459 0.163022 0.714456
O O10 0.983629 0.000000 0.730747
O O11 0.706456 0.500000 0.696708
O O12 0.172347 0.500000 0.722594
O O13 0.589529 0.299853 0.226775
O O14 0.714569 0.410844 0.816503
O O15 0.550492 0.247605 0.884016
O O16 0.500000 0.131980 0.000000
#
# Coordination Sequence:
#
# PCOD9144185 Si02
#       8
#     2   4   4   2   4   4   2   4
#     4  10  18  39  61  88 124 180 222 276 313 373
#     4  12  25  44  71 102 134 171 215 262 324 394
#     4  11  23  41  67  98 128 168 218 268 326 394
#     4  12  26  43  66 102 139 166 213 276 322 379
#     4  11  23  42  69  93 134 170 214 260 325 399
#     4  10  22  38  62  88 130 179 226 264 319 377
#     4  12  26  38  65  97 132 180 225 265 318 372
#     4   9  20  36  59  88 126 171 216 274 328 372
#
# _framework density 20.162915000000002
#
# number of rings (size 3 to 8) (size 9 to 14) (size 15 to 20)
#    0.000    1.231    3.077    2.769    6.462    0.615 
#    0.000    3.846    0.000    9.231    0.000    0.000 
#    0.000    0.000    0.000    0.000    0.000    0.000 
#
# Total GULP energy -145160.287644 kJ/mol
# GULP energy per Si atom -5583.087986 kJ/mol
# Density = 2.011702 g / cm^3
# Si number density = 20.162915 Si / 1000 Ang^3
#
#
#
# Elastic Constant Matrix: (Units=GPa)
#
#
# Indices 1 2 3 4 5 6 
#
# 1 52.0597 -9.1095 14.5116 0.0000 -6.6465 0.0000
# 2 -9.1095 61.9048 19.5398 0.0000 -14.3072 0.0000
# 3 14.5116 19.5398 100.0039 0.0000 -10.5683 0.0000
# 4 0.0000 0.0000 0.0000 14.9168 0.0000 -4.0425
# 5 -6.6465 -14.3072 -10.5683 0.0000 42.8971 0.0000
# 6 0.0000 0.0000 0.0000 -4.0425 0.0000 26.5780
#
#
#
# Elastic Compliance Matrix: (Units=1/GPa)
#
#
# Indices 1 2 3 4 5 6 
#
# 1 0.021733 0.005361 -0.003754 0.000000 0.004230 0.000000
# 2 0.005361 0.019671 -0.003943 0.000000 0.006420 0.000000
# 3 -0.003754 -0.003943 0.011411 0.000000 0.000915 0.000000
# 4 0.000000 0.000000 0.000000 0.069921 0.000000 0.010635
# 5 0.004230 0.006420 0.000915 0.000000 0.026334 0.000000
# 6 0.000000 0.000000 0.000000 0.010635 0.000000 0.039243
#
#
# Mechanical properties :
#
#
# Convention : Reuss Voigt Hill
#
# Bulk Modulus (GPa) = 20.77136 29.31691 25.04414
# Shear Modulus (GPa) = 23.91968 29.48016 26.69992
#
# Velocity S-wave (km/s) = 3.44804 3.82789 3.64292
# Velocity P-wave (km/s) = 5.11626 5.84025 5.49020
#
# Compressibility (1/GPa) = 0.04814320
#
# Stress axis : x y z
#
# Youngs Moduli (GPa) = 46.01236 50.83624 87.63138
#
# Poissons Ratio (x) = -0.27252 0.32898
# Poissons Ratio (y) = -0.24666 0.34553
# Poissons Ratio (z) = 0.17273 0.20045
#
# Static dielectric constant tensor:
#      x y z
#    x 1.766080 0.000000 -0.005170 
#    y 0.000000 1.687130 0.000000 
#    z -0.005170 0.000000 1.768020 
# 
# From -- ./inp_files/73405.got.cif
#   From: 2010.05.17/outbox.cif.g08.bks.cpg/sg10_37_cif.got.tgz:73405.got - 2010.06.03 11:33:40.
