data_PCOD9144696
_publ_section_title
;
Structure prediction by ZEFSAII (Michael W. Deem and Ramdas Pophale) SiO2 
 PCOD9144696
Probable space group: P 2/M
;
_chemical_formula_sum "Si O2"
_cell_formula_units_Z 28
_cell_length_a 16.244298
_cell_length_b 7.422212
_cell_length_c 11.011273
_cell_angle_alpha 90.000000
_cell_angle_beta 74.096797
_cell_angle_gamma 90.000000
_cell_volume 1276.800920
_symmetry_space_group_name_H-M "P 2/M"
_symmetry_group_IT_number 10
_symmetry_cell_setting 'monoclinic'
loop_
_space_group_symop_operation_xyz
x,y,z
-x,y,-z
-x,-y,-z
x,-y,z
loop_
_atom_site_type_symbol
_atom_site_label
_atom_site_fract_x
_atom_site_fract_y
_atom_site_fract_z
Si Si1 0.911511 0.214980 0.475281
Si Si2 0.298717 0.708054 0.080695
Si Si3 0.721891 0.716583 0.643343
Si Si4 0.450685 0.720244 0.398228
Si Si5 0.067795 0.219439 0.801750
Si Si6 0.458109 0.718246 0.887211
Si Si7 0.879275 0.217518 0.960802
O O1 0.821194 0.242658 0.578163
O O2 0.903146 0.283855 0.340932
O O3 0.000000 0.284014 0.500000
O O4 0.922775 0.000000 0.462927
O O5 0.324948 0.500000 0.084586
O O6 0.304847 0.787852 0.212762
O O7 0.360394 0.778164 0.949818
O O8 0.201482 0.715601 0.078999
O O9 0.717259 0.500000 0.648875
O O10 0.649187 0.775171 0.576711
O O11 0.500000 0.779722 0.500000
O O12 0.451987 0.500000 0.400185
O O13 0.498487 0.780522 0.254850
O O14 0.119744 0.277644 0.899404
O O15 0.070178 0.000000 0.801653
O O16 0.969235 0.271252 0.864987
O O17 0.464177 0.500000 0.876088
O O18 0.500000 0.768958 0.000000
O O19 0.876999 0.000000 0.959539
#
# Coordination Sequence:
#
# PCOD9144696 Si02
#       7
#     4   4   4   4   4   4   4
#     4  10  20  34  53  75 100 134 173 206 244 305
#     4  10  19  30  49  76 101 126 164 207 249 295
#     4  10  20  33  50  75 105 133 165 212 260 297
#     4   9  17  30  49  73 100 132 171 210 249 301
#     4   8  16  32  51  70  95 129 168 203 240 294
#     4   9  15  28  48  66  91 129 163 193 237 295
#     4   9  17  32  53  72  94 128 166 205 247 293
#
# _framework density 21.929811000000001
#
# number of rings (size 3 to 8) (size 9 to 14) (size 15 to 20)
#    0.000    2.714    1.429    1.714    0.000    3.143 
#    0.000    4.286    0.000    1.714    0.000    0.000 
#    0.000    0.000    0.000    0.000    0.000    0.000 
#
# Total GULP energy -156171.553709 kJ/mol
# GULP energy per Si atom -5577.555490 kJ/mol
# Density = 2.187990 g / cm^3
# Si number density = 21.929811 Si / 1000 Ang^3
#
#
#
# Elastic Constant Matrix: (Units=GPa)
#
#
# Indices 1 2 3 4 5 6 
#
# 1 131.8627 -5.2150 57.7112 0.0000 13.2956 0.0000
# 2 -5.2150 66.2315 2.2533 0.0000 1.5753 0.0000
# 3 57.7112 2.2533 136.9231 0.0000 2.9318 0.0000
# 4 0.0000 0.0000 0.0000 0.8885 0.0000 -6.2120
# 5 13.2956 1.5753 2.9318 0.0000 25.5309 0.0000
# 6 0.0000 0.0000 0.0000 -6.2120 0.0000 23.0221
#
#
#
# Elastic Compliance Matrix: (Units=1/GPa)
#
#
# Indices 1 2 3 4 5 6 
#
# 1 0.009890 0.001031 -0.004084 0.000000 -0.004745 0.000000
# 2 0.001031 0.015235 -0.000655 0.000000 -0.001401 0.000000
# 3 -0.004084 -0.000655 0.009011 0.000000 0.001132 0.000000
# 4 0.000000 0.000000 0.000000 -1.269524 0.000000 -0.342554
# 5 -0.004745 -0.001401 0.001132 0.000000 0.041596 0.000000
# 6 0.000000 0.000000 0.000000 -0.342554 0.000000 -0.048995
#
#
# Mechanical properties :
#
#
# Convention : Reuss Voigt Hill
#
# Bulk Modulus (GPa) = 37.42539 49.39071 43.40805
# Shear Modulus (GPa) = -4.07676 28.57282 12.24803
#
# Velocity S-wave (km/s) = -1.36493 3.61352 2.36585
# Velocity P-wave (km/s) = 3.82348 6.32306 5.22494
#
# Compressibility (1/GPa) = 0.02671983
#
# Stress axis : x y z
#
# Youngs Moduli (GPa) = 101.10983 65.63692 110.97255
#
# Poissons Ratio (x) = -0.06764 0.45321
# Poissons Ratio (y) = -0.10420 0.07270
# Poissons Ratio (z) = 0.41293 0.04300
#
# Static dielectric constant tensor:
#      x y z
#    x 1.794380 0.000000 -0.007040 
#    y 0.000000 1.857200 0.000000 
#    z -0.007040 0.000000 1.801540 
# 
# From -- ./inp_files/49099.got.cif
#   From: 2010.05.17/outbox.cif.g08.bks.cpg/sg10_25_cif.got.tgz:49099.got - 2010.06.03 11:33:40.
