data_PCOD9144620
_publ_section_title
;
Structure prediction by ZEFSAII (Michael W. Deem and Ramdas Pophale) SiO2 
 PCOD9144620
Probable space group: P 2/M
;
_chemical_formula_sum "Si O2"
_cell_formula_units_Z 32
_cell_length_a 26.586219
_cell_length_b 9.199489
_cell_length_c 19.054285
_cell_angle_alpha 90.000000
_cell_angle_beta 157.698404
_cell_angle_gamma 90.000000
_cell_volume 1768.495836
_symmetry_space_group_name_H-M "P 2/M"
_symmetry_group_IT_number 10
_symmetry_cell_setting 'monoclinic'
loop_
_space_group_symop_operation_xyz
x,y,z
-x,y,-z
-x,-y,-z
x,-y,z
loop_
_atom_site_type_symbol
_atom_site_label
_atom_site_fract_x
_atom_site_fract_y
_atom_site_fract_z
Si Si1 0.339175 0.667326 0.072142
Si Si2 0.089023 0.166698 0.808816
Si Si3 0.110761 0.172248 0.201059
Si Si4 0.633749 0.833026 0.295653
Si Si5 0.367710 0.330810 0.939442
Si Si6 0.898647 0.832217 0.429369
Si Si7 0.900401 0.327174 0.664980
Si Si8 0.405264 0.835787 0.584968
O O1 0.313111 0.500000 0.056338
O O2 0.480082 0.722358 0.282755
O O3 0.224282 0.769882 0.952561
O O4 0.347583 0.677830 0.998211
O O5 0.982037 0.168559 0.607970
O O6 0.028709 0.267441 0.790924
O O7 0.104467 0.000000 0.852291
O O8 0.093423 0.269046 0.247518
O O9 0.260645 0.197116 0.367501
O O10 0.104748 0.000000 0.212965
O O11 0.000000 0.200119 0.000000
O O12 0.769363 0.744898 0.460727
O O13 0.614532 0.835635 0.355788
O O14 0.645929 0.000000 0.287303
O O15 0.503066 0.754846 0.097288
O O16 0.379324 0.500000 0.935268
O O17 0.235810 0.258107 0.738494
O O18 0.000000 0.776706 0.500000
O O19 0.864534 0.000000 0.366697
O O20 0.889921 0.500000 0.648894
O O21 0.445321 0.000000 0.617156
#
# Coordination Sequence:
#
# PCOD9144620 Si02
#       8
#     4   4   4   4   4   4   4   4
#     4  10  19  30  47  74 105 137 174 216 262 309
#     4  11  22  36  54  73 101 141 182 220 263 315
#     4   9  18  35  60  87 112 140 175 211 250 304
#     4   9  17  32  53  73  99 136 178 218 259 310
#     4  10  19  30  49  76 105 134 170 222 277 318
#     4  10  20  34  51  73 100 135 181 227 268 314
#     4  11  22  36  54  79 111 139 172 214 263 318
#     4   8  15  28  49  77 105 134 169 210 251 297
#
# _framework density 18.094472
#
# number of rings (size 3 to 8) (size 9 to 14) (size 15 to 20)
#    0.000    2.250    1.250    3.375    0.000    5.500 
#    0.000    0.625    0.000    4.500    0.000    5.250 
#    0.000    0.000    0.000    0.000    0.000    0.000 
#
# Total GULP energy -178606.912153 kJ/mol
# GULP energy per Si atom -5581.466005 kJ/mol
# Density = 1.805329 g / cm^3
# Si number density = 18.094472 Si / 1000 Ang^3
#
#
#
# Elastic Constant Matrix: (Units=GPa)
#
#
# Indices 1 2 3 4 5 6 
#
# 1 27.2432 27.0459 5.1573 0.0000 4.9339 0.0000
# 2 27.0459 117.7723 47.9605 0.0000 8.0798 0.0000
# 3 5.1573 47.9605 99.2180 0.0000 5.9659 0.0000
# 4 0.0000 0.0000 0.0000 -115.1777 0.0000 -7.5345
# 5 4.9339 8.0798 5.9659 0.0000 9.9973 0.0000
# 6 0.0000 0.0000 0.0000 -7.5345 0.0000 14.9086
#
#
#
# Elastic Compliance Matrix: (Units=1/GPa)
#
#
# Indices 1 2 3 4 5 6 
#
# 1 0.051401 -0.012354 0.004382 0.000000 -0.017998 0.000000
# 2 -0.012354 0.013864 -0.005966 0.000000 -0.001547 0.000000
# 3 0.004382 -0.005966 0.013043 0.000000 -0.005124 0.000000
# 4 0.000000 0.000000 0.000000 -0.008404 0.000000 -0.004247
# 5 -0.017998 -0.001547 -0.005124 0.000000 0.113218 0.000000
# 6 0.000000 0.000000 0.000000 -0.004247 0.000000 0.064929
#
#
# Mechanical properties :
#
#
# Convention : Reuss Voigt Hill
#
# Bulk Modulus (GPa) = 19.82881 44.95120 32.39001
# Shear Modulus (GPa) = 17.08017 -7.11639 4.98189
#
# Velocity S-wave (km/s) = 3.07570 -1.98531 1.66110
# Velocity P-wave (km/s) = 4.85752 4.43184 4.64955
#
# Compressibility (1/GPa) = 0.05043166
#
# Stress axis : x y z
#
# Youngs Moduli (GPa) = 19.45499 72.13036 76.66825
#
# Poissons Ratio (x) = 0.89108 -0.33596
# Poissons Ratio (y) = 0.24034 0.45743
# Poissons Ratio (z) = -0.08525 0.43036
#
# Static dielectric constant tensor:
#      x y z
#    x 1.627850 0.000000 0.004390 
#    y 0.000000 1.614380 0.000000 
#    z 0.004390 0.000000 1.609510 
# 
# From -- ./inp_files/87201.got.cif
#   From: 2010.05.17/outbox.cif.g08.bks.cpg/sg10_44_cif.got.tgz:87201.got - 2010.06.03 11:33:40.
