data_PCOD9144258
_publ_section_title
;
Structure prediction by ZEFSAII (Michael W. Deem and Ramdas Pophale) SiO2 
 PCOD9144258
Probable space group: P 2/M
;
_chemical_formula_sum "Si O2"
_cell_formula_units_Z 26
_cell_length_a 17.739561
_cell_length_b 22.341175
_cell_length_c 17.041133
_cell_angle_alpha 90.000000
_cell_angle_beta 16.717996
_cell_angle_gamma 90.000000
_cell_volume 1942.803402
_symmetry_space_group_name_H-M "P 2/M"
_symmetry_group_IT_number 10
_symmetry_cell_setting 'monoclinic'
loop_
_space_group_symop_operation_xyz
x,y,z
-x,y,-z
-x,-y,-z
x,-y,z
loop_
_atom_site_type_symbol
_atom_site_label
_atom_site_fract_x
_atom_site_fract_y
_atom_site_fract_z
Si Si1 0.751991 0.500000 0.805589
Si Si2 0.055100 0.071812 0.758360
Si Si3 0.451038 0.071606 0.636201
Si Si4 0.643577 0.929521 0.777271
Si Si5 0.247934 0.239420 0.194352
Si Si6 0.154421 0.122430 0.192493
Si Si7 0.248308 0.628516 0.194803
O O1 0.753915 0.564378 0.847101
O O2 0.000000 0.500000 0.500000
O O3 0.500000 0.500000 0.000000
O O4 0.334037 0.091574 0.514671
O O5 0.963745 0.109963 0.775025
O O6 0.061006 0.000000 0.731744
O O7 0.839859 0.079931 0.041258
O O8 0.500000 0.095906 0.500000
O O9 0.494155 0.000000 0.588613
O O10 0.919877 0.899368 0.483742
O O11 0.691582 0.000000 0.735580
O O12 0.500000 0.908786 0.000000
O O13 0.420813 0.916087 0.935005
O O14 0.229462 0.188581 0.146794
O O15 0.250346 0.306092 0.153934
O O16 0.000000 0.234929 0.500000
O O17 0.500000 0.232905 0.000000
O O18 0.000000 0.628483 0.500000
O O19 0.500000 0.628000 0.000000
#
# Coordination Sequence:
#
# PCOD9144258 Si02
#       7
#     2   4   4   4   4   4   4
#     4   8  12  20  34  52  70  86 108 146 189 216
#     4  10  19  29  42  59  75  91 112 143 183 221
#     4   9  17  30  46  61  75  89 106 133 175 228
#     4  11  22  33  43  53  67  93 129 165 198 225
#     4  10  19  30  41  53  71  99 131 158 186 219
#     4  12  21  31  43  56  75  96 122 158 192 225
#     4   8  14  23  36  52  69  89 116 150 185 217
#
# _framework density 13.382723
#
# number of rings (size 3 to 8) (size 9 to 14) (size 15 to 20)
#    0.000    2.154    0.000    5.538    0.000    4.308 
#    0.000    0.000    0.000    0.000    0.000    0.000 
#    0.000    0.000    0.000    0.000    0.000    0.000 
#
# Total GULP energy -144794.960280 kJ/mol
# GULP energy per Si atom -5569.036934 kJ/mol
# Density = 1.335226 g / cm^3
# Si number density = 13.382723 Si / 1000 Ang^3
#
#
#
# Elastic Constant Matrix: (Units=GPa)
#
#
# Indices 1 2 3 4 5 6 
#
# 1 28.4702 10.8080 0.7860 0.0000 3.5436 0.0000
# 2 10.8080 90.7269 5.9470 0.0000 5.3418 0.0000
# 3 0.7860 5.9470 60.9246 0.0000 -16.6224 0.0000
# 4 0.0000 0.0000 0.0000 -4.1965 0.0000 11.7511
# 5 3.5436 5.3418 -16.6224 0.0000 15.4857 0.0000
# 6 0.0000 0.0000 0.0000 11.7511 0.0000 -10.7031
#
#
#
# Elastic Compliance Matrix: (Units=1/GPa)
#
#
# Indices 1 2 3 4 5 6 
#
# 1 0.037938 -0.003692 -0.003041 0.000000 -0.010672 0.000000
# 2 -0.003692 0.012026 -0.002867 0.000000 -0.006381 0.000000
# 3 -0.003041 -0.002867 0.024313 0.000000 0.027782 0.000000
# 4 0.000000 0.000000 0.000000 0.114873 0.000000 0.126121
# 5 -0.010672 -0.006381 0.027782 0.000000 0.099041 0.000000
# 6 0.000000 0.000000 0.000000 0.126121 0.000000 0.045039
#
#
# Mechanical properties :
#
#
# Convention : Reuss Voigt Hill
#
# Bulk Modulus (GPa) = 18.15638 23.91152 21.03395
# Shear Modulus (GPa) = 13.48478 10.95593 12.22036
#
# Velocity S-wave (km/s) = 3.17776 2.86433 3.02511
# Velocity P-wave (km/s) = 5.20199 5.37079 5.28706
#
# Compressibility (1/GPa) = 0.05507706
#
# Stress axis : x y z
#
# Youngs Moduli (GPa) = 26.35867 83.15640 41.13057
#
# Poissons Ratio (x) = 0.30700 0.12507
# Poissons Ratio (y) = 0.09731 0.11793
# Poissons Ratio (z) = 0.08015 0.23843
#
# Static dielectric constant tensor:
#      x y z
#    x 1.441650 0.000000 -0.013970 
#    y 0.000000 1.484440 0.000000 
#    z -0.013970 0.000000 1.458260 
# 
# From -- ./inp_files/59669.got.cif
#   From: 2010.05.17/outbox.cif.g08.bks.cpg/sg10_30_cif.got.tgz:59669.got - 2010.06.03 11:33:40.
