data_PCOD9144871
_publ_section_title
;
Structure prediction by ZEFSAII (Michael W. Deem and Ramdas Pophale) SiO2 
 PCOD9144871
Probable space group: P 2/M
;
_chemical_formula_sum "Si O2"
_cell_formula_units_Z 20
_cell_length_a 12.917955
_cell_length_b 7.589096
_cell_length_c 12.524153
_cell_angle_alpha 90.000000
_cell_angle_beta 118.264699
_cell_angle_gamma 90.000000
_cell_volume 1081.419851
_symmetry_space_group_name_H-M "P 2/M"
_symmetry_group_IT_number 10
_symmetry_cell_setting 'monoclinic'
loop_
_space_group_symop_operation_xyz
x,y,z
-x,y,-z
-x,-y,-z
x,-y,z
loop_
_atom_site_type_symbol
_atom_site_label
_atom_site_fract_x
_atom_site_fract_y
_atom_site_fract_z
Si Si1 0.082102 0.706379 0.447702
Si Si2 0.409557 0.710466 0.309638
Si Si3 0.816767 0.209979 0.915956
Si Si4 0.336781 0.284043 0.510455
Si Si5 0.999918 0.786226 0.174181
O O1 0.098468 0.500000 0.481824
O O2 0.213608 0.780616 0.496922
O O3 0.000000 0.784072 0.500000
O O4 0.019618 0.719550 0.302432
O O5 0.415021 0.500000 0.320453
O O6 0.318801 0.751901 0.171763
O O7 0.544531 0.771216 0.370130
O O8 0.355451 0.773479 0.396441
O O9 0.894159 0.273729 0.852525
O O10 0.830439 0.000000 0.922660
O O11 0.880980 0.271247 0.055158
O O12 0.332888 0.500000 0.507450
O O13 0.002314 0.000000 0.180434
#
# Coordination Sequence:
#
# PCOD9144871 Si02
#       5
#     4   4   4   4   4
#     4  10  19  31  48  68  91 118 151 188 217 255
#     4   9  15  26  46  66  89 119 145 178 225 272
#     4   9  17  29  45  67  94 118 144 185 228 263
#     4   8  15  27  42  65  93 117 144 179 225 266
#     4   9  18  31  45  64  93 123 147 179 227 270
#
# _framework density 18.494204
#
# number of rings (size 3 to 8) (size 9 to 14) (size 15 to 20)
#    0.000    3.000    2.000    2.400    0.000    1.200 
#    0.000    5.000    0.000    1.200    0.000    8.400 
#    0.000    0.000    0.000    0.000    0.000    0.000 
#
# Total GULP energy -111426.126668 kJ/mol
# GULP energy per Si atom -5571.306333 kJ/mol
# Density = 1.845211 g / cm^3
# Si number density = 18.494204 Si / 1000 Ang^3
#
#
#
# Elastic Constant Matrix: (Units=GPa)
#
#
# Indices 1 2 3 4 5 6 
#
# 1 146.9434 5.8426 85.8807 0.0000 19.9985 0.0000
# 2 5.8426 35.2588 -10.7644 0.0000 -2.3692 0.0000
# 3 85.8807 -10.7644 106.8017 0.0000 28.7166 0.0000
# 4 0.0000 0.0000 0.0000 21.7419 0.0000 7.8034
# 5 19.9985 -2.3692 28.7166 0.0000 35.3996 0.0000
# 6 0.0000 0.0000 0.0000 7.8034 0.0000 5.1287
#
#
#
# Elastic Compliance Matrix: (Units=1/GPa)
#
#
# Indices 1 2 3 4 5 6 
#
# 1 0.014018 -0.005973 -0.012326 0.000000 0.001680 0.000000
# 2 -0.005973 0.031816 0.008351 0.000000 -0.001271 0.000000
# 3 -0.012326 0.008351 0.023141 0.000000 -0.011250 0.000000
# 4 0.000000 0.000000 0.000000 0.101329 0.000000 -0.154175
# 5 0.001680 -0.001271 -0.011250 0.000000 0.036341 0.000000
# 6 0.000000 0.000000 0.000000 -0.154175 0.000000 0.429559
#
#
# Mechanical properties :
#
#
# Convention : Reuss Voigt Hill
#
# Bulk Modulus (GPa) = 20.37487 50.10242 35.23864
# Shear Modulus (GPa) = 7.43540 26.32371 16.87955
#
# Velocity S-wave (km/s) = 2.00727 3.77682 3.02436
# Velocity P-wave (km/s) = 4.05129 6.79477 5.59383
#
# Compressibility (1/GPa) = 0.04908006
#
# Stress axis : x y z
#
# Youngs Moduli (GPa) = 71.33725 31.43107 43.21334
#
# Poissons Ratio (x) = 0.18774 0.53263
# Poissons Ratio (y) = 0.42609 -0.36089
# Poissons Ratio (z) = 0.87928 -0.26249
#
# Static dielectric constant tensor:
#      x y z
#    x 1.655510 0.000000 0.040640 
#    y 0.000000 1.688440 0.000000 
#    z 0.040640 0.000000 1.641190 
# 
# From -- ./inp_files/23456.got.cif
#   From: 2010.05.17/outbox.cif.g08.bks.cpg/sg10_12_cif.got.tgz:23456.got - 2010.06.03 11:33:40.
