data_PCOD9144540
_publ_section_title
;
Structure prediction by ZEFSAII (Michael W. Deem and Ramdas Pophale) SiO2 
 PCOD9144540
Probable space group: P 2/M
;
_chemical_formula_sum "Si O2"
_cell_formula_units_Z 32
_cell_length_a 22.416242
_cell_length_b 7.414631
_cell_length_c 32.311435
_cell_angle_alpha 90.000000
_cell_angle_beta 163.254091
_cell_angle_gamma 90.000000
_cell_volume 1547.369037
_symmetry_space_group_name_H-M "P 2/M"
_symmetry_group_IT_number 10
_symmetry_cell_setting 'monoclinic'
loop_
_space_group_symop_operation_xyz
x,y,z
-x,y,-z
-x,-y,-z
x,-y,z
loop_
_atom_site_type_symbol
_atom_site_label
_atom_site_fract_x
_atom_site_fract_y
_atom_site_fract_z
Si Si1 0.019410 0.781005 0.284436
Si Si2 0.692169 0.792962 0.000299
Si Si3 0.345326 0.216569 0.561635
Si Si4 0.279394 0.783351 0.840562
Si Si5 0.665001 0.285700 0.891205
Si Si6 0.797741 0.784162 0.442733
Si Si7 0.767496 0.215568 0.287555
Si Si8 0.196729 0.285039 0.105808
O O1 0.885634 0.727291 0.235609
O O2 0.244084 0.721592 0.450947
O O3 0.031925 0.000000 0.288238
O O4 0.879855 0.717197 0.152953
O O5 0.747127 0.790689 0.988677
O O6 0.457763 0.713655 0.847606
O O7 0.666380 0.000000 0.998161
O O8 0.237383 0.283058 0.533089
O O9 0.587236 0.256298 0.726979
O O10 0.319580 0.000000 0.545823
O O11 0.238291 0.751991 0.765663
O O12 0.285187 0.000000 0.848420
O O13 0.500000 0.709663 0.000000
O O14 0.692445 0.500000 0.911095
O O15 0.419592 0.248724 0.724034
O O16 0.768914 0.215053 0.918062
O O17 0.996493 0.717886 0.548549
O O18 0.826571 0.000000 0.465391
O O19 0.766959 0.000000 0.297555
O O20 0.168639 0.500000 0.083028
O O21 0.000000 0.212980 0.000000
#
# Coordination Sequence:
#
# PCOD9144540 Si02
#       8
#     4   4   4   4   4   4   4   4
#     4   9  15  24  42  70 102 130 156 193 236 272
#     4  10  19  30  46  69  98 134 170 196 223 267
#     4   9  16  27  48  79 106 122 145 190 244 285
#     4   9  12  18  35  63  95 124 160 204 237 256
#     4  10  21  36  50  66  92 123 155 194 242 291
#     4   9  16  28  47  69  94 124 161 205 242 270
#     4   9  15  23  40  67  95 126 166 206 234 259
#     4   9  19  37  59  77  91 113 149 193 240 290
#
# _framework density 20.680264000000001
#
# number of rings (size 3 to 8) (size 9 to 14) (size 15 to 20)
#    0.000    2.750    2.500    0.375    0.000    1.250 
#    0.000    3.750    0.000    0.750    0.000    6.125 
#    0.000    0.000    0.000    0.000    0.000    0.000 
#
# Total GULP energy -178209.453962 kJ/mol
# GULP energy per Si atom -5569.045436 kJ/mol
# Density = 2.063320 g / cm^3
# Si number density = 20.680264 Si / 1000 Ang^3
#
#
#
# Elastic Constant Matrix: (Units=GPa)
#
#
# Indices 1 2 3 4 5 6 
#
# 1 98.4843 1.9766 86.7676 0.0000 -6.8763 0.0000
# 2 1.9766 62.2863 -4.0319 0.0000 2.1867 0.0000
# 3 86.7676 -4.0319 118.5271 0.0000 1.1930 0.0000
# 4 0.0000 0.0000 0.0000 -34.0412 0.0000 18.2684
# 5 -6.8763 2.1867 1.1930 0.0000 22.8564 0.0000
# 6 0.0000 0.0000 0.0000 18.2684 0.0000 24.3042
#
#
#
# Elastic Compliance Matrix: (Units=1/GPa)
#
#
# Indices 1 2 3 4 5 6 
#
# 1 0.031431 -0.002885 -0.023217 0.000000 0.010944 0.000000
# 2 -0.002885 0.016411 0.002696 0.000000 -0.002579 0.000000
# 3 -0.023217 0.002696 0.025611 0.000000 -0.008580 0.000000
# 4 0.000000 0.000000 0.000000 -0.020932 0.000000 0.015734
# 5 0.010944 -0.002579 -0.008580 0.000000 0.047738 0.000000
# 6 0.000000 0.000000 0.000000 0.015734 0.000000 0.029319
#
#
# Mechanical properties :
#
#
# Convention : Reuss Voigt Hill
#
# Bulk Modulus (GPa) = 37.53527 49.85806 43.69666
# Shear Modulus (GPa) = 26.98753 15.59625 21.29189
#
# Velocity S-wave (km/s) = 3.61638 2.74918 3.21218
# Velocity P-wave (km/s) = 5.96886 5.85138 5.91041
#
# Compressibility (1/GPa) = 0.02664161
#
# Stress axis : x y z
#
# Youngs Moduli (GPa) = 31.81564 60.93304 39.04545
#
# Poissons Ratio (x) = 0.17576 0.90653
# Poissons Ratio (y) = 0.09177 -0.10526
# Poissons Ratio (z) = 0.73867 -0.16427
#
# Static dielectric constant tensor:
#      x y z
#    x 1.722990 0.000000 -0.005600 
#    y 0.000000 1.841650 0.000000 
#    z -0.005600 0.000000 1.774380 
# 
# From -- ./inp_files/95668.got.cif
#   From: 2010.05.17/outbox.cif.g08.bks.cpg/sg10_48_cif.got.tgz:95668.got - 2010.06.03 11:33:40.
