data_PCOD9144197
_publ_section_title
;
Structure prediction by ZEFSAII (Michael W. Deem and Ramdas Pophale) SiO2 
 PCOD9144197
Probable space group: P 2/M
;
_chemical_formula_sum "Si O2"
_cell_formula_units_Z 32
_cell_length_a 24.723031
_cell_length_b 7.234551
_cell_length_c 17.103600
_cell_angle_alpha 90.000000
_cell_angle_beta 150.791224
_cell_angle_gamma 90.000000
_cell_volume 1492.845072
_symmetry_space_group_name_H-M "P 2/M"
_symmetry_group_IT_number 10
_symmetry_cell_setting 'monoclinic'
loop_
_space_group_symop_operation_xyz
x,y,z
-x,y,-z
-x,-y,-z
x,-y,z
loop_
_atom_site_type_symbol
_atom_site_label
_atom_site_fract_x
_atom_site_fract_y
_atom_site_fract_z
Si Si1 0.883370 0.724130 0.588888
Si Si2 0.097923 0.725141 0.959790
Si Si3 0.575222 0.777092 0.522705
Si Si4 0.302203 0.273606 0.532573
Si Si5 0.464476 0.291781 0.219417
Si Si6 0.812854 0.707255 0.771968
Si Si7 0.011094 0.275383 0.602578
Si Si8 0.771575 0.275079 0.025676
O O1 0.883831 0.500000 0.589116
O O2 0.767808 0.780962 0.480479
O O3 0.983455 0.777911 0.773306
O O4 0.915399 0.783603 0.542216
O O5 0.100663 0.500000 0.966562
O O6 0.194358 0.782622 0.019674
O O7 0.106433 0.789912 0.060382
O O8 0.500000 0.724080 0.500000
O O9 0.516399 0.704219 0.371368
O O10 0.699018 0.701941 0.678677
O O11 0.581431 0.000000 0.526854
O O12 0.306444 0.500000 0.532579
O O13 0.429927 0.210328 0.693341
O O14 0.231909 0.213394 0.366666
O O15 0.446494 0.500000 0.166300
O O16 0.343591 0.208390 0.082485
O O17 0.852916 0.500000 0.803681
O O18 0.009321 0.500000 0.598608
O O19 0.126426 0.224719 0.789582
O O20 0.000000 0.211264 0.500000
O O21 0.765271 0.500000 0.014675
#
# Coordination Sequence:
#
# PCOD9144197 Si02
#       8
#     4   4   4   4   4   4   4   4
#     4   8  13  21  32  49  74  97 122 160 196 224
#     4   8  13  20  32  51  71  92 123 165 201 220
#     4  10  19  27  35  51  76 104 133 165 198 225
#     4   8  14  22  32  49  71  97 127 159 194 223
#     4   9  16  26  40  55  73 100 131 159 189 229
#     4   9  16  25  37  53  72  98 134 165 191 227
#     4   8  13  21  34  52  75 104 129 147 181 235
#     4   8  13  21  34  52  72  95 126 161 190 218
#
# _framework density 21.435580000000002
#
# number of rings (size 3 to 8) (size 9 to 14) (size 15 to 20)
#    0.000    3.500    0.000    3.375    0.000    2.500 
#    0.000    2.500    0.000    0.750    0.000   12.250 
#    0.000    4.500    0.000    5.875    0.000   10.500 
#
# Total GULP energy -178353.516422 kJ/mol
# GULP energy per Si atom -5573.547388 kJ/mol
# Density = 2.138679 g / cm^3
# Si number density = 21.435580 Si / 1000 Ang^3
#
#
#
# Elastic Constant Matrix: (Units=GPa)
#
#
# Indices 1 2 3 4 5 6 
#
# 1 141.6256 1.3118 52.9629 0.0000 27.7809 0.0000
# 2 1.3118 104.3995 -1.6893 0.0000 1.2660 0.0000
# 3 52.9629 -1.6893 51.0379 0.0000 13.7437 0.0000
# 4 0.0000 0.0000 0.0000 -327.7991 0.0000 80.6343
# 5 27.7809 1.2660 13.7437 0.0000 38.1527 0.0000
# 6 0.0000 0.0000 0.0000 80.6343 0.0000 -79.7466
#
#
#
# Elastic Compliance Matrix: (Units=1/GPa)
#
#
# Indices 1 2 3 4 5 6 
#
# 1 0.012299 -0.000282 -0.011477 0.000000 -0.004812 0.000000
# 2 -0.000282 0.009598 0.000710 0.000000 -0.000369 0.000000
# 3 -0.011477 0.000710 0.032428 0.000000 -0.003348 0.000000
# 4 0.000000 0.000000 0.000000 -0.004061 0.000000 -0.004106
# 5 -0.004812 -0.000369 -0.003348 0.000000 0.030933 0.000000
# 6 0.000000 0.000000 0.000000 -0.004106 0.000000 -0.016691
#
#
# Mechanical properties :
#
#
# Convention : Reuss Voigt Hill
#
# Bulk Modulus (GPa) = 31.02967 44.69267 37.86117
# Shear Modulus (GPa) = 51.36276 -57.58008 -3.10866
#
# Velocity S-wave (km/s) = 4.90035 -5.18847 -1.20556
# Velocity P-wave (km/s) = 6.82094 3.87281 3.97030
#
# Compressibility (1/GPa) = 0.03222722
#
# Stress axis : x y z
#
# Youngs Moduli (GPa) = 81.30546 104.18742 30.83757
#
# Poissons Ratio (x) = 0.02937 0.35391
# Poissons Ratio (y) = 0.02292 -0.02188
# Poissons Ratio (z) = 0.93312 -0.07392
#
# Static dielectric constant tensor:
#      x y z
#    x 1.796790 0.000000 0.047290 
#    y 0.000000 1.818640 0.000000 
#    z 0.047290 0.000000 1.768780 
# 
# From -- ./inp_files/80001.got.cif
#   From: 2010.05.17/outbox.cif.g08.bks.cpg/sg10_41_cif.got.tgz:80001.got - 2010.06.03 11:33:40.
