data_PCOD9144787
_publ_section_title
;
Structure prediction by ZEFSAII (Michael W. Deem and Ramdas Pophale) SiO2 
 PCOD9144787
Probable space group: P 2/M
;
_chemical_formula_sum "Si O2"
_cell_formula_units_Z 20
_cell_length_a 7.024089
_cell_length_b 29.027808
_cell_length_c 4.452334
_cell_angle_alpha 90.000000
_cell_angle_beta 129.335833
_cell_angle_gamma 90.000000
_cell_volume 702.135327
_symmetry_space_group_name_H-M "P 2/M"
_symmetry_group_IT_number 10
_symmetry_cell_setting 'monoclinic'
loop_
_space_group_symop_operation_xyz
x,y,z
-x,y,-z
-x,-y,-z
x,-y,z
loop_
_atom_site_type_symbol
_atom_site_label
_atom_site_fract_x
_atom_site_fract_y
_atom_site_fract_z
Si Si1 0.750000 0.647836 0.950150
Si Si2 0.250000 0.146391 0.929703
Si Si3 0.250000 0.255032 0.070317
Si Si4 0.250000 0.049251 0.950233
Si Si5 0.750000 0.549297 0.948592
O O1 0.500000 0.647302 0.500000
O O2 0.750001 0.697306 0.122187
O O3 0.750000 0.598553 0.117392
O O4 0.000000 0.647302 0.000000
O O5 0.250001 0.098726 0.122210
O O6 0.000000 0.142472 0.500000
O O7 0.500000 0.142472 0.000000
O O8 0.250000 0.200709 0.000062
O O9 0.500000 0.258961 0.500000
O O10 0.000000 0.258961 0.000000
O O11 0.000000 0.048758 0.500000
O O12 0.249999 0.000000 0.118650
O O13 0.500000 0.048758 0.000000
O O14 0.500000 0.549261 0.500000
O O15 0.750000 0.500000 0.116155
O O16 0.000000 0.549261 0.000000
#
# Coordination Sequence:
#
# PCOD9144787 Si02
#       5
#     4   4   4   4   4
#     4   8  14  23  35  52  75 105 136 164 202 252
#     4  10  19  31  48  69  90 113 147 186 216 250
#     4  10  19  31  46  64  90 121 147 174 216 266
#     4   8  14  25  42  63  84 107 138 176 214 250
#     4   8  12  18  29  46  69  96 126 162 202 240
#
# _framework density 28.484535000000001
#
# number of rings (size 3 to 8) (size 9 to 14) (size 15 to 20)
#    0.000    3.200    0.000    1.200    0.000    0.000 
#    0.000    0.000    0.000    1.200    0.000    0.000 
#    0.000    1.600    0.000    0.000    0.000   12.800 
#
# Total GULP energy -111451.745054 kJ/mol
# GULP energy per Si atom -5572.587253 kJ/mol
# Density = 2.841970 g / cm^3
# Si number density = 28.484535 Si / 1000 Ang^3
#
#
#
# Elastic Constant Matrix: (Units=GPa)
#
#
# Indices 1 2 3 4 5 6 
#
# 1 107.6581 22.3751 51.7960 0.0000 65.8362 0.0000
# 2 22.3751 480.9186 -2.8173 0.0000 -15.6068 0.0000
# 3 51.7960 -2.8173 275.2500 0.0000 37.9889 0.0000
# 4 0.0000 0.0000 0.0000 27.5765 0.0000 12.9408
# 5 65.8362 -15.6068 37.9889 0.0000 63.8157 0.0000
# 6 0.0000 0.0000 0.0000 12.9408 0.0000 6.6882
#
#
#
# Elastic Compliance Matrix: (Units=1/GPa)
#
#
# Indices 1 2 3 4 5 6 
#
# 1 0.027734 -0.002219 -0.001327 0.000000 -0.028365 0.000000
# 2 -0.002219 0.002274 0.000052 0.000000 0.002814 0.000000
# 3 -0.001327 0.000052 0.004023 0.000000 -0.001013 0.000000
# 4 0.000000 0.000000 0.000000 0.394083 0.000000 -0.762505
# 5 -0.028365 0.002814 -0.001013 0.000000 0.046225 0.000000
# 6 0.000000 0.000000 0.000000 -0.762505 0.000000 1.624877
#
#
# Mechanical properties :
#
#
# Convention : Reuss Voigt Hill
#
# Bulk Modulus (GPa) = 36.97486 111.83716 74.40601
# Shear Modulus (GPa) = 2.36382 72.44761 37.40571
#
# Velocity S-wave (km/s) = 0.91196 5.04869 3.62773
# Velocity P-wave (km/s) = 3.75736 8.56349 6.61253
#
# Compressibility (1/GPa) = 0.02704540
#
# Stress axis : x y z
#
# Youngs Moduli (GPa) = 36.05657 439.71511 248.56294
#
# Poissons Ratio (x) = 0.97557 0.32980
# Poissons Ratio (y) = 0.08000 -0.01303
# Poissons Ratio (z) = 0.04784 -0.02305
#
# Static dielectric constant tensor:
#      x y z
#    x 4.188740 0.000000 -1.010980 
#    y 0.000000 2.370150 0.000000 
#    z -1.010980 0.000000 2.556850 
# 
# From -- ./inp_files/2293.got.cif
#   From: 2010.05.17/outbox.cif.g08.bks.cpg/sg10_2_cif.got.tgz:2293.got - 2010.06.03 11:33:40.
