data_PCOD9144800
_publ_section_title
;
Structure prediction by ZEFSAII (Michael W. Deem and Ramdas Pophale) SiO2 
 PCOD9144800
Probable space group: P 2/M
;
_chemical_formula_sum "Si O2"
_cell_formula_units_Z 32
_cell_length_a 17.498066
_cell_length_b 17.327390
_cell_length_c 12.184629
_cell_angle_alpha 90.000000
_cell_angle_beta 28.274088
_cell_angle_gamma 90.000000
_cell_volume 1749.966340
_symmetry_space_group_name_H-M "P 2/M"
_symmetry_group_IT_number 10
_symmetry_cell_setting 'monoclinic'
loop_
_space_group_symop_operation_xyz
x,y,z
-x,y,-z
-x,-y,-z
x,-y,z
loop_
_atom_site_type_symbol
_atom_site_label
_atom_site_fract_x
_atom_site_fract_y
_atom_site_fract_z
Si Si1 0.144591 0.912797 0.228573
Si Si2 0.291041 0.587589 0.448785
Si Si3 0.653859 0.407220 0.381982
Si Si4 0.071891 0.797395 0.613660
Si Si5 0.688269 0.088899 0.772612
Si Si6 0.672898 0.691702 0.810142
Si Si7 0.053291 0.350354 0.123692
Si Si8 0.833200 0.409656 0.781839
O O1 0.283966 0.887556 0.135021
O O2 0.000000 0.917636 0.500000
O O3 0.084885 0.845858 0.223998
O O4 0.170721 0.000000 0.151097
O O5 0.337678 0.500000 0.370168
O O6 0.373573 0.614816 0.456688
O O7 0.321189 0.634408 0.300926
O O8 0.098633 0.595409 0.710969
O O9 0.500000 0.393228 0.500000
O O10 0.686538 0.500000 0.338605
O O11 0.806769 0.362312 0.140704
O O12 0.210842 0.862765 0.444461
O O13 0.166707 0.744464 0.403852
O O14 0.019362 0.736076 0.771580
O O15 0.743476 0.000000 0.694180
O O16 0.500000 0.091129 0.000000
O O17 0.701243 0.641425 0.883521
O O18 0.500000 0.731883 0.000000
O O19 0.125476 0.375603 0.150941
O O20 0.785096 0.500000 0.852002
O O21 0.000000 0.407796 0.500000
#
# Coordination Sequence:
#
# PCOD9144800 Si02
#       8
#     4   4   4   4   4   4   4   4
#     4   8  15  27  47  68  95 137 176 202 233 293
#     4  10  20  37  56  70  93 131 175 221 265 317
#     4  10  22  39  57  75  94 125 178 236 280 319
#     4  10  19  31  46  70 103 138 175 204 249 306
#     4   9  17  29  47  72 105 145 180 209 243 297
#     4  11  24  34  47  76 107 139 169 210 273 322
#     4  11  22  34  53  76  98 133 173 219 267 315
#     4  11  21  34  50  70 100 136 174 212 252 324
#
# _framework density 18.286065000000001
#
# number of rings (size 3 to 8) (size 9 to 14) (size 15 to 20)
#    0.000    2.000    2.500    3.375    7.000    2.000 
#    0.000    0.000    0.000    0.000    0.000    0.000 
#    0.000   34.000    0.000    0.000    0.000   10.750 
#
# Total GULP energy -178177.268658 kJ/mol
# GULP energy per Si atom -5568.039646 kJ/mol
# Density = 1.824445 g / cm^3
# Si number density = 18.286065 Si / 1000 Ang^3
#
#
#
# Elastic Constant Matrix: (Units=GPa)
#
#
# Indices 1 2 3 4 5 6 
#
# 1 93.0177 9.4623 2.8328 0.0000 -6.6596 0.0000
# 2 9.4623 63.7153 4.4933 0.0000 8.4875 0.0000
# 3 2.8328 4.4933 34.8604 0.0000 -1.2876 0.0000
# 4 0.0000 0.0000 0.0000 11.1216 0.0000 6.5414
# 5 -6.6596 8.4875 -1.2876 0.0000 29.3907 0.0000
# 6 0.0000 0.0000 0.0000 6.5414 0.0000 5.3322
#
#
#
# Elastic Compliance Matrix: (Units=1/GPa)
#
#
# Indices 1 2 3 4 5 6 
#
# 1 0.011196 -0.002038 -0.000532 0.000000 0.003102 0.000000
# 2 -0.002038 0.016877 -0.002210 0.000000 -0.005432 0.000000
# 3 -0.000532 -0.002210 0.029080 0.000000 0.001792 0.000000
# 4 0.000000 0.000000 0.000000 0.322927 0.000000 -0.396161
# 5 0.003102 -0.005432 0.001792 0.000000 0.036375 0.000000
# 6 0.000000 0.000000 0.000000 -0.396161 0.000000 0.673544
#
#
# Mechanical properties :
#
#
# Convention : Reuss Voigt Hill
#
# Bulk Modulus (GPa) = 21.01241 25.01894 23.01568
# Shear Modulus (GPa) = 4.48259 20.82257 12.65258
#
# Velocity S-wave (km/s) = 1.56738 3.37814 2.63330
# Velocity P-wave (km/s) = 3.84597 5.37843 4.67541
#
# Compressibility (1/GPa) = 0.04759091
#
# Stress axis : x y z
#
# Youngs Moduli (GPa) = 89.31496 59.25196 34.38768
#
# Poissons Ratio (x) = 0.12078 0.01831
# Poissons Ratio (y) = 0.18207 0.07601
# Poissons Ratio (z) = 0.04756 0.13097
#
# Static dielectric constant tensor:
#      x y z
#    x 1.707820 0.000000 -0.067000 
#    y 0.000000 1.685980 0.000000 
#    z -0.067000 0.000000 1.658650 
# 
# From -- ./inp_files/54130.got.cif
#   From: 2010.05.17/outbox.cif.g08.bks.cpg/sg10_28_cif.got.tgz:54130.got - 2010.06.03 11:33:40.
