data_PCOD9144655
_publ_section_title
;
Structure prediction by ZEFSAII (Michael W. Deem and Ramdas Pophale) SiO2 
 PCOD9144655
Probable space group: P 2/M
;
_chemical_formula_sum "Si O2"
_cell_formula_units_Z 28
_cell_length_a 22.240412
_cell_length_b 9.555336
_cell_length_c 19.361375
_cell_angle_alpha 90.000000
_cell_angle_beta 18.447734
_cell_angle_gamma 90.000000
_cell_volume 1302.013867
_symmetry_space_group_name_H-M "P 2/M"
_symmetry_group_IT_number 10
_symmetry_cell_setting 'monoclinic'
loop_
_space_group_symop_operation_xyz
x,y,z
-x,y,-z
-x,-y,-z
x,-y,z
loop_
_atom_site_type_symbol
_atom_site_label
_atom_site_fract_x
_atom_site_fract_y
_atom_site_fract_z
Si Si1 0.275274 0.159943 0.033579
Si Si2 0.621796 0.662771 0.428914
Si Si3 0.271663 0.660802 0.168573
Si Si4 0.263381 0.160935 0.464443
Si Si5 0.094989 0.667390 0.775297
Si Si6 0.735249 0.661496 0.668172
Si Si7 0.265444 0.341018 0.910876
O O1 0.210085 0.243235 0.172447
O O2 0.226015 0.236770 0.016020
O O3 0.211851 0.000000 0.103634
O O4 0.506631 0.161333 0.784356
O O5 0.500000 0.729412 0.500000
O O6 0.657881 0.500000 0.369087
O O7 0.816187 0.718384 0.249472
O O8 0.478390 0.665483 0.650453
O O9 0.215500 0.500000 0.217518
O O10 0.209166 0.700416 0.314132
O O11 0.503399 0.662999 0.918327
O O12 0.190072 0.252071 0.608064
O O13 0.200905 0.234384 0.461243
O O14 0.200745 0.000000 0.537288
O O15 0.133699 0.500000 0.728781
O O16 0.871925 0.684732 0.004726
O O17 0.791957 0.500000 0.592971
O O18 0.229669 0.500000 0.974168
#
# Coordination Sequence:
#
# PCOD9144655 Si02
#       7
#     4   4   4   4   4   4   4
#     4  10  19  30  48  74 105 143 183 224 270 317
#     4   9  18  34  57  85 114 139 168 215 267 314
#     4   8  14  25  43  69 101 138 180 225 272 321
#     4  10  19  30  48  74 105 143 183 224 270 317
#     4  10  20  34  55  81 108 142 180 217 263 317
#     4   8  14  25  43  69 101 138 180 225 272 321
#     4  10  20  34  55  81 108 142 180 217 263 317
#
# _framework density 21.505147000000001
#
# number of rings (size 3 to 8) (size 9 to 14) (size 15 to 20)
#    0.000    2.714    1.429    1.714    0.000    2.857 
#    0.000    5.714    0.000    2.571    0.000    8.000 
#    0.000    0.000    0.000    0.000    0.000    0.000 
#
# Total GULP energy -156361.768075 kJ/mol
# GULP energy per Si atom -5584.348860 kJ/mol
# Density = 2.145620 g / cm^3
# Si number density = 21.505147 Si / 1000 Ang^3
#
#
#
# Elastic Constant Matrix: (Units=GPa)
#
#
# Indices 1 2 3 4 5 6 
#
# 1 151.5189 55.7910 18.2638 0.0000 -14.1489 0.0000
# 2 55.7910 63.1932 14.1896 0.0000 0.9094 0.0000
# 3 18.2638 14.1896 61.1971 0.0000 -6.6602 0.0000
# 4 0.0000 0.0000 0.0000 9.8460 0.0000 -5.4627
# 5 -14.1489 0.9094 -6.6602 0.0000 28.1806 0.0000
# 6 0.0000 0.0000 0.0000 -5.4627 0.0000 -9.3523
#
#
#
# Elastic Compliance Matrix: (Units=1/GPa)
#
#
# Indices 1 2 3 4 5 6 
#
# 1 0.010610 -0.009359 -0.000394 0.000000 0.005536 0.000000
# 2 -0.009359 0.025010 -0.003700 0.000000 -0.006380 0.000000
# 3 -0.000394 -0.003700 0.017765 0.000000 0.004120 0.000000
# 4 0.000000 0.000000 0.000000 0.076706 0.000000 -0.044804
# 5 0.005536 -0.006380 0.004120 0.000000 0.039445 0.000000
# 6 0.000000 0.000000 0.000000 -0.044804 0.000000 -0.080755
#
#
# Mechanical properties :
#
#
# Convention : Reuss Voigt Hill
#
# Bulk Modulus (GPa) = 37.76651 50.26644 44.01648
# Shear Modulus (GPa) = 40.15700 18.24586 29.20143
#
# Velocity S-wave (km/s) = 4.32594 2.91596 3.68894
# Velocity P-wave (km/s) = 6.52314 5.89593 6.21745
#
# Compressibility (1/GPa) = 0.02647848
#
# Stress axis : x y z
#
# Youngs Moduli (GPa) = 94.24872 39.98479 56.29163
#
# Poissons Ratio (x) = 0.37420 0.02218
# Poissons Ratio (y) = 0.88203 0.20829
# Poissons Ratio (z) = 0.03714 0.14796
#
# Static dielectric constant tensor:
#      x y z
#    x 1.792780 0.000000 -0.052470 
#    y 0.000000 1.709410 0.000000 
#    z -0.052470 0.000000 1.831540 
# 
# From -- ./inp_files/86435.got.cif
#   From: 2010.05.17/outbox.cif.g08.bks.cpg/sg10_44_cif.got.tgz:86435.got - 2010.06.03 11:33:40.
