data_PCOD9144547
_publ_section_title
;
Structure prediction by ZEFSAII (Michael W. Deem and Ramdas Pophale) SiO2 
 PCOD9144547
Probable space group: P 2/M
;
_chemical_formula_sum "Si O2"
_cell_formula_units_Z 32
_cell_length_a 24.490110
_cell_length_b 8.818462
_cell_length_c 12.840446
_cell_angle_alpha 90.000000
_cell_angle_beta 45.879110
_cell_angle_gamma 90.000000
_cell_volume 1990.723860
_symmetry_space_group_name_H-M "P 2/M"
_symmetry_group_IT_number 10
_symmetry_cell_setting 'monoclinic'
loop_
_space_group_symop_operation_xyz
x,y,z
-x,y,-z
-x,-y,-z
x,-y,z
loop_
_atom_site_type_symbol
_atom_site_label
_atom_site_fract_x
_atom_site_fract_y
_atom_site_fract_z
Si Si1 0.687758 0.682145 0.120739
Si Si2 0.417018 0.181732 0.564024
Si Si3 0.590623 0.683943 0.046623
Si Si4 0.840572 0.818840 0.836860
Si Si5 0.685730 0.683390 0.718525
Si Si6 0.420814 0.316469 0.329620
Si Si7 0.999759 0.324958 0.373890
Si Si8 0.159923 0.181176 0.408273
O O1 0.687738 0.500000 0.125193
O O2 0.646625 0.749028 0.276143
O O3 0.638425 0.730181 0.084759
O O4 0.772523 0.742795 0.990493
O O5 0.500000 0.224679 0.500000
O O6 0.410354 0.244954 0.456504
O O7 0.411802 0.000000 0.570906
O O8 0.590462 0.500000 0.044359
O O9 0.503233 0.731240 0.174975
O O10 0.632468 0.733934 0.885974
O O11 0.830743 0.777632 0.727058
O O12 0.923610 0.760698 0.760450
O O13 0.836785 0.000000 0.849939
O O14 0.691092 0.500000 0.715679
O O15 0.644387 0.724868 0.666113
O O16 0.768644 0.752405 0.625199
O O17 0.421776 0.500000 0.337920
O O18 0.002009 0.500000 0.338573
O O19 0.920681 0.247656 0.447466
O O20 0.000000 0.320507 0.500000
O O21 0.158193 0.000000 0.416983
#
# Coordination Sequence:
#
# PCOD9144547 Si02
#       8
#     4   4   4   4   4   4   4   4
#     4  11  20  32  54  76  98 133 175 213 254 303
#     4  11  23  37  52  71  99 132 170 217 266 309
#     4   9  17  30  50  74 100 130 167 212 255 298
#     4  10  19  31  47  72 106 136 166 205 254 306
#     4  10  19  32  51  75 103 134 173 213 252 301
#     4  10  20  35  54  74  97 132 176 219 257 300
#     4   9  17  29  47  70  98 133 172 208 246 296
#     4  10  19  30  46  70 104 140 169 201 250 306
#
# _framework density 16.074556000000001
#
# number of rings (size 3 to 8) (size 9 to 14) (size 15 to 20)
#    0.000    2.000    2.500    2.250    0.000    5.000 
#    0.000    0.625    0.000    1.500    0.000    0.875 
#    0.000    7.000    0.000    0.000    0.000    0.000 
#
# Total GULP energy -178575.398032 kJ/mol
# GULP energy per Si atom -5580.481189 kJ/mol
# Density = 1.603797 g / cm^3
# Si number density = 16.074556 Si / 1000 Ang^3
#
#
#
# Elastic Constant Matrix: (Units=GPa)
#
#
# Indices 1 2 3 4 5 6 
#
# 1 132.3088 45.4246 87.7723 0.0000 -14.9846 0.0000
# 2 45.4246 42.3204 41.8292 0.0000 -9.0031 0.0000
# 3 87.7723 41.8292 102.8205 0.0000 -22.8028 0.0000
# 4 0.0000 0.0000 0.0000 15.4204 0.0000 -1.8140
# 5 -14.9846 -9.0031 -22.8028 0.0000 29.7750 0.0000
# 6 0.0000 0.0000 0.0000 -1.8140 0.0000 20.4478
#
#
#
# Elastic Compliance Matrix: (Units=1/GPa)
#
#
# Indices 1 2 3 4 5 6 
#
# 1 0.018912 -0.007227 -0.013947 0.000000 -0.003349 0.000000
# 2 -0.007227 0.042286 -0.010847 0.000000 0.000842 0.000000
# 3 -0.013947 -0.010847 0.028621 0.000000 0.011620 0.000000
# 4 0.000000 0.000000 0.000000 0.065533 0.000000 0.005814
# 5 -0.003349 0.000842 0.011620 0.000000 0.041054 0.000000
# 6 0.000000 0.000000 0.000000 0.005814 0.000000 0.049421
#
#
# Mechanical properties :
#
#
# Convention : Reuss Voigt Hill
#
# Bulk Modulus (GPa) = 38.79200 69.72245 54.25722
# Shear Modulus (GPa) = 15.70043 19.95686 17.82865
#
# Velocity S-wave (km/s) = 3.12865 3.52734 3.33396
# Velocity P-wave (km/s) = 6.10215 7.74972 6.97475
#
# Compressibility (1/GPa) = 0.02577851
#
# Stress axis : x y z
#
# Youngs Moduli (GPa) = 52.87576 23.64830 34.93892
#
# Poissons Ratio (x) = 0.17090 0.48729
# Poissons Ratio (y) = 0.38212 0.37898
# Poissons Ratio (z) = 0.73746 0.25651
#
# Static dielectric constant tensor:
#      x y z
#    x 1.522570 0.000000 -0.009040 
#    y 0.000000 1.538070 0.000000 
#    z -0.009040 0.000000 1.516970 
# 
# From -- ./inp_files/49851.got.cif
#   From: 2010.05.17/outbox.cif.g08.bks.cpg/sg10_25_cif.got.tgz:49851.got - 2010.06.03 11:33:40.
