data_PCOD9144774
_publ_section_title
;
Structure prediction by ZEFSAII (Michael W. Deem and Ramdas Pophale) SiO2 
 PCOD9144774
Probable space group: P 2/M
;
_chemical_formula_sum "Si O2"
_cell_formula_units_Z 32
_cell_length_a 17.027713
_cell_length_b 8.783588
_cell_length_c 14.277556
_cell_angle_alpha 90.000000
_cell_angle_beta 85.402166
_cell_angle_gamma 90.000000
_cell_volume 2128.542363
_symmetry_space_group_name_H-M "P 2/M"
_symmetry_group_IT_number 10
_symmetry_cell_setting 'monoclinic'
loop_
_space_group_symop_operation_xyz
x,y,z
-x,y,-z
-x,-y,-z
x,-y,z
loop_
_atom_site_type_symbol
_atom_site_label
_atom_site_fract_x
_atom_site_fract_y
_atom_site_fract_z
Si Si1 0.727397 0.181025 0.810158
Si Si2 0.091312 0.824919 0.525224
Si Si3 0.398458 0.679258 0.920048
Si Si4 0.232956 0.683610 0.990061
Si Si5 0.856787 0.680334 0.664626
Si Si6 0.978708 0.815867 0.279335
Si Si7 0.434856 0.679839 0.139354
Si Si8 0.072714 0.816763 0.925589
O O1 0.757362 0.251482 0.905923
O O2 0.783674 0.242560 0.723538
O O3 0.636894 0.233421 0.805748
O O4 0.732097 0.000000 0.815632
O O5 0.137625 0.726660 0.445136
O O6 0.083580 0.772579 0.633332
O O7 0.000000 0.824734 0.500000
O O8 0.118937 0.000000 0.518952
O O9 0.396644 0.500000 0.896778
O O10 0.475602 0.741013 0.859379
O O11 0.309344 0.738356 0.922538
O O12 0.416893 0.689264 0.029487
O O13 0.235992 0.500000 0.995181
O O14 0.152063 0.738393 0.952971
O O15 0.852756 0.500000 0.675202
O O16 0.937305 0.741604 0.704872
O O17 0.949468 0.776876 0.178810
O O18 0.988408 0.000000 0.284381
O O19 0.431989 0.500000 0.163672
O O20 0.082739 0.000000 0.929746
O O21 0.000000 0.775711 0.000000
#
# Coordination Sequence:
#
# PCOD9144774 Si02
#       8
#     4   4   4   4   4   4   4   4
#     4  11  20  29  41  60  88 117 143 173 212 256
#     4   8  15  29  46  62  82 110 140 171 213 260
#     4   7  12  24  42  59  79 108 138 171 210 249
#     4  10  19  31  45  62  84 113 149 182 212 247
#     4  11  20  29  44  65  86 109 141 179 216 255
#     4   9  18  32  47  62  85 116 146 177 215 254
#     4   8  13  25  42  59  80 108 140 170 205 249
#     4  10  20  32  45  62  86 117 150 181 212 244
#
# _framework density 15.033761999999999
#
# number of rings (size 3 to 8) (size 9 to 14) (size 15 to 20)
#    0.000    2.750    0.000    5.625    0.000    4.000 
#    0.000    5.625    0.000    0.000    0.000    0.000 
#    0.000    1.000    0.000   11.500    0.000    3.750 
#
# Total GULP energy -178173.908679 kJ/mol
# GULP energy per Si atom -5567.934646 kJ/mol
# Density = 1.499954 g / cm^3
# Si number density = 15.033762 Si / 1000 Ang^3
#
#
#
# Elastic Constant Matrix: (Units=GPa)
#
#
# Indices 1 2 3 4 5 6 
#
# 1 133.4357 47.7720 54.6534 0.0000 -20.0280 0.0000
# 2 47.7720 55.9497 31.0170 0.0000 -11.2217 0.0000
# 3 54.6534 31.0170 85.1242 0.0000 -15.9780 0.0000
# 4 0.0000 0.0000 0.0000 5.8113 0.0000 -19.5483
# 5 -20.0280 -11.2217 -15.9780 0.0000 18.0103 0.0000
# 6 0.0000 0.0000 0.0000 -19.5483 0.0000 -11.2263
#
#
#
# Elastic Compliance Matrix: (Units=1/GPa)
#
#
# Indices 1 2 3 4 5 6 
#
# 1 0.012802 -0.007298 -0.004489 0.000000 0.005707 0.000000
# 2 -0.007298 0.027576 -0.004392 0.000000 0.005170 0.000000
# 3 -0.004489 -0.004392 0.017732 0.000000 0.008003 0.000000
# 4 0.000000 0.000000 0.000000 0.025094 0.000000 -0.043695
# 5 0.005707 0.005170 0.008003 0.000000 0.072191 0.000000
# 6 0.000000 0.000000 0.000000 -0.043695 0.000000 -0.012990
#
#
# Mechanical properties :
#
#
# Convention : Reuss Voigt Hill
#
# Bulk Modulus (GPa) = 38.83137 60.15494 49.49316
# Shear Modulus (GPa) = 27.27055 11.92352 19.59703
#
# Velocity S-wave (km/s) = 4.26367 2.81929 3.61437
# Velocity P-wave (km/s) = 7.07984 7.12025 7.10007
#
# Compressibility (1/GPa) = 0.02575237
#
# Stress axis : x y z
#
# Youngs Moduli (GPa) = 78.11110 36.26328 56.39409
#
# Poissons Ratio (x) = 0.26464 0.25317
# Poissons Ratio (y) = 0.57003 0.24769
# Poissons Ratio (z) = 0.35067 0.15927
#
# Static dielectric constant tensor:
#      x y z
#    x 1.521000 0.000000 -0.018110 
#    y 0.000000 1.504630 0.000000 
#    z -0.018110 0.000000 1.492390 
# 
# From -- ./inp_files/66205.got.cif
#   From: 2010.05.17/outbox.cif.g08.bks.cpg/sg10_34_cif.got.tgz:66205.got - 2010.06.03 11:33:40.
