data_PCOD9144040
_publ_section_title
;
Structure prediction by ZEFSAII (Michael W. Deem and Ramdas Pophale) SiO2 
 PCOD9144040
Probable space group: P 2/M
;
_chemical_formula_sum "Si O2"
_cell_formula_units_Z 28
_cell_length_a 21.558408
_cell_length_b 8.375805
_cell_length_c 18.257307
_cell_angle_alpha 90.000000
_cell_angle_beta 26.995397
_cell_angle_gamma 90.000000
_cell_volume 1496.436337
_symmetry_space_group_name_H-M "P 2/M"
_symmetry_group_IT_number 10
_symmetry_cell_setting 'monoclinic'
loop_
_space_group_symop_operation_xyz
x,y,z
-x,y,-z
-x,-y,-z
x,-y,z
loop_
_atom_site_type_symbol
_atom_site_label
_atom_site_fract_x
_atom_site_fract_y
_atom_site_fract_z
Si Si1 0.019229 0.179958 0.271407
Si Si2 0.889881 0.682863 0.679474
Si Si3 0.764693 0.684355 0.060693
Si Si4 0.575228 0.692757 0.994598
Si Si5 0.987026 0.809628 0.930559
Si Si6 0.512662 0.305019 0.227945
Si Si7 0.794597 0.690742 0.418036
O O1 0.058215 0.198458 0.313648
O O2 0.866548 0.231177 0.412906
O O3 0.043180 0.000000 0.219524
O O4 0.118004 0.298776 0.123998
O O5 0.884753 0.500000 0.714454
O O6 0.000000 0.684081 0.500000
O O7 0.736735 0.722618 0.816641
O O8 0.739851 0.500000 0.105520
O O9 0.630641 0.750498 0.160268
O O10 0.839605 0.766375 0.050573
O O11 0.554127 0.500000 0.017914
O O12 0.532710 0.748195 0.121791
O O13 0.500000 0.753115 0.000000
O O14 0.109312 0.742304 0.750900
O O15 0.000894 0.000000 0.916070
O O16 0.000000 0.749889 0.000000
O O17 0.522741 0.500000 0.215775
O O18 0.363728 0.261523 0.415466
O O19 0.800208 0.500000 0.418144
#
# Coordination Sequence:
#
# PCOD9144040 Si02
#       7
#     4   4   4   4   4   4   4
#     4  11  21  34  51  74 107 145 181 221 272 322
#     4  10  20  33  53  77 100 134 185 233 276 322
#     4  10  18  34  59  83 107 138 179 224 265 316
#     4   9  17  30  50  77 108 138 174 227 279 316
#     4  10  21  38  58  82 113 145 178 217 264 323
#     4   9  18  32  53  82 112 139 178 230 277 318
#     4  10  20  34  57  84 109 139 181 225 267 318
#
# _framework density 18.711120999999999
#
# number of rings (size 3 to 8) (size 9 to 14) (size 15 to 20)
#    0.000    2.143    1.429    4.286    2.000    1.429 
#    0.000    3.571    0.000    4.714    0.000    0.000 
#    0.000    0.000    0.000    0.000    0.000    0.000 
#
# Total GULP energy -156014.728138 kJ/mol
# GULP energy per Si atom -5571.954576 kJ/mol
# Density = 1.866853 g / cm^3
# Si number density = 18.711121 Si / 1000 Ang^3
#
#
#
# Elastic Constant Matrix: (Units=GPa)
#
#
# Indices 1 2 3 4 5 6 
#
# 1 163.2146 20.0735 70.0716 0.0000 -15.2627 0.0000
# 2 20.0735 22.6322 12.7190 0.0000 -0.7048 0.0000
# 3 70.0716 12.7190 97.9190 0.0000 -24.0927 0.0000
# 4 0.0000 0.0000 0.0000 -9.3240 0.0000 8.2077
# 5 -15.2627 -0.7048 -24.0927 0.0000 28.9095 0.0000
# 6 0.0000 0.0000 0.0000 8.2077 0.0000 33.7734
#
#
#
# Elastic Compliance Matrix: (Units=1/GPa)
#
#
# Indices 1 2 3 4 5 6 
#
# 1 0.009319 -0.004840 -0.006112 0.000000 -0.000292 0.000000
# 2 -0.004840 0.050766 -0.004346 0.000000 -0.004940 0.000000
# 3 -0.006112 -0.004346 0.018027 0.000000 0.011691 0.000000
# 4 0.000000 0.000000 0.000000 -0.088349 0.000000 0.021471
# 5 -0.000292 -0.004940 0.011691 0.000000 0.044059 0.000000
# 6 0.000000 0.000000 0.000000 0.021471 0.000000 0.024391
#
#
# Mechanical properties :
#
#
# Convention : Reuss Voigt Hill
#
# Bulk Modulus (GPa) = 21.04516 54.38822 37.71669
# Shear Modulus (GPa) = 47.77967 22.73188 35.25577
#
# Velocity S-wave (km/s) = 5.05874 3.48930 4.34546
# Velocity P-wave (km/s) = 6.73743 6.73529 6.73636
#
# Compressibility (1/GPa) = 0.04751686
#
# Stress axis : x y z
#
# Youngs Moduli (GPa) = 107.31089 19.69821 55.47193
#
# Poissons Ratio (x) = 0.09533 0.33902
# Poissons Ratio (y) = 0.51934 0.24110
# Poissons Ratio (z) = 0.65585 0.08561
#
# Static dielectric constant tensor:
#      x y z
#    x 1.680270 0.000000 -0.008050 
#    y 0.000000 1.654980 0.000000 
#    z -0.008050 0.000000 1.624810 
# 
# From -- ./inp_files/79208.got.cif
#   From: 2010.05.17/outbox.cif.g08.bks.cpg/sg10_40_cif.got.tgz:79208.got - 2010.06.03 11:33:40.
