data_PCOD9144782
_publ_section_title
;
Structure prediction by ZEFSAII (Michael W. Deem and Ramdas Pophale) SiO2 
 PCOD9144782
Probable space group: P 2/M
;
_chemical_formula_sum "Si O2"
_cell_formula_units_Z 32
_cell_length_a 5.176588
_cell_length_b 13.861967
_cell_length_c 28.182534
_cell_angle_alpha 90.000000
_cell_angle_beta 99.603547
_cell_angle_gamma 90.000000
_cell_volume 1993.972308
_symmetry_space_group_name_H-M "P 2/M"
_symmetry_group_IT_number 10
_symmetry_cell_setting 'monoclinic'
loop_
_space_group_symop_operation_xyz
x,y,z
-x,y,-z
-x,-y,-z
x,-y,z
loop_
_atom_site_type_symbol
_atom_site_label
_atom_site_fract_x
_atom_site_fract_y
_atom_site_fract_z
Si Si1 0.858480 0.387434 0.540949
Si Si2 0.593058 0.810810 0.613766
Si Si3 0.548154 0.882573 0.112558
Si Si4 0.416880 0.611663 0.598780
Si Si5 0.302686 0.118109 0.776952
Si Si6 0.994183 0.117547 0.054429
Si Si7 0.965555 0.885848 0.442098
Si Si8 0.247834 0.115069 0.280163
O O1 0.821915 0.500000 0.527270
O O2 0.102295 0.382715 0.585315
O O3 0.000000 0.339157 0.500000
O O4 0.575529 0.364432 0.554296
O O5 0.530415 0.702145 0.630280
O O6 0.321704 0.851931 0.583781
O O7 0.690553 0.865235 0.663360
O O8 0.816223 0.825563 0.580316
O O9 0.642676 0.851525 0.167418
O O10 0.254963 0.853160 0.090417
O O11 0.742943 0.851592 0.076748
O O12 0.550977 0.000000 0.113203
O O13 0.483163 0.500000 0.612431
O O14 0.527563 0.150786 0.748091
O O15 0.029294 0.152125 0.746965
O O16 0.301159 0.000000 0.777299
O O17 0.990562 0.000000 0.053238
O O18 0.000000 0.149552 0.000000
O O19 0.000000 0.876702 0.500000
O O20 0.998671 0.000000 0.431817
O O21 0.240276 0.000000 0.274472
#
# Coordination Sequence:
#
# PCOD9144782 Si02
#       8
#     4   4   4   4   4   4   4   4
#     4   9  17  30  47  65  87 113 136 161 193 231
#     4  12  23  36  55  73  91 118 146 176 221 266
#     4   9  15  23  34  48  69  97 128 163 209 253
#     4  10  21  34  48  69  94 116 140 170 206 252
#     4   9  17  28  42  59  78 101 130 171 220 261
#     4   9  15  21  30  46  69  98 132 167 201 241
#     4  11  24  40  55  72  94 118 146 178 213 263
#     4  10  19  31  46  63  81 101 133 175 217 259
#
# _framework density 16.048366000000001
#
# number of rings (size 3 to 8) (size 9 to 14) (size 15 to 20)
#    0.000    2.125    0.000    4.500    0.000   11.000 
#    0.000    0.000    0.000    0.000    0.000    0.000 
#    0.000    0.000    0.000    0.000    0.000    0.000 
#
# Total GULP energy -178229.549186 kJ/mol
# GULP energy per Si atom -5569.673412 kJ/mol
# Density = 1.601184 g / cm^3
# Si number density = 16.048366 Si / 1000 Ang^3
#
#
#
# Elastic Constant Matrix: (Units=GPa)
#
#
# Indices 1 2 3 4 5 6 
#
# 1 72.0380 10.7522 9.3558 0.0000 7.3298 0.0000
# 2 10.7522 45.9536 -1.2422 0.0000 4.4526 0.0000
# 3 9.3558 -1.2422 62.3527 0.0000 2.5586 0.0000
# 4 0.0000 0.0000 0.0000 -0.7938 0.0000 0.5181
# 5 7.3298 4.4526 2.5586 0.0000 24.3042 0.0000
# 6 0.0000 0.0000 0.0000 0.5181 0.0000 11.9998
#
#
#
# Elastic Compliance Matrix: (Units=1/GPa)
#
#
# Indices 1 2 3 4 5 6 
#
# 1 0.015020 -0.003213 -0.002165 0.000000 -0.003713 0.000000
# 2 -0.003213 0.022865 0.001074 0.000000 -0.003333 0.000000
# 3 -0.002165 0.001074 0.016436 0.000000 -0.001274 0.000000
# 4 0.000000 0.000000 0.000000 -1.225260 0.000000 0.052901
# 5 -0.003713 -0.003333 -0.001274 0.000000 0.043010 0.000000
# 6 0.000000 0.000000 0.000000 0.052901 0.000000 0.081050
#
#
# Mechanical properties :
#
#
# Convention : Reuss Voigt Hill
#
# Bulk Modulus (GPa) = 21.87550 24.23064 23.05307
# Shear Modulus (GPa) = -4.88743 17.86729 6.48993
#
# Velocity S-wave (km/s) = -1.74701 3.34030 2.01315
# Velocity P-wave (km/s) = 3.09696 5.47796 4.44968
#
# Compressibility (1/GPa) = 0.04571323
#
# Stress axis : x y z
#
# Youngs Moduli (GPa) = 66.57710 43.73518 60.84058
#
# Poissons Ratio (x) = 0.14053 0.13174
# Poissons Ratio (y) = 0.21392 -0.06537
# Poissons Ratio (z) = 0.14416 -0.04699
#
# Static dielectric constant tensor:
#      x y z
#    x 1.559350 0.000000 -0.009510 
#    y 0.000000 1.562570 0.000000 
#    z -0.009510 0.000000 1.540200 
# 
# From -- ./inp_files/87537.got.cif
#   From: 2010.05.17/outbox.cif.g08.bks.cpg/sg10_44_cif.got.tgz:87537.got - 2010.06.03 11:33:40.
