data_PCOD9144313
_publ_section_title
;
Structure prediction by ZEFSAII (Michael W. Deem and Ramdas Pophale) SiO2 
 PCOD9144313
Probable space group: P 2/M
;
_chemical_formula_sum "Si O2"
_cell_formula_units_Z 28
_cell_length_a 22.849468
_cell_length_b 9.010976
_cell_length_c 10.466060
_cell_angle_alpha 90.000000
_cell_angle_beta 53.094606
_cell_angle_gamma 90.000000
_cell_volume 1723.134626
_symmetry_space_group_name_H-M "P 2/M"
_symmetry_group_IT_number 10
_symmetry_cell_setting 'monoclinic'
loop_
_space_group_symop_operation_xyz
x,y,z
-x,y,-z
-x,-y,-z
x,-y,z
loop_
_atom_site_type_symbol
_atom_site_label
_atom_site_fract_x
_atom_site_fract_y
_atom_site_fract_z
Si Si1 0.537739 0.178730 0.319275
Si Si2 0.153145 0.322799 0.173889
Si Si3 0.848026 0.821496 0.543001
Si Si4 0.314729 0.676905 0.961666
Si Si5 0.991420 0.825941 0.665959
Si Si6 0.699301 0.322602 0.717115
Si Si7 0.446217 0.821819 0.188853
O O1 0.500000 0.227492 0.500000
O O2 0.618494 0.242459 0.193113
O O3 0.487531 0.221300 0.264363
O O4 0.542426 0.000000 0.313724
O O5 0.149351 0.500000 0.196515
O O6 0.152826 0.244198 0.312523
O O7 0.080073 0.265496 0.200788
O O8 0.233695 0.287317 0.013880
O O9 0.928897 0.783078 0.383651
O O10 0.775834 0.752018 0.575366
O O11 0.843133 0.000000 0.554181
O O12 0.324848 0.500000 0.939325
O O13 0.313887 0.714313 0.114746
O O14 0.000000 0.809801 0.500000
O O15 0.978817 0.000000 0.706869
O O16 0.704849 0.500000 0.700361
O O17 0.630325 0.259857 0.731401
O O18 0.434356 0.000000 0.204660
O O19 0.500000 0.787224 0.000000
#
# Coordination Sequence:
#
# PCOD9144313 Si02
#       7
#     4   4   4   4   4   4   4
#     4  10  21  35  50  69  92 118 153 195 233 272
#     4   9  16  24  36  57  83 114 151 189 226 268
#     4   9  16  25  37  55  84 118 151 186 226 272
#     4   9  18  30  43  63  90 119 152 189 230 274
#     4   8  14  23  34  52  79 115 152 183 221 270
#     4  10  19  29  44  67  91 117 153 193 230 268
#     4  10  19  32  50  70  90 119 155 188 231 279
#
# _framework density 16.249455000000001
#
# number of rings (size 3 to 8) (size 9 to 14) (size 15 to 20)
#    0.000    2.714    1.429    3.000    0.000    7.143 
#    0.000    0.000    0.000    0.000    0.000    0.000 
#    0.000    1.143    0.000   12.857    0.000    9.286 
#
# Total GULP energy -155886.181001 kJ/mol
# GULP energy per Si atom -5567.363607 kJ/mol
# Density = 1.621247 g / cm^3
# Si number density = 16.249455 Si / 1000 Ang^3
#
#
#
# Elastic Constant Matrix: (Units=GPa)
#
#
# Indices 1 2 3 4 5 6 
#
# 1 111.1682 47.6467 74.0196 0.0000 -45.1847 0.0000
# 2 47.6467 41.0135 38.9823 0.0000 -22.5091 0.0000
# 3 74.0196 38.9823 81.8264 0.0000 -28.1743 0.0000
# 4 0.0000 0.0000 0.0000 20.2572 0.0000 -15.9863
# 5 -45.1847 -22.5091 -28.1743 0.0000 38.0401 0.0000
# 6 0.0000 0.0000 0.0000 -15.9863 0.0000 26.6502
#
#
#
# Elastic Compliance Matrix: (Units=1/GPa)
#
#
# Indices 1 2 3 4 5 6 
#
# 1 0.034924 -0.010851 -0.019262 0.000000 0.020797 0.000000
# 2 -0.010851 0.054578 -0.012757 0.000000 0.009958 0.000000
# 3 -0.019262 -0.012757 0.033888 0.000000 -0.005330 0.000000
# 4 0.000000 0.000000 0.000000 0.093741 0.000000 0.056231
# 5 0.020797 0.009958 -0.005330 0.000000 0.052935 0.000000
# 6 0.000000 0.000000 0.000000 0.056231 0.000000 0.071254
#
#
# Mechanical properties :
#
#
# Convention : Reuss Voigt Hill
#
# Bulk Modulus (GPa) = 26.56022 61.70059 44.13040
# Shear Modulus (GPa) = 11.37369 21.88012 16.62690
#
# Velocity S-wave (km/s) = 2.64851 3.67347 3.20226
# Velocity P-wave (km/s) = 5.07283 7.48637 6.39451
#
# Compressibility (1/GPa) = 0.03765030
#
# Stress axis : x y z
#
# Youngs Moduli (GPa) = 28.63323 18.32229 29.50901
#
# Poissons Ratio (x) = 0.19881 0.56842
# Poissons Ratio (y) = 0.31069 0.37645
# Poissons Ratio (z) = 0.55155 0.23374
#
# Static dielectric constant tensor:
#      x y z
#    x 1.575970 0.000000 -0.035100 
#    y 0.000000 1.538570 0.000000 
#    z -0.035100 0.000000 1.534530 
# 
# From -- ./inp_files/56276.got.cif
#   From: 2010.05.17/outbox.cif.g08.bks.cpg/sg10_29_cif.got.tgz:56276.got - 2010.06.03 11:33:40.
