data_PCOD9144298
_publ_section_title
;
Structure prediction by ZEFSAII (Michael W. Deem and Ramdas Pophale) SiO2 
 PCOD9144298
Probable space group: P 2/M
;
_chemical_formula_sum "Si O2"
_cell_formula_units_Z 24
_cell_length_a 12.470952
_cell_length_b 7.705611
_cell_length_c 24.340380
_cell_angle_alpha 90.000000
_cell_angle_beta 32.814600
_cell_angle_gamma 90.000000
_cell_volume 1267.567609
_symmetry_space_group_name_H-M "P 2/M"
_symmetry_group_IT_number 10
_symmetry_cell_setting 'monoclinic'
loop_
_space_group_symop_operation_xyz
x,y,z
-x,y,-z
-x,-y,-z
x,-y,z
loop_
_atom_site_type_symbol
_atom_site_label
_atom_site_fract_x
_atom_site_fract_y
_atom_site_fract_z
Si Si1 0.698553 0.206826 0.282683
Si Si2 0.042202 0.301966 0.339354
Si Si3 0.627805 0.710623 0.728721
Si Si4 0.721681 0.296701 0.394507
Si Si5 0.191131 0.708256 0.885479
Si Si6 0.744380 0.794339 0.557664
O O1 0.769570 0.282336 0.309645
O O2 0.812638 0.253220 0.177845
O O3 0.471466 0.264337 0.370787
O O4 0.697193 0.000000 0.288485
O O5 0.083956 0.500000 0.303728
O O6 0.249513 0.225037 0.271333
O O7 0.091676 0.301373 0.548116
O O8 0.897784 0.220073 0.355879
O O9 0.626192 0.500000 0.731241
O O10 0.401827 0.772533 0.818625
O O11 0.739575 0.763268 0.624636
O O12 0.500000 0.222270 0.500000
O O13 0.708840 0.500000 0.415897
O O14 0.194285 0.500000 0.890043
O O15 0.000000 0.775521 0.000000
O O16 0.766605 0.000000 0.538315
#
# Coordination Sequence:
#
# PCOD9144298 Si02
#       6
#     4   4   4   4   4   4
#     4  10  20  32  48  72 100 128 160 198 237 279
#     4  10  19  30  45  66  94 129 161 191 230 274
#     4   9  18  31  47  68  94 121 154 195 239 285
#     4  10  19  31  48  68  95 132 169 198 225 270
#     4   9  18  34  56  76  93 118 155 201 248 289
#     4  10  19  29  43  66  97 129 159 191 228 276
#
# _framework density 18.933900999999999
#
# number of rings (size 3 to 8) (size 9 to 14) (size 15 to 20)
#    0.000    2.333    1.667    1.500    0.000    5.333 
#    0.000    0.000    0.000    1.000    0.000    7.000 
#    0.000    0.000    0.000    0.000    0.000    0.000 
#
# Total GULP energy -133841.050325 kJ/mol
# GULP energy per Si atom -5576.710430 kJ/mol
# Density = 1.889081 g / cm^3
# Si number density = 18.933901 Si / 1000 Ang^3
#
#
#
# Elastic Constant Matrix: (Units=GPa)
#
#
# Indices 1 2 3 4 5 6 
#
# 1 177.5300 0.8402 45.8043 0.0000 7.3735 0.0000
# 2 0.8402 36.1214 -2.8631 0.0000 -2.6567 0.0000
# 3 45.8043 -2.8631 81.4911 0.0000 0.6304 0.0000
# 4 0.0000 0.0000 0.0000 39.4556 0.0000 24.9122
# 5 7.3735 -2.6567 0.6304 0.0000 9.2724 0.0000
# 6 0.0000 0.0000 0.0000 24.9122 0.0000 19.8370
#
#
#
# Elastic Compliance Matrix: (Units=1/GPa)
#
#
# Indices 1 2 3 4 5 6 
#
# 1 0.006854 -0.000864 -0.003841 0.000000 -0.005436 0.000000
# 2 -0.000864 0.028460 0.001418 0.000000 0.008745 0.000000
# 3 -0.003841 0.001418 0.014461 0.000000 0.002477 0.000000
# 4 0.000000 0.000000 0.000000 0.122404 0.000000 -0.153720
# 5 -0.005436 0.008745 0.002477 0.000000 0.114507 0.000000
# 6 0.000000 0.000000 0.000000 -0.153720 0.000000 0.243460
#
#
# Mechanical properties :
#
#
# Convention : Reuss Voigt Hill
#
# Bulk Modulus (GPa) = 23.14746 42.52280 32.83513
# Shear Modulus (GPa) = 9.07246 30.47041 19.77144
#
# Velocity S-wave (km/s) = 2.19136 4.01597 3.23497
# Velocity P-wave (km/s) = 4.31911 6.63410 5.59759
#
# Compressibility (1/GPa) = 0.04320128
#
# Stress axis : x y z
#
# Youngs Moduli (GPa) = 145.90812 35.13695 69.15339
#
# Poissons Ratio (x) = 0.03035 0.26559
# Poissons Ratio (y) = 0.12602 -0.09804
# Poissons Ratio (z) = 0.56037 -0.04981
#
# Static dielectric constant tensor:
#      x y z
#    x 1.722580 0.000000 -0.025380 
#    y 0.000000 1.691120 0.000000 
#    z -0.025380 0.000000 1.625820 
# 
# From -- ./inp_files/83288.got.cif
#   From: 2010.05.17/outbox.cif.g08.bks.cpg/sg10_42_cif.got.tgz:83288.got - 2010.06.03 11:33:40.
