data_PCOD9144276
_publ_section_title
;
Structure prediction by ZEFSAII (Michael W. Deem and Ramdas Pophale) SiO2 
 PCOD9144276
Probable space group: P 2/M
;
_chemical_formula_sum "Si O2"
_cell_formula_units_Z 32
_cell_length_a 22.395471
_cell_length_b 13.653576
_cell_length_c 19.896599
_cell_angle_alpha 90.000000
_cell_angle_beta 19.143486
_cell_angle_gamma 90.000000
_cell_volume 1995.139310
_symmetry_space_group_name_H-M "P 2/M"
_symmetry_group_IT_number 10
_symmetry_cell_setting 'monoclinic'
loop_
_space_group_symop_operation_xyz
x,y,z
-x,y,-z
-x,-y,-z
x,-y,z
loop_
_atom_site_type_symbol
_atom_site_label
_atom_site_fract_x
_atom_site_fract_y
_atom_site_fract_z
Si Si1 0.015938 0.885914 0.874903
Si Si2 0.310596 0.885349 0.669258
Si Si3 0.482645 0.385123 0.599192
Si Si4 0.278792 0.618780 0.304623
Si Si5 0.867306 0.704052 0.964262
Si Si6 0.109928 0.384179 0.818394
Si Si7 0.928145 0.618735 0.754871
Si Si8 0.303629 0.618873 0.128406
O O1 0.199713 0.853481 0.719699
O O2 0.035724 0.000000 0.834502
O O3 0.847201 0.880473 0.106802
O O4 0.952039 0.811689 0.885253
O O5 0.500000 0.843923 0.500000
O O6 0.350487 0.000000 0.613370
O O7 0.500000 0.383099 0.500000
O O8 0.443712 0.500000 0.658752
O O9 0.329167 0.315813 0.793260
O O10 0.682172 0.353752 0.410408
O O11 0.277147 0.500000 0.305190
O O12 0.230984 0.650017 0.279093
O O13 0.132549 0.647119 0.515590
O O14 0.485192 0.648827 0.099928
O O15 0.868444 0.669139 0.886807
O O16 0.997844 0.636700 0.871191
O O17 0.122738 0.500000 0.816783
O O18 0.000000 0.342377 0.000000
O O19 0.918212 0.500000 0.773088
O O20 0.806151 0.648153 0.820533
O O21 0.298274 0.500000 0.134792
#
# Coordination Sequence:
#
# PCOD9144276 Si02
#       8
#     4   4   4   4   4   4   4   4
#     4   9  20  34  48  68  91 115 150 198 249 299
#     4   8  15  31  53  70  82 100 136 195 258 302
#     4  10  20  34  50  66  87 119 161 201 233 272
#     4   8  14  26  45  66  89 121 153 180 217 266
#     4  12  23  32  47  68  94 125 161 196 243 288
#     4  10  20  34  50  66  87 117 158 201 235 274
#     4  10  19  29  42  64  96 125 152 186 224 269
#     4   8  14  26  45  66  89 120 154 182 215 265
#
# _framework density 16.038981
#
# number of rings (size 3 to 8) (size 9 to 14) (size 15 to 20)
#    0.000    2.625    1.250    3.000    1.750    4.000 
#    0.000    2.500    0.000    0.000    0.000    0.000 
#    0.000    2.000    0.000    2.750    0.000    0.250 
#
# Total GULP energy -178217.686125 kJ/mol
# GULP energy per Si atom -5569.302691 kJ/mol
# Density = 1.600248 g / cm^3
# Si number density = 16.038981 Si / 1000 Ang^3
#
#
#
# Elastic Constant Matrix: (Units=GPa)
#
#
# Indices 1 2 3 4 5 6 
#
# 1 40.4613 15.6305 33.3823 0.0000 1.5889 0.0000
# 2 15.6305 59.7597 22.5046 0.0000 -1.1818 0.0000
# 3 33.3823 22.5046 83.4595 0.0000 -8.8362 0.0000
# 4 0.0000 0.0000 0.0000 11.4235 0.0000 -4.6930
# 5 1.5889 -1.1818 -8.8362 0.0000 29.1738 0.0000
# 6 0.0000 0.0000 0.0000 -4.6930 0.0000 16.4318
#
#
#
# Elastic Compliance Matrix: (Units=1/GPa)
#
#
# Indices 1 2 3 4 5 6 
#
# 1 0.039350 -0.004703 -0.015206 0.000000 -0.006939 0.000000
# 2 -0.004703 0.019205 -0.003293 0.000000 0.000037 0.000000
# 3 -0.015206 -0.003293 0.019656 0.000000 0.006648 0.000000
# 4 0.000000 0.000000 0.000000 0.099175 0.000000 0.028325
# 5 -0.006939 0.000037 0.006648 0.000000 0.036670 0.000000
# 6 0.000000 0.000000 0.000000 0.028325 0.000000 0.068948
#
#
# Mechanical properties :
#
#
# Convention : Reuss Voigt Hill
#
# Bulk Modulus (GPa) = 31.44089 36.30170 33.87129
# Shear Modulus (GPa) = 14.70545 18.88335 16.79440
#
# Velocity S-wave (km/s) = 3.03125 3.43496 3.23940
# Velocity P-wave (km/s) = 5.64771 6.19794 5.92921
#
# Compressibility (1/GPa) = 0.03180571
#
# Stress axis : x y z
#
# Youngs Moduli (GPa) = 25.41321 52.07024 50.87569
#
# Poissons Ratio (x) = 0.24490 0.77360
# Poissons Ratio (y) = 0.11952 0.16756
# Poissons Ratio (z) = 0.38642 0.17149
#
# Static dielectric constant tensor:
#      x y z
#    x 1.571830 0.000000 -0.053190 
#    y 0.000000 1.573480 0.000000 
#    z -0.053190 0.000000 1.570320 
# 
# From -- ./inp_files/79704.got.cif
#   From: 2010.05.17/outbox.cif.g08.bks.cpg/sg10_40_cif.got.tgz:79704.got - 2010.06.03 11:33:40.
