data_PCOD9144944
_publ_section_title
;
Structure prediction by ZEFSAII (Michael W. Deem and Ramdas Pophale) SiO2 
 PCOD9144944
Probable space group: P 2/M
;
_chemical_formula_sum "Si O2"
_cell_formula_units_Z 30
_cell_length_a 22.060871
_cell_length_b 15.414782
_cell_length_c 22.458230
_cell_angle_alpha 90.000000
_cell_angle_beta 167.137819
_cell_angle_gamma 90.000000
_cell_volume 1700.097083
_symmetry_space_group_name_H-M "P 2/M"
_symmetry_group_IT_number 10
_symmetry_cell_setting 'monoclinic'
loop_
_space_group_symop_operation_xyz
x,y,z
-x,y,-z
-x,-y,-z
x,-y,z
loop_
_atom_site_type_symbol
_atom_site_label
_atom_site_fract_x
_atom_site_fract_y
_atom_site_fract_z
Si Si1 0.090826 0.631957 0.764601
Si Si2 0.634524 0.899322 0.314696
Si Si3 0.207977 0.104310 0.064897
Si Si4 0.636101 0.104192 0.570037
Si Si5 0.909477 0.813652 0.174125
Si Si6 0.771591 0.282134 0.229914
Si Si7 0.898829 0.905721 0.335627
Si Si8 0.416414 0.500000 0.732541
O O1 0.137628 0.668275 0.742300
O O2 0.818670 0.575255 0.503530
O O3 0.065655 0.713353 0.785279
O O4 0.350850 0.575107 0.031254
O O5 0.348716 0.851119 0.036373
O O6 0.835704 0.892058 0.451153
O O7 0.579099 0.000000 0.272833
O O8 0.815139 0.860557 0.541037
O O9 0.476339 0.131457 0.357673
O O10 0.156524 0.158586 0.956267
O O11 0.215892 0.000000 0.058855
O O12 0.954687 0.119425 0.866927
O O13 0.500000 0.139118 0.500000
O O14 0.600244 0.000000 0.537260
O O15 0.724137 0.181514 0.166235
O O16 0.000000 0.284347 0.500000
O O17 0.500000 0.318655 0.000000
O O18 0.000000 0.911899 0.500000
O O19 0.772512 0.000000 0.198185
#
# Coordination Sequence:
#
# PCOD9144944 Si02
#       8
#     4   4   4   4   4   4   4   2
#     4  11  23  43  62  84 103 136 172 222 294 350
#     4  11  22  35  51  77 110 147 184 220 263 313
#     4  10  19  31  48  77 112 149 189 226 257 292
#     4   9  17  30  48  70 104 153 201 231 254 285
#     4  12  23  36  57  79 111 146 182 223 273 327
#     4  11  23  38  60  82 107 135 176 222 272 330
#     4   9  20  35  52  75 107 144 184 222 257 305
#     4  10  24  44  66  80 104 128 169 226 290 364
#
# _framework density 17.646051
#
# number of rings (size 3 to 8) (size 9 to 14) (size 15 to 20)
#    0.000    1.600    1.333    4.000    3.733    2.933 
#    0.000    6.667    0.000    0.000    0.000    0.000 
#    0.000    0.000    0.000   42.000    0.000    0.000 
#
# Total GULP energy -167043.942717 kJ/mol
# GULP energy per Si atom -5568.131424 kJ/mol
# Density = 1.760589 g / cm^3
# Si number density = 17.646051 Si / 1000 Ang^3
#
#
#
# Elastic Constant Matrix: (Units=GPa)
#
#
# Indices 1 2 3 4 5 6 
#
# 1 59.5167 9.2463 -4.2245 0.0000 0.3854 0.0000
# 2 9.2463 78.9293 25.0538 0.0000 -8.6671 0.0000
# 3 -4.2245 25.0538 102.7845 0.0000 -5.6393 0.0000
# 4 0.0000 0.0000 0.0000 36.2148 0.0000 4.7336
# 5 0.3854 -8.6671 -5.6393 0.0000 12.2571 0.0000
# 6 0.0000 0.0000 0.0000 4.7336 0.0000 -4.4789
#
#
#
# Elastic Compliance Matrix: (Units=1/GPa)
#
#
# Indices 1 2 3 4 5 6 
#
# 1 0.017311 -0.002625 0.001251 0.000000 -0.001825 0.000000
# 2 -0.002625 0.015024 -0.003265 0.000000 0.009204 0.000000
# 3 0.001251 -0.003265 0.010718 0.000000 0.002583 0.000000
# 4 0.000000 0.000000 0.000000 0.024261 0.000000 0.025641
# 5 -0.001825 0.009204 0.002583 0.000000 0.089340 0.000000
# 6 0.000000 0.000000 0.000000 0.025641 0.000000 -0.196169
#
#
# Mechanical properties :
#
#
# Convention : Reuss Voigt Hill
#
# Bulk Modulus (GPa) = 29.60829 33.48687 31.54758
# Shear Modulus (GPa) = -263.46058 22.87559 -120.29250
#
# Velocity S-wave (km/s) = -12.23221 3.60440 -8.26545
# Velocity P-wave (km/s) = 13.51618 6.02831 8.55414
#
# Compressibility (1/GPa) = 0.03377432
#
# Stress axis : x y z
#
# Youngs Moduli (GPa) = 57.76837 66.55920 93.29998
#
# Poissons Ratio (x) = 0.17475 -0.11675
# Poissons Ratio (y) = 0.15167 0.30463
# Poissons Ratio (z) = -0.07228 0.21732
#
# Static dielectric constant tensor:
#      x y z
#    x 1.634650 0.000000 -0.004880 
#    y 0.000000 1.597270 0.000000 
#    z -0.004880 0.000000 1.621950 
# 
# From -- ./inp_files/91053.got.cif
#   From: 2010.05.17/outbox.cif.g08.bks.cpg/sg10_46_cif.got.tgz:91053.got - 2010.06.03 11:33:40.
