data_PCOD9144440
_publ_section_title
;
Structure prediction by ZEFSAII (Michael W. Deem and Ramdas Pophale) SiO2 
 PCOD9144440
Probable space group: P 2/M
;
_chemical_formula_sum "Si O2"
_cell_formula_units_Z 32
_cell_length_a 24.425394
_cell_length_b 8.591558
_cell_length_c 16.944830
_cell_angle_alpha 90.000000
_cell_angle_beta 150.617582
_cell_angle_gamma 90.000000
_cell_volume 1744.658672
_symmetry_space_group_name_H-M "P 2/M"
_symmetry_group_IT_number 10
_symmetry_cell_setting 'monoclinic'
loop_
_space_group_symop_operation_xyz
x,y,z
-x,y,-z
-x,-y,-z
x,-y,z
loop_
_atom_site_type_symbol
_atom_site_label
_atom_site_fract_x
_atom_site_fract_y
_atom_site_fract_z
Si Si1 0.009997 0.187780 0.103406
Si Si2 0.235624 0.810686 0.478413
Si Si3 0.284407 0.186712 0.008558
Si Si4 0.107892 0.684817 0.898145
Si Si5 0.896682 0.813365 0.536645
Si Si6 0.444270 0.327060 0.013828
Si Si7 0.524428 0.821128 0.262087
Si Si8 0.811423 0.322015 0.272266
O O1 0.130250 0.229648 0.291471
O O2 0.918946 0.261412 0.046966
O O3 0.000013 0.000000 0.095338
O O4 0.000000 0.234728 0.000000
O O5 0.202405 0.762385 0.526406
O O6 0.351148 0.751343 0.585596
O O7 0.244104 0.000000 0.491453
O O8 0.222360 0.249632 0.007110
O O9 0.212509 0.240612 0.841635
O O10 0.286947 0.000000 0.011081
O O11 0.412963 0.245717 0.163557
O O12 0.105486 0.500000 0.889272
O O13 0.009056 0.754798 0.719573
O O14 0.886910 0.753512 0.434878
O O15 0.896526 0.000000 0.535113
O O16 0.472115 0.500000 0.082366
O O17 0.487447 0.192574 0.124528
O O18 0.500000 0.314618 0.000000
O O19 0.311577 0.320256 0.842942
O O20 0.534443 0.000000 0.300883
O O21 0.845771 0.500000 0.300924
#
# Coordination Sequence:
#
# PCOD9144440 Si02
#       8
#     4   4   4   4   4   4   4   4
#     4   9  18  35  60  86 109 131 156 192 242 300
#     4   8  15  29  50  77 104 128 160 204 251 295
#     4  10  20  34  50  69  96 134 178 213 247 292
#     4  11  22  36  54  75 101 131 165 206 251 298
#     4  10  19  32  50  72 100 133 171 214 258 302
#     4   9  17  27  39  59  91 129 167 208 251 294
#     4   9  17  29  47  69  94 127 166 207 245 288
#     4  10  19  30  44  66  97 132 173 216 256 295
#
# _framework density 18.341695999999999
#
# number of rings (size 3 to 8) (size 9 to 14) (size 15 to 20)
#    0.000    2.500    0.000    3.750    0.000    2.000 
#    0.000    5.000    0.000    0.750    0.000    5.250 
#    0.000    0.000    0.000    0.000    0.000    0.000 
#
# Total GULP energy -178295.413318 kJ/mol
# GULP energy per Si atom -5571.731666 kJ/mol
# Density = 1.829995 g / cm^3
# Si number density = 18.341696 Si / 1000 Ang^3
#
#
#
# Elastic Constant Matrix: (Units=GPa)
#
#
# Indices 1 2 3 4 5 6 
#
# 1 115.3161 23.7253 37.7398 0.0000 18.6480 0.0000
# 2 23.7253 44.9288 8.1071 0.0000 -0.1383 0.0000
# 3 37.7398 8.1071 40.9399 0.0000 10.9059 0.0000
# 4 0.0000 0.0000 0.0000 7.9118 0.0000 1.0993
# 5 18.6480 -0.1383 10.9059 0.0000 26.7195 0.0000
# 6 0.0000 0.0000 0.0000 1.0993 0.0000 12.3952
#
#
#
# Elastic Compliance Matrix: (Units=1/GPa)
#
#
# Indices 1 2 3 4 5 6 
#
# 1 0.014153 -0.005609 -0.010431 0.000000 -0.005649 0.000000
# 2 -0.005609 0.025424 -0.001057 0.000000 0.004478 0.000000
# 3 -0.010431 -0.001057 0.036255 0.000000 -0.007523 0.000000
# 4 0.000000 0.000000 0.000000 0.127970 0.000000 -0.011349
# 5 -0.005649 0.004478 -0.007523 0.000000 0.044462 0.000000
# 6 0.000000 0.000000 0.000000 -0.011349 0.000000 0.081683
#
#
# Mechanical properties :
#
#
# Convention : Reuss Voigt Hill
#
# Bulk Modulus (GPa) = 24.01635 37.81435 30.91535
# Shear Modulus (GPa) = 13.22677 18.17949 15.70313
#
# Velocity S-wave (km/s) = 2.68830 3.15168 2.92917
# Velocity P-wave (km/s) = 4.77056 5.82284 5.32277
#
# Compressibility (1/GPa) = 0.04163830
#
# Stress axis : x y z
#
# Youngs Moduli (GPa) = 70.65521 39.33323 27.58205
#
# Poissons Ratio (x) = 0.22062 0.28772
# Poissons Ratio (y) = 0.39630 0.02915
# Poissons Ratio (z) = 0.73703 0.04157
#
# Static dielectric constant tensor:
#      x y z
#    x 1.645470 0.000000 0.042560 
#    y 0.000000 1.652260 0.000000 
#    z 0.042560 0.000000 1.647570 
# 
# From -- ./inp_files/79971.got.cif
#   From: 2010.05.17/outbox.cif.g08.bks.cpg/sg10_40_cif.got.tgz:79971.got - 2010.06.03 11:33:40.
