data_PCOD9144958
_publ_section_title
;
Structure prediction by ZEFSAII (Michael W. Deem and Ramdas Pophale) SiO2 
 PCOD9144958
Probable space group: P 2/M
;
_chemical_formula_sum "Si O2"
_cell_formula_units_Z 20
_cell_length_a 6.236919
_cell_length_b 25.065902
_cell_length_c 7.580334
_cell_angle_alpha 90.000000
_cell_angle_beta 136.438063
_cell_angle_gamma 90.000000
_cell_volume 816.672956
_symmetry_space_group_name_H-M "P 2/M"
_symmetry_group_IT_number 10
_symmetry_cell_setting 'monoclinic'
loop_
_space_group_symop_operation_xyz
x,y,z
-x,y,-z
-x,-y,-z
x,-y,z
loop_
_atom_site_type_symbol
_atom_site_label
_atom_site_fract_x
_atom_site_fract_y
_atom_site_fract_z
Si Si1 0.623926 0.672567 0.774767
Si Si2 0.145480 0.172190 0.906765
Si Si3 0.659349 0.218095 0.397670
Si Si4 0.124811 0.057540 0.773443
Si Si5 0.623621 0.557193 0.775521
O O1 0.500000 0.670239 0.500000
O O2 0.452696 0.724948 0.744221
O O3 0.534810 0.614769 0.802101
O O4 0.000000 0.678137 0.000000
O O5 0.024639 0.112402 0.804181
O O6 0.012336 0.209937 0.673644
O O7 0.504627 0.172700 0.181562
O O8 0.000000 0.194113 0.000000
O O9 0.500000 0.213078 0.500000
O O10 0.000000 0.059546 0.500000
O O11 0.020267 0.000000 0.786921
O O12 0.500000 0.057576 0.000000
O O13 0.500000 0.557126 0.500000
O O14 0.519306 0.500000 0.791855
O O15 0.000000 0.557131 0.000000
#
# Coordination Sequence:
#
# PCOD9144958 Si02
#       5
#     4   4   4   4   4
#     4   9  14  21  33  49  74 107 141 178 218 257
#     4  10  19  31  49  71  93 116 148 187 221 259
#     4   9  16  26  40  62  88 113 143 181 223 261
#     4  10  21  37  54  71  93 121 150 179 218 270
#     4   8  13  19  27  41  63  96 140 181 209 242
#
# _framework density 24.489608
#
# number of rings (size 3 to 8) (size 9 to 14) (size 15 to 20)
#    0.000    2.800    0.000    4.200    0.000    0.400 
#    0.000    0.000    0.000    7.200    0.000    0.000 
#    0.000    0.000    0.000    0.000    0.000   20.000 
#
# Total GULP energy -111484.852138 kJ/mol
# GULP energy per Si atom -5574.242607 kJ/mol
# Density = 2.443387 g / cm^3
# Si number density = 24.489608 Si / 1000 Ang^3
#
#
#
# Elastic Constant Matrix: (Units=GPa)
#
#
# Indices 1 2 3 4 5 6 
#
# 1 16.5490 -2.3027 33.3080 0.0000 6.2190 0.0000
# 2 -2.3027 243.6690 50.0484 0.0000 -13.2762 0.0000
# 3 33.3080 50.0484 208.7463 0.0000 6.1822 0.0000
# 4 0.0000 0.0000 0.0000 34.3975 0.0000 22.1884
# 5 6.2190 -13.2762 6.1822 0.0000 37.6873 0.0000
# 6 0.0000 0.0000 0.0000 22.1884 0.0000 28.6674
#
#
#
# Elastic Compliance Matrix: (Units=1/GPa)
#
#
# Indices 1 2 3 4 5 6 
#
# 1 0.097997 0.003571 -0.016129 0.000000 -0.012267 0.000000
# 2 0.003571 0.004558 -0.001701 0.000000 0.001295 0.000000
# 3 -0.016129 -0.001701 0.007748 0.000000 0.000791 0.000000
# 4 0.000000 0.000000 0.000000 0.058059 0.000000 -0.044937
# 5 -0.012267 0.001295 0.000791 0.000000 0.028885 0.000000
# 6 0.000000 0.000000 0.000000 -0.044937 0.000000 0.069664
#
#
# Mechanical properties :
#
#
# Convention : Reuss Voigt Hill
#
# Bulk Modulus (GPa) = 12.22735 70.11907 41.17321
# Shear Modulus (GPa) = 15.49469 46.01116 30.75292
#
# Velocity S-wave (km/s) = 2.51809 4.33922 3.54751
# Velocity P-wave (km/s) = 3.66853 7.33481 5.79903
#
# Compressibility (1/GPa) = 0.08178387
#
# Stress axis : x y z
#
# Youngs Moduli (GPa) = 10.20440 219.41459 129.05768
#
# Poissons Ratio (x) = -0.78344 2.08161
# Poissons Ratio (y) = -0.03644 0.21950
# Poissons Ratio (z) = 0.16459 0.37318
#
# Static dielectric constant tensor:
#      x y z
#    x 2.180670 0.000000 0.037010 
#    y 0.000000 2.023180 0.000000 
#    z 0.037010 0.000000 1.922450 
# 
# From -- ./inp_files/5281.got.cif
#   From: 2010.05.17/outbox.cif.g08.bks.cpg/sg10_3_cif.got.tgz:5281.got - 2010.06.03 11:33:40.
