data_PCOD9144962
_publ_section_title
;
Structure prediction by ZEFSAII (Michael W. Deem and Ramdas Pophale) SiO2 
 PCOD9144962
Probable space group: P 2/M
;
_chemical_formula_sum "Si O2"
_cell_formula_units_Z 32
_cell_length_a 18.188775
_cell_length_b 7.643196
_cell_length_c 24.934273
_cell_angle_alpha 90.000000
_cell_angle_beta 152.420390
_cell_angle_gamma 90.000000
_cell_volume 1604.863054
_symmetry_space_group_name_H-M "P 2/M"
_symmetry_group_IT_number 10
_symmetry_cell_setting 'monoclinic'
loop_
_space_group_symop_operation_xyz
x,y,z
-x,y,-z
-x,-y,-z
x,-y,z
loop_
_atom_site_type_symbol
_atom_site_label
_atom_site_fract_x
_atom_site_fract_y
_atom_site_fract_z
Si Si1 0.804628 0.793053 0.633914
Si Si2 0.474382 0.292137 0.621045
Si Si3 0.591203 0.289194 0.810503
Si Si4 0.665047 0.201309 0.140485
Si Si5 0.526802 0.209270 0.887463
Si Si6 0.260186 0.289846 0.289752
Si Si7 0.159742 0.784746 0.848380
Si Si8 0.048917 0.286634 0.971170
O O1 0.698289 0.733748 0.515509
O O2 0.719423 0.750022 0.634786
O O3 0.984647 0.723042 0.750589
O O4 0.816773 0.000000 0.638178
O O5 0.501966 0.500000 0.641672
O O6 0.506077 0.224296 0.701356
O O7 0.603679 0.221595 0.662009
O O8 0.596505 0.500000 0.811840
O O9 0.510657 0.242727 0.814433
O O10 0.774233 0.226018 0.928247
O O11 0.611300 0.280077 0.162518
O O12 0.791124 0.275362 0.179812
O O13 0.714565 0.000000 0.181936
O O14 0.500000 0.198119 0.000000
O O15 0.527073 0.000000 0.895904
O O16 0.699371 0.272115 0.020390
O O17 0.259932 0.500000 0.284936
O O18 0.088217 0.226561 0.157919
O O19 0.161304 0.000000 0.849449
O O20 0.051010 0.500000 0.971463
O O21 0.000000 0.236865 0.000000
#
# Coordination Sequence:
#
# PCOD9144962 Si02
#       8
#     4   4   4   4   4   4   4   4
#     4  11  22  33  48  70  96 123 155 199 241 274
#     4  10  21  36  50  64  88 128 170 198 225 270
#     4  10  19  31  49  71  96 124 155 195 237 276
#     4   7  11  23  46  72  95 122 152 181 220 277
#     4   9  16  28  50  77 100 121 149 186 231 286
#     4  10  19  33  53  71  90 120 160 200 234 276
#     4   8  15  29  48  72 100 125 151 186 231 280
#     4   9  15  28  50  72  90 115 156 195 226 269
#
# _framework density 19.939397
#
# number of rings (size 3 to 8) (size 9 to 14) (size 15 to 20)
#    0.000    2.750    1.250    3.000    0.000    2.500 
#    0.000    0.625    0.000    6.375    0.000    5.250 
#    0.000    0.000    0.000    0.000    0.000    0.000 
#
# Total GULP energy -178462.592153 kJ/mol
# GULP energy per Si atom -5576.956005 kJ/mol
# Density = 1.989401 g / cm^3
# Si number density = 19.939397 Si / 1000 Ang^3
#
#
#
# Elastic Constant Matrix: (Units=GPa)
#
#
# Indices 1 2 3 4 5 6 
#
# 1 146.6166 -0.7639 39.5395 0.0000 -22.1216 0.0000
# 2 -0.7639 39.5789 0.9589 0.0000 1.0773 0.0000
# 3 39.5395 0.9589 73.5150 0.0000 -19.5058 0.0000
# 4 0.0000 0.0000 0.0000 13.3162 0.0000 -2.1116
# 5 -22.1216 1.0773 -19.5058 0.0000 21.9447 0.0000
# 6 0.0000 0.0000 0.0000 -2.1116 0.0000 12.7364
#
#
#
# Elastic Compliance Matrix: (Units=1/GPa)
#
#
# Indices 1 2 3 4 5 6 
#
# 1 0.008527 0.000077 -0.003019 0.000000 0.005908 0.000000
# 2 0.000077 0.025342 -0.000892 0.000000 -0.001959 0.000000
# 3 -0.003019 -0.000892 0.018900 0.000000 0.013799 0.000000
# 4 0.000000 0.000000 0.000000 0.077124 0.000000 0.012787
# 5 0.005908 -0.001959 0.013799 0.000000 0.063886 0.000000
# 6 0.000000 0.000000 0.000000 0.012787 0.000000 0.080635
#
#
# Mechanical properties :
#
#
# Convention : Reuss Voigt Hill
#
# Bulk Modulus (GPa) = 22.17295 37.68661 29.92978
# Shear Modulus (GPa) = 16.82846 24.26453 20.54649
#
# Velocity S-wave (km/s) = 2.90829 3.49221 3.21354
# Velocity P-wave (km/s) = 4.73517 5.93316 5.36769
#
# Compressibility (1/GPa) = 0.04509999
#
# Stress axis : x y z
#
# Youngs Moduli (GPa) = 117.28070 39.45959 52.91106
#
# Poissons Ratio (x) = -0.00304 0.15976
# Poissons Ratio (y) = -0.00902 0.04718
# Poissons Ratio (z) = 0.35413 0.03519
#
# Static dielectric constant tensor:
#      x y z
#    x 1.734790 0.000000 0.001740 
#    y 0.000000 1.761170 0.000000 
#    z 0.001740 0.000000 1.689140 
# 
# From -- ./inp_files/89972.got.cif
#   From: 2010.05.17/outbox.cif.g08.bks.cpg/sg10_45_cif.got.tgz:89972.got - 2010.06.03 11:33:40.
