data_PCOD9144881
_publ_section_title
;
Structure prediction by ZEFSAII (Michael W. Deem and Ramdas Pophale) SiO2 
 PCOD9144881
Probable space group: P 2/M
;
_chemical_formula_sum "Si O2"
_cell_formula_units_Z 32
_cell_length_a 14.566941
_cell_length_b 9.367309
_cell_length_c 15.439958
_cell_angle_alpha 90.000000
_cell_angle_beta 45.039574
_cell_angle_gamma 90.000000
_cell_volume 1490.781804
_symmetry_space_group_name_H-M "P 2/M"
_symmetry_group_IT_number 10
_symmetry_cell_setting 'monoclinic'
loop_
_space_group_symop_operation_xyz
x,y,z
-x,y,-z
-x,-y,-z
x,-y,z
loop_
_atom_site_type_symbol
_atom_site_label
_atom_site_fract_x
_atom_site_fract_y
_atom_site_fract_z
Si Si1 0.089942 0.659005 0.866151
Si Si2 0.735338 0.161675 0.363501
Si Si3 0.560546 0.171000 0.628070
Si Si4 0.350944 0.166289 0.894254
Si Si5 0.044122 0.835949 0.629774
Si Si6 0.549346 0.661981 0.869529
Si Si7 0.127310 0.340710 0.134800
Si Si8 0.768689 0.667356 0.607943
O O1 0.125532 0.500000 0.874051
O O2 0.212619 0.741262 0.747793
O O3 0.995747 0.646093 0.846548
O O4 0.000000 0.729417 0.000000
O O5 0.603859 0.200201 0.501425
O O6 0.844604 0.163778 0.368175
O O7 0.724803 0.000000 0.338784
O O8 0.414086 0.193068 0.757864
O O9 0.653268 0.272584 0.623281
O O10 0.588639 0.000000 0.624936
O O11 0.469275 0.212874 0.877327
O O12 0.317826 0.000000 0.923877
O O13 0.234463 0.262365 0.005535
O O14 0.107895 0.757126 0.505186
O O15 0.923152 0.751716 0.751037
O O16 0.013116 0.000000 0.631667
O O17 0.521034 0.500000 0.853450
O O18 0.701749 0.683907 0.746827
O O19 0.500000 0.661460 0.000000
O O20 0.170377 0.500000 0.131672
O O21 0.794076 0.500000 0.575782
#
# Coordination Sequence:
#
# PCOD9144881 Si02
#       8
#     4   4   4   4   4   4   4   4
#     4   9  18  31  46  66  92 120 150 187 230 274
#     4   8  14  25  42  64  87 112 146 186 224 263
#     4   8  15  27  42  62  89 118 148 186 227 266
#     4  10  19  31  48  70  96 124 154 189 231 276
#     4   9  16  27  43  64  91 119 149 188 231 271
#     4   9  18  32  49  70  97 127 157 189 226 270
#     4  10  19  31  48  69  93 121 154 191 231 276
#     4   9  15  24  42  67  91 116 150 189 226 264
#
# _framework density 21.465247999999999
#
# number of rings (size 3 to 8) (size 9 to 14) (size 15 to 20)
#    0.000    3.000    0.000    2.250    0.000    5.000 
#    0.000    0.000    0.000    1.500    0.000   10.500 
#    0.000    0.000    0.000    0.000    0.000    0.000 
#
# Total GULP energy -178331.187759 kJ/mol
# GULP energy per Si atom -5572.849617 kJ/mol
# Density = 2.141639 g / cm^3
# Si number density = 21.465248 Si / 1000 Ang^3
#
#
#
# Elastic Constant Matrix: (Units=GPa)
#
#
# Indices 1 2 3 4 5 6 
#
# 1 32.8315 13.2182 7.9510 0.0000 -0.5112 0.0000
# 2 13.2182 124.6700 112.9688 0.0000 2.6903 0.0000
# 3 7.9510 112.9688 233.3226 0.0000 13.7560 0.0000
# 4 0.0000 0.0000 0.0000 35.7488 0.0000 5.7223
# 5 -0.5112 2.6903 13.7560 0.0000 16.4917 0.0000
# 6 0.0000 0.0000 0.0000 5.7223 0.0000 0.1436
#
#
#
# Elastic Compliance Matrix: (Units=1/GPa)
#
#
# Indices 1 2 3 4 5 6 
#
# 1 0.031956 -0.004226 0.000902 0.000000 0.000927 0.000000
# 2 -0.004226 0.015058 -0.007356 0.000000 0.003548 0.000000
# 3 0.000902 -0.007356 0.008145 0.000000 -0.005566 0.000000
# 4 0.000000 0.000000 0.000000 -0.005202 0.000000 0.207254
# 5 0.000927 0.003548 -0.005566 0.000000 0.064729 0.000000
# 6 0.000000 0.000000 0.000000 0.207254 0.000000 -1.294765
#
#
# Mechanical properties :
#
#
# Convention : Reuss Voigt Hill
#
# Bulk Modulus (GPa) = 29.58576 73.23333 51.40954
# Shear Modulus (GPa) = -4.35747 27.58924 11.61588
#
# Velocity S-wave (km/s) = -1.42633 3.58899 2.32878
# Velocity P-wave (km/s) = 3.33173 7.16699 5.58866
#
# Compressibility (1/GPa) = 0.03380005
#
# Stress axis : x y z
#
# Youngs Moduli (GPa) = 31.29324 66.40883 122.77631
#
# Poissons Ratio (x) = 0.28063 -0.11080
# Poissons Ratio (y) = 0.13224 0.90314
# Poissons Ratio (z) = -0.02824 0.48850
#
# Static dielectric constant tensor:
#      x y z
#    x 1.855130 0.000000 -0.003190 
#    y 0.000000 1.759080 0.000000 
#    z -0.003190 0.000000 1.826960 
# 
# From -- ./inp_files/56428.got.cif
#   From: 2010.05.17/outbox.cif.g08.bks.cpg/sg10_29_cif.got.tgz:56428.got - 2010.06.03 11:33:40.
