data_PCOD9144031
_publ_section_title
;
Structure prediction by ZEFSAII (Michael W. Deem and Ramdas Pophale) SiO2 
 PCOD9144031
Probable space group: P 2/M
;
_chemical_formula_sum "Si O2"
_cell_formula_units_Z 32
_cell_length_a 11.158646
_cell_length_b 15.780571
_cell_length_c 14.161258
_cell_angle_alpha 90.000000
_cell_angle_beta 138.901185
_cell_angle_gamma 90.000000
_cell_volume 1639.226998
_symmetry_space_group_name_H-M "P 2/M"
_symmetry_group_IT_number 10
_symmetry_cell_setting 'monoclinic'
loop_
_space_group_symop_operation_xyz
x,y,z
-x,y,-z
-x,-y,-z
x,-y,z
loop_
_atom_site_type_symbol
_atom_site_label
_atom_site_fract_x
_atom_site_fract_y
_atom_site_fract_z
Si Si1 0.038947 0.596885 0.413677
Si Si2 0.419872 0.907726 0.147358
Si Si3 0.389579 0.129170 0.340783
Si Si4 0.957570 0.306123 0.184023
Si Si5 0.442025 0.404730 0.706946
Si Si6 0.992738 0.859759 0.101610
Si Si7 0.454262 0.722925 0.082603
Si Si8 0.656717 0.333190 0.669704
O O1 0.977424 0.500000 0.357710
O O2 0.257636 0.599737 0.536217
O O3 0.000000 0.614659 0.500000
O O4 0.956866 0.661415 0.290316
O O5 0.470830 0.897398 0.288283
O O6 0.472742 0.821065 0.125471
O O7 0.485251 0.000000 0.151604
O O8 0.198595 0.906917 0.010714
O O9 0.500000 0.106560 0.500000
O O10 0.368322 0.231993 0.326828
O O11 0.184256 0.093725 0.222851
O O12 0.993286 0.206988 0.187090
O O13 0.135499 0.348442 0.240851
O O14 0.752218 0.312205 0.023169
O O15 0.457877 0.500000 0.753873
O O16 0.425939 0.336933 0.780416
O O17 0.606699 0.381337 0.735518
O O18 0.000000 0.817602 0.000000
O O19 0.500000 0.715907 0.000000
O O20 0.500000 0.355492 0.500000
#
# Coordination Sequence:
#
# PCOD9144031 Si02
#       8
#     4   4   4   4   4   4   4   4
#     4  10  21  37  56  80 111 151 201 243 278 335
#     4  10  20  36  57  80 111 150 193 235 286 346
#     4   9  17  30  53  83 116 148 181 228 286 344
#     4  10  20  34  58  80 110 150 190 233 285 339
#     4  11  23  38  59  87 119 156 192 237 296 347
#     4   8  17  31  51  78 110 147 183 224 278 344
#     4  11  24  41  59  83 116 153 199 247 288 337
#     4  10  18  34  58  84 119 148 184 236 288 348
#
# _framework density 19.521397
#
# number of rings (size 3 to 8) (size 9 to 14) (size 15 to 20)
#    0.000    2.125    2.500    0.750    1.750    4.250 
#    0.000    0.625    0.000    0.000    0.000    0.000 
#    0.000   11.000    0.000    0.000    0.000    0.000 
#
# Total GULP energy -178287.165768 kJ/mol
# GULP energy per Si atom -5571.473930 kJ/mol
# Density = 1.947697 g / cm^3
# Si number density = 19.521397 Si / 1000 Ang^3
#
#
#
# Elastic Constant Matrix: (Units=GPa)
#
#
# Indices 1 2 3 4 5 6 
#
# 1 60.4719 24.9791 14.4739 0.0000 -9.3577 0.0000
# 2 24.9791 103.4381 41.5831 0.0000 -24.5220 0.0000
# 3 14.4739 41.5831 77.9397 0.0000 -11.5693 0.0000
# 4 0.0000 0.0000 0.0000 -8.6024 0.0000 2.5080
# 5 -9.3577 -24.5220 -11.5693 0.0000 32.0066 0.0000
# 6 0.0000 0.0000 0.0000 2.5080 0.0000 -3.5299
#
#
#
# Elastic Compliance Matrix: (Units=1/GPa)
#
#
# Indices 1 2 3 4 5 6 
#
# 1 0.018622 -0.003422 -0.001282 0.000000 0.002359 0.000000
# 2 -0.003422 0.014887 -0.006089 0.000000 0.008204 0.000000
# 3 -0.001282 -0.006089 0.016452 0.000000 0.000907 0.000000
# 4 0.000000 0.000000 0.000000 -0.146618 0.000000 -0.104172
# 5 0.002359 0.008204 0.000907 0.000000 0.038547 0.000000
# 6 0.000000 0.000000 0.000000 -0.104172 0.000000 -0.357306
#
#
# Mechanical properties :
#
#
# Convention : Reuss Voigt Hill
#
# Bulk Modulus (GPa) = 35.24413 44.88020 40.06216
# Shear Modulus (GPa) = -13.00826 14.69577 0.84376
#
# Velocity S-wave (km/s) = -2.58419 2.74670 0.65815
# Velocity P-wave (km/s) = 3.03137 5.75320 4.59829
#
# Compressibility (1/GPa) = 0.02837352
#
# Stress axis : x y z
#
# Youngs Moduli (GPa) = 53.69928 67.17291 60.78318
#
# Poissons Ratio (x) = 0.22989 0.07793
# Poissons Ratio (y) = 0.18378 0.37012
# Poissons Ratio (z) = 0.06885 0.40903
#
# Static dielectric constant tensor:
#      x y z
#    x 1.711940 0.000000 0.025920 
#    y 0.000000 1.704290 0.000000 
#    z 0.025920 0.000000 1.693150 
# 
# From -- ./inp_files/65139.got.cif
#   From: 2010.05.17/outbox.cif.g08.bks.cpg/sg10_33_cif.got.tgz:65139.got - 2010.06.03 11:33:40.
