data_PCOD9144734
_publ_section_title
;
Structure prediction by ZEFSAII (Michael W. Deem and Ramdas Pophale) SiO2 
 PCOD9144734
Probable space group: P 2/M
;
_chemical_formula_sum "Si O2"
_cell_formula_units_Z 24
_cell_length_a 11.478289
_cell_length_b 12.505450
_cell_length_c 26.083573
_cell_angle_alpha 90.000000
_cell_angle_beta 158.058727
_cell_angle_gamma 90.000000
_cell_volume 1398.993132
_symmetry_space_group_name_H-M "P 2/M"
_symmetry_group_IT_number 10
_symmetry_cell_setting 'monoclinic'
loop_
_space_group_symop_operation_xyz
x,y,z
-x,y,-z
-x,-y,-z
x,-y,z
loop_
_atom_site_type_symbol
_atom_site_label
_atom_site_fract_x
_atom_site_fract_y
_atom_site_fract_z
Si Si1 0.273509 0.729045 0.245047
Si Si2 0.579159 0.878250 0.194794
Si Si3 0.525073 0.500000 0.355303
Si Si4 0.323446 0.314658 0.145240
Si Si5 0.325051 0.876371 0.982237
Si Si6 0.852262 0.874448 0.495785
Si Si7 0.235784 0.500000 0.666343
O O1 0.327583 0.606924 0.285292
O O2 0.323404 0.720014 0.204188
O O3 0.553827 0.800836 0.381189
O O4 0.950712 0.789964 0.124194
O O5 0.342999 0.791370 0.119711
O O6 0.567225 0.867062 0.128624
O O7 0.896876 0.859606 0.356366
O O8 0.484391 0.000000 0.168261
O O9 0.638193 0.500000 0.341481
O O10 0.865035 0.500000 0.520506
O O11 0.609042 0.392536 0.249013
O O12 0.000000 0.371598 0.000000
O O13 0.203190 0.000000 0.934699
O O14 0.500000 0.862581 0.000000
O O15 0.000000 0.848310 0.500000
O O16 0.768199 0.000000 0.459855
#
# Coordination Sequence:
#
# PCOD9144734 Si02
#       7
#     4   4   2   4   4   4   2
#     4  11  20  34  55  79 112 142 182 219 267 325
#     4  10  20  33  51  79 113 140 173 220 271 325
#     4   9  20  32  51  77 107 148 178 215 265 322
#     4  11  19  30  49  81 112 144 177 214 267 324
#     4  10  22  40  58  76 104 145 188 229 271 313
#     4  10  19  30  50  82 114 142 172 212 269 331
#     4   9  19  32  48  73 117 149 171 207 264 330
#
# _framework density 17.155196
#
# number of rings (size 3 to 8) (size 9 to 14) (size 15 to 20)
#    0.000    1.833    3.333    1.750    2.333    1.000 
#    0.000    1.250    0.000    4.000    0.000    2.333 
#    0.000    0.000    0.000    0.000    0.000    0.000 
#
# Total GULP energy -133736.585718 kJ/mol
# GULP energy per Si atom -5572.357738 kJ/mol
# Density = 1.711615 g / cm^3
# Si number density = 17.155196 Si / 1000 Ang^3
#
#
#
# Elastic Constant Matrix: (Units=GPa)
#
#
# Indices 1 2 3 4 5 6 
#
# 1 63.0059 44.1554 35.0428 0.0000 -10.4046 0.0000
# 2 44.1554 99.6434 62.4037 0.0000 -2.1080 0.0000
# 3 35.0428 62.4037 96.3240 0.0000 -13.8761 0.0000
# 4 0.0000 0.0000 0.0000 23.9614 0.0000 15.5817
# 5 -10.4046 -2.1080 -13.8761 0.0000 13.6859 0.0000
# 6 0.0000 0.0000 0.0000 15.5817 0.0000 1.4665
#
#
#
# Elastic Compliance Matrix: (Units=1/GPa)
#
#
# Indices 1 2 3 4 5 6 
#
# 1 0.027155 -0.012113 0.000789 0.000000 0.019579 0.000000
# 2 -0.012113 0.023532 -0.013634 0.000000 -0.019408 0.000000
# 3 0.000789 -0.013634 0.021912 0.000000 0.020716 0.000000
# 4 0.000000 0.000000 0.000000 -0.007063 0.000000 0.075039
# 5 0.019579 -0.019408 0.020716 0.000000 0.105967 0.000000
# 6 0.000000 0.000000 0.000000 0.075039 0.000000 -0.115394
#
#
# Mechanical properties :
#
#
# Convention : Reuss Voigt Hill
#
# Bulk Modulus (GPa) = 44.08833 60.24190 52.16512
# Shear Modulus (GPa) = 44.01941 15.64753 29.83347
#
# Velocity S-wave (km/s) = 5.07102 3.02340 4.17470
# Velocity P-wave (km/s) = 7.74871 6.88331 7.32879
#
# Compressibility (1/GPa) = 0.02268174
#
# Stress axis : x y z
#
# Youngs Moduli (GPa) = 36.82566 42.49604 45.63765
#
# Poissons Ratio (x) = 0.51476 -0.03601
# Poissons Ratio (y) = 0.44608 0.62223
# Poissons Ratio (z) = -0.02906 0.57939
#
# Static dielectric constant tensor:
#      x y z
#    x 1.543100 0.000000 -0.021660 
#    y 0.000000 1.608320 0.000000 
#    z -0.021660 0.000000 1.621560 
# 
# From -- ./inp_files/88044.got.cif
#   From: 2010.05.17/outbox.cif.g08.bks.cpg/sg10_45_cif.got.tgz:88044.got - 2010.06.03 11:33:40.
