data_PCOD9144899
_publ_section_title
;
Structure prediction by ZEFSAII (Michael W. Deem and Ramdas Pophale) SiO2 
 PCOD9144899
Probable space group: P 2/M
;
_chemical_formula_sum "Si O2"
_cell_formula_units_Z 28
_cell_length_a 16.430927
_cell_length_b 7.788436
_cell_length_c 20.797443
_cell_angle_alpha 90.000000
_cell_angle_beta 147.761639
_cell_angle_gamma 90.000000
_cell_volume 1419.744008
_symmetry_space_group_name_H-M "P 2/M"
_symmetry_group_IT_number 10
_symmetry_cell_setting 'monoclinic'
loop_
_space_group_symop_operation_xyz
x,y,z
-x,y,-z
-x,-y,-z
x,-y,z
loop_
_atom_site_type_symbol
_atom_site_label
_atom_site_fract_x
_atom_site_fract_y
_atom_site_fract_z
Si Si1 0.164627 0.806508 0.125830
Si Si2 0.357607 0.698043 0.140676
Si Si3 0.535245 0.294366 0.595796
Si Si4 0.660817 0.292168 0.414410
Si Si5 0.958146 0.300135 0.541785
Si Si6 0.273256 0.792107 0.808906
Si Si7 0.585155 0.793150 0.959794
O O1 0.248704 0.805312 0.113320
O O2 0.293778 0.737116 0.261629
O O3 0.132635 0.000000 0.126888
O O4 0.000000 0.721887 0.000000
O O5 0.334479 0.500000 0.144274
O O6 0.530710 0.743673 0.274788
O O7 0.339108 0.720413 0.053016
O O8 0.500000 0.229236 0.500000
O O9 0.518198 0.500000 0.582290
O O10 0.412513 0.229313 0.567135
O O11 0.674646 0.500000 0.430656
O O12 0.819652 0.225809 0.491617
O O13 0.916720 0.500000 0.502104
O O14 0.000000 0.222046 0.500000
O O15 0.113265 0.288201 0.685020
O O16 0.409063 0.738588 0.851428
O O17 0.261642 0.000000 0.798206
O O18 0.328702 0.746052 0.917304
O O19 0.585716 0.000000 0.955890
#
# Coordination Sequence:
#
# PCOD9144899 Si02
#       7
#     4   4   4   4   4   4   4
#     4  10  21  37  56  80 112 144 177 221 271 325
#     4  10  19  33  56  80 101 131 175 218 259 312
#     4   9  18  35  58  80 106 143 182 226 274 322
#     4   8  16  31  49  72 102 131 166 210 258 311
#     4  10  19  31  48  71 102 135 167 212 263 303
#     4   9  19  34  50  70 100 138 175 211 252 306
#     4   9  18  34  52  70 100 138 172 211 261 307
#
# _framework density 19.721865999999999
#
# number of rings (size 3 to 8) (size 9 to 14) (size 15 to 20)
#    0.000    2.714    0.000    3.429    0.000    4.000 
#    2.571    5.000    0.000    0.000    0.000    0.000 
#    0.000    0.000    0.000    0.000    0.000    0.000 
#
# Total GULP energy -156005.775305 kJ/mol
# GULP energy per Si atom -5571.634832 kJ/mol
# Density = 1.967698 g / cm^3
# Si number density = 19.721866 Si / 1000 Ang^3
#
#
#
# Elastic Constant Matrix: (Units=GPa)
#
#
# Indices 1 2 3 4 5 6 
#
# 1 115.8606 7.3080 76.5703 0.0000 -3.8044 0.0000
# 2 7.3080 23.5246 4.8124 0.0000 0.6601 0.0000
# 3 76.5703 4.8124 99.0452 0.0000 14.9570 0.0000
# 4 0.0000 0.0000 0.0000 37.7311 0.0000 -12.7918
# 5 -3.8044 0.6601 14.9570 0.0000 33.9708 0.0000
# 6 0.0000 0.0000 0.0000 -12.7918 0.0000 23.4732
#
#
#
# Elastic Compliance Matrix: (Units=1/GPa)
#
#
# Indices 1 2 3 4 5 6 
#
# 1 0.020544 -0.003136 -0.017232 0.000000 0.009949 0.000000
# 2 -0.003136 0.043414 0.000531 0.000000 -0.001428 0.000000
# 3 -0.017232 0.000531 0.025373 0.000000 -0.013112 0.000000
# 4 0.000000 0.000000 0.000000 0.032510 0.000000 0.017716
# 5 0.009949 -0.001428 -0.013112 0.000000 0.036352 0.000000
# 6 0.000000 0.000000 0.000000 0.017716 0.000000 0.052256
#
#
# Mechanical properties :
#
#
# Convention : Reuss Voigt Hill
#
# Bulk Modulus (GPa) = 20.13861 46.20131 33.16996
# Shear Modulus (GPa) = 18.74931 29.01767 23.88349
#
# Velocity S-wave (km/s) = 3.08667 3.83997 3.48374
# Velocity P-wave (km/s) = 4.78924 6.56794 5.74781
#
# Compressibility (1/GPa) = 0.04965585
#
# Stress axis : x y z
#
# Youngs Moduli (GPa) = 48.67561 23.03382 39.41237
#
# Poissons Ratio (x) = 0.07223 0.67917
# Poissons Ratio (y) = 0.15265 -0.02092
# Poissons Ratio (z) = 0.83880 -0.01222
#
# Static dielectric constant tensor:
#      x y z
#    x 1.698760 0.000000 0.000540 
#    y 0.000000 1.744650 0.000000 
#    z 0.000540 0.000000 1.685020 
# 
# From -- ./inp_files/85662.got.cif
#   From: 2010.05.17/outbox.cif.g08.bks.cpg/sg10_43_cif.got.tgz:85662.got - 2010.06.03 11:33:40.
