data_PCOD9144458
_publ_section_title
;
Structure prediction by ZEFSAII (Michael W. Deem and Ramdas Pophale) SiO2 
 PCOD9144458
Probable space group: P 2/M
;
_chemical_formula_sum "Si O2"
_cell_formula_units_Z 24
_cell_length_a 11.921176
_cell_length_b 7.585726
_cell_length_c 20.640793
_cell_angle_alpha 90.000000
_cell_angle_beta 136.588293
_cell_angle_gamma 90.000000
_cell_volume 1282.769137
_symmetry_space_group_name_H-M "P 2/M"
_symmetry_group_IT_number 10
_symmetry_cell_setting 'monoclinic'
loop_
_space_group_symop_operation_xyz
x,y,z
-x,y,-z
-x,-y,-z
x,-y,z
loop_
_atom_site_type_symbol
_atom_site_label
_atom_site_fract_x
_atom_site_fract_y
_atom_site_fract_z
Si Si1 0.105035 0.710759 0.817959
Si Si2 0.734978 0.211406 0.642252
Si Si3 0.390802 0.296459 0.020014
Si Si4 0.183817 0.789727 0.583755
Si Si5 0.607855 0.784267 0.449746
Si Si6 0.306715 0.713250 0.778563
O O1 0.129849 0.500000 0.828612
O O2 0.178501 0.774916 0.779930
O O3 0.913631 0.742343 0.741923
O O4 0.219172 0.781785 0.924077
O O5 0.579683 0.272970 0.618972
O O6 0.704739 0.270715 0.555388
O O7 0.725965 0.000000 0.637031
O O8 0.360791 0.500000 0.026525
O O9 0.513334 0.219872 0.124918
O O10 0.500000 0.298051 0.000000
O O11 0.302753 0.721325 0.577292
O O12 0.252080 0.760746 0.684064
O O13 0.000000 0.718456 0.500000
O O14 0.173917 0.000000 0.569473
O O15 0.607009 0.000000 0.448556
O O16 0.311559 0.500000 0.784310
#
# Coordination Sequence:
#
# PCOD9144458 Si02
#       6
#     4   4   4   4   4   4
#     4   9  16  27  45  68  90 110 138 178 219 253
#     4   9  16  29  48  64  82 112 148 179 208 250
#     4   7  12  25  43  61  84 114 141 168 211 259
#     4  10  19  30  45  65  89 115 142 173 212 256
#     4   8  16  30  45  62  86 116 144 172 212 257
#     4   9  17  29  45  65  89 116 143 172 210 256
#
# _framework density 18.709523999999998
#
# number of rings (size 3 to 8) (size 9 to 14) (size 15 to 20)
#    0.000    3.333    0.000    4.000    0.000    2.333 
#    0.000    4.167    0.000    4.000    0.000    7.000 
#    0.000    0.000    0.000    0.000    0.000    0.000 
#
# Total GULP energy -133672.476469 kJ/mol
# GULP energy per Si atom -5569.686520 kJ/mol
# Density = 1.866694 g / cm^3
# Si number density = 18.709524 Si / 1000 Ang^3
#
#
#
# Elastic Constant Matrix: (Units=GPa)
#
#
# Indices 1 2 3 4 5 6 
#
# 1 114.3300 6.9182 96.5861 0.0000 8.2611 0.0000
# 2 6.9182 37.3713 -1.5694 0.0000 1.4306 0.0000
# 3 96.5861 -1.5694 189.8863 0.0000 22.4177 0.0000
# 4 0.0000 0.0000 0.0000 45.0160 0.0000 -14.6033
# 5 8.2611 1.4306 22.4177 0.0000 29.7234 0.0000
# 6 0.0000 0.0000 0.0000 -14.6033 0.0000 22.3963
#
#
#
# Elastic Compliance Matrix: (Units=1/GPa)
#
#
# Indices 1 2 3 4 5 6 
#
# 1 0.015833 -0.003358 -0.008322 0.000000 0.002038 0.000000
# 2 -0.003358 0.027549 0.002176 0.000000 -0.002034 0.000000
# 3 -0.008322 0.002176 0.010161 0.000000 -0.005456 0.000000
# 4 0.000000 0.000000 0.000000 0.028174 0.000000 0.018370
# 5 0.002038 -0.002034 -0.005456 0.000000 0.037290 0.000000
# 6 0.000000 0.000000 0.000000 0.018370 0.000000 0.056628
#
#
# Mechanical properties :
#
#
# Convention : Reuss Voigt Hill
#
# Bulk Modulus (GPa) = 28.95583 60.60639 44.78111
# Shear Modulus (GPa) = 24.25357 35.40399 29.82878
#
# Velocity S-wave (km/s) = 3.60435 4.35477 3.99721
# Velocity P-wave (km/s) = 5.72992 7.59928 6.72982
#
# Compressibility (1/GPa) = 0.03453536
#
# Stress axis : x y z
#
# Youngs Moduli (GPa) = 63.16019 36.29833 98.41351
#
# Poissons Ratio (x) = 0.12191 0.81896
# Poissons Ratio (y) = 0.21212 -0.21415
# Poissons Ratio (z) = 0.52560 -0.07899
#
# Static dielectric constant tensor:
#      x y z
#    x 1.628700 0.000000 0.024290 
#    y 0.000000 1.719190 0.000000 
#    z 0.024290 0.000000 1.673480 
# 
# From -- ./inp_files/45153.got.cif
#   From: 2010.05.17/outbox.cif.g08.bks.cpg/sg10_23_cif.got.tgz:45153.got - 2010.06.03 11:33:40.
