data_PCOD9144678
_publ_section_title
;
Structure prediction by ZEFSAII (Michael W. Deem and Ramdas Pophale) SiO2 
 PCOD9144678
Probable space group: P 2/M
;
_chemical_formula_sum "Si O2"
_cell_formula_units_Z 32
_cell_length_a 14.973736
_cell_length_b 8.579086
_cell_length_c 11.601950
_cell_angle_alpha 90.000000
_cell_angle_beta 97.054405
_cell_angle_gamma 90.000000
_cell_volume 1479.115403
_symmetry_space_group_name_H-M "P 2/M"
_symmetry_group_IT_number 10
_symmetry_cell_setting 'monoclinic'
loop_
_space_group_symop_operation_xyz
x,y,z
-x,y,-z
-x,-y,-z
x,-y,z
loop_
_atom_site_type_symbol
_atom_site_label
_atom_site_fract_x
_atom_site_fract_y
_atom_site_fract_z
Si Si1 0.415834 0.815396 0.066938
Si Si2 0.868354 0.821438 0.462998
Si Si3 0.868719 0.312557 0.720015
Si Si4 0.934950 0.311647 0.233404
Si Si5 0.248828 0.679498 0.907848
Si Si6 0.399182 0.673630 0.523517
Si Si7 0.672569 0.688347 0.730814
Si Si8 0.683018 0.172714 0.298033
O O1 0.318430 0.772005 0.997683
O O2 0.426262 0.000000 0.076258
O O3 0.500000 0.757688 0.000000
O O4 0.402438 0.747292 0.192532
O O5 0.870174 0.736138 0.585587
O O6 0.920720 0.745162 0.363182
O O7 0.767150 0.824978 0.398116
O O8 0.897427 0.000000 0.483766
O O9 0.867405 0.500000 0.723800
O O10 0.776483 0.259619 0.766836
O O11 0.964841 0.261907 0.787335
O O12 0.929828 0.500000 0.233519
O O13 0.851857 0.259574 0.138469
O O14 0.243341 0.500000 0.945988
O O15 0.297728 0.696810 0.792356
O O16 0.500000 0.656141 0.500000
O O17 0.362164 0.500000 0.546601
O O18 0.347486 0.735894 0.403638
O O19 0.397914 0.783169 0.633412
O O20 0.669653 0.500000 0.733927
O O21 0.675442 0.000000 0.244112
#
# Coordination Sequence:
#
# PCOD9144678 Si02
#       8
#     4   4   4   4   4   4   4   4
#     4  11  26  46  66  88 115 149 192 244 299 354
#     4  10  19  30  48  79 119 160 198 235 279 338
#     4  10  19  34  56  82 116 155 197 240 287 344
#     4   9  19  34  55  84 116 154 196 241 288 338
#     4  10  21  39  63  87 115 151 198 246 291 342
#     4  10  21  36  56  86 119 152 195 241 290 347
#     4  10  22  40  62  88 119 157 200 244 291 347
#     4  10  20  34  54  83 119 157 193 235 292 348
#
# _framework density 21.634551999999999
#
# number of rings (size 3 to 8) (size 9 to 14) (size 15 to 20)
#    0.000    2.000    1.250    1.875    1.750    5.750 
#    0.000    0.625    0.000    3.750    0.000    0.000 
#    0.000    0.000    0.000    0.000    0.000    0.000 
#
# Total GULP energy -178437.181468 kJ/mol
# GULP energy per Si atom -5576.161921 kJ/mol
# Density = 2.158531 g / cm^3
# Si number density = 21.634552 Si / 1000 Ang^3
#
#
#
# Elastic Constant Matrix: (Units=GPa)
#
#
# Indices 1 2 3 4 5 6 
#
# 1 102.5637 9.7793 23.5125 0.0000 -7.6979 0.0000
# 2 9.7793 10.5354 -1.5255 0.0000 -2.9112 0.0000
# 3 23.5125 -1.5255 34.0431 0.0000 2.9000 0.0000
# 4 0.0000 0.0000 0.0000 3.2930 0.0000 0.0109
# 5 -7.6979 -2.9112 2.9000 0.0000 18.1236 0.0000
# 6 0.0000 0.0000 0.0000 0.0109 0.0000 6.7881
#
#
#
# Elastic Compliance Matrix: (Units=1/GPa)
#
#
# Indices 1 2 3 4 5 6 
#
# 1 0.013813 -0.012834 -0.010584 0.000000 0.005499 0.000000
# 2 -0.012834 0.111583 0.012979 0.000000 0.010396 0.000000
# 3 -0.010584 0.012979 0.037989 0.000000 -0.008489 0.000000
# 4 0.000000 0.000000 0.000000 0.303676 0.000000 -0.000488
# 5 0.005499 0.010396 -0.008489 0.000000 0.060540 0.000000
# 6 0.000000 0.000000 0.000000 -0.000488 0.000000 0.147317
#
#
# Mechanical properties :
#
#
# Convention : Reuss Voigt Hill
#
# Bulk Modulus (GPa) = 7.01723 23.40834 15.21278
# Shear Modulus (GPa) = 6.72677 13.33267 10.02972
#
# Velocity S-wave (km/s) = 1.76523 2.48517 2.15547
# Velocity P-wave (km/s) = 2.72126 4.36785 3.63891
#
# Compressibility (1/GPa) = 0.14250631
#
# Stress axis : x y z
#
# Youngs Moduli (GPa) = 72.39684 8.96194 26.32343
#
# Poissons Ratio (x) = 0.11502 0.27860
# Poissons Ratio (y) = 0.92917 -0.34165
# Poissons Ratio (z) = 0.76622 -0.11631
#
# Static dielectric constant tensor:
#      x y z
#    x 1.874160 0.000000 0.025590 
#    y 0.000000 1.767090 0.000000 
#    z 0.025590 0.000000 1.809260 
# 
# From -- ./inp_files/49849.got.cif
#   From: 2010.05.17/outbox.cif.g08.bks.cpg/sg10_25_cif.got.tgz:49849.got - 2010.06.03 11:33:40.
