data_PCOD9144327
_publ_section_title
;
Structure prediction by ZEFSAII (Michael W. Deem and Ramdas Pophale) SiO2 
 PCOD9144327
Probable space group: P 2/M
;
_chemical_formula_sum "Si O2"
_cell_formula_units_Z 32
_cell_length_a 16.758719
_cell_length_b 7.983146
_cell_length_c 20.106933
_cell_angle_alpha 90.000000
_cell_angle_beta 32.800558
_cell_angle_gamma 90.000000
_cell_volume 1457.245432
_symmetry_space_group_name_H-M "P 2/M"
_symmetry_group_IT_number 10
_symmetry_cell_setting 'monoclinic'
loop_
_space_group_symop_operation_xyz
x,y,z
-x,y,-z
-x,-y,-z
x,-y,z
loop_
_atom_site_type_symbol
_atom_site_label
_atom_site_fract_x
_atom_site_fract_y
_atom_site_fract_z
Si Si1 0.579286 0.296853 0.541125
Si Si2 0.927564 0.694987 0.486169
Si Si3 0.015435 0.196664 0.142538
Si Si4 0.355138 0.803280 0.252821
Si Si5 0.119609 0.704348 0.621242
Si Si6 0.309610 0.798823 0.990751
Si Si7 0.677802 0.691696 0.870109
Si Si8 0.283297 0.700131 0.700171
O O1 0.574042 0.500000 0.548290
O O2 0.708165 0.241756 0.500080
O O3 0.648610 0.255190 0.420000
O O4 0.410223 0.235670 0.661690
O O5 0.971760 0.500000 0.453597
O O6 0.754234 0.706390 0.622469
O O7 0.957110 0.764581 0.392405
O O8 0.000000 0.777194 0.500000
O O9 0.950980 0.233436 0.261244
O O10 0.887982 0.251741 0.180691
O O11 0.181747 0.267661 0.031336
O O12 0.029566 0.000000 0.123279
O O13 0.296053 0.781029 0.218374
O O14 0.353293 0.000000 0.270036
O O15 0.523499 0.738429 0.138129
O O16 0.115093 0.500000 0.625971
O O17 0.269849 0.760007 0.095577
O O18 0.315211 0.000000 0.981311
O O19 0.726768 0.500000 0.829896
O O20 0.500000 0.695238 0.000000
O O21 0.284298 0.500000 0.703230
#
# Coordination Sequence:
#
# PCOD9144327 Si02
#       8
#     4   4   4   4   4   4   4   4
#     4   7  11  23  44  64  86 121 159 186 219 278
#     4  10  22  37  51  70  95 121 156 203 243 274
#     4  10  19  29  44  70 102 126 152 189 230 278
#     4  10  20  35  52  67  89 123 160 194 233 282
#     4   9  18  33  49  66  93 129 160 190 234 282
#     4   9  19  33  47  67  95 126 155 188 233 283
#     4   9  17  29  47  69  89 112 149 195 236 273
#     4   8  13  24  42  65  92 122 154 185 225 279
#
# _framework density 21.959239
#
# number of rings (size 3 to 8) (size 9 to 14) (size 15 to 20)
#    0.000    3.000    0.000    2.625    1.750    3.750 
#    0.000    5.000    0.000    0.000    0.000    0.875 
#    0.000    7.000    0.000    0.000    0.000    0.000 
#
# Total GULP energy -178253.221426 kJ/mol
# GULP energy per Si atom -5570.413170 kJ/mol
# Density = 2.190926 g / cm^3
# Si number density = 21.959239 Si / 1000 Ang^3
#
#
#
# Elastic Constant Matrix: (Units=GPa)
#
#
# Indices 1 2 3 4 5 6 
#
# 1 39.3559 -0.6514 5.9413 0.0000 -33.5810 0.0000
# 2 -0.6514 12.9844 -10.1782 0.0000 -1.4382 0.0000
# 3 5.9413 -10.1782 67.7650 0.0000 -23.0996 0.0000
# 4 0.0000 0.0000 0.0000 11.9148 0.0000 -4.4553
# 5 -33.5810 -1.4382 -23.0996 0.0000 38.9271 0.0000
# 6 0.0000 0.0000 0.0000 -4.4553 0.0000 13.5332
#
#
#
# Elastic Compliance Matrix: (Units=1/GPa)
#
#
# Indices 1 2 3 4 5 6 
#
# 1 0.214629 0.095381 0.074994 0.000000 0.233178 0.000000
# 2 0.095381 0.136019 0.052435 0.000000 0.118422 0.000000
# 3 0.074994 0.052435 0.048602 0.000000 0.095472 0.000000
# 4 0.000000 0.000000 0.000000 0.095712 0.000000 0.031510
# 5 0.233178 0.118422 0.095472 0.000000 0.287872 0.000000
# 6 0.000000 0.000000 0.000000 0.031510 0.000000 0.084266
#
#
# Mechanical properties :
#
#
# Convention : Reuss Voigt Hill
#
# Bulk Modulus (GPa) = 1.18361 12.25874 6.72118
# Shear Modulus (GPa) = 7.11132 21.20794 14.15963
#
# Velocity S-wave (km/s) = 1.80151 3.11108 2.54207
# Velocity P-wave (km/s) = 2.20623 4.30113 3.41813
#
# Compressibility (1/GPa) = 0.84486997
#
# Stress axis : x y z
#
# Youngs Moduli (GPa) = 4.65920 7.35189 20.57532
#
# Poissons Ratio (x) = -0.70123 -1.54302
# Poissons Ratio (y) = -0.44440 -1.07887
# Poissons Ratio (z) = -0.34941 -0.38550
#
# Static dielectric constant tensor:
#      x y z
#    x 1.864500 0.000000 -0.075770 
#    y 0.000000 1.778140 0.000000 
#    z -0.075770 0.000000 1.881840 
# 
# From -- ./inp_files/56462.got.cif
#   From: 2010.05.17/outbox.cif.g08.bks.cpg/sg10_29_cif.got.tgz:56462.got - 2010.06.03 11:33:40.
