data_PCOD9144028
_publ_section_title
;
Structure prediction by ZEFSAII (Michael W. Deem and Ramdas Pophale) SiO2 
 PCOD9144028
Probable space group: P 2/M
;
_chemical_formula_sum "Si O2"
_cell_formula_units_Z 24
_cell_length_a 17.242614
_cell_length_b 9.325864
_cell_length_c 7.589283
_cell_angle_alpha 90.000000
_cell_angle_beta 89.807449
_cell_angle_gamma 90.000000
_cell_volume 1220.367067
_symmetry_space_group_name_H-M "P 2/M"
_symmetry_group_IT_number 10
_symmetry_cell_setting 'monoclinic'
loop_
_space_group_symop_operation_xyz
x,y,z
-x,y,-z
-x,-y,-z
x,-y,z
loop_
_atom_site_type_symbol
_atom_site_label
_atom_site_fract_x
_atom_site_fract_y
_atom_site_fract_z
Si Si1 0.092308 0.665742 0.996487
Si Si2 0.179902 0.667852 0.362140
Si Si3 0.656310 0.666559 0.202482
Si Si4 0.496935 0.835952 0.784961
Si Si5 0.352344 0.335228 0.224022
Si Si6 0.812944 0.829795 0.295196
O O1 0.110805 0.500000 0.945322
O O2 0.128278 0.687630 0.189172
O O3 0.132702 0.771822 0.860497
O O4 0.000000 0.681853 0.000000
O O5 0.174602 0.500000 0.414596
O O6 0.269400 0.697294 0.309507
O O7 0.155819 0.769997 0.520227
O O8 0.661746 0.500000 0.254878
O O9 0.575931 0.737579 0.263670
O O10 0.729168 0.756005 0.269090
O O11 0.657402 0.672272 0.988428
O O12 0.578166 0.769081 0.723434
O O13 0.486863 0.000000 0.728484
O O14 0.500000 0.835220 0.000000
O O15 0.373295 0.500000 0.265533
O O16 0.806415 0.000000 0.292904
#
# Coordination Sequence:
#
# PCOD9144028 Si02
#       6
#     4   4   4   4   4   4
#     4  10  22  44  72  96 119 155 203 251 299 357
#     4  10  21  40  64  91 122 159 206 252 297 356
#     4  10  18  34  58  83 115 158 210 256 297 351
#     4   9  17  28  47  81 120 157 198 246 305 362
#     4   9  17  32  56  83 113 155 205 254 300 349
#     4  12  25  39  60  92 129 164 198 245 308 367
#
# _framework density 19.666212000000002
#
# number of rings (size 3 to 8) (size 9 to 14) (size 15 to 20)
#    0.000    2.000    1.667    2.500    0.000    5.000 
#    0.000    4.167    0.000    5.000    0.000    0.000 
#    0.000    0.000    0.000    0.000    0.000    0.000 
#
# Total GULP energy -134175.897302 kJ/mol
# GULP energy per Si atom -5590.662388 kJ/mol
# Density = 1.962145 g / cm^3
# Si number density = 19.666212 Si / 1000 Ang^3
#
#
#
# Elastic Constant Matrix: (Units=GPa)
#
#
# Indices 1 2 3 4 5 6 
#
# 1 92.9921 77.2801 34.2440 0.0000 9.2270 0.0000
# 2 77.2801 164.3159 69.1244 0.0000 9.0537 0.0000
# 3 34.2440 69.1244 67.2552 0.0000 3.9687 0.0000
# 4 0.0000 0.0000 0.0000 11.5692 0.0000 -0.4172
# 5 9.2270 9.0537 3.9687 0.0000 -15.2555 0.0000
# 6 0.0000 0.0000 0.0000 -0.4172 0.0000 15.0134
#
#
#
# Elastic Compliance Matrix: (Units=1/GPa)
#
#
# Indices 1 2 3 4 5 6 
#
# 1 0.017203 -0.008051 -0.000804 0.000000 0.005418 0.000000
# 2 -0.008051 0.014309 -0.010657 0.000000 0.000850 0.000000
# 3 -0.000804 -0.010657 0.026231 0.000000 0.000013 0.000000
# 4 0.000000 0.000000 0.000000 0.086523 0.000000 0.002404
# 5 0.005418 0.000850 0.000013 0.000000 -0.061766 0.000000
# 6 0.000000 0.000000 0.000000 0.002404 0.000000 0.066674
#
#
# Mechanical properties :
#
#
# Convention : Reuss Voigt Hill
#
# Bulk Modulus (GPa) = 53.42507 76.20668 64.81587
# Shear Modulus (GPa) = 25.71514 11.85974 18.78744
#
# Velocity S-wave (km/s) = 3.61997 2.45838 3.09417
# Velocity P-wave (km/s) = 6.68559 6.84780 6.76718
#
# Compressibility (1/GPa) = 0.01871781
#
# Stress axis : x y z
#
# Youngs Moduli (GPa) = 58.12997 69.88671 38.12290
#
# Poissons Ratio (x) = 0.56266 0.03065
# Poissons Ratio (y) = 0.46801 0.40629
# Poissons Ratio (z) = 0.04674 0.74481
#
# Static dielectric constant tensor:
#      x y z
#    x 1.655500 0.000000 0.005280 
#    y 0.000000 1.655890 0.000000 
#    z 0.005280 0.000000 1.723670 
# 
# From -- ./inp_files/31216.got.cif
#   From: 2010.05.17/outbox.cif.g08.bks.cpg/sg10_16_cif.got.tgz:31216.got - 2010.06.03 11:33:40.
