data_PCOD9144727
_publ_section_title
;
Structure prediction by ZEFSAII (Michael W. Deem and Ramdas Pophale) SiO2 
 PCOD9144727
Probable space group: P 2/M
;
_chemical_formula_sum "Si O2"
_cell_formula_units_Z 28
_cell_length_a 17.367031
_cell_length_b 8.489632
_cell_length_c 15.515770
_cell_angle_alpha 90.000000
_cell_angle_beta 134.095580
_cell_angle_gamma 90.000000
_cell_volume 1642.937615
_symmetry_space_group_name_H-M "P 2/M"
_symmetry_group_IT_number 10
_symmetry_cell_setting 'monoclinic'
loop_
_space_group_symop_operation_xyz
x,y,z
-x,y,-z
-x,-y,-z
x,-y,z
loop_
_atom_site_type_symbol
_atom_site_label
_atom_site_fract_x
_atom_site_fract_y
_atom_site_fract_z
Si Si1 0.577156 0.811918 0.177534
Si Si2 0.347364 0.688232 0.937881
Si Si3 0.016972 0.692022 0.112500
Si Si4 0.205841 0.690414 0.984683
Si Si5 0.394097 0.190078 0.605454
Si Si6 0.364744 0.188576 0.256777
Si Si7 0.255909 0.688446 0.343874
O O1 0.652111 0.763560 0.156321
O O2 0.618025 0.765648 0.303751
O O3 0.561448 0.000000 0.164351
O O4 0.461678 0.733837 0.069224
O O5 0.342705 0.500000 0.925459
O O6 0.255606 0.742506 0.932441
O O7 0.016841 0.500000 0.112942
O O8 0.133005 0.743274 0.236343
O O9 0.914536 0.744470 0.088028
O O10 0.000000 0.740786 0.000000
O O11 0.205856 0.500000 0.984630
O O12 0.284290 0.744099 0.122376
O O13 0.513560 0.239231 0.668478
O O14 0.307271 0.261596 0.473940
O O15 0.388783 0.000000 0.595267
O O16 0.325864 0.242301 0.320179
O O17 0.361798 0.000000 0.249595
O O18 0.257208 0.500000 0.337017
#
# Coordination Sequence:
#
# PCOD9144727 Si02
#       7
#     4   4   4   4   4   4   4
#     4  10  19  33  52  72 103 141 169 198 254 316
#     4  10  19  30  50  80 106 128 165 216 256 293
#     4   9  17  33  54  74 101 134 170 212 257 300
#     4  10  19  33  54  77 105 136 168 211 258 301
#     4  10  22  37  51  72 105 142 171 207 254 305
#     4  11  21  34  51  74 107 140 170 205 253 307
#     4  11  22  35  54  76 100 137 178 213 252 303
#
# _framework density 17.042643000000002
#
# number of rings (size 3 to 8) (size 9 to 14) (size 15 to 20)
#    0.000    1.857    2.857    3.000    0.000    4.571 
#    0.000    2.143    0.000    0.857    0.000    6.000 
#    0.000    0.000    0.000    0.000    0.000    0.000 
#
# Total GULP energy -156293.979202 kJ/mol
# GULP energy per Si atom -5581.927829 kJ/mol
# Density = 1.700385 g / cm^3
# Si number density = 17.042643 Si / 1000 Ang^3
#
#
#
# Elastic Constant Matrix: (Units=GPa)
#
#
# Indices 1 2 3 4 5 6 
#
# 1 137.0225 11.6377 68.3577 0.0000 -14.7988 0.0000
# 2 11.6377 10.6880 7.0015 0.0000 0.9906 0.0000
# 3 68.3577 7.0015 115.7145 0.0000 -6.2315 0.0000
# 4 0.0000 0.0000 0.0000 70.2005 0.0000 62.5936
# 5 -14.7988 0.9906 -6.2315 0.0000 19.4224 0.0000
# 6 0.0000 0.0000 0.0000 62.5936 0.0000 122.5077
#
#
#
# Elastic Compliance Matrix: (Units=1/GPa)
#
#
# Indices 1 2 3 4 5 6 
#
# 1 0.011992 -0.009788 -0.006078 0.000000 0.007686 0.000000
# 2 -0.009788 0.106353 -0.001370 0.000000 -0.013322 0.000000
# 3 -0.006078 -0.001370 0.012282 0.000000 -0.000621 0.000000
# 4 0.000000 0.000000 0.000000 0.026165 0.000000 -0.013369
# 5 0.007686 -0.013322 -0.000621 0.000000 0.057824 0.000000
# 6 0.000000 0.000000 0.000000 -0.013369 0.000000 0.014993
#
#
# Mechanical properties :
#
#
# Convention : Reuss Voigt Hill
#
# Bulk Modulus (GPa) = 10.39996 48.60209 29.50102
# Shear Modulus (GPa) = 16.88436 54.18798 35.53617
#
# Velocity S-wave (km/s) = 3.15097 5.64487 4.57128
# Velocity P-wave (km/s) = 4.39929 8.43006 6.72383
#
# Compressibility (1/GPa) = 0.09615420
#
# Stress axis : x y z
#
# Youngs Moduli (GPa) = 83.39166 9.40266 81.42075
#
# Poissons Ratio (x) = 0.09203 0.49486
# Poissons Ratio (y) = 0.81624 0.11157
# Poissons Ratio (z) = 0.50684 0.01288
#
# Static dielectric constant tensor:
#      x y z
#    x 1.589350 0.000000 -0.002850 
#    y 0.000000 1.584110 0.000000 
#    z -0.002850 0.000000 1.547270 
# 
# From -- ./inp_files/68674.got.cif
#   From: 2010.05.17/outbox.cif.g08.bks.cpg/sg10_35_cif.got.tgz:68674.got - 2010.06.03 11:33:40.
