data_PCOD9144307
_publ_section_title
;
Structure prediction by ZEFSAII (Michael W. Deem and Ramdas Pophale) SiO2 
 PCOD9144307
Probable space group: P 2/M
;
_chemical_formula_sum "Si O2"
_cell_formula_units_Z 28
_cell_length_a 10.426722
_cell_length_b 9.436401
_cell_length_c 14.659803
_cell_angle_alpha 90.000000
_cell_angle_beta 122.946762
_cell_angle_gamma 90.000000
_cell_volume 1210.418388
_symmetry_space_group_name_H-M "P 2/M"
_symmetry_group_IT_number 10
_symmetry_cell_setting 'monoclinic'
loop_
_space_group_symop_operation_xyz
x,y,z
-x,y,-z
-x,-y,-z
x,-y,z
loop_
_atom_site_type_symbol
_atom_site_label
_atom_site_fract_x
_atom_site_fract_y
_atom_site_fract_z
Si Si1 0.332584 0.670786 0.659187
Si Si2 0.217421 0.662601 0.259331
Si Si3 0.924139 0.152161 0.352956
Si Si4 0.185229 0.838835 0.066788
Si Si5 0.558354 0.343539 0.111905
Si Si6 0.284803 0.834630 0.465471
Si Si7 0.137470 0.276191 0.852690
O O1 0.336148 0.500000 0.652336
O O2 0.167010 0.725457 0.630476
O O3 0.440597 0.716121 0.786156
O O4 0.367808 0.749311 0.578520
O O5 0.271983 0.500000 0.277154
O O6 0.238642 0.745501 0.172709
O O7 0.287568 0.750235 0.370963
O O8 0.031582 0.660109 0.200780
O O9 0.886961 0.152481 0.230609
O O10 0.105598 0.167330 0.424861
O O11 0.875880 0.000000 0.373206
O O12 0.244272 0.000000 0.092900
O O13 0.205763 0.766496 0.976620
O O14 0.000000 0.847597 0.000000
O O15 0.484109 0.500000 0.087553
O O16 0.735135 0.362015 0.152077
O O17 0.500000 0.262287 0.000000
O O18 0.329419 0.000000 0.474452
#
# Coordination Sequence:
#
# PCOD9144307 Si02
#       7
#     4   4   4   4   4   4   4
#     4  10  19  29  44  65  88 117 153 193 233 271
#     4  10  19  29  44  70 100 125 156 195 229 272
#     4   9  17  28  42  62  89 122 156 186 223 276
#     4   9  17  29  45  66  95 130 161 188 227 280
#     4   9  18  32  48  68  95 125 158 196 237 278
#     4  10  19  30  44  62  89 124 155 184 226 281
#     4   9  17  28  47  68  94 127 161 195 232 269
#
# _framework density 23.132497999999998
#
# number of rings (size 3 to 8) (size 9 to 14) (size 15 to 20)
#    0.000    2.571    0.000    2.571    0.000   12.286 
#    0.000    0.000    0.000   15.429    0.000    1.000 
#    0.000    6.857    0.000    0.000    0.000    0.000 
#
# Total GULP energy -156118.252091 kJ/mol
# GULP energy per Si atom -5575.651860 kJ/mol
# Density = 2.307985 g / cm^3
# Si number density = 23.132498 Si / 1000 Ang^3
#
#
#
# Elastic Constant Matrix: (Units=GPa)
#
#
# Indices 1 2 3 4 5 6 
#
# 1 80.4871 14.3426 16.5947 0.0000 -7.8981 0.0000
# 2 14.3426 157.1441 88.9445 0.0000 -32.0233 0.0000
# 3 16.5947 88.9445 239.7093 0.0000 -56.4880 0.0000
# 4 0.0000 0.0000 0.0000 22.5835 0.0000 -6.4244
# 5 -7.8981 -32.0233 -56.4880 0.0000 30.8458 0.0000
# 6 0.0000 0.0000 0.0000 -6.4244 0.0000 -10.8264
#
#
#
# Elastic Compliance Matrix: (Units=1/GPa)
#
#
# Indices 1 2 3 4 5 6 
#
# 1 0.012795 -0.000619 -0.000062 0.000000 0.002519 0.000000
# 2 -0.000619 0.008565 -0.001895 0.000000 0.005263 0.000000
# 3 -0.000062 -0.001895 0.007761 0.000000 0.012230 0.000000
# 4 0.000000 0.000000 0.000000 0.037885 0.000000 -0.022481
# 5 0.002519 0.005263 0.012230 0.000000 0.060925 0.000000
# 6 0.000000 0.000000 0.000000 -0.022481 0.000000 -0.079027
#
#
# Mechanical properties :
#
#
# Convention : Reuss Voigt Hill
#
# Bulk Modulus (GPa) = 41.72202 79.67824 60.70013
# Shear Modulus (GPa) = 80.58425 32.35116 56.46770
#
# Velocity S-wave (km/s) = 5.90860 3.74373 4.94606
# Velocity P-wave (km/s) = 8.03891 7.29427 7.67563
#
# Compressibility (1/GPa) = 0.02396816
#
# Stress axis : x y z
#
# Youngs Moduli (GPa) = 78.15712 116.75093 128.84742
#
# Poissons Ratio (x) = 0.07228 0.00804
# Poissons Ratio (y) = 0.04839 0.24416
# Poissons Ratio (z) = 0.00488 0.22124
#
# Static dielectric constant tensor:
#      x y z
#    x 1.887240 0.000000 0.030700 
#    y 0.000000 1.837500 0.000000 
#    z 0.030700 0.000000 1.918230 
# 
# From -- ./inp_files/66646.got.cif
#   From: 2010.05.17/outbox.cif.g08.bks.cpg/sg10_34_cif.got.tgz:66646.got - 2010.06.03 11:33:40.
