data_PCOD9144495
_publ_section_title
;
Structure prediction by ZEFSAII (Michael W. Deem and Ramdas Pophale) SiO2 
 PCOD9144495
Probable space group: P 2/M
;
_chemical_formula_sum "Si O2"
_cell_formula_units_Z 28
_cell_length_a 12.873741
_cell_length_b 13.164801
_cell_length_c 14.787404
_cell_angle_alpha 90.000000
_cell_angle_beta 138.121616
_cell_angle_gamma 90.000000
_cell_volume 1672.999886
_symmetry_space_group_name_H-M "P 2/M"
_symmetry_group_IT_number 10
_symmetry_cell_setting 'monoclinic'
loop_
_space_group_symop_operation_xyz
x,y,z
-x,y,-z
-x,-y,-z
x,-y,z
loop_
_atom_site_type_symbol
_atom_site_label
_atom_site_fract_x
_atom_site_fract_y
_atom_site_fract_z
Si Si1 0.084591 0.116226 0.152238
Si Si2 0.065878 0.618638 0.442672
Si Si3 0.383481 0.753864 0.342229
Si Si4 0.928336 0.713505 0.180284
Si Si5 0.099827 0.611936 0.146950
Si Si6 0.393445 0.382921 0.017895
Si Si7 0.561869 0.384290 0.318993
O O1 0.263162 0.153069 0.252021
O O2 0.998607 0.190908 0.169254
O O3 0.080988 0.000000 0.181932
O O4 0.000000 0.120109 0.000000
O O5 0.025742 0.500000 0.395777
O O6 0.252441 0.626781 0.561759
O O7 0.000000 0.639140 0.500000
O O8 0.996034 0.695242 0.323593
O O9 0.500000 0.772012 0.500000
O O10 0.256927 0.665742 0.278074
O O11 0.482151 0.705728 0.324361
O O12 0.988483 0.618452 0.159840
O O13 0.744017 0.699014 0.064339
O O14 0.139572 0.500000 0.141818
O O15 0.000000 0.659807 0.000000
O O16 0.333925 0.500000 0.970286
O O17 0.494488 0.379704 0.174354
O O18 0.500000 0.363770 0.000000
O O19 0.527898 0.500000 0.331962
#
# Coordination Sequence:
#
# PCOD9144495 Si02
#       7
#     4   4   4   4   4   4   4
#     4  10  22  40  59  77  98 127 168 219 272 325
#     4  10  20  33  49  73 107 145 179 205 235 287
#     4  11  21  32  49  75 104 131 163 206 258 315
#     4  11  19  32  53  73  97 133 175 211 250 301
#     4  10  19  30  46  71 104 141 177 209 246 303
#     4  10  19  30  47  74 105 135 168 206 245 288
#     4  10  19  30  45  69 104 139 167 199 241 291
#
# _framework density 16.736402999999999
#
# number of rings (size 3 to 8) (size 9 to 14) (size 15 to 20)
#    0.000    1.714    0.000    7.714    0.000    7.143 
#    0.000    0.000    0.000    0.857    0.000    2.000 
#    0.000    0.000    0.000    0.000    0.000    0.000 
#
# Total GULP energy -155975.562287 kJ/mol
# GULP energy per Si atom -5570.555796 kJ/mol
# Density = 1.669831 g / cm^3
# Si number density = 16.736403 Si / 1000 Ang^3
#
#
#
# Elastic Constant Matrix: (Units=GPa)
#
#
# Indices 1 2 3 4 5 6 
#
# 1 241.0440 107.0298 108.2452 0.0000 45.2596 0.0000
# 2 107.0298 131.3424 71.8170 0.0000 25.6746 0.0000
# 3 108.2452 71.8170 155.3964 0.0000 25.5502 0.0000
# 4 0.0000 0.0000 0.0000 -7.4161 0.0000 -8.5609
# 5 45.2596 25.6746 25.5502 0.0000 46.5628 0.0000
# 6 0.0000 0.0000 0.0000 -8.5609 0.0000 12.7856
#
#
#
# Elastic Compliance Matrix: (Units=1/GPa)
#
#
# Indices 1 2 3 4 5 6 
#
# 1 0.008116 -0.004163 -0.003089 0.000000 -0.003899 0.000000
# 2 -0.004163 0.012817 -0.002778 0.000000 -0.001497 0.000000
# 3 -0.003089 -0.002778 0.010030 0.000000 -0.000970 0.000000
# 4 0.000000 0.000000 0.000000 -0.076056 0.000000 -0.050925
# 5 -0.003899 -0.001497 -0.000970 0.000000 0.026624 0.000000
# 6 0.000000 0.000000 0.000000 -0.050925 0.000000 0.044115
#
#
# Mechanical properties :
#
#
# Convention : Reuss Voigt Hill
#
# Bulk Modulus (GPa) = 91.70111 122.44075 107.07093
# Shear Modulus (GPa) = 101.33983 26.43253 63.88618
#
# Velocity S-wave (km/s) = 7.78986 3.97841 6.18505
# Velocity P-wave (km/s) = 11.65417 9.71704 10.72941
#
# Compressibility (1/GPa) = 0.01090499
#
# Stress axis : x y z
#
# Youngs Moduli (GPa) = 123.21338 78.01906 99.70306
#
# Poissons Ratio (x) = 0.32477 0.30794
# Poissons Ratio (y) = 0.51291 0.27695
# Poissons Ratio (z) = 0.38055 0.21672
#
# Static dielectric constant tensor:
#      x y z
#    x 1.567240 0.000000 0.007570 
#    y 0.000000 1.586920 0.000000 
#    z 0.007570 0.000000 1.582050 
# 
# From -- ./inp_files/61625.got.cif
#   From: 2010.05.17/outbox.cif.g08.bks.cpg/sg10_31_cif.got.tgz:61625.got - 2010.06.03 11:33:40.
