data_PCOD9144230
_publ_section_title
;
Structure prediction by ZEFSAII (Michael W. Deem and Ramdas Pophale) SiO2 
 PCOD9144230
Probable space group: P 2/M
;
_chemical_formula_sum "Si O2"
_cell_formula_units_Z 24
_cell_length_a 10.309713
_cell_length_b 9.604817
_cell_length_c 15.425824
_cell_angle_alpha 90.000000
_cell_angle_beta 76.263142
_cell_angle_gamma 90.000000
_cell_volume 1483.817896
_symmetry_space_group_name_H-M "P 2/M"
_symmetry_group_IT_number 10
_symmetry_cell_setting 'monoclinic'
loop_
_space_group_symop_operation_xyz
x,y,z
-x,y,-z
-x,-y,-z
x,-y,z
loop_
_atom_site_type_symbol
_atom_site_label
_atom_site_fract_x
_atom_site_fract_y
_atom_site_fract_z
Si Si1 0.637497 0.335693 0.426460
Si Si2 0.716817 0.162852 0.719877
Si Si3 0.360427 0.660748 0.910498
Si Si4 0.318371 0.660678 0.110448
Si Si5 0.154903 0.663208 0.454244
Si Si6 0.603380 0.837036 0.259411
O O1 0.500000 0.308046 0.500000
O O2 0.637742 0.500000 0.402991
O O3 0.756880 0.308639 0.474478
O O4 0.643714 0.242741 0.340109
O O5 0.740850 0.238238 0.807989
O O6 0.795282 0.241629 0.631882
O O7 0.558055 0.174845 0.724368
O O8 0.749793 0.000000 0.718276
O O9 0.325353 0.500000 0.896278
O O10 0.520922 0.663059 0.900577
O O11 0.334459 0.761879 0.834565
O O12 0.296559 0.699607 0.013357
O O13 0.276007 0.500000 0.129816
O O14 0.176759 0.500000 0.428049
O O15 0.000000 0.683516 0.500000
O O16 0.636528 0.000000 0.257267
#
# Coordination Sequence:
#
# PCOD9144230 Si02
#       6
#     4   4   4   4   4   4
#     4  10  19  32  51  71  91 123 162 198 238 283
#     4  10  19  29  44  68  97 128 159 194 238 285
#     4   8  14  25  41  63  92 125 159 195 234 278
#     4   8  14  25  42  63  90 125 161 195 233 278
#     4  10  21  36  52  70  93 123 162 204 240 279
#     4  10  19  28  43  69  99 128 157 194 237 282
#
# _framework density 16.174491
#
# number of rings (size 3 to 8) (size 9 to 14) (size 15 to 20)
#    0.000    2.667    1.667    2.000    0.000    3.333 
#    0.000    3.333    0.000    0.000    0.000    1.167 
#    0.000    9.333    0.000    0.000    0.000    0.000 
#
# Total GULP energy -133747.629946 kJ/mol
# GULP energy per Si atom -5572.817914 kJ/mol
# Density = 1.613768 g / cm^3
# Si number density = 16.174491 Si / 1000 Ang^3
#
#
#
# Elastic Constant Matrix: (Units=GPa)
#
#
# Indices 1 2 3 4 5 6 
#
# 1 50.1174 38.4901 37.7323 0.0000 9.9420 0.0000
# 2 38.4901 131.7260 130.0372 0.0000 13.8712 0.0000
# 3 37.7323 130.0372 170.4910 0.0000 23.3022 0.0000
# 4 0.0000 0.0000 0.0000 0.8983 0.0000 -4.2264
# 5 9.9420 13.8712 23.3022 0.0000 10.1842 0.0000
# 6 0.0000 0.0000 0.0000 -4.2264 0.0000 9.6726
#
#
#
# Elastic Compliance Matrix: (Units=1/GPa)
#
#
# Indices 1 2 3 4 5 6 
#
# 1 0.029895 -0.012185 0.006399 0.000000 -0.027230 0.000000
# 2 -0.012185 0.037895 -0.030233 0.000000 0.029456 0.000000
# 3 0.006399 -0.030233 0.033079 0.000000 -0.040756 0.000000
# 4 0.000000 0.000000 0.000000 -1.054418 0.000000 -0.460723
# 5 -0.027230 0.029456 -0.040756 0.000000 0.177907 0.000000
# 6 0.000000 0.000000 0.000000 -0.460723 0.000000 -0.097926
#
#
# Mechanical properties :
#
#
# Convention : Reuss Voigt Hill
#
# Bulk Modulus (GPa) = 34.68363 84.98373 59.83368
# Shear Modulus (GPa) = -6.31378 13.88933 3.78778
#
# Velocity S-wave (km/s) = -1.97788 2.93357 1.53196
# Velocity P-wave (km/s) = 4.03410 8.00814 6.34052
#
# Compressibility (1/GPa) = 0.02883205
#
# Stress axis : x y z
#
# Youngs Moduli (GPa) = 33.45020 26.38836 30.23085
#
# Poissons Ratio (x) = 0.32155 -0.19346
# Poissons Ratio (y) = 0.40760 0.91396
# Poissons Ratio (z) = -0.21406 0.79780
#
# Static dielectric constant tensor:
#      x y z
#    x 1.519750 0.000000 0.005020 
#    y 0.000000 1.536240 0.000000 
#    z 0.005020 0.000000 1.533270 
# 
# From -- ./inp_files/33953.got.cif
#   From: 2010.05.17/outbox.cif.g08.bks.cpg/sg10_17_cif.got.tgz:33953.got - 2010.06.03 11:33:40.
