data_PCOD9144640
_publ_section_title
;
Structure prediction by ZEFSAII (Michael W. Deem and Ramdas Pophale) SiO2 
 PCOD9144640
Probable space group: P 2/M
;
_chemical_formula_sum "Si O2"
_cell_formula_units_Z 28
_cell_length_a 5.716893
_cell_length_b 19.295726
_cell_length_c 13.175137
_cell_angle_alpha 90.000000
_cell_angle_beta 105.499184
_cell_angle_gamma 90.000000
_cell_volume 1400.517561
_symmetry_space_group_name_H-M "P 2/M"
_symmetry_group_IT_number 10
_symmetry_cell_setting 'monoclinic'
loop_
_space_group_symop_operation_xyz
x,y,z
-x,y,-z
-x,-y,-z
x,-y,z
loop_
_atom_site_type_symbol
_atom_site_label
_atom_site_fract_x
_atom_site_fract_y
_atom_site_fract_z
Si Si1 0.258081 0.422151 0.403267
Si Si2 0.948651 0.286497 0.337363
Si Si3 0.555032 0.082659 0.623095
Si Si4 0.949068 0.130197 0.381973
Si Si5 0.502986 0.365817 0.242386
Si Si6 0.937302 0.292998 0.888431
Si Si7 0.748784 0.572831 0.091223
O O1 0.500000 0.418995 0.500000
O O2 0.150982 0.500000 0.405705
O O3 0.101145 0.352026 0.397397
O O4 0.341190 0.412001 0.296631
O O5 0.000406 0.272850 0.221718
O O6 0.990811 0.212381 0.390258
O O7 0.672949 0.311747 0.320205
O O8 0.500000 0.105426 0.500000
O O9 0.338725 0.114987 0.666907
O O10 0.840438 0.101768 0.668568
O O11 0.530710 0.000000 0.626585
O O12 0.000000 0.098721 0.500000
O O13 0.339126 0.318911 0.149715
O O14 0.676091 0.415592 0.199139
O O15 0.098390 0.361504 0.918542
O O16 0.000000 0.251622 0.000000
O O17 0.879011 0.500000 0.092335
O O18 0.500000 0.571491 0.000000
#
# Coordination Sequence:
#
# PCOD9144640 Si02
#       7
#     4   4   4   4   4   4   4
#     4  10  23  39  54  70  97 143 197 247 293 337
#     4  10  24  35  54  79 106 141 191 241 287 345
#     4   9  18  34  57  88 123 158 189 220 267 332
#     4  10  21  34  58  86 121 158 190 229 275 332
#     4  10  21  35  52  70  99 132 173 240 289 352
#     4  10  20  36  51  69  99 134 173 226 291 347
#     4  10  19  30  48  72  92 119 164 220 294 366
#
# _framework density 19.992608000000001
#
# number of rings (size 3 to 8) (size 9 to 14) (size 15 to 20)
#    0.000    2.143    1.429    0.857    6.000    8.857 
#    0.000    1.429    0.000    0.000    0.000    0.000 
#    0.000    3.429    0.000    0.000    0.000    0.000 
#
# Total GULP energy -155901.728135 kJ/mol
# GULP energy per Si atom -5567.918862 kJ/mol
# Density = 1.994710 g / cm^3
# Si number density = 19.992608 Si / 1000 Ang^3
#
#
#
# Elastic Constant Matrix: (Units=GPa)
#
#
# Indices 1 2 3 4 5 6 
#
# 1 106.3130 30.4238 5.3514 0.0000 1.1414 0.0000
# 2 30.4238 77.6307 4.3638 0.0000 2.5739 0.0000
# 3 5.3514 4.3638 62.1689 0.0000 -2.8366 0.0000
# 4 0.0000 0.0000 0.0000 11.6322 0.0000 26.0844
# 5 1.1414 2.5739 -2.8366 0.0000 31.9405 0.0000
# 6 0.0000 0.0000 0.0000 26.0844 0.0000 95.2664
#
#
#
# Elastic Compliance Matrix: (Units=1/GPa)
#
#
# Indices 1 2 3 4 5 6 
#
# 1 0.010619 -0.004123 -0.000629 0.000000 -0.000103 0.000000
# 2 -0.004123 0.014574 -0.000718 0.000000 -0.001091 0.000000
# 3 -0.000629 -0.000718 0.016259 0.000000 0.001524 0.000000
# 4 0.000000 0.000000 0.000000 0.222709 0.000000 -0.060979
# 5 -0.000103 -0.001091 0.001524 0.000000 0.031535 0.000000
# 6 0.000000 0.000000 0.000000 -0.060979 0.000000 0.027193
#
#
# Mechanical properties :
#
#
# Convention : Reuss Voigt Hill
#
# Bulk Modulus (GPa) = 32.77411 36.26563 34.51987
# Shear Modulus (GPa) = 14.53488 41.49940 28.01714
#
# Velocity S-wave (km/s) = 2.69924 4.56097 3.74756
# Velocity P-wave (km/s) = 5.11305 6.77610 6.00245
#
# Compressibility (1/GPa) = 0.03051189
#
# Stress axis : x y z
#
# Youngs Moduli (GPa) = 94.17273 68.61660 61.50318
#
# Poissons Ratio (x) = 0.28289 0.03871
# Poissons Ratio (y) = 0.38825 0.04415
# Poissons Ratio (z) = 0.05927 0.04926
#
# Static dielectric constant tensor:
#      x y z
#    x 1.873390 0.000000 0.029970 
#    y 0.000000 1.680940 0.000000 
#    z 0.029970 0.000000 1.801440 
# 
# From -- ./inp_files/9680.got.cif
#   From: 2010.05.17/outbox.cif.g08.bks.cpg/sg10_5_cif.got.tgz:9680.got - 2010.06.03 11:33:40.
