data_PCOD9144132
_publ_section_title
;
Structure prediction by ZEFSAII (Michael W. Deem and Ramdas Pophale) SiO2 
 PCOD9144132
Probable space group: P 2/M
;
_chemical_formula_sum "Si O2"
_cell_formula_units_Z 16
_cell_length_a 9.375646
_cell_length_b 11.179216
_cell_length_c 9.329734
_cell_angle_alpha 90.000000
_cell_angle_beta 42.675860
_cell_angle_gamma 90.000000
_cell_volume 662.850203
_symmetry_space_group_name_H-M "P 2/M"
_symmetry_group_IT_number 10
_symmetry_cell_setting 'monoclinic'
loop_
_space_group_symop_operation_xyz
x,y,z
-x,y,-z
-x,-y,-z
x,-y,z
loop_
_atom_site_type_symbol
_atom_site_label
_atom_site_fract_x
_atom_site_fract_y
_atom_site_fract_z
Si Si1 0.222366 0.135974 0.751384
Si Si2 0.056587 0.500000 0.209213
Si Si3 0.057410 0.857189 0.302249
Si Si4 0.675395 0.500000 0.692835
Si Si5 0.666370 0.702162 0.091476
O O1 0.146707 0.162317 0.647289
O O2 0.357653 0.229712 0.740517
O O3 0.300982 0.000000 0.705583
O O4 0.000000 0.136075 0.000000
O O5 0.194339 0.500000 0.255393
O O6 0.823338 0.500000 0.443465
O O7 0.130745 0.613812 0.063683
O O8 0.000000 0.807613 0.500000
O O9 0.089873 0.000000 0.285912
O O10 0.262926 0.798332 0.079993
O O11 0.528439 0.617050 0.797931
#
# Coordination Sequence:
#
# PCOD9144132 Si02
#       5
#     4   2   4   2   4
#     4   8  15  31  59  93 132 171 204 251 315 374
#     4  10  23  41  62  91 125 166 211 276 320 368
#     4   9  18  33  61 101 134 170 210 253 314 377
#     4  10  23  41  61  92 129 163 218 268 321 372
#     4  10  18  35  66  96 122 169 210 255 318 377
#
# _framework density 24.138183999999999
#
# number of rings (size 3 to 8) (size 9 to 14) (size 15 to 20)
#    0.000    2.750    0.000    3.750    3.500    0.000 
#    0.000   22.500    0.000   45.000    0.000   31.500 
#    0.000    0.000    0.000    3.000    0.000    0.000 
#
# Total GULP energy -89509.469694 kJ/mol
# GULP energy per Si atom -5594.341856 kJ/mol
# Density = 2.408324 g / cm^3
# Si number density = 24.138184 Si / 1000 Ang^3
#
#
#
# Elastic Constant Matrix: (Units=GPa)
#
#
# Indices 1 2 3 4 5 6 
#
# 1 91.1363 65.8103 64.6476 0.0000 19.4658 0.0000
# 2 65.8103 126.9964 39.8662 0.0000 5.5595 0.0000
# 3 64.6476 39.8662 135.3007 0.0000 7.1016 0.0000
# 4 0.0000 0.0000 0.0000 -138.7816 0.0000 7.2728
# 5 19.4658 5.5595 7.1016 0.0000 51.8467 0.0000
# 6 0.0000 0.0000 0.0000 7.2728 0.0000 24.7601
#
#
#
# Elastic Compliance Matrix: (Units=1/GPa)
#
#
# Indices 1 2 3 4 5 6 
#
# 1 0.026964 -0.010709 -0.009324 0.000000 -0.007698 0.000000
# 2 -0.010709 0.012947 0.001172 0.000000 0.002472 0.000000
# 3 -0.009324 0.001172 0.011406 0.000000 0.001813 0.000000
# 4 0.000000 0.000000 0.000000 -0.007096 0.000000 0.002084
# 5 -0.007698 0.002472 0.001813 0.000000 0.021665 0.000000
# 6 0.000000 0.000000 0.000000 0.002084 0.000000 0.039775
#
#
# Mechanical properties :
#
#
# Convention : Reuss Voigt Hill
#
# Bulk Modulus (GPa) = 73.55580 77.12019 75.33800
# Shear Modulus (GPa) = 33.80352 -0.22767 16.78792
#
# Velocity S-wave (km/s) = 3.74627 -0.30745 2.64008
# Velocity P-wave (km/s) = 7.01796 5.64737 6.36963
#
# Compressibility (1/GPa) = 0.01359512
#
# Stress axis : x y z
#
# Youngs Moduli (GPa) = 37.08683 77.23509 87.67657
#
# Poissons Ratio (x) = 0.82710 0.81750
# Poissons Ratio (y) = 0.39716 -0.10276
# Poissons Ratio (z) = 0.34580 -0.09052
#
# Static dielectric constant tensor:
#      x y z
#    x 1.970250 0.000000 -0.002190 
#    y 0.000000 1.944560 0.000000 
#    z -0.002190 0.000000 1.967310 
# 
# From -- ./inp_files/17596.got.cif
#   From: 2010.05.17/outbox.cif.g08.bks.cpg/sg10_9_cif.got.tgz:17596.got - 2010.06.03 11:33:40.
