data_PCOD9144291
_publ_section_title
;
Structure prediction by ZEFSAII (Michael W. Deem and Ramdas Pophale) SiO2 
 PCOD9144291
Probable space group: P 2/M
;
_chemical_formula_sum "Si O2"
_cell_formula_units_Z 32
_cell_length_a 21.848928
_cell_length_b 9.432998
_cell_length_c 11.929592
_cell_angle_alpha 90.000000
_cell_angle_beta 51.871602
_cell_angle_gamma 90.000000
_cell_volume 1934.084632
_symmetry_space_group_name_H-M "P 2/M"
_symmetry_group_IT_number 10
_symmetry_cell_setting 'monoclinic'
loop_
_space_group_symop_operation_xyz
x,y,z
-x,y,-z
-x,-y,-z
x,-y,z
loop_
_atom_site_type_symbol
_atom_site_label
_atom_site_fract_x
_atom_site_fract_y
_atom_site_fract_z
Si Si1 0.662013 0.336640 0.788138
Si Si2 0.180249 0.663096 0.541550
Si Si3 0.085079 0.672868 0.441029
Si Si4 0.765713 0.327101 0.869451
Si Si5 0.578636 0.166389 0.697591
Si Si6 0.529404 0.665506 0.343296
Si Si7 0.286624 0.333938 0.831853
Si Si8 0.735900 0.166041 0.370948
O O1 0.634942 0.500000 0.827249
O O2 0.741772 0.338211 0.624123
O O3 0.692401 0.283916 0.874538
O O4 0.601475 0.241962 0.788278
O O5 0.166657 0.500000 0.591393
O O6 0.111755 0.712512 0.536240
O O7 0.199245 0.761216 0.624564
O O8 0.085330 0.500000 0.439526
O O9 0.153929 0.718594 0.279293
O O10 0.000000 0.720966 0.500000
O O11 0.763970 0.500000 0.868727
O O12 0.758174 0.284264 0.006425
O O13 0.509330 0.243494 0.710508
O O14 0.654133 0.182257 0.530581
O O15 0.564209 0.000000 0.729680
O O16 0.500000 0.711360 0.500000
O O17 0.506254 0.500000 0.355296
O O18 0.622134 0.674237 0.241059
O O19 0.268902 0.500000 0.830403
O O20 0.270297 0.244377 0.740117
O O21 0.750200 0.000000 0.340709
#
# Coordination Sequence:
#
# PCOD9144291 Si02
#       8
#     4   4   4   4   4   4   4   4
#     4   8  14  27  46  64  86 115 148 184 221 266
#     4   8  14  25  44  69  93 117 146 180 218 262
#     4   8  13  24  47  78 103 117 137 179 229 268
#     4   8  15  28  46  69  93 119 149 181 221 270
#     4  10  19  29  44  65  88 114 149 194 236 269
#     4  10  19  30  44  63  86 116 155 194 230 267
#     4  10  19  31  47  65  89 120 154 189 225 269
#     4  10  19  29  43  65  91 119 153 191 228 263
#
# _framework density 16.545294999999999
#
# number of rings (size 3 to 8) (size 9 to 14) (size 15 to 20)
#    0.000    3.000    1.250    2.250    0.000    1.750 
#    0.000    1.250    0.000    5.625    0.000    5.250 
#    0.000    0.000    0.000    0.000    0.000    0.000 
#
# Total GULP energy -178266.791408 kJ/mol
# GULP energy per Si atom -5570.837232 kJ/mol
# Density = 1.650764 g / cm^3
# Si number density = 16.545295 Si / 1000 Ang^3
#
#
#
# Elastic Constant Matrix: (Units=GPa)
#
#
# Indices 1 2 3 4 5 6 
#
# 1 98.9131 50.1443 18.2634 0.0000 17.9901 0.0000
# 2 50.1443 59.4624 25.5955 0.0000 18.5611 0.0000
# 3 18.2634 25.5955 40.3247 0.0000 13.1614 0.0000
# 4 0.0000 0.0000 0.0000 4.9468 0.0000 -5.0909
# 5 17.9901 18.5611 13.1614 0.0000 18.8383 0.0000
# 6 0.0000 0.0000 0.0000 -5.0909 0.0000 -2.6596
#
#
#
# Elastic Compliance Matrix: (Units=1/GPa)
#
#
# Indices 1 2 3 4 5 6 
#
# 1 0.018003 -0.015035 0.002806 0.000000 -0.004339 0.000000
# 2 -0.015035 0.040295 -0.013595 0.000000 -0.015845 0.000000
# 3 0.002806 -0.013595 0.037126 0.000000 -0.015222 0.000000
# 4 0.000000 0.000000 0.000000 0.068066 0.000000 -0.130289
# 5 -0.004339 -0.015845 -0.015222 0.000000 0.083474 0.000000
# 6 0.000000 0.000000 0.000000 -0.130289 0.000000 -0.126603
#
#
# Mechanical properties :
#
#
# Convention : Reuss Voigt Hill
#
# Bulk Modulus (GPa) = 22.84468 42.96738 32.90603
# Shear Modulus (GPa) = 26.79515 11.20491 19.00003
#
# Velocity S-wave (km/s) = 4.02867 2.60518 3.39243
# Velocity P-wave (km/s) = 5.95631 5.92243 5.93939
#
# Compressibility (1/GPa) = 0.04377387
#
# Stress axis : x y z
#
# Youngs Moduli (GPa) = 55.54571 24.81721 26.93557
#
# Poissons Ratio (x) = 0.37314 -0.07558
# Poissons Ratio (y) = 0.83515 0.36619
# Poissons Ratio (z) = -0.15585 0.33739
#
# Static dielectric constant tensor:
#      x y z
#    x 1.552450 0.000000 0.003070 
#    y 0.000000 1.544970 0.000000 
#    z 0.003070 0.000000 1.568340 
# 
# From -- ./inp_files/52707.got.cif
#   From: 2010.05.17/outbox.cif.g08.bks.cpg/sg10_27_cif.got.tgz:52707.got - 2010.06.03 11:33:40.
