data_PCOD9144826
_publ_section_title
;
Structure prediction by ZEFSAII (Michael W. Deem and Ramdas Pophale) SiO2 
 PCOD9144826
Probable space group: P 2/M
;
_chemical_formula_sum "Si O2"
_cell_formula_units_Z 32
_cell_length_a 20.751828
_cell_length_b 18.379202
_cell_length_c 11.439007
_cell_angle_alpha 90.000000
_cell_angle_beta 23.350996
_cell_angle_gamma 90.000000
_cell_volume 1729.275671
_symmetry_space_group_name_H-M "P 2/M"
_symmetry_group_IT_number 10
_symmetry_cell_setting 'monoclinic'
loop_
_space_group_symop_operation_xyz
x,y,z
-x,y,-z
-x,-y,-z
x,-y,z
loop_
_atom_site_type_symbol
_atom_site_label
_atom_site_fract_x
_atom_site_fract_y
_atom_site_fract_z
Si Si1 0.656170 0.582685 0.827373
Si Si2 0.843769 0.919040 0.981666
Si Si3 0.875179 0.919006 0.303366
Si Si4 0.858835 0.683799 0.331664
Si Si5 0.550190 0.163425 0.549994
Si Si6 0.489455 0.711976 0.206351
Si Si7 0.240050 0.914413 0.143723
Si Si8 0.245054 0.809763 0.351117
O O1 0.311904 0.500000 0.189519
O O2 0.807243 0.617181 0.503433
O O3 0.500000 0.582254 0.000000
O O4 0.592798 0.637109 0.034234
O O5 0.012458 0.923928 0.768469
O O6 0.767932 0.000000 0.112481
O O7 0.732991 0.864817 0.240059
O O8 0.845930 0.902025 0.839526
O O9 0.730251 0.868132 0.585975
O O10 0.825691 0.000000 0.348467
O O11 0.000000 0.889035 0.000000
O O12 0.690725 0.699396 0.542340
O O13 0.883800 0.753192 0.376862
O O14 0.000000 0.673194 0.000000
O O15 0.500000 0.169973 0.500000
O O16 0.526283 0.240083 0.652098
O O17 0.431032 0.102637 0.803298
O O18 0.599541 0.762074 0.938904
O O19 0.214366 0.000000 0.218547
O O20 0.200509 0.853089 0.306523
#
# Coordination Sequence:
#
# PCOD9144826 Si02
#       8
#     4   4   4   4   4   4   4   4
#     4   8  15  31  52  76 105 133 160 190 229 285
#     4   9  18  31  47  68  93 126 169 216 265 297
#     4  10  21  33  45  66  96 130 166 210 260 306
#     4  10  20  32  50  76 103 133 160 197 246 293
#     4   9  17  29  49  71  95 126 164 213 250 295
#     4   9  19  33  51  73 101 132 163 196 243 295
#     4   9  17  31  49  66  88 124 171 218 257 296
#     4  10  19  31  47  67  96 128 162 202 247 299
#
# _framework density 18.504857999999999
#
# number of rings (size 3 to 8) (size 9 to 14) (size 15 to 20)
#    0.000    2.750    0.000    2.250    3.500    2.250 
#    0.000    1.875    0.000    4.125    0.000    0.000 
#    0.000    1.000    0.000    0.000    0.000    0.000 
#
# Total GULP energy -178146.218574 kJ/mol
# GULP energy per Si atom -5567.069330 kJ/mol
# Density = 1.846274 g / cm^3
# Si number density = 18.504858 Si / 1000 Ang^3
#
#
#
# Elastic Constant Matrix: (Units=GPa)
#
#
# Indices 1 2 3 4 5 6 
#
# 1 25.0202 18.4802 13.7635 0.0000 5.4211 0.0000
# 2 18.4802 112.5326 55.4061 0.0000 15.7579 0.0000
# 3 13.7635 55.4061 110.4415 0.0000 16.4597 0.0000
# 4 0.0000 0.0000 0.0000 19.1543 0.0000 6.4668
# 5 5.4211 15.7579 16.4597 0.0000 23.3527 0.0000
# 6 0.0000 0.0000 0.0000 6.4668 0.0000 16.1968
#
#
#
# Elastic Compliance Matrix: (Units=1/GPa)
#
#
# Indices 1 2 3 4 5 6 
#
# 1 0.046616 -0.005890 -0.002049 0.000000 -0.005403 0.000000
# 2 -0.005890 0.012933 -0.005204 0.000000 -0.003692 0.000000
# 3 -0.002049 -0.005204 0.012656 0.000000 -0.004933 0.000000
# 4 0.000000 0.000000 0.000000 0.060341 0.000000 -0.024092
# 5 -0.005403 -0.003692 -0.004933 0.000000 0.050044 0.000000
# 6 0.000000 0.000000 0.000000 -0.024092 0.000000 0.071360
#
#
# Mechanical properties :
#
#
# Convention : Reuss Voigt Hill
#
# Bulk Modulus (GPa) = 21.77784 47.03268 34.40526
# Shear Modulus (GPa) = 16.91809 22.43038 19.67424
#
# Velocity S-wave (km/s) = 3.02694 3.48535 3.26420
# Velocity P-wave (km/s) = 4.90008 6.45511 5.73058
#
# Compressibility (1/GPa) = 0.04591824
#
# Stress axis : x y z
#
# Youngs Moduli (GPa) = 21.45192 77.32390 79.01499
#
# Poissons Ratio (x) = 0.45542 0.16194
# Poissons Ratio (y) = 0.12635 0.41118
# Poissons Ratio (z) = 0.04397 0.40238
#
# Static dielectric constant tensor:
#      x y z
#    x 1.660420 0.000000 -0.001030 
#    y 0.000000 1.700440 0.000000 
#    z -0.001030 0.000000 1.707630 
# 
# From -- ./inp_files/57088.got.cif
#   From: 2010.05.17/outbox.cif.g08.bks.cpg/sg10_29_cif.got.tgz:57088.got - 2010.06.03 11:33:40.
