data_PCOD9144177
_publ_section_title
;
Structure prediction by ZEFSAII (Michael W. Deem and Ramdas Pophale) SiO2 
 PCOD9144177
Probable space group: P 2/M
;
_chemical_formula_sum "Si O2"
_cell_formula_units_Z 30
_cell_length_a 11.656415
_cell_length_b 9.619492
_cell_length_c 14.420900
_cell_angle_alpha 90.000000
_cell_angle_beta 54.732553
_cell_angle_gamma 90.000000
_cell_volume 1320.223586
_symmetry_space_group_name_H-M "P 2/M"
_symmetry_group_IT_number 10
_symmetry_cell_setting 'monoclinic'
loop_
_space_group_symop_operation_xyz
x,y,z
-x,y,-z
-x,-y,-z
x,-y,z
loop_
_atom_site_type_symbol
_atom_site_label
_atom_site_fract_x
_atom_site_fract_y
_atom_site_fract_z
Si Si1 0.163715 0.660878 0.841564
Si Si2 0.453389 0.271376 0.119990
Si Si3 0.255578 0.834779 0.465608
Si Si4 0.926313 0.338393 0.312594
Si Si5 0.824745 0.349449 0.659320
Si Si6 0.301913 0.000000 0.108246
Si Si7 0.734698 0.155599 0.054100
Si Si8 0.482451 0.342333 0.619515
O O1 0.147672 0.500000 0.877149
O O2 0.062499 0.689913 0.801788
O O3 0.159237 0.761675 0.931243
O O4 0.321055 0.677046 0.724336
O O5 0.331222 0.350704 0.227672
O O6 0.386685 0.120636 0.126516
O O7 0.591747 0.244677 0.115572
O O8 0.500000 0.333860 0.000000
O O9 0.181674 0.767105 0.589519
O O10 0.171331 0.772862 0.417171
O O11 0.411476 0.770706 0.388719
O O12 0.254997 0.000000 0.467213
O O13 0.876054 0.500000 0.343491
O O14 0.067689 0.328468 0.306664
O O15 0.853368 0.500000 0.601559
O O16 0.236437 0.119791 0.067411
O O17 0.708499 0.000000 0.106034
O O18 0.500000 0.334401 0.500000
O O19 0.524322 0.500000 0.627834
#
# Coordination Sequence:
#
# PCOD9144177 Si02
#       8
#     4   4   4   4   4   2   4   4
#     4  10  20  34  58  85 116 157 203 248 291 343
#     4  10  18  37  65  91 119 151 191 246 308 366
#     4  12  25  39  59  91 127 159 202 253 303 354
#     4  10  22  44  62  78 120 173 209 245 294 352
#     4  11  25  40  62  90 115 158 211 253 302 360
#     4   8  17  36  60  87 114 156 180 221 312 375
#     4   9  17  32  57  88 116 149 184 229 293 366
#     4  10  19  35  57  81 114 160 203 241 291 346
#
# _framework density 22.723423
#
# number of rings (size 3 to 8) (size 9 to 14) (size 15 to 20)
#    0.400    1.467    2.000    3.000    0.933    6.400 
#    0.000    2.000    0.000    4.000    0.000   11.200 
#    0.000    0.000    0.000    0.000    0.000    0.000 
#
# Total GULP energy -167125.518887 kJ/mol
# GULP energy per Si atom -5570.850630 kJ/mol
# Density = 2.267170 g / cm^3
# Si number density = 22.723423 Si / 1000 Ang^3
#
#
#
# Elastic Constant Matrix: (Units=GPa)
#
#
# Indices 1 2 3 4 5 6 
#
# 1 122.4332 60.3961 22.6572 0.0000 24.0792 0.0000
# 2 60.3961 128.4298 29.9205 0.0000 10.5628 0.0000
# 3 22.6572 29.9205 67.3897 0.0000 3.9069 0.0000
# 4 0.0000 0.0000 0.0000 6.3131 0.0000 16.7376
# 5 24.0792 10.5628 3.9069 0.0000 41.3833 0.0000
# 6 0.0000 0.0000 0.0000 16.7376 0.0000 41.4493
#
#
#
# Elastic Compliance Matrix: (Units=1/GPa)
#
#
# Indices 1 2 3 4 5 6 
#
# 1 0.011908 -0.004779 -0.001559 0.000000 -0.005561 0.000000
# 2 -0.004779 0.010748 -0.003185 0.000000 0.000338 0.000000
# 3 -0.001559 -0.003185 0.016769 0.000000 0.000137 0.000000
# 4 0.000000 0.000000 0.000000 -2.243715 0.000000 0.906032
# 5 -0.005561 0.000338 0.000137 0.000000 0.027301 0.000000
# 6 0.000000 0.000000 0.000000 0.906032 0.000000 -0.341738
#
#
# Mechanical properties :
#
#
# Convention : Reuss Voigt Hill
#
# Bulk Modulus (GPa) = 49.07069 60.46669 54.76869
# Shear Modulus (GPa) = -2.00571 31.51439 14.75434
#
# Velocity S-wave (km/s) = -0.94052 3.72811 2.55090
# Velocity P-wave (km/s) = 4.52352 6.72305 5.72981
#
# Compressibility (1/GPa) = 0.02037876
#
# Stress axis : x y z
#
# Youngs Moduli (GPa) = 83.98030 93.04093 59.63250
#
# Poissons Ratio (x) = 0.44465 0.09298
# Poissons Ratio (y) = 0.40135 0.18992
# Poissons Ratio (z) = 0.13094 0.29632
#
# Static dielectric constant tensor:
#      x y z
#    x 1.855230 0.000000 -0.035060 
#    y 0.000000 1.792010 0.000000 
#    z -0.035060 0.000000 1.933150 
# 
# From -- ./inp_files/63720.got.cif
#   From: 2010.05.17/outbox.cif.g08.bks.cpg/sg10_32_cif.got.tgz:63720.got - 2010.06.03 11:33:40.
