data_PCOD9144803
_publ_section_title
;
Structure prediction by ZEFSAII (Michael W. Deem and Ramdas Pophale) SiO2 
 PCOD9144803
Probable space group: P 2/M
;
_chemical_formula_sum "Si O2"
_cell_formula_units_Z 24
_cell_length_a 13.684721
_cell_length_b 7.495686
_cell_length_c 21.321829
_cell_angle_alpha 90.000000
_cell_angle_beta 35.333328
_cell_angle_gamma 90.000000
_cell_volume 1264.879656
_symmetry_space_group_name_H-M "P 2/M"
_symmetry_group_IT_number 10
_symmetry_cell_setting 'monoclinic'
loop_
_space_group_symop_operation_xyz
x,y,z
-x,y,-z
-x,-y,-z
x,-y,z
loop_
_atom_site_type_symbol
_atom_site_label
_atom_site_fract_x
_atom_site_fract_y
_atom_site_fract_z
Si Si1 0.959284 0.784257 0.592534
Si Si2 0.582703 0.205598 0.394850
Si Si3 0.323810 0.291996 0.423454
Si Si4 0.600471 0.206010 0.759608
Si Si5 0.867703 0.782013 0.157403
Si Si6 0.235455 0.218117 0.928719
O O1 0.125091 0.728656 0.543482
O O2 0.000000 0.725187 0.500000
O O3 0.768671 0.718808 0.704862
O O4 0.955030 0.000000 0.595213
O O5 0.500000 0.288769 0.500000
O O6 0.443201 0.208755 0.413112
O O7 0.751600 0.283001 0.274944
O O8 0.624123 0.000000 0.389240
O O9 0.363961 0.500000 0.397764
O O10 0.358670 0.209645 0.336592
O O11 0.412952 0.284064 0.863253
O O12 0.588867 0.000000 0.785545
O O13 0.787649 0.729135 0.132134
O O14 0.863972 0.000000 0.159847
O O15 0.063669 0.728308 0.053681
O O16 0.240450 0.000000 0.926128
#
# Coordination Sequence:
#
# PCOD9144803 Si02
#       6
#     4   4   4   4   4   4
#     4   8  15  26  41  60  83 111 141 173 208 252
#     4  10  19  31  47  63  82 112 148 180 207 245
#     4  11  20  28  40  59  87 117 141 175 213 249
#     4   9  15  26  44  64  86 113 142 170 207 255
#     4   8  13  22  39  64  86 106 136 172 211 248
#     4   8  12  20  40  65  87 108 132 169 210 251
#
# _framework density 18.974136000000001
#
# number of rings (size 3 to 8) (size 9 to 14) (size 15 to 20)
#    0.000    3.000    1.667    3.500    0.000    3.333 
#    0.000    0.000    0.000    2.000    0.000    1.167 
#    0.000    9.333    0.000    0.000    0.000    0.000 
#
# Total GULP energy -133640.604514 kJ/mol
# GULP energy per Si atom -5568.358521 kJ/mol
# Density = 1.893095 g / cm^3
# Si number density = 18.974136 Si / 1000 Ang^3
#
#
#
# Elastic Constant Matrix: (Units=GPa)
#
#
# Indices 1 2 3 4 5 6 
#
# 1 24.4436 -10.8736 43.1884 0.0000 -16.5124 0.0000
# 2 -10.8736 59.0794 1.0607 0.0000 0.2454 0.0000
# 3 43.1884 1.0607 167.9112 0.0000 -26.9859 0.0000
# 4 0.0000 0.0000 0.0000 38.3598 0.0000 -130.6105
# 5 -16.5124 0.2454 -26.9859 0.0000 37.7822 0.0000
# 6 0.0000 0.0000 0.0000 -130.6105 0.0000 336.7048
#
#
#
# Elastic Compliance Matrix: (Units=1/GPa)
#
#
# Indices 1 2 3 4 5 6 
#
# 1 0.117134 0.021868 -0.024922 0.000000 0.033249 0.000000
# 2 0.021868 0.021012 -0.004794 0.000000 0.005997 0.000000
# 3 -0.024922 -0.004794 0.012032 0.000000 -0.002267 0.000000
# 4 0.000000 0.000000 0.000000 -0.081268 0.000000 -0.031524
# 5 0.033249 0.005997 -0.002267 0.000000 0.039340 0.000000
# 6 0.000000 0.000000 0.000000 -0.031524 0.000000 -0.009259
#
#
# Mechanical properties :
#
#
# Convention : Reuss Voigt Hill
#
# Bulk Modulus (GPa) = 7.43596 35.35390 21.39493
# Shear Modulus (GPa) = 31.34496 97.10661 64.22579
#
# Velocity S-wave (km/s) = 4.06887 7.16167 5.82431
# Velocity P-wave (km/s) = 5.09919 9.33055 7.51867
#
# Compressibility (1/GPa) = 0.13448157
#
# Stress axis : x y z
#
# Youngs Moduli (GPa) = 8.53725 47.59113 83.11398
#
# Poissons Ratio (x) = -1.04072 2.07139
# Poissons Ratio (y) = -0.18669 0.39841
# Poissons Ratio (z) = 0.21277 0.22813
#
# Static dielectric constant tensor:
#      x y z
#    x 1.640630 0.000000 -0.053420 
#    y 0.000000 1.706160 0.000000 
#    z -0.053420 0.000000 1.713160 
# 
# From -- ./inp_files/45145.got.cif
#   From: 2010.05.17/outbox.cif.g08.bks.cpg/sg10_23_cif.got.tgz:45145.got - 2010.06.03 11:33:40.
