data_PCOD9144480
_publ_section_title
;
Structure prediction by ZEFSAII (Michael W. Deem and Ramdas Pophale) SiO2 
 PCOD9144480
Probable space group: P 2/M
;
_chemical_formula_sum "Si O2"
_cell_formula_units_Z 32
_cell_length_a 28.657622
_cell_length_b 7.727249
_cell_length_c 14.887597
_cell_angle_alpha 90.000000
_cell_angle_beta 150.749020
_cell_angle_gamma 90.000000
_cell_volume 1610.924801
_symmetry_space_group_name_H-M "P 2/M"
_symmetry_group_IT_number 10
_symmetry_cell_setting 'monoclinic'
loop_
_space_group_symop_operation_xyz
x,y,z
-x,y,-z
-x,-y,-z
x,-y,z
loop_
_atom_site_type_symbol
_atom_site_label
_atom_site_fract_x
_atom_site_fract_y
_atom_site_fract_z
Si Si1 0.389660 0.706753 0.290200
Si Si2 0.399337 0.205409 0.791228
Si Si3 0.443163 0.290649 0.189041
Si Si4 0.225157 0.198429 0.144600
Si Si5 0.652731 0.795031 0.492378
Si Si6 0.099759 0.201124 0.777559
Si Si7 0.298165 0.709547 0.796983
Si Si8 0.882713 0.702621 0.393272
O O1 0.500000 0.734969 0.500000
O O2 0.371343 0.500000 0.266883
O O3 0.383362 0.761304 0.176015
O O4 0.317319 0.799344 0.234334
O O5 0.366083 0.277758 0.639022
O O6 0.318525 0.232140 0.730516
O O7 0.414345 0.000000 0.803259
O O8 0.500000 0.276657 0.000000
O O9 0.447439 0.500000 0.197528
O O10 0.551081 0.226366 0.371038
O O11 0.388540 0.232289 0.008452
O O12 0.263914 0.277511 0.303094
O O13 0.196425 0.000000 0.115798
O O14 0.144170 0.277249 0.943712
O O15 0.671813 0.000000 0.515711
O O16 0.136710 0.280864 0.746118
O O17 0.985304 0.213607 0.583822
O O18 0.127186 0.000000 0.820290
O O19 0.297201 0.500000 0.796991
O O20 0.202691 0.769416 0.687574
O O21 0.894135 0.500000 0.431518
#
# Coordination Sequence:
#
# PCOD9144480 Si02
#       8
#     4   4   4   4   4   4   4   4
#     4  10  19  30  45  68 100 135 171 207 242 294
#     4  10  20  34  52  75 101 134 176 218 260 303
#     4  10  19  31  46  69 100 134 167 203 247 297
#     4  10  21  34  50  72 102 139 173 208 254 305
#     4  10  20  34  49  69 100 135 171 209 248 299
#     4  10  20  35  55  81 108 136 172 212 256 308
#     4  10  21  34  52  76 103 133 169 213 261 311
#     4  10  20  36  57  81 106 136 170 211 263 311
#
# _framework density 19.864366
#
# number of rings (size 3 to 8) (size 9 to 14) (size 15 to 20)
#    0.000    2.000    2.500    2.250    0.000    4.500 
#    0.000    0.000    0.000    0.750    0.000    5.250 
#    0.000    0.000    0.000    0.000    0.000    0.000 
#
# Total GULP energy -178549.786891 kJ/mol
# GULP energy per Si atom -5579.680840 kJ/mol
# Density = 1.981915 g / cm^3
# Si number density = 19.864366 Si / 1000 Ang^3
#
#
#
# Elastic Constant Matrix: (Units=GPa)
#
#
# Indices 1 2 3 4 5 6 
#
# 1 93.5641 -5.6921 54.0884 0.0000 -20.1255 0.0000
# 2 -5.6921 30.6075 2.5742 0.0000 -2.5793 0.0000
# 3 54.0884 2.5742 127.9204 0.0000 -27.4680 0.0000
# 4 0.0000 0.0000 0.0000 2.5389 0.0000 4.4874
# 5 -20.1255 -2.5793 -27.4680 0.0000 35.2861 0.0000
# 6 0.0000 0.0000 0.0000 4.4874 0.0000 19.2137
#
#
#
# Elastic Compliance Matrix: (Units=1/GPa)
#
#
# Indices 1 2 3 4 5 6 
#
# 1 0.015050 0.003645 -0.005447 0.000000 0.004610 0.000000
# 2 0.003645 0.033761 -0.001494 0.000000 0.003384 0.000000
# 3 -0.005447 -0.001494 0.011359 0.000000 0.005626 0.000000
# 4 0.000000 0.000000 0.000000 0.670754 0.000000 -0.156657
# 5 0.004610 0.003384 0.005626 0.000000 0.035596 0.000000
# 6 0.000000 0.000000 0.000000 -0.156657 0.000000 0.088634
#
#
# Mechanical properties :
#
#
# Convention : Reuss Voigt Hill
#
# Bulk Modulus (GPa) = 18.66444 39.33701 29.00072
# Shear Modulus (GPa) = 5.68437 24.81585 15.25011
#
# Velocity S-wave (km/s) = 1.69346 3.53833 2.77377
# Velocity P-wave (km/s) = 3.63869 6.04473 4.98893
#
# Compressibility (1/GPa) = 0.05357781
#
# Stress axis : x y z
#
# Youngs Moduli (GPa) = 66.44448 29.62039 88.03848
#
# Poissons Ratio (x) = -0.10798 0.47955
# Poissons Ratio (y) = -0.24222 0.13155
# Poissons Ratio (z) = 0.36193 0.04426
#
# Static dielectric constant tensor:
#      x y z
#    x 1.690640 0.000000 -0.045640 
#    y 0.000000 1.722530 0.000000 
#    z -0.045640 0.000000 1.746000 
# 
# From -- ./inp_files/72575.got.cif
#   From: 2010.05.17/outbox.cif.g08.bks.cpg/sg10_37_cif.got.tgz:72575.got - 2010.06.03 11:33:40.
