data_PCOD9144607
_publ_section_title
;
Structure prediction by ZEFSAII (Michael W. Deem and Ramdas Pophale) SiO2 
 PCOD9144607
Probable space group: P 2/M
;
_chemical_formula_sum "Si O2"
_cell_formula_units_Z 32
_cell_length_a 14.933017
_cell_length_b 8.665081
_cell_length_c 16.236164
_cell_angle_alpha 90.000000
_cell_angle_beta 62.834793
_cell_angle_gamma 90.000000
_cell_volume 1869.150071
_symmetry_space_group_name_H-M "P 2/M"
_symmetry_group_IT_number 10
_symmetry_cell_setting 'monoclinic'
loop_
_space_group_symop_operation_xyz
x,y,z
-x,y,-z
-x,-y,-z
x,-y,z
loop_
_atom_site_type_symbol
_atom_site_label
_atom_site_fract_x
_atom_site_fract_y
_atom_site_fract_z
Si Si1 0.956338 0.185825 0.895472
Si Si2 0.883989 0.815053 0.446679
Si Si3 0.850095 0.314098 0.099420
Si Si4 0.221988 0.315859 0.351064
Si Si5 0.354419 0.686056 0.729454
Si Si6 0.421912 0.686415 0.358861
Si Si7 0.321501 0.183688 0.561673
Si Si8 0.088863 0.814024 0.271604
O O1 0.921159 0.232758 0.819267
O O2 0.065774 0.254055 0.871845
O O3 0.962409 0.000000 0.896594
O O4 0.882533 0.246076 0.997813
O O5 0.854681 0.738214 0.545124
O O6 0.791733 0.783882 0.423051
O O7 0.988370 0.763441 0.362855
O O8 0.888642 0.000000 0.457757
O O9 0.854945 0.500000 0.093980
O O10 0.739694 0.264144 0.175450
O O11 0.222130 0.500000 0.347118
O O12 0.332382 0.262658 0.335470
O O13 0.184061 0.248732 0.281082
O O14 0.353033 0.500000 0.728778
O O15 0.465518 0.735338 0.711911
O O16 0.339298 0.744495 0.643026
O O17 0.418960 0.500000 0.363323
O O18 0.394420 0.748617 0.460970
O O19 0.334582 0.000000 0.560192
O O20 0.090659 0.000000 0.272989
#
# Coordination Sequence:
#
# PCOD9144607 Si02
#       8
#     4   4   4   4   4   4   4   4
#     4  10  20  35  54  75 101 130 155 187 240 297
#     4   9  18  32  47  66  98 133 159 189 233 285
#     4  10  20  34  53  77 101 125 157 197 238 282
#     4  10  20  32  48  70  95 125 163 204 238 272
#     4  10  20  33  50  70  96 131 164 196 239 289
#     4   9  19  35  49  65  96 134 166 197 240 287
#     4  10  19  30  47  73 101 128 163 202 237 280
#     4  10  20  33  50  70  94 128 163 192 233 289
#
# _framework density 17.120080000000002
#
# number of rings (size 3 to 8) (size 9 to 14) (size 15 to 20)
#    0.000    2.250    0.000    3.750    0.000    8.000 
#    0.000    0.000    0.000    0.750    0.000    5.250 
#    0.000    0.000    0.000    0.000    0.000    0.000 
#
# Total GULP energy -178605.588964 kJ/mol
# GULP energy per Si atom -5581.424655 kJ/mol
# Density = 1.708111 g / cm^3
# Si number density = 17.120080 Si / 1000 Ang^3
#
#
#
# Elastic Constant Matrix: (Units=GPa)
#
#
# Indices 1 2 3 4 5 6 
#
# 1 119.1582 27.9606 92.5233 0.0000 -0.6439 0.0000
# 2 27.9606 18.5263 24.3940 0.0000 0.9047 0.0000
# 3 92.5233 24.3940 98.4335 0.0000 -0.6352 0.0000
# 4 0.0000 0.0000 0.0000 16.8237 0.0000 5.8744
# 5 -0.6439 0.9047 -0.6352 0.0000 33.5347 0.0000
# 6 0.0000 0.0000 0.0000 5.8744 0.0000 21.7595
#
#
#
# Elastic Compliance Matrix: (Units=1/GPa)
#
#
# Indices 1 2 3 4 5 6 
#
# 1 0.033162 -0.013408 -0.027845 0.000000 0.000471 0.000000
# 2 -0.013408 0.085760 -0.008668 0.000000 -0.002735 0.000000
# 3 -0.027845 -0.008668 0.038483 0.000000 0.000428 0.000000
# 4 0.000000 0.000000 0.000000 0.065626 0.000000 -0.017717
# 5 0.000471 -0.002735 0.000428 0.000000 0.029911 0.000000
# 6 0.000000 0.000000 0.000000 -0.017717 0.000000 0.050740
#
#
# Mechanical properties :
#
#
# Convention : Reuss Voigt Hill
#
# Bulk Modulus (GPa) = 17.37224 58.43042 37.90133
# Shear Modulus (GPa) = 11.82843 20.50626 16.16734
#
# Velocity S-wave (km/s) = 2.63137 3.46466 3.07636
# Velocity P-wave (km/s) = 4.40471 7.08583 5.89960
#
# Compressibility (1/GPa) = 0.05756309
#
# Stress axis : x y z
#
# Youngs Moduli (GPa) = 30.15535 11.66047 25.98559
#
# Poissons Ratio (x) = 0.15634 0.72356
# Poissons Ratio (y) = 0.40432 0.22524
# Poissons Ratio (z) = 0.83967 0.10107
#
# Static dielectric constant tensor:
#      x y z
#    x 1.599670 0.000000 -0.013200 
#    y 0.000000 1.577460 0.000000 
#    z -0.013200 0.000000 1.554550 
# 
# From -- ./inp_files/66487.got.cif
#   From: 2010.05.17/outbox.cif.g08.bks.cpg/sg10_34_cif.got.tgz:66487.got - 2010.06.03 11:33:40.
