data_PCOD9144693
_publ_section_title
;
Structure prediction by ZEFSAII (Michael W. Deem and Ramdas Pophale) SiO2 
 PCOD9144693
Probable space group: P 2/M
;
_chemical_formula_sum "Si O2"
_cell_formula_units_Z 32
_cell_length_a 26.802438
_cell_length_b 8.581898
_cell_length_c 15.091382
_cell_angle_alpha 90.000000
_cell_angle_beta 147.585451
_cell_angle_gamma 90.000000
_cell_volume 1860.736223
_symmetry_space_group_name_H-M "P 2/M"
_symmetry_group_IT_number 10
_symmetry_cell_setting 'monoclinic'
loop_
_space_group_symop_operation_xyz
x,y,z
-x,y,-z
-x,-y,-z
x,-y,z
loop_
_atom_site_type_symbol
_atom_site_label
_atom_site_fract_x
_atom_site_fract_y
_atom_site_fract_z
Si Si1 0.105091 0.189878 0.759632
Si Si2 0.353909 0.686503 0.430312
Si Si3 0.439695 0.813074 0.254984
Si Si4 0.892705 0.189889 0.439113
Si Si5 0.347181 0.312539 0.621718
Si Si6 0.727179 0.811576 0.865145
Si Si7 0.275706 0.186327 0.690794
Si Si8 0.437756 0.313191 0.056772
O O1 0.129849 0.237228 0.695958
O O2 0.998728 0.238663 0.618030
O O3 0.106103 0.000000 0.761473
O O4 0.180822 0.241320 0.944517
O O5 0.359694 0.500000 0.437746
O O6 0.457365 0.752822 0.568011
O O7 0.326747 0.734339 0.489720
O O8 0.285801 0.745574 0.252175
O O9 0.362624 0.765244 0.210889
O O10 0.441282 0.000000 0.253880
O O11 0.414726 0.748965 0.120345
O O12 0.815643 0.242917 0.393255
O O13 0.892322 0.000000 0.439149
O O14 0.342356 0.500000 0.619810
O O15 0.282866 0.241450 0.600625
O O16 0.455094 0.267128 0.801264
O O17 0.728165 0.000000 0.862250
O O18 0.365751 0.248452 0.878029
O O19 0.276537 0.000000 0.694978
O O20 0.434179 0.500000 0.051603
#
# Coordination Sequence:
#
# PCOD9144693 Si02
#       8
#     4   4   4   4   4   4   4   4
#     4   8  14  28  49  71  99 129 151 182 234 288
#     4  10  21  35  49  66  94 132 167 197 234 284
#     4  10  19  31  48  73 102 126 157 201 239 276
#     4   8  15  28  47  73 101 125 151 186 233 288
#     4   9  20  36  48  62  90 129 167 198 233 281
#     4  10  19  30  49  75  98 124 160 200 240 281
#     4  11  20  29  48  76  98 120 158 203 242 282
#     4  10  20  33  48  68  98 134 165 192 230 285
#
# _framework density 17.197493999999999
#
# number of rings (size 3 to 8) (size 9 to 14) (size 15 to 20)
#    0.000    2.500    0.000    4.500    0.000    9.000 
#    0.000    0.000    0.000    2.250    0.000   10.500 
#    0.000    0.000    0.000    0.000    0.000    0.000 
#
# Total GULP energy -178536.839526 kJ/mol
# GULP energy per Si atom -5579.276235 kJ/mol
# Density = 1.715835 g / cm^3
# Si number density = 17.197494 Si / 1000 Ang^3
#
#
#
# Elastic Constant Matrix: (Units=GPa)
#
#
# Indices 1 2 3 4 5 6 
#
# 1 146.2655 28.4993 82.3879 0.0000 -5.6928 0.0000
# 2 28.4993 19.1551 21.7622 0.0000 -0.6682 0.0000
# 3 82.3879 21.7622 123.9198 0.0000 -15.9803 0.0000
# 4 0.0000 0.0000 0.0000 -77.7832 0.0000 -204.7313
# 5 -5.6928 -0.6682 -15.9803 0.0000 9.3667 0.0000
# 6 0.0000 0.0000 0.0000 -204.7313 0.0000 -412.4369
#
#
#
# Elastic Compliance Matrix: (Units=1/GPa)
#
#
# Indices 1 2 3 4 5 6 
#
# 1 0.012922 -0.011059 -0.007356 0.000000 -0.005486 0.000000
# 2 -0.011059 0.077457 -0.008211 0.000000 -0.015204 0.000000
# 3 -0.007356 -0.008211 0.017629 0.000000 0.025020 0.000000
# 4 0.000000 0.000000 0.000000 0.041939 0.000000 -0.020818
# 5 -0.005486 -0.015204 0.025020 0.000000 0.145029 0.000000
# 6 0.000000 0.000000 0.000000 -0.020818 0.000000 0.007909
#
#
# Mechanical properties :
#
#
# Convention : Reuss Voigt Hill
#
# Bulk Modulus (GPa) = 18.26296 61.62659 39.94477
# Shear Modulus (GPa) = 13.35508 -85.72463 -36.18477
#
# Velocity S-wave (km/s) = 2.78973 -7.06791 -4.59199
# Velocity P-wave (km/s) = 4.58469 5.54028 2.19947
#
# Compressibility (1/GPa) = 0.05475564
#
# Stress axis : x y z
#
# Youngs Moduli (GPa) = 77.38805 12.91038 56.72454
#
# Poissons Ratio (x) = 0.14278 0.41729
# Poissons Ratio (y) = 0.85584 0.46574
# Poissons Ratio (z) = 0.56930 0.10600
#
# Static dielectric constant tensor:
#      x y z
#    x 1.584860 0.000000 -0.002320 
#    y 0.000000 1.584870 0.000000 
#    z -0.002320 0.000000 1.574340 
# 
# From -- ./inp_files/72232.got.cif
#   From: 2010.05.17/outbox.cif.g08.bks.cpg/sg10_37_cif.got.tgz:72232.got - 2010.06.03 11:33:40.
