data_PCOD9144451
_publ_section_title
;
Structure prediction by ZEFSAII (Michael W. Deem and Ramdas Pophale) SiO2 
 PCOD9144451
Probable space group: P 2/M
;
_chemical_formula_sum "Si O2"
_cell_formula_units_Z 24
_cell_length_a 9.206838
_cell_length_b 20.361358
_cell_length_c 7.596578
_cell_angle_alpha 90.000000
_cell_angle_beta 127.993068
_cell_angle_gamma 90.000000
_cell_volume 1122.298632
_symmetry_space_group_name_H-M "P 2/M"
_symmetry_group_IT_number 10
_symmetry_cell_setting 'monoclinic'
loop_
_space_group_symop_operation_xyz
x,y,z
-x,y,-z
-x,-y,-z
x,-y,z
loop_
_atom_site_type_symbol
_atom_site_label
_atom_site_fract_x
_atom_site_fract_y
_atom_site_fract_z
Si Si1 0.674963 0.575549 0.506976
Si Si2 0.045939 0.825270 0.822336
Si Si3 0.197714 0.429888 0.756984
Si Si4 0.994377 0.677806 0.201186
Si Si5 0.247028 0.927284 0.469154
Si Si6 0.655432 0.926320 0.877924
O O1 0.500000 0.586542 0.500000
O O2 0.742654 0.500000 0.598123
O O3 0.645699 0.574514 0.274395
O O4 0.820964 0.634690 0.631657
O O5 0.032247 0.750779 0.744346
O O6 0.894556 0.869207 0.612609
O O7 0.234795 0.866636 0.953333
O O8 0.000000 0.824759 0.000000
O O9 0.211211 0.500000 0.860899
O O10 0.173045 0.368303 0.862354
O O11 0.000000 0.431387 0.500000
O O12 0.000000 0.686717 0.000000
O O13 0.435836 0.918745 0.716349
O O14 0.294681 0.926584 0.294490
O O15 0.171783 0.000000 0.450251
O O16 0.704111 0.000000 0.979663
#
# Coordination Sequence:
#
# PCOD9144451 Si02
#       6
#     4   4   4   4   4   4
#     4   9  18  35  56  77  98 127 171 216 261 310
#     4   9  16  25  35  60  97 134 170 211 256 306
#     4   8  15  30  53  73  96 133 172 211 253 305
#     4  10  19  30  44  74 106 140 174 205 255 312
#     4   8  13  22  37  57  82 127 178 215 258 302
#     4   8  13  22  37  56  84 127 175 220 259 299
#
# _framework density 21.384682999999999
#
# number of rings (size 3 to 8) (size 9 to 14) (size 15 to 20)
#    0.000    3.333    0.000    3.000    0.000    3.333 
#    9.000    0.833    0.000    3.000    0.000    0.000 
#    0.000   24.000    0.000   34.333    0.000    4.833 
#
# Total GULP energy -133688.741204 kJ/mol
# GULP energy per Si atom -5570.364217 kJ/mol
# Density = 2.133601 g / cm^3
# Si number density = 21.384683 Si / 1000 Ang^3
#
#
#
# Elastic Constant Matrix: (Units=GPa)
#
#
# Indices 1 2 3 4 5 6 
#
# 1 100.2040 64.4270 14.9990 0.0000 2.7289 0.0000
# 2 64.4270 244.7793 60.0138 0.0000 25.2818 0.0000
# 3 14.9990 60.0138 45.0833 0.0000 13.7060 0.0000
# 4 0.0000 0.0000 0.0000 29.3945 0.0000 -5.2564
# 5 2.7289 25.2818 13.7060 0.0000 19.3665 0.0000
# 6 0.0000 0.0000 0.0000 -5.2564 0.0000 -15.0917
#
#
#
# Elastic Compliance Matrix: (Units=1/GPa)
#
#
# Indices 1 2 3 4 5 6 
#
# 1 0.012152 -0.003406 -0.000433 0.000000 0.003041 0.000000
# 2 -0.003406 0.007142 -0.007244 0.000000 -0.003717 0.000000
# 3 -0.000433 -0.007244 0.037045 0.000000 -0.016700 0.000000
# 4 0.000000 0.000000 0.000000 0.032025 0.000000 -0.011154
# 5 0.003041 -0.003717 -0.016700 0.000000 0.067878 0.000000
# 6 0.000000 0.000000 0.000000 -0.011154 0.000000 -0.062377
#
#
# Mechanical properties :
#
#
# Convention : Reuss Voigt Hill
#
# Bulk Modulus (GPa) = 29.26321 74.32734 51.79527
# Shear Modulus (GPa) = 39.23983 23.44232 31.34107
#
# Velocity S-wave (km/s) = 4.28828 3.31451 3.83245
# Velocity P-wave (km/s) = 6.18328 7.03425 6.62245
#
# Compressibility (1/GPa) = 0.03417261
#
# Stress axis : x y z
#
# Youngs Moduli (GPa) = 82.29269 140.02245 26.99426
#
# Poissons Ratio (x) = 0.47696 0.01168
# Poissons Ratio (y) = 0.28032 0.19554
# Poissons Ratio (z) = 0.03562 1.01428
#
# Static dielectric constant tensor:
#      x y z
#    x 1.824040 0.000000 -0.029090 
#    y 0.000000 1.806170 0.000000 
#    z -0.029090 0.000000 1.853470 
# 
# From -- ./inp_files/20272.got.cif
#   From: 2010.05.17/outbox.cif.g08.bks.cpg/sg10_11_cif.got.tgz:20272.got - 2010.06.03 11:33:40.
