data_PCOD9144603
_publ_section_title
;
Structure prediction by ZEFSAII (Michael W. Deem and Ramdas Pophale) SiO2 
 PCOD9144603
Probable space group: P 2/M
;
_chemical_formula_sum "Si O2"
_cell_formula_units_Z 32
_cell_length_a 7.577890
_cell_length_b 10.553331
_cell_length_c 20.436367
_cell_angle_alpha 90.000000
_cell_angle_beta 98.819785
_cell_angle_gamma 90.000000
_cell_volume 1615.011539
_symmetry_space_group_name_H-M "P 2/M"
_symmetry_group_IT_number 10
_symmetry_cell_setting 'monoclinic'
loop_
_space_group_symop_operation_xyz
x,y,z
-x,y,-z
-x,-y,-z
x,-y,z
loop_
_atom_site_type_symbol
_atom_site_label
_atom_site_fract_x
_atom_site_fract_y
_atom_site_fract_z
Si Si1 0.038646 0.847541 0.106747
Si Si2 0.699456 0.152306 0.993913
Si Si3 0.328285 0.134460 0.536006
Si Si4 0.809285 0.361723 0.642805
Si Si5 0.839335 0.364271 0.420149
Si Si6 0.615442 0.358456 0.271345
Si Si7 0.029287 0.358968 0.789949
Si Si8 0.566500 0.856662 0.673156
O O1 0.030277 0.756568 0.168411
O O2 0.205951 0.811729 0.069344
O O3 0.046970 0.000000 0.120448
O O4 0.853002 0.822980 0.056710
O O5 0.684178 0.000000 0.989816
O O6 0.500000 0.201575 0.000000
O O7 0.500000 0.151522 0.500000
O O8 0.205468 0.254684 0.532521
O O9 0.400922 0.125410 0.614513
O O10 0.243991 0.000000 0.512462
O O11 0.715243 0.500000 0.629787
O O12 0.696223 0.233880 0.638425
O O13 0.965393 0.355208 0.599119
O O14 0.906692 0.363111 0.718649
O O15 0.811864 0.500000 0.450800
O O16 0.712786 0.362496 0.348046
O O17 0.534196 0.500000 0.257000
O O18 0.769327 0.341349 0.226126
O O19 0.489180 0.235493 0.270031
O O20 0.019357 0.500000 0.820513
O O21 0.629764 0.000000 0.693199
#
# Coordination Sequence:
#
# PCOD9144603 Si02
#       8
#     4   4   4   4   4   4   4   4
#     4   9  17  30  52  77  99 131 172 213 253 290
#     4   8  15  31  52  72  99 137 174 206 250 301
#     4   9  18  32  48  67  93 122 152 193 247 296
#     4   9  18  33  50  67  95 132 159 187 240 299
#     4   8  15  29  49  68  84 116 163 194 222 276
#     4   8  15  30  49  65  89 126 158 186 233 290
#     4   9  18  33  51  71  98 131 160 194 246 297
#     4  10  19  30  47  72  95 120 159 201 237 281
#
# _framework density 19.814101000000001
#
# number of rings (size 3 to 8) (size 9 to 14) (size 15 to 20)
#    0.000    3.250    0.000    2.625    0.000    2.250 
#    2.250    4.375    0.000    4.500    0.000    0.000 
#    0.000    0.000    0.000    0.000    0.000    0.000 
#
# Total GULP energy -178145.346041 kJ/mol
# GULP energy per Si atom -5567.042064 kJ/mol
# Density = 1.976900 g / cm^3
# Si number density = 19.814101 Si / 1000 Ang^3
#
#
#
# Elastic Constant Matrix: (Units=GPa)
#
#
# Indices 1 2 3 4 5 6 
#
# 1 69.2800 56.6864 8.9558 0.0000 -16.9727 0.0000
# 2 56.6864 185.7376 46.5749 0.0000 -22.7878 0.0000
# 3 8.9558 46.5749 58.2861 0.0000 -14.6820 0.0000
# 4 0.0000 0.0000 0.0000 26.5485 0.0000 3.3819
# 5 -16.9727 -22.7878 -14.6820 0.0000 14.5006 0.0000
# 6 0.0000 0.0000 0.0000 3.3819 0.0000 17.4927
#
#
#
# Elastic Compliance Matrix: (Units=1/GPa)
#
#
# Indices 1 2 3 4 5 6 
#
# 1 0.025513 -0.006409 0.008305 0.000000 0.028199 0.000000
# 2 -0.006409 0.008898 -0.006031 0.000000 0.000375 0.000000
# 3 0.008305 -0.006031 0.027869 0.000000 0.028460 0.000000
# 4 0.000000 0.000000 0.000000 0.038618 0.000000 -0.007466
# 5 0.028199 0.000375 0.028460 0.000000 0.131375 0.000000
# 6 0.000000 0.000000 0.000000 -0.007466 0.000000 0.058610
#
#
# Mechanical properties :
#
#
# Convention : Reuss Voigt Hill
#
# Bulk Modulus (GPa) = 18.51543 59.74865 39.13204
# Shear Modulus (GPa) = 15.76496 25.11413 20.43955
#
# Velocity S-wave (km/s) = 2.82378 3.56404 3.21528
# Velocity P-wave (km/s) = 4.47174 6.86707 5.79453
#
# Compressibility (1/GPa) = 0.05400902
#
# Stress axis : x y z
#
# Youngs Moduli (GPa) = 39.19533 112.37940 35.88208
#
# Poissons Ratio (x) = 0.72027 -0.29798
# Poissons Ratio (y) = 0.25121 0.21641
# Poissons Ratio (z) = -0.32550 0.67778
#
# Static dielectric constant tensor:
#      x y z
#    x 1.744050 0.000000 0.016690 
#    y 0.000000 1.761610 0.000000 
#    z 0.016690 0.000000 1.696760 
# 
# From -- ./inp_files/87719.got.cif
#   From: 2010.05.17/outbox.cif.g08.bks.cpg/sg10_44_cif.got.tgz:87719.got - 2010.06.03 11:33:40.
