data_PCOD9144209
_publ_section_title
;
Structure prediction by ZEFSAII (Michael W. Deem and Ramdas Pophale) SiO2 
 PCOD9144209
Probable space group: P 2/M
;
_chemical_formula_sum "Si O2"
_cell_formula_units_Z 32
_cell_length_a 24.521289
_cell_length_b 7.644422
_cell_length_c 17.192575
_cell_angle_alpha 90.000000
_cell_angle_beta 29.284286
_cell_angle_gamma 90.000000
_cell_volume 1576.394640
_symmetry_space_group_name_H-M "P 2/M"
_symmetry_group_IT_number 10
_symmetry_cell_setting 'monoclinic'
loop_
_space_group_symop_operation_xyz
x,y,z
-x,y,-z
-x,-y,-z
x,-y,z
loop_
_atom_site_type_symbol
_atom_site_label
_atom_site_fract_x
_atom_site_fract_y
_atom_site_fract_z
Si Si1 0.773906 0.704933 0.970023
Si Si2 0.527599 0.793984 0.233955
Si Si3 0.898370 0.207426 0.963987
Si Si4 0.183317 0.197826 0.777002
Si Si5 0.974437 0.294085 0.616659
Si Si6 0.581714 0.709255 0.466101
Si Si7 0.708864 0.785582 0.518173
Si Si8 0.103603 0.211521 0.601874
O O1 0.794583 0.500000 0.952303
O O2 0.868965 0.782489 0.795109
O O3 0.653603 0.726403 0.080141
O O4 0.794674 0.770938 0.032577
O O5 0.482326 0.754608 0.375983
O O6 0.420158 0.726707 0.318943
O O7 0.536148 0.000000 0.208800
O O8 0.891322 0.280127 0.061112
O O9 0.912199 0.000000 0.957564
O O10 0.004452 0.272957 0.782948
O O11 0.301241 0.194696 0.675854
O O12 0.222477 0.274431 0.644909
O O13 0.143310 0.000000 0.810108
O O14 0.950080 0.500000 0.635754
O O15 0.000000 0.219067 0.500000
O O16 0.076534 0.275913 0.549486
O O17 0.500000 0.762742 0.500000
O O18 0.602264 0.500000 0.435318
O O19 0.780287 0.736224 0.504048
O O20 0.706452 0.000000 0.514899
O O21 0.099250 0.000000 0.605804
#
# Coordination Sequence:
#
# PCOD9144209 Si02
#       8
#     4   4   4   4   4   4   4   4
#     4  10  19  31  49  72  97 123 153 193 240 284
#     4  10  19  31  47  66  92 126 161 195 233 279
#     4   9  17  28  45  69  95 125 161 201 242 283
#     4   9  17  28  41  60  89 127 166 199 235 276
#     4   9  19  36  56  77 100 123 147 182 233 289
#     4  10  19  28  39  58  85 120 163 208 247 276
#     4   8  16  30  46  66  94 129 165 199 232 268
#     4   9  17  31  51  74  98 123 156 196 236 280
#
# _framework density 20.299486999999999
#
# number of rings (size 3 to 8) (size 9 to 14) (size 15 to 20)
#    0.000    2.750    0.000    2.625    0.000    4.750 
#    0.000    5.625    0.000    0.750    0.000   12.250 
#    0.000    0.000    0.000    0.000    0.000    0.000 
#
# Total GULP energy -178227.120198 kJ/mol
# GULP energy per Si atom -5569.597506 kJ/mol
# Density = 2.025328 g / cm^3
# Si number density = 20.299487 Si / 1000 Ang^3
#
#
#
# Elastic Constant Matrix: (Units=GPa)
#
#
# Indices 1 2 3 4 5 6 
#
# 1 108.2015 -10.9915 43.2194 0.0000 -8.1843 0.0000
# 2 -10.9915 38.7852 -3.7111 0.0000 3.6034 0.0000
# 3 43.2194 -3.7111 49.7029 0.0000 -4.3463 0.0000
# 4 0.0000 0.0000 0.0000 3.3189 0.0000 0.0339
# 5 -8.1843 3.6034 -4.3463 0.0000 31.5000 0.0000
# 6 0.0000 0.0000 0.0000 0.0339 0.0000 14.2299
#
#
#
# Elastic Compliance Matrix: (Units=1/GPa)
#
#
# Indices 1 2 3 4 5 6 
#
# 1 0.014577 0.002789 -0.012313 0.000000 0.001770 0.000000
# 2 0.002789 0.026737 -0.000640 0.000000 -0.002422 0.000000
# 3 -0.012313 -0.000640 0.030878 0.000000 0.001135 0.000000
# 4 0.000000 0.000000 0.000000 0.301312 0.000000 -0.000718
# 5 0.001770 -0.002422 0.001135 0.000000 0.032639 0.000000
# 6 0.000000 0.000000 0.000000 -0.000718 0.000000 0.070276
#
#
# Mechanical properties :
#
#
# Convention : Reuss Voigt Hill
#
# Bulk Modulus (GPa) = 19.28158 28.19145 23.73652
# Shear Modulus (GPa) = 9.72695 21.02129 15.37412
#
# Velocity S-wave (km/s) = 2.19137 3.22150 2.75501
# Velocity P-wave (km/s) = 3.99024 5.26833 4.67319
#
# Compressibility (1/GPa) = 0.05186296
#
# Stress axis : x y z
#
# Youngs Moduli (GPa) = 68.59992 37.40121 32.38598
#
# Poissons Ratio (x) = -0.10430 0.39876
# Poissons Ratio (y) = -0.19130 0.02074
# Poissons Ratio (z) = 0.84466 0.02395
#
# Static dielectric constant tensor:
#      x y z
#    x 1.750380 0.000000 -0.026910 
#    y 0.000000 1.763740 0.000000 
#    z -0.026910 0.000000 1.772450 
# 
# From -- ./inp_files/79930.got.cif
#   From: 2010.05.17/outbox.cif.g08.bks.cpg/sg10_40_cif.got.tgz:79930.got - 2010.06.03 11:33:40.
