data_PCOD9144999
_publ_section_title
;
Structure prediction by ZEFSAII (Michael W. Deem and Ramdas Pophale) SiO2 
 PCOD9144999
Probable space group: P 2/M
;
_chemical_formula_sum "Si O2"
_cell_formula_units_Z 26
_cell_length_a 21.164308
_cell_length_b 19.925737
_cell_length_c 17.974655
_cell_angle_alpha 90.000000
_cell_angle_beta 168.058614
_cell_angle_gamma 90.000000
_cell_volume 1568.420331
_symmetry_space_group_name_H-M "P 2/M"
_symmetry_group_IT_number 10
_symmetry_cell_setting 'monoclinic'
loop_
_space_group_symop_operation_xyz
x,y,z
-x,y,-z
-x,-y,-z
x,-y,z
loop_
_atom_site_type_symbol
_atom_site_label
_atom_site_fract_x
_atom_site_fract_y
_atom_site_fract_z
Si Si1 0.196159 0.924580 0.302027
Si Si2 0.542589 0.619987 0.355778
Si Si3 0.157382 0.422938 0.777385
Si Si4 0.988183 0.707266 0.775892
Si Si5 0.699154 0.841565 0.805339
Si Si6 0.358228 0.500000 0.418189
Si Si7 0.596781 0.665019 0.189273
O O1 0.463250 0.871123 0.594000
O O2 0.307909 0.000000 0.446332
O O3 0.000000 0.927461 0.000000
O O4 0.950391 0.898306 0.077582
O O5 0.838640 0.660574 0.668065
O O6 0.566175 0.566910 0.448883
O O7 0.415364 0.579867 0.138441
O O8 0.285509 0.672638 0.083529
O O9 0.897790 0.500000 0.305992
O O10 0.858237 0.388421 0.467378
O O11 0.310173 0.377179 0.889986
O O12 0.738715 0.708501 0.420771
O O13 0.110994 0.776833 0.950245
O O14 0.500000 0.828533 0.500000
O O15 0.500000 0.500000 0.500000
O O16 0.000000 0.500000 0.000000
O O17 0.500000 0.699816 0.000000
#
# Coordination Sequence:
#
# PCOD9144999 Si02
#       7
#     4   4   4   4   4   2   4
#     4   9  17  30  49  74 105 133 157 193 235 274
#     4  10  21  37  49  66  92 125 163 208 258 297
#     4  10  19  33  52  67  90 121 149 197 259 315
#     4  10  21  35  53  69  98 133 160 205 249 287
#     4  10  19  31  49  74 100 132 168 193 226 289
#     4  12  24  36  52  70  87 120 171 218 256 298
#     4  10  21  33  48  72  96 121 157 200 250 305
#
# _framework density 16.577189000000001
#
# number of rings (size 3 to 8) (size 9 to 14) (size 15 to 20)
#    0.000    2.000    0.769    3.231    0.000    5.538 
#    0.000    0.000    0.000    0.000    0.000    0.000 
#    0.000    3.692    0.000    0.000    0.000    0.000 
#
# Total GULP energy -144911.238443 kJ/mol
# GULP energy per Si atom -5573.509171 kJ/mol
# Density = 1.653946 g / cm^3
# Si number density = 16.577189 Si / 1000 Ang^3
#
#
#
# Elastic Constant Matrix: (Units=GPa)
#
#
# Indices 1 2 3 4 5 6 
#
# 1 83.1124 23.8774 25.3165 0.0000 0.5345 0.0000
# 2 23.8774 75.2042 26.1343 0.0000 -9.7592 0.0000
# 3 25.3165 26.1343 69.7891 0.0000 12.1330 0.0000
# 4 0.0000 0.0000 0.0000 -6.0837 0.0000 20.1155
# 5 0.5345 -9.7592 12.1330 0.0000 34.4188 0.0000
# 6 0.0000 0.0000 0.0000 20.1155 0.0000 -0.6581
#
#
#
# Elastic Compliance Matrix: (Units=1/GPa)
#
#
# Indices 1 2 3 4 5 6 
#
# 1 0.014136 -0.003035 -0.004052 0.000000 0.000348 0.000000
# 2 -0.003035 0.017576 -0.006770 0.000000 0.007417 0.000000
# 3 -0.004052 -0.006770 0.019875 0.000000 -0.008863 0.000000
# 4 0.000000 0.000000 0.000000 0.001643 0.000000 0.050210
# 5 0.000348 0.007417 -0.008863 0.000000 0.034276 0.000000
# 6 0.000000 0.000000 0.000000 0.050210 0.000000 0.015185
#
#
# Mechanical properties :
#
#
# Convention : Reuss Voigt Hill
#
# Bulk Modulus (GPa) = 41.88938 42.08467 41.98702
# Shear Modulus (GPa) = 36.13698 15.72057 25.92878
#
# Velocity S-wave (km/s) = 4.67403 3.08283 3.95919
# Velocity P-wave (km/s) = 7.37922 6.17365 6.80319
#
# Compressibility (1/GPa) = 0.02387240
#
# Stress axis : x y z
#
# Youngs Moduli (GPa) = 70.74249 56.89575 50.31456
#
# Poissons Ratio (x) = 0.17267 0.20387
# Poissons Ratio (y) = 0.21469 0.34065
# Poissons Ratio (z) = 0.28665 0.38521
#
# Static dielectric constant tensor:
#      x y z
#    x 1.598580 0.000000 -0.025000 
#    y 0.000000 1.172120 0.000000 
#    z -0.025000 0.000000 1.569450 
# 
# From -- ./inp_files/12871.got.cif
#   From: 2010.05.17/outbox.cif.g08.bks.cpg/sg10_7_cif.got.tgz:12871.got - 2010.06.03 11:33:40.
