data_PCOD9144709
_publ_section_title
;
Structure prediction by ZEFSAII (Michael W. Deem and Ramdas Pophale) SiO2 
 PCOD9144709
Probable space group: P 2/M
;
_chemical_formula_sum "Si O2"
_cell_formula_units_Z 28
_cell_length_a 16.746801
_cell_length_b 7.372873
_cell_length_c 16.157455
_cell_angle_alpha 90.000000
_cell_angle_beta 39.128806
_cell_angle_gamma 90.000000
_cell_volume 1258.972594
_symmetry_space_group_name_H-M "P 2/M"
_symmetry_group_IT_number 10
_symmetry_cell_setting 'monoclinic'
loop_
_space_group_symop_operation_xyz
x,y,z
-x,y,-z
-x,-y,-z
x,-y,z
loop_
_atom_site_type_symbol
_atom_site_label
_atom_site_fract_x
_atom_site_fract_y
_atom_site_fract_z
Si Si1 0.035904 0.779151 0.843988
Si Si2 0.925067 0.219168 0.371814
Si Si3 0.515491 0.778432 0.391438
Si Si4 0.395010 0.714311 0.148100
Si Si5 0.886482 0.709885 0.645631
Si Si6 0.201604 0.779453 0.866995
Si Si7 0.351773 0.781854 0.366720
O O1 0.076768 0.720143 0.721234
O O2 0.133376 0.723419 0.836734
O O3 0.037060 0.000000 0.843480
O O4 0.894650 0.722639 0.983673
O O5 0.794578 0.279856 0.519724
O O6 0.052398 0.283169 0.313078
O O7 0.926427 0.000000 0.372454
O O8 0.500000 0.721253 0.500000
O O9 0.654068 0.721549 0.248540
O O10 0.415380 0.720035 0.401738
O O11 0.510112 0.000000 0.397595
O O12 0.387040 0.500000 0.136800
O O13 0.253209 0.790334 0.248053
O O14 0.421437 0.734214 0.224971
O O15 0.500000 0.787693 0.000000
O O16 0.875416 0.500000 0.628331
O O17 0.000000 0.794261 0.500000
O O18 0.203544 0.000000 0.866101
O O19 0.350241 0.000000 0.371682
#
# Coordination Sequence:
#
# PCOD9144709 Si02
#       7
#     4   4   4   4   4   4   4
#     4   8  14  24  39  64  95 127 162 202 244 290
#     4  10  19  30  49  77 105 129 162 210 259 296
#     4   9  16  26  42  66  99 136 168 200 245 302
#     4  10  22  40  58  75 100 136 173 211 260 313
#     4  10  20  36  56  74  94 127 170 207 242 300
#     4   8  13  23  39  59  92 133 167 197 237 290
#     4  10  20  32  50  78 107 134 169 214 258 301
#
# _framework density 22.240356999999999
#
# number of rings (size 3 to 8) (size 9 to 14) (size 15 to 20)
#    0.000    2.714    1.429    1.714    0.000    5.714 
#    0.000    1.429    0.000    0.429    0.000    3.000 
#    0.000    0.000    0.000    0.000    0.000    0.000 
#
# Total GULP energy -156262.715553 kJ/mol
# GULP energy per Si atom -5580.811270 kJ/mol
# Density = 2.218974 g / cm^3
# Si number density = 22.240357 Si / 1000 Ang^3
#
#
#
# Elastic Constant Matrix: (Units=GPa)
#
#
# Indices 1 2 3 4 5 6 
#
# 1 112.5293 0.7246 70.4291 0.0000 -4.2422 0.0000
# 2 0.7246 81.7656 10.9880 0.0000 -5.3327 0.0000
# 3 70.4291 10.9880 143.6940 0.0000 4.4200 0.0000
# 4 0.0000 0.0000 0.0000 -4.8746 0.0000 9.7341
# 5 -4.2422 -5.3327 4.4200 0.0000 40.2158 0.0000
# 6 0.0000 0.0000 0.0000 9.7341 0.0000 19.9208
#
#
#
# Elastic Compliance Matrix: (Units=1/GPa)
#
#
# Indices 1 2 3 4 5 6 
#
# 1 0.013055 0.000907 -0.006536 0.000000 0.002216 0.000000
# 2 0.000907 0.012544 -0.001463 0.000000 0.001920 0.000000
# 3 -0.006536 -0.001463 0.010337 0.000000 -0.002020 0.000000
# 4 0.000000 0.000000 0.000000 -0.103831 0.000000 0.050736
# 5 0.002216 0.001920 -0.002020 0.000000 0.025576 0.000000
# 6 0.000000 0.000000 0.000000 0.050736 0.000000 0.025407
#
#
# Mechanical properties :
#
#
# Convention : Reuss Voigt Hill
#
# Bulk Modulus (GPa) = 45.97302 55.80803 50.89052
# Shear Modulus (GPa) = 1105.46025 28.10888 566.78457
#
# Velocity S-wave (km/s) = 22.31884 3.55895 15.98119
# Velocity P-wave (km/s) = 26.17040 6.48350 19.06470
#
# Compressibility (1/GPa) = 0.02175189
#
# Stress axis : x y z
#
# Youngs Moduli (GPa) = 76.59806 79.72033 96.74107
#
# Poissons Ratio (x) = -0.07232 0.63233
# Poissons Ratio (y) = -0.06949 0.14152
# Poissons Ratio (z) = 0.50067 0.11662
#
# Static dielectric constant tensor:
#      x y z
#    x 1.810610 0.000000 0.002100 
#    y 0.000000 1.866880 0.000000 
#    z 0.002100 0.000000 1.818630 
# 
# From -- ./inp_files/63480.got.cif
#   From: 2010.05.17/outbox.cif.g08.bks.cpg/sg10_32_cif.got.tgz:63480.got - 2010.06.03 11:33:40.
