data_PCOD9144937
_publ_section_title
;
Structure prediction by ZEFSAII (Michael W. Deem and Ramdas Pophale) SiO2 
 PCOD9144937
Probable space group: P 2/M
;
_chemical_formula_sum "Si O2"
_cell_formula_units_Z 30
_cell_length_a 16.362605
_cell_length_b 10.506324
_cell_length_c 16.449243
_cell_angle_alpha 90.000000
_cell_angle_beta 149.853441
_cell_angle_gamma 90.000000
_cell_volume 1420.161131
_symmetry_space_group_name_H-M "P 2/M"
_symmetry_group_IT_number 10
_symmetry_cell_setting 'monoclinic'
loop_
_space_group_symop_operation_xyz
x,y,z
-x,y,-z
-x,-y,-z
x,-y,z
loop_
_atom_site_type_symbol
_atom_site_label
_atom_site_fract_x
_atom_site_fract_y
_atom_site_fract_z
Si Si1 0.000730 0.859843 0.404969
Si Si2 0.500000 0.250581 0.000000
Si Si3 0.274690 0.858219 0.220799
Si Si4 0.395749 0.356332 0.626251
Si Si5 0.329106 0.143675 0.454943
Si Si6 0.231472 0.638052 0.071447
Si Si7 0.791857 0.645213 0.143361
Si Si8 0.621364 0.861607 0.264610
O O1 0.190647 0.868754 0.550489
O O2 0.000000 0.830483 0.500000
O O3 0.914974 0.750456 0.281669
O O4 0.925096 0.000000 0.326934
O O5 0.372665 0.329745 0.945446
O O6 0.404033 0.164210 0.852454
O O7 0.472080 0.859645 0.375859
O O8 0.263532 0.836238 0.307733
O O9 0.184388 0.755641 0.087375
O O10 0.215698 0.000000 0.150920
O O11 0.333480 0.500000 0.589938
O O12 0.289648 0.266179 0.476113
O O13 0.575354 0.373197 0.743998
O O14 0.430844 0.265211 0.733362
O O15 0.279308 0.000000 0.439241
O O16 0.155144 0.500000 0.023973
O O17 0.219841 0.659465 0.964387
O O18 0.843346 0.500000 0.203405
O O19 0.545084 0.000000 0.220379
#
# Coordination Sequence:
#
# PCOD9144937 Si02
#       8
#     4   2   4   4   4   4   4   4
#     4  10  22  41  57  76 105 138 182 230 268 319
#     4  12  22  38  58  84 108 138 180 226 270 322
#     4   8  14  25  43  68  98 136 175 211 255 311
#     4  10  19  31  48  74 107 138 174 218 265 317
#     4   8  14  26  43  67 101 136 173 212 256 312
#     4   9  18  31  45  71 107 137 171 217 264 312
#     4  11  23  38  56  80 109 145 181 222 269 319
#     4  11  23  38  57  79 106 141 181 225 273 318
#
# _framework density 21.124362999999999
#
# number of rings (size 3 to 8) (size 9 to 14) (size 15 to 20)
#    0.000    2.267    2.667    1.600    0.000    3.467 
#    0.000    2.667    0.000    0.000    0.000    0.933 
#    0.000    7.467    0.000    0.000    0.000    0.000 
#
# Total GULP energy -167103.803338 kJ/mol
# GULP energy per Si atom -5570.126778 kJ/mol
# Density = 2.107628 g / cm^3
# Si number density = 21.124363 Si / 1000 Ang^3
#
#
#
# Elastic Constant Matrix: (Units=GPa)
#
#
# Indices 1 2 3 4 5 6 
#
# 1 27.4032 47.2023 19.8606 0.0000 -26.0160 0.0000
# 2 47.2023 227.5285 89.2775 0.0000 -51.6400 0.0000
# 3 19.8606 89.2775 62.6230 0.0000 -19.3673 0.0000
# 4 0.0000 0.0000 0.0000 19.0624 0.0000 -9.2488
# 5 -26.0160 -51.6400 -19.3673 0.0000 29.8210 0.0000
# 6 0.0000 0.0000 0.0000 -9.2488 0.0000 24.3957
#
#
#
# Elastic Compliance Matrix: (Units=1/GPa)
#
#
# Indices 1 2 3 4 5 6 
#
# 1 0.221547 0.003352 -0.016857 0.000000 0.188135 0.000000
# 2 0.003352 0.013205 -0.014906 0.000000 0.016110 0.000000
# 3 -0.016857 -0.014906 0.037583 0.000000 -0.016110 0.000000
# 4 0.000000 0.000000 0.000000 0.064284 0.000000 0.024371
# 5 0.188135 0.016110 -0.016110 0.000000 0.215098 0.000000
# 6 0.000000 0.000000 0.000000 0.024371 0.000000 0.050230
#
#
# Mechanical properties :
#
#
# Convention : Reuss Voigt Hill
#
# Bulk Modulus (GPa) = 4.64010 70.02616 37.33313
# Shear Modulus (GPa) = 6.84364 25.40345 16.12354
#
# Velocity S-wave (km/s) = 1.80187 3.47157 2.76573
# Velocity P-wave (km/s) = 2.55544 7.02072 5.28303
#
# Compressibility (1/GPa) = 0.21551252
#
# Stress axis : x y z
#
# Youngs Moduli (GPa) = 4.51372 75.73058 26.60793
#
# Poissons Ratio (x) = -0.25388 0.44854
# Poissons Ratio (y) = -0.01513 0.39662
# Poissons Ratio (z) = 0.07609 1.12883
#
# Static dielectric constant tensor:
#      x y z
#    x 1.813250 0.000000 0.016490 
#    y 0.000000 1.844260 0.000000 
#    z 0.016490 0.000000 1.746480 
# 
# From -- ./inp_files/79391.got.cif
#   From: 2010.05.17/outbox.cif.g08.bks.cpg/sg10_40_cif.got.tgz:79391.got - 2010.06.03 11:33:40.
