data_PCOD9144246
_publ_section_title
;
Structure prediction by ZEFSAII (Michael W. Deem and Ramdas Pophale) SiO2 
 PCOD9144246
Probable space group: P 2/M
;
_chemical_formula_sum "Si O2"
_cell_formula_units_Z 24
_cell_length_a 23.249365
_cell_length_b 13.678586
_cell_length_c 25.436367
_cell_angle_alpha 90.000000
_cell_angle_beta 10.973927
_cell_angle_gamma 90.000000
_cell_volume 1539.884947
_symmetry_space_group_name_H-M "P 2/M"
_symmetry_group_IT_number 10
_symmetry_cell_setting 'monoclinic'
loop_
_space_group_symop_operation_xyz
x,y,z
-x,y,-z
-x,-y,-z
x,-y,z
loop_
_atom_site_type_symbol
_atom_site_label
_atom_site_fract_x
_atom_site_fract_y
_atom_site_fract_z
Si Si1 0.145143 0.612505 0.311928
Si Si2 0.347283 0.119290 0.691268
Si Si3 0.477387 0.115010 0.958516
Si Si4 0.654660 0.116874 0.522540
Si Si5 0.660550 0.117470 0.084876
Si Si6 0.844848 0.203058 0.535164
O O1 0.123222 0.500000 0.313198
O O2 0.000000 0.618124 0.500000
O O3 0.972716 0.688135 0.429022
O O4 0.500000 0.636487 0.000000
O O5 0.500000 0.149497 0.500000
O O6 0.517288 0.154531 0.591114
O O7 0.352796 0.000000 0.687963
O O8 0.000000 0.149076 0.000000
O O9 0.131142 0.141909 0.256647
O O10 0.527874 0.000000 0.906542
O O11 0.500000 0.138684 0.000000
O O12 0.720420 0.167957 0.703758
O O13 0.434542 0.131174 0.769183
O O14 0.685964 0.000000 0.487521
O O15 0.993256 0.149784 0.232014
O O16 0.434187 0.179953 0.252403
O O17 0.629960 0.000000 0.099826
#
# Coordination Sequence:
#
# PCOD9144246 Si02
#       6
#     4   4   4   4   4   4
#     4  10  21  37  55  72  88 108 141 189 239 280
#     4   9  15  23  37  55  74 102 144 187 217 239
#     4  11  22  33  46  66  91 116 144 182 223 263
#     4   9  17  28  39  55  82 113 146 182 213 243
#     4  10  19  29  41  58  84 117 147 174 207 256
#     4  12  21  33  50  67  88 117 151 181 222 274
#
# _framework density 15.585580999999999
#
# number of rings (size 3 to 8) (size 9 to 14) (size 15 to 20)
#    0.000    1.833    0.000    6.500    0.000    6.667 
#    0.000    0.000    0.000    0.000    0.000    0.000 
#    0.000    0.000    0.000    0.000    0.000   16.667 
#
# Total GULP energy -133899.049051 kJ/mol
# GULP energy per Si atom -5579.127044 kJ/mol
# Density = 1.555011 g / cm^3
# Si number density = 15.585581 Si / 1000 Ang^3
#
#
#
# Elastic Constant Matrix: (Units=GPa)
#
#
# Indices 1 2 3 4 5 6 
#
# 1 52.9361 20.3933 9.0167 0.0000 -10.8610 0.0000
# 2 20.3933 64.2176 13.5482 0.0000 -2.9638 0.0000
# 3 9.0167 13.5482 77.2924 0.0000 7.5047 0.0000
# 4 0.0000 0.0000 0.0000 4.5337 0.0000 0.3014
# 5 -10.8610 -2.9638 7.5047 0.0000 26.1032 0.0000
# 6 0.0000 0.0000 0.0000 0.3014 0.0000 6.5249
#
#
#
# Elastic Compliance Matrix: (Units=1/GPa)
#
#
# Indices 1 2 3 4 5 6 
#
# 1 0.023912 -0.006586 -0.002601 0.000000 0.009950 0.000000
# 2 -0.006586 0.018175 -0.002419 0.000000 0.000019 0.000000
# 3 -0.002601 -0.002419 0.014193 0.000000 -0.005438 0.000000
# 4 0.000000 0.000000 0.000000 0.221250 0.000000 -0.010220
# 5 0.009950 0.000019 -0.005438 0.000000 0.044015 0.000000
# 6 0.000000 0.000000 0.000000 -0.010220 0.000000 0.153731
#
#
# Mechanical properties :
#
#
# Convention : Reuss Voigt Hill
#
# Bulk Modulus (GPa) = 30.24085 31.15137 30.69611
# Shear Modulus (GPa) = 9.81332 17.53154 13.67243
#
# Velocity S-wave (km/s) = 2.51199 3.35753 2.96505
# Velocity P-wave (km/s) = 5.27813 5.92126 5.60892
#
# Compressibility (1/GPa) = 0.03306785
#
# Stress axis : x y z
#
# Youngs Moduli (GPa) = 41.81950 55.02138 70.45540
#
# Poissons Ratio (x) = 0.36236 0.18327
# Poissons Ratio (y) = 0.27541 0.17045
# Poissons Ratio (z) = 0.10878 0.13311
#
# Static dielectric constant tensor:
#      x y z
#    x 1.533900 0.000000 -0.006470 
#    y 0.000000 1.504580 0.000000 
#    z -0.006470 0.000000 1.544320 
# 
# From -- ./inp_files/87387.got.cif
#   From: 2010.05.17/outbox.cif.g08.bks.cpg/sg10_44_cif.got.tgz:87387.got - 2010.06.03 11:33:40.
