data_PCOD9144379
_publ_section_title
;
Structure prediction by ZEFSAII (Michael W. Deem and Ramdas Pophale) SiO2 
 PCOD9144379
Probable space group: P 2/M
;
_chemical_formula_sum "Si O2"
_cell_formula_units_Z 28
_cell_length_a 22.712707
_cell_length_b 13.833185
_cell_length_c 22.727739
_cell_angle_alpha 90.000000
_cell_angle_beta 166.743570
_cell_angle_gamma 90.000000
_cell_volume 1637.455869
_symmetry_space_group_name_H-M "P 2/M"
_symmetry_group_IT_number 10
_symmetry_cell_setting 'monoclinic'
loop_
_space_group_symop_operation_xyz
x,y,z
-x,y,-z
-x,-y,-z
x,-y,z
loop_
_atom_site_type_symbol
_atom_site_label
_atom_site_fract_x
_atom_site_fract_y
_atom_site_fract_z
Si Si1 0.675772 0.609260 0.338717
Si Si2 0.232647 0.185037 0.766610
Si Si3 0.612758 0.882832 0.472547
Si Si4 0.404087 0.197153 0.674578
Si Si5 0.925464 0.117047 0.992497
Si Si6 0.127520 0.114691 0.796138
Si Si7 0.782217 0.609402 0.201448
O O1 0.660107 0.500000 0.346662
O O2 0.632643 0.690455 0.345487
O O3 0.952775 0.620730 0.577150
O O4 0.456242 0.619670 0.075371
O O5 0.195276 0.150853 0.796809
O O6 0.232218 0.302289 0.767779
O O7 0.000000 0.151085 0.500000
O O8 0.500000 0.151144 0.000000
O O9 0.603084 0.830991 0.400498
O O10 0.863861 0.855517 0.754049
O O11 0.615048 0.000000 0.465563
O O12 0.359518 0.857853 0.263729
O O13 0.162499 0.144433 0.470405
O O14 0.670196 0.162128 0.962224
O O15 0.932769 0.000000 0.996919
O O16 0.000000 0.152734 0.000000
O O17 0.153500 0.000000 0.824915
O O18 0.776616 0.500000 0.220925
#
# Coordination Sequence:
#
# PCOD9144379 Si02
#       7
#     4   4   4   4   4   4   4
#     4  10  19  35  59  80 103 134 166 205 267 329
#     4  12  24  38  57  76 102 129 174 219 260 320
#     4  10  19  29  47  76 104 137 177 211 247 295
#     4  12  21  38  58  80 109 136 173 223 265 310
#     4   9  17  30  46  68 105 146 178 209 246 288
#     4  12  25  40  57  76 102 142 177 214 268 313
#     4  10  20  37  57  79 102 128 164 210 269 328
#
# _framework density 17.099696999999999
#
# number of rings (size 3 to 8) (size 9 to 14) (size 15 to 20)
#    0.000    1.286    2.857    4.286    0.000    4.000 
#    0.000    0.000    0.000    0.000    0.000    0.000 
#    0.000    3.429    0.000    0.000    0.000    0.000 
#
# Total GULP energy -156484.378385 kJ/mol
# GULP energy per Si atom -5588.727799 kJ/mol
# Density = 1.706078 g / cm^3
# Si number density = 17.099697 Si / 1000 Ang^3
#
#
#
# Elastic Constant Matrix: (Units=GPa)
#
#
# Indices 1 2 3 4 5 6 
#
# 1 45.6120 1.1882 -8.7623 0.0000 -2.7379 0.0000
# 2 1.1882 54.2362 1.2561 0.0000 0.9934 0.0000
# 3 -8.7623 1.2561 64.9459 0.0000 1.2067 0.0000
# 4 0.0000 0.0000 0.0000 41.0000 0.0000 -10.4622
# 5 -2.7379 0.9934 1.2067 0.0000 26.7577 0.0000
# 6 0.0000 0.0000 0.0000 -10.4622 0.0000 23.1077
#
#
#
# Elastic Compliance Matrix: (Units=1/GPa)
#
#
# Indices 1 2 3 4 5 6 
#
# 1 0.022654 -0.000607 0.003027 0.000000 0.002204 0.000000
# 2 -0.000607 0.018474 -0.000426 0.000000 -0.000729 0.000000
# 3 0.003027 -0.000426 0.015821 0.000000 -0.000388 0.000000
# 4 0.000000 0.000000 0.000000 0.027576 0.000000 0.012485
# 5 0.002204 -0.000729 -0.000388 0.000000 0.037643 0.000000
# 6 0.000000 0.000000 0.000000 0.012485 0.000000 0.048928
#
#
# Mechanical properties :
#
#
# Convention : Reuss Voigt Hill
#
# Bulk Modulus (GPa) = 16.40987 16.90643 16.65815
# Shear Modulus (GPa) = 26.67807 29.58056 28.12931
#
# Velocity S-wave (km/s) = 3.95416 4.16370 4.06028
# Velocity P-wave (km/s) = 5.51947 5.74662 5.63419
#
# Compressibility (1/GPa) = 0.06093892
#
# Stress axis : x y z
#
# Youngs Moduli (GPa) = 44.14292 54.12901 63.20600
#
# Poissons Ratio (x) = 0.03284 -0.19134
# Poissons Ratio (y) = 0.02678 0.02690
# Poissons Ratio (z) = -0.13363 0.02304
#
# Static dielectric constant tensor:
#      x y z
#    x 1.549170 0.000000 0.006030 
#    y 0.000000 1.584150 0.000000 
#    z 0.006030 0.000000 1.587840 
# 
# From -- ./inp_files/90960.got.cif
#   From: 2010.05.17/outbox.cif.g08.bks.cpg/sg10_46_cif.got.tgz:90960.got - 2010.06.03 11:33:40.
