data_PCOD9144654
_publ_section_title
;
Structure prediction by ZEFSAII (Michael W. Deem and Ramdas Pophale) SiO2 
 PCOD9144654
Probable space group: P 2/M
;
_chemical_formula_sum "Si O2"
_cell_formula_units_Z 30
_cell_length_a 26.587342
_cell_length_b 12.947281
_cell_length_c 26.587326
_cell_angle_alpha 90.000000
_cell_angle_beta 168.550230
_cell_angle_gamma 90.000000
_cell_volume 1816.803148
_symmetry_space_group_name_H-M "P 2/M"
_symmetry_group_IT_number 10
_symmetry_cell_setting 'monoclinic'
loop_
_space_group_symop_operation_xyz
x,y,z
-x,y,-z
-x,-y,-z
x,-y,z
loop_
_atom_site_type_symbol
_atom_site_label
_atom_site_fract_x
_atom_site_fract_y
_atom_site_fract_z
Si Si1 0.893849 0.374731 0.606147
Si Si2 0.733222 0.500000 0.766779
Si Si3 0.530204 0.756291 0.969790
Si Si4 0.694984 0.308686 0.805028
Si Si5 0.266897 0.121809 0.233102
Si Si6 0.030500 0.883979 0.469494
Si Si7 0.165524 0.374288 0.334491
Si Si8 0.422631 0.623652 0.077365
O O1 0.895132 0.500000 0.604865
O O2 0.864258 0.349626 0.635740
O O3 0.158629 0.338367 0.842200
O O4 0.657796 0.338367 0.341367
O O5 0.500000 0.500000 0.500000
O O6 0.716093 0.398328 0.783907
O O7 0.000000 0.500000 0.000000
O O8 0.548324 0.658055 0.951681
O O9 0.784490 0.822171 0.210997
O O10 0.500000 0.734182 0.000000
O O11 0.288991 0.822167 0.715498
O O12 0.709396 0.199314 0.790608
O O13 0.428143 0.328314 0.571162
O O14 0.928859 0.328314 0.071876
O O15 0.500000 0.141148 0.500000
O O16 0.273978 0.000000 0.226022
O O17 0.000000 0.141147 0.000000
O O18 0.000000 0.891321 0.500000
O O19 0.040837 0.000000 0.459166
O O20 0.168599 0.500000 0.331417
O O21 0.421408 0.500000 0.078587
#
# Coordination Sequence:
#
# PCOD9144654 Si02
#       8
#     4   2   4   4   4   4   4   4
#     4   9  19  33  52  70  98 134 170 213 255 296
#     4  12  22  32  46  72 114 146 160 184 245 320
#     4  10  19  30  48  74 103 133 165 207 250 303
#     4  12  21  34  53  79 107 138 172 210 257 308
#     4  10  21  38  56  75 103 141 183 218 243 285
#     4   9  17  30  47  69  96 126 162 204 247 289
#     4  11  20  35  52  79 106 129 166 217 263 310
#     4  10  19  33  49  73 101 136 172 203 246 309
#
# _framework density 16.512519999999999
#
# number of rings (size 3 to 8) (size 9 to 14) (size 15 to 20)
#    0.000    1.733    1.333    4.400    0.000    4.000 
#    0.000    0.000    0.000    4.800    0.000   18.667 
#    0.000    0.000    0.000    0.000    0.000    0.000 
#
# Total GULP energy -167399.507204 kJ/mol
# GULP energy per Si atom -5579.983573 kJ/mol
# Density = 1.647494 g / cm^3
# Si number density = 16.512520 Si / 1000 Ang^3
#
#
#
# Elastic Constant Matrix: (Units=GPa)
#
#
# Indices 1 2 3 4 5 6 
#
# 1 111.5065 43.5590 70.9227 0.0000 4.1271 0.0000
# 2 43.5590 58.0481 39.1665 0.0000 -0.3862 0.0000
# 3 70.9227 39.1665 180.2517 0.0000 1.9459 0.0000
# 4 0.0000 0.0000 0.0000 9.5602 0.0000 -0.8573
# 5 4.1271 -0.3862 1.9459 0.0000 43.4683 0.0000
# 6 0.0000 0.0000 0.0000 -0.8573 0.0000 19.2781
#
#
#
# Elastic Compliance Matrix: (Units=1/GPa)
#
#
# Indices 1 2 3 4 5 6 
#
# 1 0.014865 -0.008468 -0.003995 0.000000 -0.001308 0.000000
# 2 -0.008468 0.025017 -0.002116 0.000000 0.001121 0.000000
# 3 -0.003995 -0.002116 0.007579 0.000000 0.000021 0.000000
# 4 0.000000 0.000000 0.000000 0.105020 0.000000 0.004671
# 5 -0.001308 0.001121 0.000021 0.000000 0.023138 0.000000
# 6 0.000000 0.000000 0.000000 0.004671 0.000000 0.052080
#
#
# Mechanical properties :
#
#
# Convention : Reuss Voigt Hill
#
# Bulk Modulus (GPa) = 54.63512 73.01140 63.82326
# Shear Modulus (GPa) = 19.01439 27.53852 23.27645
#
# Velocity S-wave (km/s) = 3.39708 4.08822 3.75857
# Velocity P-wave (km/s) = 6.96748 8.16067 7.58756
#
# Compressibility (1/GPa) = 0.01830325
#
# Stress axis : x y z
#
# Youngs Moduli (GPa) = 67.27016 39.97315 131.94027
#
# Poissons Ratio (x) = 0.33850 0.52708
# Poissons Ratio (y) = 0.56966 0.27918
# Poissons Ratio (z) = 0.26874 0.08458
#
# Static dielectric constant tensor:
#      x y z
#    x 1.534640 0.000000 0.002250 
#    y 0.000000 1.543620 0.000000 
#    z 0.002250 0.000000 1.560180 
# 
# From -- ./inp_files/94073.got.cif
#   From: 2010.05.17/outbox.cif.g08.bks.cpg/sg10_48_cif.got.tgz:94073.got - 2010.06.03 11:33:40.
