data_PCOD9144940
_publ_section_title
;
Structure prediction by ZEFSAII (Michael W. Deem and Ramdas Pophale) SiO2 
 PCOD9144940
Probable space group: P 2/M
;
_chemical_formula_sum "Si O2"
_cell_formula_units_Z 28
_cell_length_a 16.492609
_cell_length_b 7.608090
_cell_length_c 14.684329
_cell_angle_alpha 90.000000
_cell_angle_beta 61.342266
_cell_angle_gamma 90.000000
_cell_volume 1616.837313
_symmetry_space_group_name_H-M "P 2/M"
_symmetry_group_IT_number 10
_symmetry_cell_setting 'monoclinic'
loop_
_space_group_symop_operation_xyz
x,y,z
-x,y,-z
-x,-y,-z
x,-y,z
loop_
_atom_site_type_symbol
_atom_site_label
_atom_site_fract_x
_atom_site_fract_y
_atom_site_fract_z
Si Si1 0.631276 0.296354 0.180891
Si Si2 0.258388 0.706398 0.703637
Si Si3 0.586634 0.212883 0.516296
Si Si4 0.119342 0.000000 0.836335
Si Si5 0.431524 0.801773 0.267464
Si Si6 0.230161 0.294932 0.059978
Si Si7 0.900649 0.000000 0.934427
Si Si8 0.599582 0.297500 0.914719
O O1 0.602692 0.500000 0.203758
O O2 0.668978 0.235956 0.257223
O O3 0.542157 0.194499 0.196739
O O4 0.713455 0.288072 0.065022
O O5 0.237147 0.500000 0.728793
O O6 0.316618 0.732227 0.580601
O O7 0.170907 0.830561 0.766212
O O8 0.500000 0.274453 0.500000
O O9 0.581995 0.273179 0.623730
O O10 0.581345 0.000000 0.520535
O O11 0.011084 0.000000 0.872590
O O12 0.127426 0.000000 0.942639
O O13 0.395042 0.707847 0.197101
O O14 0.394390 0.000000 0.286179
O O15 0.206322 0.500000 0.091487
O O16 0.306538 0.226513 0.091231
O O17 0.143479 0.169297 0.091335
O O18 0.597577 0.500000 0.949260
O O19 0.500000 0.220552 0.000000
#
# Coordination Sequence:
#
# PCOD9144940 Si02
#       8
#     4   4   4   2   4   4   2   4
#     4  10  19  31  48  74 111 148 184 222 258 311
#     4  11  22  36  58  80 108 153 188 221 272 327
#     4  10  20  34  51  76 114 151 186 227 264 314
#     4  11  24  40  57  85 113 137 181 232 281 333
#     4  11  22  30  48  79 112 151 190 228 258 309
#     4  10  21  36  55  80 109 149 191 222 264 326
#     4  11  24  38  61  81 109 149 173 228 291 327
#     4  10  20  34  50  73 112 152 186 226 264 312
#
# _framework density 17.31776
#
# number of rings (size 3 to 8) (size 9 to 14) (size 15 to 20)
#    0.000    1.571    5.000    0.429    3.000    2.286 
#    0.000    1.429    0.000    0.000    0.000    2.000 
#    0.000    3.429    0.000    0.000    0.000    0.000 
#
# Total GULP energy -156180.933952 kJ/mol
# GULP energy per Si atom -5577.890498 kJ/mol
# Density = 1.727834 g / cm^3
# Si number density = 17.317760 Si / 1000 Ang^3
#
#
#
# Elastic Constant Matrix: (Units=GPa)
#
#
# Indices 1 2 3 4 5 6 
#
# 1 115.4802 40.9169 38.6389 0.0000 -2.5958 0.0000
# 2 40.9169 69.1153 18.2254 0.0000 -11.4234 0.0000
# 3 38.6389 18.2254 67.7403 0.0000 -0.2888 0.0000
# 4 0.0000 0.0000 0.0000 18.6603 0.0000 3.3443
# 5 -2.5958 -11.4234 -0.2888 0.0000 28.1598 0.0000
# 6 0.0000 0.0000 0.0000 3.3443 0.0000 16.2665
#
#
#
# Elastic Compliance Matrix: (Units=1/GPa)
#
#
# Indices 1 2 3 4 5 6 
#
# 1 0.012723 -0.006302 -0.005568 0.000000 -0.001441 0.000000
# 2 -0.006302 0.019889 -0.001724 0.000000 0.007470 0.000000
# 3 -0.005568 -0.001724 0.018398 0.000000 -0.001024 0.000000
# 4 0.000000 0.000000 0.000000 0.055640 0.000000 -0.011439
# 5 -0.001441 0.007470 -0.001024 0.000000 0.038398 0.000000
# 6 0.000000 0.000000 0.000000 -0.011439 0.000000 0.063828
#
#
# Mechanical properties :
#
#
# Convention : Reuss Voigt Hill
#
# Bulk Modulus (GPa) = 41.98008 49.76646 45.87327
# Shear Modulus (GPa) = 20.49144 22.92096 21.70620
#
# Velocity S-wave (km/s) = 3.44359 3.64201 3.54419
# Velocity P-wave (km/s) = 6.33283 6.81801 6.57990
#
# Compressibility (1/GPa) = 0.02382082
#
# Stress axis : x y z
#
# Youngs Moduli (GPa) = 78.59792 50.27969 54.35460
#
# Poissons Ratio (x) = 0.31687 0.30263
# Poissons Ratio (y) = 0.49533 0.09373
# Poissons Ratio (z) = 0.43761 0.08671
#
# Static dielectric constant tensor:
#      x y z
#    x 1.580960 0.000000 0.025520 
#    y 0.000000 1.649610 0.000000 
#    z 0.025520 0.000000 1.584120 
# 
# From -- ./inp_files/49429.got.cif
#   From: 2010.05.17/outbox.cif.g08.bks.cpg/sg10_25_cif.got.tgz:49429.got - 2010.06.03 11:33:40.
