data_PCOD9144760
_publ_section_title
;
Structure prediction by ZEFSAII (Michael W. Deem and Ramdas Pophale) SiO2 
 PCOD9144760
Probable space group: P 2/M
;
_chemical_formula_sum "Si O2"
_cell_formula_units_Z 17
_cell_length_a 6.795052
_cell_length_b 19.456718
_cell_length_c 5.503439
_cell_angle_alpha 90.000000
_cell_angle_beta 102.984407
_cell_angle_gamma 90.000000
_cell_volume 709.002439
_symmetry_space_group_name_H-M "P 2/M"
_symmetry_group_IT_number 10
_symmetry_cell_setting 'monoclinic'
loop_
_space_group_symop_operation_xyz
x,y,z
-x,y,-z
-x,-y,-z
x,-y,z
loop_
_atom_site_type_symbol
_atom_site_label
_atom_site_fract_x
_atom_site_fract_y
_atom_site_fract_z
Si Si1 0.245538 0.136028 0.828587
Si Si2 0.794992 0.809692 0.684427
Si Si3 0.254597 0.421350 0.927418
Si Si4 0.745948 0.654028 0.573158
Si Si5 0.500000 0.000000 0.000000
O O1 0.313445 0.161623 0.583852
O O2 0.330605 0.060676 0.899554
O O3 0.003112 0.146788 0.752833
O O4 0.302902 0.181077 0.079422
O O5 0.830785 0.729713 0.646924
O O6 0.188812 0.500000 0.874871
O O7 0.198403 0.376430 0.675276
O O8 0.500000 0.421666 0.000000
O O9 0.198964 0.392706 0.178552
O O10 0.500000 0.660502 0.500000
#
# Coordination Sequence:
#
# PCOD9144760 Si02
#       5
#     4   4   4   4   1
#     4  10  25  42  67  92 125 162 204 258 319 378
#     4  10  22  43  62  93 128 172 207 262 306 380
#     4   9  17  30  49  86 132 170 212 263 310 359
#     4  10  19  30  56  87 122 172 216 255 307 365
#     4  12  28  46  72 102 122 162 202 266 320 394
#
# _framework density 23.977349
#
# number of rings (size 3 to 8) (size 9 to 14) (size 15 to 20)
#    0.000    2.118    0.000    2.118    3.294    8.471 
#    0.000    0.000    0.000    0.000    0.000   65.882 
#    0.000    0.000    0.000    1.412    0.000    0.000 
#
# Total GULP energy -94800.466109 kJ/mol
# GULP energy per Si atom -5576.498006 kJ/mol
# Density = 2.392278 g / cm^3
# Si number density = 23.977349 Si / 1000 Ang^3
#
#
#
# Elastic Constant Matrix: (Units=GPa)
#
#
# Indices 1 2 3 4 5 6 
#
# 1 113.6701 34.9495 66.9908 0.0000 -14.2460 0.0000
# 2 34.9495 240.4253 100.4283 0.0000 -16.7511 0.0000
# 3 66.9908 100.4283 229.7995 0.0000 -29.7305 0.0000
# 4 0.0000 0.0000 0.0000 -47.6627 0.0000 49.6285
# 5 -14.2460 -16.7511 -29.7305 0.0000 63.1248 0.0000
# 6 0.0000 0.0000 0.0000 49.6285 0.0000 -59.0547
#
#
#
# Elastic Compliance Matrix: (Units=1/GPa)
#
#
# Indices 1 2 3 4 5 6 
#
# 1 0.010698 -0.000290 -0.002864 0.000000 0.000989 0.000000
# 2 -0.000290 0.005102 -0.002107 0.000000 0.000296 0.000000
# 3 -0.002864 -0.002107 0.006338 0.000000 0.001779 0.000000
# 4 0.000000 0.000000 0.000000 -0.167902 0.000000 -0.141102
# 5 0.000989 0.000296 0.001779 0.000000 0.016981 0.000000
# 6 0.000000 0.000000 0.000000 -0.141102 0.000000 -0.135513
#
#
# Mechanical properties :
#
#
# Convention : Reuss Voigt Hill
#
# Bulk Modulus (GPa) = 86.08768 109.84802 97.96785
# Shear Modulus (GPa) = -20.00793 16.71656 -1.64569
#
# Velocity S-wave (km/s) = -2.89182 2.64328 -0.82936
# Velocity P-wave (km/s) = 4.98312 7.43160 6.32693
#
# Compressibility (1/GPa) = 0.01161606
#
# Stress axis : x y z
#
# Youngs Moduli (GPa) = 93.47181 195.99501 157.78873
#
# Poissons Ratio (x) = 0.05682 0.45194
# Poissons Ratio (y) = 0.02710 0.33245
# Poissons Ratio (z) = 0.26772 0.41295
#
# Static dielectric constant tensor:
#      x y z
#    x 2.048960 0.000000 0.022300 
#    y 0.000000 1.790120 0.000000 
#    z 0.022300 0.000000 1.923000 
# 
# From -- ./inp_files/4250.got.cif
#   From: 2010.05.17/outbox.cif.g08.bks.cpg/sg10_3_cif.got.tgz:4250.got - 2010.06.03 11:33:40.
