data_PCOD9144427
_publ_section_title
;
Structure prediction by ZEFSAII (Michael W. Deem and Ramdas Pophale) SiO2 
 PCOD9144427
Probable space group: P 2/M
;
_chemical_formula_sum "Si O2"
_cell_formula_units_Z 24
_cell_length_a 19.610910
_cell_length_b 7.332972
_cell_length_c 21.111459
_cell_angle_alpha 90.000000
_cell_angle_beta 158.267460
_cell_angle_gamma 90.000000
_cell_volume 1124.138145
_symmetry_space_group_name_H-M "P 2/M"
_symmetry_group_IT_number 10
_symmetry_cell_setting 'monoclinic'
loop_
_space_group_symop_operation_xyz
x,y,z
-x,y,-z
-x,-y,-z
x,-y,z
loop_
_atom_site_type_symbol
_atom_site_label
_atom_site_fract_x
_atom_site_fract_y
_atom_site_fract_z
Si Si1 0.301114 0.221607 0.801114
Si Si2 0.700313 0.277701 0.700313
Si Si3 0.740523 0.781376 0.000000
Si Si4 0.663477 0.777436 0.312460
Si Si5 0.038557 0.777436 0.687540
Si Si6 0.099290 0.715106 0.000000
O O1 0.290464 0.281439 0.719431
O O2 0.148398 0.281439 0.719431
O O3 0.292291 0.000000 0.792291
O O4 0.500000 0.271853 0.000000
O O5 0.500000 0.216855 0.500000
O O6 0.690798 0.500000 0.690798
O O7 0.886772 0.219491 0.823303
O O8 0.759834 0.219490 0.823303
O O9 0.534038 0.714666 0.834173
O O10 0.734032 0.000000 0.000001
O O11 0.865692 0.714666 0.165828
O O12 0.820242 0.742242 0.000001
O O13 0.828320 0.721865 0.500000
O O14 0.659445 0.000000 0.307318
O O15 0.044809 0.000000 0.692682
O O16 0.085922 0.500000 0.000000
#
# Coordination Sequence:
#
# PCOD9144427 Si02
#       6
#     4   4   4   4   4   4
#     4   9  13  21  37  56  81 114 154 196 230 258
#     4   8  15  31  54  74  90 112 146 186 220 252
#     4  10  19  30  43  64  97 126 146 176 222 272
#     4   9  16  25  38  58  86 120 154 188 227 266
#     4   9  16  25  38  58  86 120 154 188 227 266
#     4   9  18  32  51  73  92 114 148 183 216 260
#
# _framework density 21.349691
#
# number of rings (size 3 to 8) (size 9 to 14) (size 15 to 20)
#    0.000    3.000    1.667    1.500    0.000    3.333 
#    0.000    1.667    0.000    1.000    0.000    2.333 
#    0.000    2.667    0.000    0.000    0.000    0.000 
#
# Total GULP energy -133894.980193 kJ/mol
# GULP energy per Si atom -5578.957508 kJ/mol
# Density = 2.130110 g / cm^3
# Si number density = 21.349691 Si / 1000 Ang^3
#
#
#
# Elastic Constant Matrix: (Units=GPa)
#
#
# Indices 1 2 3 4 5 6 
#
# 1 191.1248 -1.2043 136.7297 0.0000 -19.3480 0.0000
# 2 -1.2043 80.5718 8.3591 0.0000 1.4583 0.0000
# 3 136.7297 8.3591 246.4551 0.0000 27.7883 0.0000
# 4 0.0000 0.0000 0.0000 -11.0640 0.0000 -4.6250
# 5 -19.3480 1.4583 27.7883 0.0000 -29.0638 0.0000
# 6 0.0000 0.0000 0.0000 -4.6250 0.0000 19.2680
#
#
#
# Elastic Compliance Matrix: (Units=1/GPa)
#
#
# Indices 1 2 3 4 5 6 
#
# 1 0.006566 0.000523 -0.002862 0.000000 -0.007081 0.000000
# 2 0.000523 0.012496 -0.000673 0.000000 -0.000365 0.000000
# 3 -0.002862 -0.000673 0.004926 0.000000 0.006582 0.000000
# 4 0.000000 0.000000 0.000000 -0.082141 0.000000 -0.019717
# 5 -0.007081 -0.000365 0.006582 0.000000 -0.023419 0.000000
# 6 0.000000 0.000000 0.000000 -0.019717 0.000000 0.047167
#
#
# Mechanical properties :
#
#
# Convention : Reuss Voigt Hill
#
# Bulk Modulus (GPa) = 55.66642 89.54673 72.60657
# Shear Modulus (GPa) = -223.28048 20.77918 -101.25065
#
# Velocity S-wave (km/s) = -10.23765 3.12312 -6.89404
# Velocity P-wave (km/s) = 10.65907 7.41884 5.41187
#
# Compressibility (1/GPa) = 0.01796415
#
# Stress axis : x y z
#
# Youngs Moduli (GPa) = 152.29600 80.02859 202.99854
#
# Poissons Ratio (x) = -0.04187 0.58101
# Poissons Ratio (y) = -0.07969 0.13661
# Poissons Ratio (z) = 0.43589 0.05386
#
# Static dielectric constant tensor:
#      x y z
#    x 1.737090 0.000000 0.003070 
#    y 0.000000 1.838180 0.000000 
#    z 0.003070 0.000000 1.757230 
# 
# From -- ./inp_files/67232.got.cif
#   From: 2010.05.17/outbox.cif.g08.bks.cpg/sg10_34_cif.got.tgz:67232.got - 2010.06.03 11:33:40.
