data_PCOD9144024
_publ_section_title
;
Structure prediction by ZEFSAII (Michael W. Deem and Ramdas Pophale) SiO2 
 PCOD9144024
Probable space group: P 2/M
;
_chemical_formula_sum "Si O2"
_cell_formula_units_Z 32
_cell_length_a 14.836657
_cell_length_b 14.324692
_cell_length_c 12.351973
_cell_angle_alpha 90.000000
_cell_angle_beta 43.003068
_cell_angle_gamma 90.000000
_cell_volume 1790.465471
_symmetry_space_group_name_H-M "P 2/M"
_symmetry_group_IT_number 10
_symmetry_cell_setting 'monoclinic'
loop_
_space_group_symop_operation_xyz
x,y,z
-x,y,-z
-x,-y,-z
x,-y,z
loop_
_atom_site_type_symbol
_atom_site_label
_atom_site_fract_x
_atom_site_fract_y
_atom_site_fract_z
Si Si1 0.347700 0.393392 0.102279
Si Si2 0.436594 0.887505 0.381663
Si Si3 0.877632 0.395427 0.522863
Si Si4 0.698920 0.111569 0.713260
Si Si5 0.729613 0.112641 0.133535
Si Si6 0.241907 0.207543 0.122369
Si Si7 0.062050 0.795553 0.623265
Si Si8 0.837699 0.112500 0.260042
O O1 0.331705 0.500000 0.076049
O O2 0.254961 0.384754 0.289873
O O3 0.295084 0.312997 0.069754
O O4 0.500000 0.379474 0.000000
O O5 0.408946 0.858144 0.281730
O O6 0.579667 0.858850 0.297383
O O7 0.308331 0.863664 0.564215
O O8 0.438079 0.000000 0.379634
O O9 0.881439 0.500000 0.472800
O O10 0.888724 0.310835 0.430013
O O11 0.000000 0.388570 0.500000
O O12 0.684099 0.158213 0.842738
O O13 0.838167 0.142284 0.536317
O O14 0.695456 0.000000 0.727174
O O15 0.831206 0.138393 0.139606
O O16 0.734473 0.000000 0.122064
O O17 0.748321 0.155085 0.999384
O O18 0.086907 0.204474 0.288268
O O19 0.066682 0.835799 0.740747
O O20 0.857365 0.000000 0.251073
#
# Coordination Sequence:
#
# PCOD9144024 Si02
#       8
#     4   4   4   4   4   4   4   4
#     4  10  22  38  56  81 112 142 174 219 279 341
#     4   8  16  32  52  71  96 135 183 227 269 319
#     4  10  18  34  58  82 107 136 176 225 276 334
#     4  10  20  32  48  75 110 143 175 220 272 325
#     4  10  21  34  49  75 107 146 188 226 273 322
#     4  12  23  32  51  78 109 142 178 224 273 331
#     4  11  20  34  52  77 103 142 189 226 263 321
#     4   9  19  35  54  72 101 145 193 235 265 312
#
# _framework density 17.872447999999999
#
# number of rings (size 3 to 8) (size 9 to 14) (size 15 to 20)
#    0.000    2.000    2.500    2.250    1.750    4.500 
#    0.000    3.125    0.000    0.750    0.000    1.750 
#    0.000    6.250    0.000    0.000    0.000    0.000 
#
# Total GULP energy -178513.264238 kJ/mol
# GULP energy per Si atom -5578.539507 kJ/mol
# Density = 1.783177 g / cm^3
# Si number density = 17.872448 Si / 1000 Ang^3
#
#
#
# Elastic Constant Matrix: (Units=GPa)
#
#
# Indices 1 2 3 4 5 6 
#
# 1 100.8893 42.2731 20.9514 0.0000 12.5824 0.0000
# 2 42.2731 78.7545 9.5351 0.0000 13.9839 0.0000
# 3 20.9514 9.5351 36.3295 0.0000 5.5091 0.0000
# 4 0.0000 0.0000 0.0000 14.7970 0.0000 -3.6477
# 5 12.5824 13.9839 5.5091 0.0000 36.4280 0.0000
# 6 0.0000 0.0000 0.0000 -3.6477 0.0000 13.3292
#
#
#
# Elastic Compliance Matrix: (Units=1/GPa)
#
#
# Indices 1 2 3 4 5 6 
#
# 1 0.014137 -0.006585 -0.006210 0.000000 -0.001416 0.000000
# 2 -0.006585 0.016988 -0.000017 0.000000 -0.004244 0.000000
# 3 -0.006210 -0.000017 0.031508 0.000000 -0.002613 0.000000
# 4 0.000000 0.000000 0.000000 0.072470 0.000000 0.019832
# 5 -0.001416 -0.004244 -0.002613 0.000000 0.029965 0.000000
# 6 0.000000 0.000000 0.000000 0.019832 0.000000 0.080450
#
#
# Mechanical properties :
#
#
# Convention : Reuss Voigt Hill
#
# Bulk Modulus (GPa) = 27.02094 40.16583 33.59339
# Shear Modulus (GPa) = 17.63791 22.45841 20.04816
#
# Velocity S-wave (km/s) = 3.14487 3.54869 3.35287
# Velocity P-wave (km/s) = 5.32339 6.27004 5.81601
#
# Compressibility (1/GPa) = 0.03700833
#
# Stress axis : x y z
#
# Youngs Moduli (GPa) = 70.73500 58.86458 31.73794
#
# Poissons Ratio (x) = 0.38763 0.19709
# Poissons Ratio (y) = 0.46580 0.00055
# Poissons Ratio (z) = 0.43926 0.00103
#
# Static dielectric constant tensor:
#      x y z
#    x 1.624610 0.000000 -0.017510 
#    y 0.000000 1.603340 0.000000 
#    z -0.017510 0.000000 1.657240 
# 
# From -- ./inp_files/51633.got.cif
#   From: 2010.05.17/outbox.cif.g08.bks.cpg/sg10_26_cif.got.tgz:51633.got - 2010.06.03 11:33:40.
