data_PCOD9144475
_publ_section_title
;
Structure prediction by ZEFSAII (Michael W. Deem and Ramdas Pophale) SiO2 
 PCOD9144475
Probable space group: P 2/M
;
_chemical_formula_sum "Si O2"
_cell_formula_units_Z 32
_cell_length_a 5.081076
_cell_length_b 19.859900
_cell_length_c 18.326173
_cell_angle_alpha 90.000000
_cell_angle_beta 43.983583
_cell_angle_gamma 90.000000
_cell_volume 1284.242111
_symmetry_space_group_name_H-M "P 2/M"
_symmetry_group_IT_number 10
_symmetry_cell_setting 'monoclinic'
loop_
_space_group_symop_operation_xyz
x,y,z
-x,y,-z
-x,-y,-z
x,-y,z
loop_
_atom_site_type_symbol
_atom_site_label
_atom_site_fract_x
_atom_site_fract_y
_atom_site_fract_z
Si Si1 0.347213 0.383290 0.892773
Si Si2 0.047802 0.577095 0.348098
Si Si3 0.262869 0.076613 0.836401
Si Si4 0.744118 0.834515 0.832846
Si Si5 0.447736 0.661736 0.382104
Si Si6 0.058347 0.301208 0.140150
Si Si7 0.349915 0.929219 0.376270
Si Si8 0.374449 0.801094 0.603111
O O1 0.590043 0.417153 0.779236
O O2 0.648640 0.358326 0.891916
O O3 0.133030 0.319845 0.897719
O O4 0.000000 0.421982 0.000000
O O5 0.000535 0.500000 0.379312
O O6 0.116205 0.625515 0.403553
O O7 0.691927 0.605784 0.375101
O O8 0.370612 0.127893 0.878898
O O9 0.655891 0.070960 0.710163
O O10 0.968579 0.109067 0.836903
O O11 0.158560 0.000000 0.878265
O O12 0.745040 0.769919 0.885272
O O13 0.940741 0.801963 0.718843
O O14 0.417577 0.729238 0.435326
O O15 0.712583 0.692454 0.265398
O O16 0.475801 0.854364 0.369154
O O17 0.000000 0.935353 0.500000
O O18 0.573979 0.000000 0.346765
O O19 0.500000 0.829724 0.500000
#
# Coordination Sequence:
#
# PCOD9144475 Si02
#       8
#     4   4   4   4   4   4   4   4
#     4  10  19  32  52  81 112 134 159 198 241 298
#     4  10  20  37  59  80 106 141 173 205 256 317
#     4  10  19  30  45  67  96 129 171 222 263 302
#     4  10  19  32  49  69  98 135 173 212 259 315
#     4   9  20  35  54  78 103 137 180 220 258 306
#     4   9  18  32  49  72 105 140 168 201 249 302
#     4   9  18  30  45  70 105 142 176 214 270 331
#     4  10  20  32  51  75 102 138 184 229 267 305
#
# _framework density 24.917422999999999
#
# number of rings (size 3 to 8) (size 9 to 14) (size 15 to 20)
#    0.000    2.375    0.000    2.625    0.000    8.000 
#    0.000    0.000    0.000    6.750    0.000    0.000 
#    0.000   35.000    0.000    7.500    0.000    4.500 
#
# Total GULP energy -178381.494063 kJ/mol
# GULP energy per Si atom -5574.421689 kJ/mol
# Density = 2.486071 g / cm^3
# Si number density = 24.917423 Si / 1000 Ang^3
#
#
#
# Elastic Constant Matrix: (Units=GPa)
#
#
# Indices 1 2 3 4 5 6 
#
# 1 98.5227 25.2110 18.3540 0.0000 20.1460 0.0000
# 2 25.2110 156.2958 -1.8567 0.0000 8.9941 0.0000
# 3 18.3540 -1.8567 73.7866 0.0000 -1.7016 0.0000
# 4 0.0000 0.0000 0.0000 -42.2616 0.0000 24.6715
# 5 20.1460 8.9941 -1.7016 0.0000 24.3034 0.0000
# 6 0.0000 0.0000 0.0000 24.6715 0.0000 -61.2053
#
#
#
# Elastic Compliance Matrix: (Units=1/GPa)
#
#
# Indices 1 2 3 4 5 6 
#
# 1 0.013444 -0.001590 -0.003633 0.000000 -0.010811 0.000000
# 2 -0.001590 0.006726 0.000539 0.000000 -0.001134 0.000000
# 3 -0.003633 0.000539 0.014558 0.000000 0.003832 0.000000
# 4 0.000000 0.000000 0.000000 -0.030944 0.000000 -0.012473
# 5 -0.010811 -0.001134 0.003832 0.000000 0.050796 0.000000
# 6 0.000000 0.000000 0.000000 -0.012473 0.000000 -0.021366
#
#
# Mechanical properties :
#
#
# Convention : Reuss Voigt Hill
#
# Bulk Modulus (GPa) = 39.43301 45.78019 42.60660
# Shear Modulus (GPa) = 97.96905 3.29376 50.63140
#
# Velocity S-wave (km/s) = 6.27717 1.15097 4.51263
# Velocity P-wave (km/s) = 8.27025 4.49210 6.65492
#
# Compressibility (1/GPa) = 0.02535947
#
# Stress axis : x y z
#
# Youngs Moduli (GPa) = 74.38173 148.67283 68.68921
#
# Poissons Ratio (x) = 0.23634 0.24958
# Poissons Ratio (y) = 0.11824 -0.03699
# Poissons Ratio (z) = 0.27026 -0.08006
#
# Static dielectric constant tensor:
#      x y z
#    x 2.010620 0.000000 -0.081640 
#    y 0.000000 1.966420 0.000000 
#    z -0.081640 0.000000 2.195000 
# 
# From -- ./inp_files/81467.got.cif
#   From: 2010.05.17/outbox.cif.g08.bks.cpg/sg10_41_cif.got.tgz:81467.got - 2010.06.03 11:33:40.
