data_PCOD9144343
_publ_section_title
;
Structure prediction by ZEFSAII (Michael W. Deem and Ramdas Pophale) SiO2 
 PCOD9144343
Probable space group: P 2/M
;
_chemical_formula_sum "Si O2"
_cell_formula_units_Z 32
_cell_length_a 19.604898
_cell_length_b 9.367952
_cell_length_c 11.813812
_cell_angle_alpha 90.000000
_cell_angle_beta 58.687453
_cell_angle_gamma 90.000000
_cell_volume 1853.670774
_symmetry_space_group_name_H-M "P 2/M"
_symmetry_group_IT_number 10
_symmetry_cell_setting 'monoclinic'
loop_
_space_group_symop_operation_xyz
x,y,z
-x,y,-z
-x,-y,-z
x,-y,z
loop_
_atom_site_type_symbol
_atom_site_label
_atom_site_fract_x
_atom_site_fract_y
_atom_site_fract_z
Si Si1 0.281547 0.166146 0.604097
Si Si2 0.170101 0.835427 0.117704
Si Si3 0.744027 0.667474 0.144580
Si Si4 0.909715 0.668409 0.619974
Si Si5 0.419455 0.667095 0.860025
Si Si6 0.777714 0.170981 0.590058
Si Si7 0.664400 0.836910 0.879907
Si Si8 0.468853 0.832327 0.402899
O O1 0.263387 0.266499 0.724997
O O2 0.231239 0.196382 0.534962
O O3 0.373917 0.180750 0.488774
O O4 0.269779 0.000000 0.647589
O O5 0.107217 0.749731 0.247914
O O6 0.252922 0.835460 0.118772
O O7 0.147320 0.000000 0.120039
O O8 0.191735 0.754388 0.984206
O O9 0.762779 0.500000 0.131013
O O10 0.658965 0.683386 0.152991
O O11 0.892069 0.500000 0.647503
O O12 0.849005 0.740199 0.583452
O O13 0.000000 0.685096 0.500000
O O14 0.435352 0.500000 0.860035
O O15 0.489969 0.745634 0.732749
O O16 0.396593 0.738583 0.999393
O O17 0.695823 0.206916 0.728879
O O18 0.789755 0.000000 0.598317
O O19 0.634932 0.000000 0.901565
O O20 0.500000 0.785086 0.500000
O O21 0.490273 0.000000 0.371800
#
# Coordination Sequence:
#
# PCOD9144343 Si02
#       8
#     4   4   4   4   4   4   4   4
#     4  10  20  34  51  72 100 134 175 215 255 303
#     4   9  17  30  51  77 103 132 169 210 246 288
#     4  10  19  30  47  73 103 135 171 211 258 303
#     4  10  20  34  55  83 111 135 160 197 247 301
#     4  10  19  29  45  69  96 126 166 215 259 300
#     4   9  19  35  54  76 101 133 171 210 248 298
#     4   8  15  29  48  68  92 124 164 207 252 297
#     4  10  19  31  48  69  95 131 172 214 259 301
#
# _framework density 17.263045000000002
#
# number of rings (size 3 to 8) (size 9 to 14) (size 15 to 20)
#    0.000    2.500    1.250    2.250    0.000    6.250 
#    0.000    0.625    0.000    4.500    0.000    5.250 
#    0.000    0.000    0.000    0.000    0.000    0.000 
#
# Total GULP energy -178483.949651 kJ/mol
# GULP energy per Si atom -5577.623427 kJ/mol
# Density = 1.722375 g / cm^3
# Si number density = 17.263045 Si / 1000 Ang^3
#
#
#
# Elastic Constant Matrix: (Units=GPa)
#
#
# Indices 1 2 3 4 5 6 
#
# 1 25.0686 25.1357 11.9023 0.0000 4.4622 0.0000
# 2 25.1357 102.0963 68.2481 0.0000 3.1529 0.0000
# 3 11.9023 68.2481 87.7708 0.0000 2.3219 0.0000
# 4 0.0000 0.0000 0.0000 24.0242 0.0000 -6.3413
# 5 4.4622 3.1529 2.3219 0.0000 17.1344 0.0000
# 6 0.0000 0.0000 0.0000 -6.3413 0.0000 8.2510
#
#
#
# Elastic Compliance Matrix: (Units=1/GPa)
#
#
# Indices 1 2 3 4 5 6 
#
# 1 0.057135 -0.018165 0.006706 0.000000 -0.012446 0.000000
# 2 -0.018165 0.026216 -0.017983 0.000000 0.002344 0.000000
# 3 0.006706 -0.017983 0.024514 0.000000 -0.001759 0.000000
# 4 0.000000 0.000000 0.000000 0.052218 0.000000 0.040132
# 5 -0.012446 0.002344 -0.001759 0.000000 0.061411 0.000000
# 6 0.000000 0.000000 0.000000 0.040132 0.000000 0.152040
#
#
# Mechanical properties :
#
#
# Convention : Reuss Voigt Hill
#
# Bulk Modulus (GPa) = 20.41648 47.27866 33.84757
# Shear Modulus (GPa) = 11.14221 17.19188 14.16704
#
# Velocity S-wave (km/s) = 2.54330 3.15918 2.86782
# Velocity P-wave (km/s) = 4.52514 6.38387 5.53312
#
# Compressibility (1/GPa) = 0.04898004
#
# Stress axis : x y z
#
# Youngs Moduli (GPa) = 17.50237 38.14524 40.79331
#
# Poissons Ratio (x) = 0.69289 -0.27354
# Poissons Ratio (y) = 0.31792 0.73360
# Poissons Ratio (z) = -0.11736 0.68598
#
# Static dielectric constant tensor:
#      x y z
#    x 1.581880 0.000000 0.012980 
#    y 0.000000 1.578350 0.000000 
#    z 0.012980 0.000000 1.577250 
# 
# From -- ./inp_files/54837.got.cif
#   From: 2010.05.17/outbox.cif.g08.bks.cpg/sg10_28_cif.got.tgz:54837.got - 2010.06.03 11:33:40.
