data_PCOD9144134
_publ_section_title
;
Structure prediction by ZEFSAII (Michael W. Deem and Ramdas Pophale) SiO2 
 PCOD9144134
Probable space group: P 2/M
;
_chemical_formula_sum "Si O2"
_cell_formula_units_Z 32
_cell_length_a 17.662168
_cell_length_b 19.887485
_cell_length_c 17.000269
_cell_angle_alpha 90.000000
_cell_angle_beta 163.029898
_cell_angle_gamma 90.000000
_cell_volume 1742.902397
_symmetry_space_group_name_H-M "P 2/M"
_symmetry_group_IT_number 10
_symmetry_cell_setting 'monoclinic'
loop_
_space_group_symop_operation_xyz
x,y,z
-x,y,-z
-x,-y,-z
x,-y,z
loop_
_atom_site_type_symbol
_atom_site_label
_atom_site_fract_x
_atom_site_fract_y
_atom_site_fract_z
Si Si1 0.555533 0.078922 0.648108
Si Si2 0.499511 0.254195 0.853470
Si Si3 0.993116 0.721001 0.746233
Si Si4 0.053088 0.926258 0.734725
Si Si5 0.501332 0.400158 0.911204
Si Si6 0.440024 0.893719 0.852196
Si Si7 0.952519 0.848577 0.791863
Si Si8 0.992610 0.426187 0.689782
O O1 0.500000 0.078718 0.500000
O O2 0.325437 0.121500 0.459996
O O3 0.561311 0.000000 0.679879
O O4 0.825694 0.116172 0.935466
O O5 0.504681 0.319220 0.913320
O O6 0.478846 0.186074 0.881199
O O7 0.253579 0.260280 0.552085
O O8 0.751096 0.258187 0.048058
O O9 0.994039 0.639155 0.748366
O O10 0.972402 0.767473 0.803537
O O11 0.847158 0.912506 0.461082
O O12 0.008042 0.873801 0.758698
O O13 0.999767 0.000000 0.714883
O O14 0.343691 0.923274 0.991155
O O15 0.251153 0.420565 0.611738
O O16 0.500000 0.423421 0.000000
O O17 0.753609 0.421950 0.113150
O O18 0.500000 0.915199 0.000000
O O19 0.985609 0.500000 0.721379
#
# Coordination Sequence:
#
# PCOD9144134 Si02
#       8
#     4   4   4   4   4   4   4   4
#     4  11  24  40  61  92 125 151 175 212 271 333
#     4  10  18  36  50  73  98 131 180 235 281 324
#     4  10  20  35  57  77 104 136 184 226 262 314
#     4  12  25  38  54  77 101 136 187 233 278 329
#     4  10  20  31  49  71  97 134 179 223 281 347
#     4  12  23  37  54  70 100 138 184 243 294 328
#     4  12  21  40  63  83 113 150 188 224 263 323
#     4  10  21  34  50  73 106 137 171 229 283 325
#
# _framework density 18.360178999999999
#
# number of rings (size 3 to 8) (size 9 to 14) (size 15 to 20)
#    0.000    1.125    2.500    4.875    0.000    4.000 
#    0.000    3.750    0.000    0.000    0.000    0.000 
#    0.000    3.000    0.000    0.000    0.000    0.000 
#
# Total GULP energy -178729.320423 kJ/mol
# GULP energy per Si atom -5585.291263 kJ/mol
# Density = 1.831839 g / cm^3
# Si number density = 18.360179 Si / 1000 Ang^3
#
#
#
# Elastic Constant Matrix: (Units=GPa)
#
#
# Indices 1 2 3 4 5 6 
#
# 1 26.0983 12.6856 -3.7378 0.0000 -3.0850 0.0000
# 2 12.6856 154.5975 9.5769 0.0000 -2.4805 0.0000
# 3 -3.7378 9.5769 94.9244 0.0000 5.5745 0.0000
# 4 0.0000 0.0000 0.0000 34.0223 0.0000 4.5097
# 5 -3.0850 -2.4805 5.5745 0.0000 26.6230 0.0000
# 6 0.0000 0.0000 0.0000 4.5097 0.0000 24.2378
#
#
#
# Elastic Compliance Matrix: (Units=1/GPa)
#
#
# Indices 1 2 3 4 5 6 
#
# 1 0.040681 -0.003379 0.001705 0.000000 0.004042 0.000000
# 2 -0.003379 0.006805 -0.000844 0.000000 0.000419 0.000000
# 3 0.001705 -0.000844 0.010813 0.000000 -0.002145 0.000000
# 4 0.000000 0.000000 0.000000 0.030136 0.000000 -0.005607
# 5 0.004042 0.000419 -0.002145 0.000000 0.038518 0.000000
# 6 0.000000 0.000000 0.000000 -0.005607 0.000000 0.042301
#
#
# Mechanical properties :
#
#
# Convention : Reuss Voigt Hill
#
# Bulk Modulus (GPa) = 18.77463 34.74107 26.75785
# Shear Modulus (GPa) = 26.03577 34.11634 30.07606
#
# Velocity S-wave (km/s) = 3.76979 4.31533 4.05175
# Velocity P-wave (km/s) = 5.40337 6.61759 6.04106
#
# Compressibility (1/GPa) = 0.05326335
#
# Stress axis : x y z
#
# Youngs Moduli (GPa) = 24.58147 146.95752 92.48134
#
# Poissons Ratio (x) = 0.49655 -0.15772
# Poissons Ratio (y) = 0.08306 0.07807
# Poissons Ratio (z) = -0.04192 0.12406
#
# Static dielectric constant tensor:
#      x y z
#    x 1.589610 0.000000 0.002590 
#    y 0.000000 1.716000 0.000000 
#    z 0.002590 0.000000 1.631030 
# 
# From -- ./inp_files/67936.got.cif
#   From: 2010.05.17/outbox.cif.g08.bks.cpg/sg10_34_cif.got.tgz:67936.got - 2010.06.03 11:33:40.
