data_PCOD9144081
_publ_section_title
;
Structure prediction by ZEFSAII (Michael W. Deem and Ramdas Pophale) SiO2 
 PCOD9144081
Probable space group: P 2/M
;
_chemical_formula_sum "Si O2"
_cell_formula_units_Z 30
_cell_length_a 13.969717
_cell_length_b 18.193252
_cell_length_c 5.749303
_cell_angle_alpha 90.000000
_cell_angle_beta 75.153495
_cell_angle_gamma 90.000000
_cell_volume 1412.430219
_symmetry_space_group_name_H-M "P 2/M"
_symmetry_group_IT_number 10
_symmetry_cell_setting 'monoclinic'
loop_
_space_group_symop_operation_xyz
x,y,z
-x,y,-z
-x,-y,-z
x,-y,z
loop_
_atom_site_type_symbol
_atom_site_label
_atom_site_fract_x
_atom_site_fract_y
_atom_site_fract_z
Si Si1 0.685689 0.082542 0.964449
Si Si2 0.314916 0.584461 0.635019
Si Si3 0.896346 0.884660 0.599347
Si Si4 0.907406 0.260317 0.892527
Si Si5 0.764556 0.174921 0.300701
Si Si6 0.617699 0.770643 0.779186
Si Si7 0.500000 0.305893 0.500000
Si Si8 0.246322 0.361631 0.175194
O O1 0.797758 0.083812 0.785170
O O2 0.622631 0.149322 0.894228
O O3 0.646480 0.000000 0.968342
O O4 0.703822 0.110875 0.213268
O O5 0.348959 0.500000 0.609621
O O6 0.406065 0.641170 0.578849
O O7 0.260642 0.599004 0.418159
O O8 0.259613 0.596334 0.919224
O O9 0.924419 0.811564 0.726307
O O10 0.855137 0.862607 0.375221
O O11 0.000000 0.924964 0.500000
O O12 0.862658 0.324998 0.765075
O O13 0.813688 0.234570 0.104598
O O14 0.000000 0.277293 0.000000
O O15 0.694627 0.216360 0.520366
O O16 0.517144 0.744880 0.717283
O O17 0.669193 0.702677 0.878063
#
# Coordination Sequence:
#
# PCOD9144081 Si02
#       8
#     4   4   4   4   4   4   2   4
#     4  10  22  36  55  79 119 171 212 256 325 384
#     4  11  25  44  67  98 136 164 196 247 323 398
#     4  10  19  31  54  81 119 156 210 275 320 364
#     4  11  19  30  57  91 120 156 217 267 302 354
#     4  10  18  35  53  78 121 158 207 261 320 363
#     4  10  21  38  61  88 120 155 213 262 311 376
#     4  10  23  40  69 100 120 160 200 262 319 378
#     4  11  22  40  67  95 130 173 209 252 310 371
#
# _framework density 21.239985999999998
#
# number of rings (size 3 to 8) (size 9 to 14) (size 15 to 20)
#    0.000    1.600    5.333    2.200    0.000    4.533 
#    0.000    4.333    0.000    3.200    0.000    0.000 
#    0.000    0.000    0.000    0.000    0.000    0.000 
#
# Total GULP energy -167273.329299 kJ/mol
# GULP energy per Si atom -5575.777643 kJ/mol
# Density = 2.119164 g / cm^3
# Si number density = 21.239986 Si / 1000 Ang^3
#
#
#
# Elastic Constant Matrix: (Units=GPa)
#
#
# Indices 1 2 3 4 5 6 
#
# 1 72.7141 44.9516 23.2582 0.0000 28.5760 0.0000
# 2 44.9516 129.0306 34.2531 0.0000 24.5232 0.0000
# 3 23.2582 34.2531 100.2360 0.0000 23.0941 0.0000
# 4 0.0000 0.0000 0.0000 102.7395 0.0000 -38.2702
# 5 28.5760 24.5232 23.0941 0.0000 43.5560 0.0000
# 6 0.0000 0.0000 0.0000 -38.2702 0.0000 19.0702
#
#
#
# Elastic Compliance Matrix: (Units=1/GPa)
#
#
# Indices 1 2 3 4 5 6 
#
# 1 0.021439 -0.005239 -0.000710 0.000000 -0.010739 0.000000
# 2 -0.005239 0.010364 -0.002020 0.000000 -0.001327 0.000000
# 3 -0.000710 -0.002020 0.011918 0.000000 -0.004716 0.000000
# 4 0.000000 0.000000 0.000000 0.038553 0.000000 0.077368
# 5 -0.010739 -0.001327 -0.004716 0.000000 0.033252 0.000000
# 6 0.000000 0.000000 0.000000 0.077368 0.000000 0.207700
#
#
# Mechanical properties :
#
#
# Convention : Reuss Voigt Hill
#
# Bulk Modulus (GPa) = 35.99464 56.32295 46.15879
# Shear Modulus (GPa) = 14.35030 46.37434 30.36232
#
# Velocity S-wave (km/s) = 2.60210 4.67770 3.78496
# Velocity P-wave (km/s) = 5.10013 7.46656 6.39378
#
# Compressibility (1/GPa) = 0.02778191
#
# Stress axis : x y z
#
# Youngs Moduli (GPa) = 46.64417 96.48970 83.90618
#
# Poissons Ratio (x) = 0.50554 0.05956
# Poissons Ratio (y) = 0.24439 0.16951
# Poissons Ratio (z) = 0.03311 0.19493
#
# Static dielectric constant tensor:
#      x y z
#    x 1.811040 0.000000 -0.010020 
#    y 0.000000 1.761120 0.000000 
#    z -0.010020 0.000000 1.878670 
# 
# From -- ./inp_files/9658.got.cif
#   From: 2010.05.17/outbox.cif.g08.bks.cpg/sg10_5_cif.got.tgz:9658.got - 2010.06.03 11:33:40.
