data_PCOD9144559
_publ_section_title
;
Structure prediction by ZEFSAII (Michael W. Deem and Ramdas Pophale) SiO2 
 PCOD9144559
Probable space group: P 2/M
;
_chemical_formula_sum "Si O2"
_cell_formula_units_Z 32
_cell_length_a 16.741547
_cell_length_b 10.758532
_cell_length_c 19.931531
_cell_angle_alpha 90.000000
_cell_angle_beta 34.655589
_cell_angle_gamma 90.000000
_cell_volume 2041.400736
_symmetry_space_group_name_H-M "P 2/M"
_symmetry_group_IT_number 10
_symmetry_cell_setting 'monoclinic'
loop_
_space_group_symop_operation_xyz
x,y,z
-x,y,-z
-x,-y,-z
x,-y,z
loop_
_atom_site_type_symbol
_atom_site_label
_atom_site_fract_x
_atom_site_fract_y
_atom_site_fract_z
Si Si1 0.920714 0.357792 0.483267
Si Si2 0.382971 0.641970 0.246632
Si Si3 0.061875 0.858853 0.301252
Si Si4 0.909481 0.133485 0.131886
Si Si5 0.377948 0.857796 0.139427
Si Si6 0.128416 0.140952 0.102347
Si Si7 0.305542 0.641018 0.923455
Si Si8 0.830675 0.365779 0.128405
O O1 0.946256 0.500000 0.441475
O O2 0.755940 0.342981 0.612736
O O3 0.000000 0.345829 0.500000
O O4 0.977612 0.250309 0.395873
O O5 0.376122 0.500000 0.222724
O O6 0.386338 0.749394 0.188547
O O7 0.526825 0.649789 0.188958
O O8 0.225110 0.849588 0.210478
O O9 0.058537 0.846180 0.223274
O O10 0.014692 0.000000 0.351714
O O11 0.809255 0.250437 0.191985
O O12 0.015240 0.150512 0.120643
O O13 0.838223 0.000000 0.188453
O O14 0.000000 0.127785 0.000000
O O15 0.391749 0.000000 0.156913
O O16 0.500000 0.841539 0.000000
O O17 0.189136 0.000000 0.057151
O O18 0.239422 0.250262 0.013881
O O19 0.266695 0.500000 0.972531
O O20 0.243767 0.655316 0.891362
O O21 0.785977 0.500000 0.185718
O O22 0.000000 0.372611 0.000000
#
# Coordination Sequence:
#
# PCOD9144559 Si02
#       8
#     4   4   4   4   4   4   4   4
#     4  10  20  37  57  72  90 123 172 219 252 286
#     4  10  21  35  51  72  96 127 166 207 249 286
#     4  10  21  34  51  74  98 130 167 207 248 287
#     4   9  15  25  43  67  96 131 162 189 227 283
#     4  10  20  34  50  71 101 133 163 193 239 297
#     4  10  19  31  47  72 107 135 160 196 241 295
#     4  10  19  30  46  72 104 132 158 194 243 295
#     4   9  15  25  42  65  96 128 157 189 227 281
#
# _framework density 15.675509999999999
#
# number of rings (size 3 to 8) (size 9 to 14) (size 15 to 20)
#    0.000    2.250    3.750    0.750    0.000    3.000 
#    0.000    0.000    0.000    0.000    0.000    0.875 
#    0.000    7.000    0.000    0.000    0.000    0.000 
#
# Total GULP energy -178150.093903 kJ/mol
# GULP energy per Si atom -5567.190434 kJ/mol
# Density = 1.563983 g / cm^3
# Si number density = 15.675510 Si / 1000 Ang^3
#
#
#
# Elastic Constant Matrix: (Units=GPa)
#
#
# Indices 1 2 3 4 5 6 
#
# 1 82.9962 51.2965 32.7027 0.0000 1.9570 0.0000
# 2 51.2965 170.5951 70.6637 0.0000 3.1057 0.0000
# 3 32.7027 70.6637 63.3629 0.0000 0.0538 0.0000
# 4 0.0000 0.0000 0.0000 59.0430 0.0000 -38.1489
# 5 1.9570 3.1057 0.0538 0.0000 4.0487 0.0000
# 6 0.0000 0.0000 0.0000 -38.1489 0.0000 67.9093
#
#
#
# Elastic Compliance Matrix: (Units=1/GPa)
#
#
# Indices 1 2 3 4 5 6 
#
# 1 0.015823 -0.002365 -0.005525 0.000000 -0.005761 0.000000
# 2 -0.002365 0.011527 -0.011628 0.000000 -0.007545 0.000000
# 3 -0.005525 -0.011628 0.031592 0.000000 0.011171 0.000000
# 4 0.000000 0.000000 0.000000 0.026587 0.000000 0.014936
# 5 -0.005761 -0.007545 0.011171 0.000000 0.255415 0.000000
# 6 0.000000 0.000000 0.000000 0.014936 0.000000 0.023116
#
#
# Mechanical properties :
#
#
# Convention : Reuss Voigt Hill
#
# Bulk Modulus (GPa) = 50.23351 69.58667 59.91009
# Shear Modulus (GPa) = 12.20316 37.01962 24.61139
#
# Velocity S-wave (km/s) = 2.79316 4.86492 3.96669
# Velocity P-wave (km/s) = 6.52056 8.72038 7.69944
#
# Compressibility (1/GPa) = 0.01990703
#
# Stress axis : x y z
#
# Youngs Moduli (GPa) = 63.19974 86.75454 31.65365
#
# Poissons Ratio (x) = 0.20513 0.17487
# Poissons Ratio (y) = 0.14944 0.36807
# Poissons Ratio (z) = 0.34915 1.00879
#
# Static dielectric constant tensor:
#      x y z
#    x 1.517610 0.000000 -0.011010 
#    y 0.000000 1.596750 0.000000 
#    z -0.011010 0.000000 1.482450 
# 
# From -- ./inp_files/78185.got.cif
#   From: 2010.05.17/outbox.cif.g08.bks.cpg/sg10_40_cif.got.tgz:78185.got - 2010.06.03 11:33:40.
