data_PCOD9144453
_publ_section_title
;
Structure prediction by ZEFSAII (Michael W. Deem and Ramdas Pophale) SiO2 
 PCOD9144453
Probable space group: P 2/M
;
_chemical_formula_sum "Si O2"
_cell_formula_units_Z 32
_cell_length_a 13.998738
_cell_length_b 8.771310
_cell_length_c 19.264249
_cell_angle_alpha 90.000000
_cell_angle_beta 68.694881
_cell_angle_gamma 90.000000
_cell_volume 2203.749898
_symmetry_space_group_name_H-M "P 2/M"
_symmetry_group_IT_number 10
_symmetry_cell_setting 'monoclinic'
loop_
_space_group_symop_operation_xyz
x,y,z
-x,y,-z
-x,-y,-z
x,-y,z
loop_
_atom_site_type_symbol
_atom_site_label
_atom_site_fract_x
_atom_site_fract_y
_atom_site_fract_z
Si Si1 0.507378 0.183339 0.263675
Si Si2 0.271053 0.816661 0.736325
Si Si3 0.517977 0.183698 0.888282
Si Si4 0.574352 0.681222 0.581184
Si Si5 0.655669 0.317237 0.967485
Si Si6 0.876846 0.682763 0.967485
Si Si7 0.093741 0.183698 0.888281
Si Si8 0.344464 0.318778 0.581183
O O1 0.622645 0.234581 0.254710
O O2 0.481973 0.230787 0.192135
O O3 0.429357 0.242203 0.342880
O O4 0.507455 0.000000 0.265507
O O5 0.174108 0.769213 0.807865
O O6 0.272236 0.757797 0.657120
O O7 0.272962 0.000000 0.734493
O O8 0.613044 0.247810 0.907297
O O9 0.516378 0.000000 0.892816
O O10 0.417271 0.248374 0.953372
O O11 0.588600 0.500000 0.585125
O O12 0.650744 0.736147 0.500000
O O13 0.459743 0.704709 0.580514
O O14 0.643167 0.500000 0.969824
O O15 0.773318 0.281177 0.953365
O O16 0.887009 0.500000 0.969825
O O17 0.979658 0.752190 0.907297
O O18 0.870643 0.751627 0.046628
O O19 0.090806 0.000000 0.892816
O O20 0.326274 0.500000 0.585125
#
# Coordination Sequence:
#
# PCOD9144453 Si02
#       8
#     4   4   4   4   4   4   4   4
#     4   9  17  27  39  58  83 109 137 168 201 237
#     4   9  17  27  39  58  83 109 137 168 201 237
#     4  10  19  30  45  63  83 108 139 173 206 244
#     4   8  14  24  37  54  77 106 138 167 196 233
#     4  10  20  32  45  61  82 108 138 172 209 247
#     4  10  20  32  45  61  82 108 138 172 209 247
#     4  10  19  30  45  63  83 108 139 173 206 244
#     4   8  14  24  37  54  77 106 138 167 196 233
#
# _framework density 14.520704
#
# number of rings (size 3 to 8) (size 9 to 14) (size 15 to 20)
#    0.000    2.750    0.000    4.500    0.000    5.500 
#    0.000    5.000    0.000    0.000    0.000    0.000 
#    0.000    1.000    0.000   11.000    0.000    8.500 
#
# Total GULP energy -178212.657100 kJ/mol
# GULP energy per Si atom -5569.145534 kJ/mol
# Density = 1.448765 g / cm^3
# Si number density = 14.520704 Si / 1000 Ang^3
#
#
#
# Elastic Constant Matrix: (Units=GPa)
#
#
# Indices 1 2 3 4 5 6 
#
# 1 80.3209 28.8193 61.2995 0.0000 -0.7930 0.0000
# 2 28.8193 33.1458 38.0919 0.0000 -0.3452 0.0000
# 3 61.2995 38.0919 160.5170 0.0000 -2.1923 0.0000
# 4 0.0000 0.0000 0.0000 33.5971 0.0000 -0.6041
# 5 -0.7930 -0.3452 -2.1923 0.0000 20.2147 0.0000
# 6 0.0000 0.0000 0.0000 -0.6041 0.0000 17.3670
#
#
#
# Elastic Compliance Matrix: (Units=1/GPa)
#
#
# Indices 1 2 3 4 5 6 
#
# 1 0.020635 -0.012218 -0.004980 0.000000 0.000061 0.000000
# 2 -0.012218 0.048720 -0.006901 0.000000 -0.000396 0.000000
# 3 -0.004980 -0.006901 0.009780 0.000000 0.000747 0.000000
# 4 0.000000 0.000000 0.000000 0.029783 0.000000 0.001036
# 5 0.000061 -0.000396 0.000747 0.000000 0.049546 0.000000
# 6 0.000000 0.000000 0.000000 0.001036 0.000000 0.057617
#
#
# Mechanical properties :
#
#
# Convention : Reuss Voigt Hill
#
# Bulk Modulus (GPa) = 32.32449 58.93391 45.62920
# Shear Modulus (GPa) = 18.20897 23.95394 21.08146
#
# Velocity S-wave (km/s) = 3.54503 4.06598 3.81441
# Velocity P-wave (km/s) = 6.25025 7.91942 7.13382
#
# Compressibility (1/GPa) = 0.03093630
#
# Stress axis : x y z
#
# Youngs Moduli (GPa) = 48.46092 20.52564 102.25366
#
# Poissons Ratio (x) = 0.25078 0.50924
# Poissons Ratio (y) = 0.59209 0.70566
# Poissons Ratio (z) = 0.24134 0.14165
#
# Static dielectric constant tensor:
#      x y z
#    x 1.462510 0.000000 -0.001560 
#    y 0.000000 1.490330 0.000000 
#    z -0.001560 0.000000 1.504340 
# 
# From -- ./inp_files/77382.got.cif
#   From: 2010.05.17/outbox.cif.g08.bks.cpg/sg10_39_cif.got.tgz:77382.got - 2010.06.03 11:33:40.
