data_PCOD9144795
_publ_section_title
;
Structure prediction by ZEFSAII (Michael W. Deem and Ramdas Pophale) SiO2 
 PCOD9144795
Probable space group: P 2/M
;
_chemical_formula_sum "Si O2"
_cell_formula_units_Z 32
_cell_length_a 5.263105
_cell_length_b 7.758894
_cell_length_c 36.402572
_cell_angle_alpha 90.000000
_cell_angle_beta 89.450950
_cell_angle_gamma 90.000000
_cell_volume 1486.462584
_symmetry_space_group_name_H-M "P 2/M"
_symmetry_group_IT_number 10
_symmetry_cell_setting 'monoclinic'
loop_
_space_group_symop_operation_xyz
x,y,z
-x,y,-z
-x,-y,-z
x,-y,z
loop_
_atom_site_type_symbol
_atom_site_label
_atom_site_fract_x
_atom_site_fract_y
_atom_site_fract_z
Si Si1 0.676975 0.696587 0.105628
Si Si2 0.211780 0.711265 0.393803
Si Si3 0.286412 0.292675 0.648038
Si Si4 0.333637 0.788493 0.227231
Si Si5 0.818855 0.198013 0.853184
Si Si6 0.747914 0.289224 0.521828
Si Si7 0.251042 0.791769 0.978896
Si Si8 0.830941 0.206656 0.267869
O O1 0.594201 0.500000 0.107450
O O2 0.433464 0.797716 0.121414
O O3 0.739015 0.743667 0.063666
O O4 0.934620 0.718747 0.128649
O O5 0.210248 0.500000 0.393790
O O6 0.946331 0.769000 0.376824
O O7 0.247973 0.765739 0.435823
O O8 0.445513 0.769512 0.368174
O O9 0.290366 0.500000 0.645437
O O10 0.236146 0.248036 0.690242
O O11 0.262628 0.730423 0.186377
O O12 0.606211 0.729178 0.241581
O O13 0.107911 0.732472 0.254754
O O14 0.341971 0.000000 0.226685
O O15 0.896044 0.000000 0.847264
O O16 0.500000 0.232659 0.500000
O O17 0.745540 0.500000 0.522097
O O18 0.000000 0.235198 0.500000
O O19 0.249549 0.000000 0.980635
O O20 0.500000 0.729793 0.000000
O O21 0.000000 0.728693 0.000000
O O22 0.836208 0.000000 0.264410
#
# Coordination Sequence:
#
# PCOD9144795 Si02
#       8
#     4   4   4   4   4   4   4   4
#     4  12  25  40  60  92 129 157 188 240 301 346
#     4   9  17  28  42  62  93 128 159 196 243 300
#     4  10  19  31  46  67  97 131 161 192 245 310
#     4   9  19  35  57  80 102 134 178 226 267 308
#     4  11  22  41  66  87 113 156 203 237 279 347
#     4   9  15  23  37  58  85 118 155 195 241 289
#     4  10  21  38  61  87 115 153 202 245 281 335
#     4  10  19  34  54  77 102 129 170 221 265 303
#
# _framework density 21.527621
#
# number of rings (size 3 to 8) (size 9 to 14) (size 15 to 20)
#    0.000    2.000    0.000    4.500    0.000    6.500 
#    0.000    3.750    0.000    0.000    0.000    0.000 
#    0.000   10.000    0.000    0.000    0.000    0.000 
#
# Total GULP energy -178883.058961 kJ/mol
# GULP energy per Si atom -5590.095593 kJ/mol
# Density = 2.147862 g / cm^3
# Si number density = 21.527621 Si / 1000 Ang^3
#
#
#
# Elastic Constant Matrix: (Units=GPa)
#
#
# Indices 1 2 3 4 5 6 
#
# 1 72.5565 1.2340 -21.7731 0.0000 9.9127 0.0000
# 2 1.2340 30.9288 -7.5461 0.0000 1.9462 0.0000
# 3 -21.7731 -7.5461 63.6811 0.0000 6.3813 0.0000
# 4 0.0000 0.0000 0.0000 15.8182 0.0000 -6.6609
# 5 9.9127 1.9462 6.3813 0.0000 41.6270 0.0000
# 6 0.0000 0.0000 0.0000 -6.6609 0.0000 8.1845
#
#
#
# Elastic Compliance Matrix: (Units=1/GPa)
#
#
# Indices 1 2 3 4 5 6 
#
# 1 0.016289 0.001169 0.006197 0.000000 -0.004884 0.000000
# 2 0.001169 0.033578 0.004635 0.000000 -0.002559 0.000000
# 3 0.006197 0.004635 0.018830 0.000000 -0.004579 0.000000
# 4 0.000000 0.000000 0.000000 0.096179 0.000000 0.078275
# 5 -0.004884 -0.002559 -0.004579 0.000000 0.026007 0.000000
# 6 0.000000 0.000000 0.000000 0.078275 0.000000 0.185887
#
#
# Mechanical properties :
#
#
# Convention : Reuss Voigt Hill
#
# Bulk Modulus (GPa) = 10.78731 12.33289 11.56010
# Shear Modulus (GPa) = 13.03212 26.14271 19.58742
#
# Velocity S-wave (km/s) = 2.46309 3.48858 3.01968
# Velocity P-wave (km/s) = 3.62090 4.68702 4.18802
#
# Compressibility (1/GPa) = 0.09270153
#
# Stress axis : x y z
#
# Youngs Moduli (GPa) = 61.38937 29.78180 53.10584
#
# Poissons Ratio (x) = -0.03483 -0.32912
# Poissons Ratio (y) = -0.07179 -0.24615
# Poissons Ratio (z) = -0.38046 -0.13804
#
# Static dielectric constant tensor:
#      x y z
#    x 1.709430 0.000000 -0.006460 
#    y 0.000000 1.809790 0.000000 
#    z -0.006460 0.000000 1.732580 
# 
# From -- ./inp_files/94338.got.cif
#   From: 2010.05.17/outbox.cif.g08.bks.cpg/sg10_48_cif.got.tgz:94338.got - 2010.06.03 11:33:40.
