data_PCOD9144438
_publ_section_title
;
Structure prediction by ZEFSAII (Michael W. Deem and Ramdas Pophale) SiO2 
 PCOD9144438
Probable space group: P 2/M
;
_chemical_formula_sum "Si O2"
_cell_formula_units_Z 32
_cell_length_a 14.245349
_cell_length_b 15.956951
_cell_length_c 9.227243
_cell_angle_alpha 90.000000
_cell_angle_beta 58.378158
_cell_angle_gamma 90.000000
_cell_volume 1786.049322
_symmetry_space_group_name_H-M "P 2/M"
_symmetry_group_IT_number 10
_symmetry_cell_setting 'monoclinic'
loop_
_space_group_symop_operation_xyz
x,y,z
-x,y,-z
-x,-y,-z
x,-y,z
loop_
_atom_site_type_symbol
_atom_site_label
_atom_site_fract_x
_atom_site_fract_y
_atom_site_fract_z
Si Si1 0.799228 0.223576 0.017830
Si Si2 0.502429 0.402945 0.333030
Si Si3 0.711791 0.591553 0.683815
Si Si4 0.896196 0.407155 0.976453
Si Si5 0.389563 0.710890 0.999367
Si Si6 0.944781 0.360543 0.392110
Si Si7 0.015107 0.821401 0.659343
Si Si8 0.120188 0.906460 0.825676
O O1 0.824653 0.321955 0.036580
O O2 0.895840 0.191607 0.831294
O O3 0.684993 0.221174 0.022257
O O4 0.808554 0.164708 0.151346
O O5 0.500000 0.370922 0.500000
O O6 0.539456 0.500000 0.307140
O O7 0.380014 0.400850 0.365588
O O8 0.572218 0.351726 0.159410
O O9 0.697927 0.500000 0.765657
O O10 0.829454 0.596306 0.512351
O O11 0.688930 0.661618 0.823134
O O12 0.845110 0.500000 0.043285
O O13 0.961577 0.407325 0.772489
O O14 0.000000 0.396935 0.000000
O O15 0.500000 0.735669 0.000000
O O16 0.000000 0.345203 0.500000
O O17 0.926140 0.267117 0.349276
O O18 0.000000 0.835906 0.500000
O O19 0.088942 0.888437 0.684308
O O20 0.165518 0.000000 0.808407
O O21 0.000000 0.902905 0.000000
#
# Coordination Sequence:
#
# PCOD9144438 Si02
#       8
#     4   4   4   4   4   4   4   4
#     4  10  19  33  51  71 100 135 167 204 247 292
#     4   9  19  33  46  64  90 121 166 219 258 288
#     4  10  19  31  47  66  93 131 171 209 248 290
#     4  10  20  31  44  68 101 135 169 201 238 291
#     4  10  20  33  49  68  92 127 173 215 255 295
#     4  10  19  30  44  65  96 131 164 196 233 284
#     4   9  17  30  49  76 106 130 156 195 239 291
#     4   9  18  33  53  75 100 130 161 195 243 302
#
# _framework density 17.916639
#
# number of rings (size 3 to 8) (size 9 to 14) (size 15 to 20)
#    0.000    2.375    0.000    4.875    0.000    6.750 
#    0.000    2.500    0.000    0.375    0.000    0.000 
#    0.000   14.500    0.000    0.000    0.000    0.250 
#
# Total GULP energy -178225.315401 kJ/mol
# GULP energy per Si atom -5569.541106 kJ/mol
# Density = 1.787586 g / cm^3
# Si number density = 17.916639 Si / 1000 Ang^3
#
#
#
# Elastic Constant Matrix: (Units=GPa)
#
#
# Indices 1 2 3 4 5 6 
#
# 1 85.1220 44.5984 21.7205 0.0000 6.5982 0.0000
# 2 44.5984 81.1427 17.9927 0.0000 8.7374 0.0000
# 3 21.7205 17.9927 37.0387 0.0000 18.2321 0.0000
# 4 0.0000 0.0000 0.0000 10.3101 0.0000 3.4296
# 5 6.5982 8.7374 18.2321 0.0000 27.6197 0.0000
# 6 0.0000 0.0000 0.0000 3.4296 0.0000 8.8781
#
#
#
# Elastic Compliance Matrix: (Units=1/GPa)
#
#
# Indices 1 2 3 4 5 6 
#
# 1 0.018018 -0.008467 -0.008374 0.000000 0.003902 0.000000
# 2 -0.008467 0.017790 -0.002818 0.000000 -0.001745 0.000000
# 3 -0.008374 -0.002818 0.047188 0.000000 -0.028257 0.000000
# 4 0.000000 0.000000 0.000000 0.111294 0.000000 -0.042993
# 5 0.003902 -0.001745 -0.028257 0.000000 0.054479 0.000000
# 6 0.000000 0.000000 0.000000 -0.042993 0.000000 0.129244
#
#
# Mechanical properties :
#
#
# Convention : Reuss Voigt Hill
#
# Bulk Modulus (GPa) = 22.89436 41.32517 32.10977
# Shear Modulus (GPa) = 11.57699 17.29437 14.43568
#
# Velocity S-wave (km/s) = 2.54472 3.11025 2.84159
# Velocity P-wave (km/s) = 4.63035 6.00113 5.35974
#
# Compressibility (1/GPa) = 0.04367888
#
# Stress axis : x y z
#
# Youngs Moduli (GPa) = 55.49962 56.21057 21.19176
#
# Poissons Ratio (x) = 0.47591 0.17746
# Poissons Ratio (y) = 0.46989 0.05972
# Poissons Ratio (z) = 0.46476 0.15841
#
# Static dielectric constant tensor:
#      x y z
#    x 1.619770 0.000000 0.005530 
#    y 0.000000 1.651990 0.000000 
#    z 0.005530 0.000000 1.617450 
# 
# From -- ./inp_files/29484.got.cif
#   From: 2010.05.17/outbox.cif.g08.bks.cpg/sg10_15_cif.got.tgz:29484.got - 2010.06.03 11:33:40.
