data_PCOD9144712
_publ_section_title
;
Structure prediction by ZEFSAII (Michael W. Deem and Ramdas Pophale) SiO2 
 PCOD9144712
Probable space group: P 2/M
;
_chemical_formula_sum "Si O2"
_cell_formula_units_Z 30
_cell_length_a 14.067038
_cell_length_b 7.775939
_cell_length_c 21.176996
_cell_angle_alpha 90.000000
_cell_angle_beta 30.393602
_cell_angle_gamma 90.000000
_cell_volume 1171.970515
_symmetry_space_group_name_H-M "P 2/M"
_symmetry_group_IT_number 10
_symmetry_cell_setting 'monoclinic'
loop_
_space_group_symop_operation_xyz
x,y,z
-x,y,-z
-x,-y,-z
x,-y,z
loop_
_atom_site_type_symbol
_atom_site_label
_atom_site_fract_x
_atom_site_fract_y
_atom_site_fract_z
Si Si1 0.256345 0.696874 0.890245
Si Si2 0.685367 0.793173 0.648522
Si Si3 0.053794 0.203213 0.614294
Si Si4 0.337627 0.793835 0.191126
Si Si5 0.286459 0.818429 0.743167
Si Si6 0.985514 0.000000 0.196163
Si Si7 0.384725 0.691430 0.510287
Si Si8 0.238107 0.300108 0.046084
O O1 0.197599 0.500000 0.924235
O O2 0.481435 0.713551 0.753857
O O3 0.183372 0.782807 0.867865
O O4 0.224044 0.763437 0.979726
O O5 0.837165 0.729907 0.510747
O O6 0.722603 0.764437 0.701070
O O7 0.670770 0.000000 0.649444
O O8 0.203452 0.222793 0.584838
O O9 0.844342 0.275531 0.741524
O O10 0.026603 0.000000 0.619916
O O11 0.540631 0.710709 0.063999
O O12 0.365352 0.000000 0.166512
O O13 0.447347 0.683739 0.636513
O O14 0.392929 0.000000 0.690223
O O15 0.143756 0.852255 0.767992
O O16 0.120004 0.153037 0.147434
O O17 0.500000 0.784287 0.500000
O O18 0.331168 0.500000 0.561911
O O19 0.177900 0.500000 0.084957
#
# Coordination Sequence:
#
# PCOD9144712 Si02
#       8
#     4   4   4   4   4   2   4   4
#     4  10  19  30  49  77 113 153 195 238 281 338
#     4   9  16  27  47  75 114 155 190 225 273 334
#     4  10  19  31  54  85 113 151 193 228 283 349
#     4   9  17  31  52  80 118 157 192 234 278 340
#     4  10  22  36  56  80 102 148 191 238 290 349
#     4  10  24  39  59  80 110 155 198 254 291 345
#     4  11  24  41  60  84 118 152 185 240 303 354
#     4  10  21  36  54  81 117 158 199 244 290 335
#
# _framework density 25.597912000000001
#
# number of rings (size 3 to 8) (size 9 to 14) (size 15 to 20)
#    0.400    1.733    2.000    1.600    1.867    5.333 
#    0.000    1.333    0.000    4.000    0.000    1.867 
#    0.000    3.200    0.000    0.000    0.000    0.000 
#
# Total GULP energy -167129.640526 kJ/mol
# GULP energy per Si atom -5570.988018 kJ/mol
# Density = 2.553965 g / cm^3
# Si number density = 25.597912 Si / 1000 Ang^3
#
#
#
# Elastic Constant Matrix: (Units=GPa)
#
#
# Indices 1 2 3 4 5 6 
#
# 1 102.4291 5.9450 37.2096 0.0000 -16.0513 0.0000
# 2 5.9450 83.9441 22.9046 0.0000 2.2157 0.0000
# 3 37.2096 22.9046 128.9127 0.0000 -24.9956 0.0000
# 4 0.0000 0.0000 0.0000 -21.5556 0.0000 -1.2720
# 5 -16.0513 2.2157 -24.9956 0.0000 30.1556 0.0000
# 6 0.0000 0.0000 0.0000 -1.2720 0.0000 19.0795
#
#
#
# Elastic Compliance Matrix: (Units=1/GPa)
#
#
# Indices 1 2 3 4 5 6 
#
# 1 0.011291 -0.000240 -0.002440 0.000000 0.004005 0.000000
# 2 -0.000240 0.012805 -0.002875 0.000000 -0.003452 0.000000
# 3 -0.002440 -0.002875 0.010439 0.000000 0.007566 0.000000
# 4 0.000000 0.000000 0.000000 -0.046210 0.000000 -0.003081
# 5 0.004005 -0.003452 0.007566 0.000000 0.041818 0.000000
# 6 0.000000 0.000000 0.000000 -0.003081 0.000000 0.052207
#
#
# Mechanical properties :
#
#
# Convention : Reuss Voigt Hill
#
# Bulk Modulus (GPa) = 42.68803 49.71158 46.19980
# Shear Modulus (GPa) = 49.37393 22.15103 35.76248
#
# Velocity S-wave (km/s) = 4.39661 2.94487 3.74182
# Velocity P-wave (km/s) = 6.51814 5.57004 6.06265
#
# Compressibility (1/GPa) = 0.02342577
#
# Stress axis : x y z
#
# Youngs Moduli (GPa) = 88.56847 78.09260 95.79266
#
# Poissons Ratio (x) = 0.01871 0.23372
# Poissons Ratio (y) = 0.02122 0.27543
# Poissons Ratio (z) = 0.21609 0.22454
#
# Static dielectric constant tensor:
#      x y z
#    x 2.130000 0.000000 0.077400 
#    y 0.000000 0.590580 0.000000 
#    z 0.077400 0.000000 2.074550 
# 
# From -- ./inp_files/93038.got.cif
#   From: 2010.05.17/outbox.cif.g08.bks.cpg/sg10_47_cif.got.tgz:93038.got - 2010.06.03 11:33:40.
