data_PCOD9144237
_publ_section_title
;
Structure prediction by ZEFSAII (Michael W. Deem and Ramdas Pophale) SiO2 
 PCOD9144237
Probable space group: P 2/M
;
_chemical_formula_sum "Si O2"
_cell_formula_units_Z 16
_cell_length_a 19.603875
_cell_length_b 5.492218
_cell_length_c 10.179064
_cell_angle_alpha 90.000000
_cell_angle_beta 45.954575
_cell_angle_gamma 90.000000
_cell_volume 787.768954
_symmetry_space_group_name_H-M "P 2/M"
_symmetry_group_IT_number 10
_symmetry_cell_setting 'monoclinic'
loop_
_space_group_symop_operation_xyz
x,y,z
-x,y,-z
-x,-y,-z
x,-y,z
loop_
_atom_site_type_symbol
_atom_site_label
_atom_site_fract_x
_atom_site_fract_y
_atom_site_fract_z
Si Si1 0.384700 0.000000 0.137304
Si Si2 0.418059 0.500000 0.997271
Si Si3 0.395151 0.000000 0.577702
Si Si4 0.203103 0.000000 0.905576
Si Si5 0.223042 0.000000 0.558708
Si Si6 0.448616 0.500000 0.429032
Si Si7 0.117744 0.500000 0.693577
Si Si8 0.898489 0.500000 0.965840
O O1 0.325126 0.000000 0.350859
O O2 0.500000 0.000000 0.000000
O O3 0.362449 0.249644 0.091498
O O4 0.473739 0.500000 0.786951
O O5 0.500000 0.500000 0.000000
O O6 0.500000 0.000000 0.500000
O O7 0.389062 0.252608 0.506218
O O8 0.313743 0.000000 0.796402
O O9 0.150978 0.750761 0.013500
O O10 0.213742 0.000000 0.730668
O O11 0.171062 0.250431 0.585431
O O12 0.500000 0.500000 0.500000
O O13 0.110852 0.500000 0.862447
O O14 0.010053 0.500000 0.786237
#
# Coordination Sequence:
#
# PCOD9144237 Si02
#       8
#     2   2   2   2   2   2   2   2
#     4  10  21  33  44  71 102 137 177 221 248 296
#     4  10  21  32  50  70  97 137 174 226 257 292
#     4  10  21  34  50  71 100 139 176 225 252 313
#     4  10  19  28  48  69  96 132 179 210 255 326
#     4  10  19  29  46  69  95 140 175 205 257 315
#     4  10  21  36  52  70  97 141 184 214 265 310
#     4   9  17  30  46  64  98 129 172 216 257 316
#     4   9  17  30  44  70  92 129 171 220 260 304
#
# _framework density 20.310524000000001
#
# number of rings (size 3 to 8) (size 9 to 14) (size 15 to 20)
#    0.000    2.250    0.000    3.000    7.000    3.000 
#    0.000    0.000    0.000    0.000    0.000    0.000 
#    0.000    0.000    0.000  315.000    0.000    0.000 
#
# Total GULP energy -89224.039833 kJ/mol
# GULP energy per Si atom -5576.502490 kJ/mol
# Density = 2.026430 g / cm^3
# Si number density = 20.310524 Si / 1000 Ang^3
#
#
#
# Elastic Constant Matrix: (Units=GPa)
#
#
# Indices 1 2 3 4 5 6 
#
# 1 33.8239 17.3301 23.0859 0.0000 -9.5307 0.0000
# 2 17.3301 228.9024 41.8763 0.0000 -12.2591 0.0000
# 3 23.0859 41.8763 88.5894 0.0000 -13.1529 0.0000
# 4 0.0000 0.0000 0.0000 37.0812 0.0000 -11.4452
# 5 -9.5307 -12.2591 -13.1529 0.0000 38.9674 0.0000
# 6 0.0000 0.0000 0.0000 -11.4452 0.0000 7.2642
#
#
#
# Elastic Compliance Matrix: (Units=1/GPa)
#
#
# Indices 1 2 3 4 5 6 
#
# 1 0.037509 -0.000977 -0.008418 0.000000 0.006025 0.000000
# 2 -0.000977 0.004830 -0.001936 0.000000 0.000627 0.000000
# 3 -0.008418 -0.001936 0.014739 0.000000 0.002307 0.000000
# 4 0.000000 0.000000 0.000000 0.052497 0.000000 0.082711
# 5 0.006025 0.000627 0.002307 0.000000 0.028112 0.000000
# 6 0.000000 0.000000 0.000000 0.082711 0.000000 0.267977
#
#
# Mechanical properties :
#
#
# Convention : Reuss Voigt Hill
#
# Bulk Modulus (GPa) = 29.05551 57.32226 43.18888
# Shear Modulus (GPa) = 11.36885 34.59747 22.98316
#
# Velocity S-wave (km/s) = 2.36847 4.13174 3.36756
# Velocity P-wave (km/s) = 4.67079 7.14464 6.03581
#
# Compressibility (1/GPa) = 0.03441689
#
# Stress axis : x y z
#
# Youngs Moduli (GPa) = 26.66036 207.02470 67.84613
#
# Poissons Ratio (x) = 0.20227 0.57114
# Poissons Ratio (y) = 0.02605 0.13132
# Poissons Ratio (z) = 0.22443 0.40071
#
# Static dielectric constant tensor:
#      x y z
#    x 0.429330 0.000000 -1.070050 
#    y 0.000000 1.676360 0.000000 
#    z -1.070050 0.000000 0.912410 
# 
# From -- ./inp_files/56192.got.cif
#   From: 2010.05.17/outbox.cif.g08.bks.cpg/sg10_29_cif.got.tgz:56192.got - 2010.06.03 11:33:40.
