data_PCOD9144809
_publ_section_title
;
Structure prediction by ZEFSAII (Michael W. Deem and Ramdas Pophale) SiO2 
 PCOD9144809
Probable space group: P 2/M
;
_chemical_formula_sum "Si O2"
_cell_formula_units_Z 32
_cell_length_a 31.923758
_cell_length_b 8.822304
_cell_length_c 21.295636
_cell_angle_alpha 90.000000
_cell_angle_beta 159.407596
_cell_angle_gamma 90.000000
_cell_volume 2109.505583
_symmetry_space_group_name_H-M "P 2/M"
_symmetry_group_IT_number 10
_symmetry_cell_setting 'monoclinic'
loop_
_space_group_symop_operation_xyz
x,y,z
-x,y,-z
-x,-y,-z
x,-y,z
loop_
_atom_site_type_symbol
_atom_site_label
_atom_site_fract_x
_atom_site_fract_y
_atom_site_fract_z
Si Si1 0.123499 0.174709 0.712908
Si Si2 0.008998 0.319161 0.360730
Si Si3 0.962291 0.819580 0.734984
Si Si4 0.280227 0.316709 0.548665
Si Si5 0.507747 0.181232 0.937042
Si Si6 0.075396 0.679075 0.010434
Si Si7 0.250694 0.680660 0.777514
Si Si8 0.816460 0.678341 0.714266
O O1 0.090964 0.256800 0.732034
O O2 0.216581 0.259429 0.798764
O O3 0.000000 0.176107 0.500000
O O4 0.157374 0.000000 0.770497
O O5 0.998941 0.500000 0.340449
O O6 0.005064 0.240968 0.287801
O O7 0.137286 0.286261 0.573304
O O8 0.835796 0.746556 0.578079
O O9 0.058472 0.766955 0.922009
O O10 0.950979 0.000000 0.719197
O O11 0.274430 0.500000 0.541368
O O12 0.398653 0.258763 0.747826
O O13 0.271006 0.263347 0.462705
O O14 0.499343 0.000000 0.918768
O O15 0.500000 0.218939 0.000000
O O16 0.632456 0.239480 0.084854
O O17 0.097107 0.500000 0.029002
O O18 0.946004 0.687975 0.862754
O O19 0.167155 0.739660 0.192145
O O20 0.266929 0.500000 0.801552
O O21 0.790804 0.500000 0.686597
#
# Coordination Sequence:
#
# PCOD9144809 Si02
#       8
#     4   4   4   4   4   4   4   4
#     4   9  17  30  48  68  89 112 139 177 225 268
#     4  10  19  31  47  66  88 116 150 183 217 261
#     4  11  20  28  40  63  93 120 147 180 221 264
#     4  10  19  32  47  62  83 115 154 189 221 260
#     4  11  23  35  46  63  89 119 151 188 227 261
#     4   8  13  25  42  59  81 111 144 175 213 260
#     4  10  20  33  49  66  85 114 152 188 219 258
#     4   7  12  24  43  61  78 106 144 182 216 255
#
# _framework density 15.16943
#
# number of rings (size 3 to 8) (size 9 to 14) (size 15 to 20)
#    0.000    2.500    0.000    5.250    0.000    6.000 
#    0.000    5.625    0.000    0.000    0.000    0.000 
#    0.000    1.000    0.000   10.750    0.000    5.000 
#
# Total GULP energy -178281.842485 kJ/mol
# GULP energy per Si atom -5571.307578 kJ/mol
# Density = 1.513490 g / cm^3
# Si number density = 15.169430 Si / 1000 Ang^3
#
#
#
# Elastic Constant Matrix: (Units=GPa)
#
#
# Indices 1 2 3 4 5 6 
#
# 1 136.3926 59.4709 60.6390 0.0000 -15.5574 0.0000
# 2 59.4709 69.9214 36.2877 0.0000 -12.9505 0.0000
# 3 60.6390 36.2877 62.6330 0.0000 -16.7095 0.0000
# 4 0.0000 0.0000 0.0000 -0.0581 0.0000 15.2296
# 5 -15.5574 -12.9505 -16.7095 0.0000 25.7044 0.0000
# 6 0.0000 0.0000 0.0000 15.2296 0.0000 14.2975
#
#
#
# Elastic Compliance Matrix: (Units=1/GPa)
#
#
# Indices 1 2 3 4 5 6 
#
# 1 0.015307 -0.007728 -0.010779 0.000000 -0.001636 0.000000
# 2 -0.007728 0.024566 -0.005682 0.000000 0.004006 0.000000
# 3 -0.010779 -0.005682 0.032894 0.000000 0.011997 0.000000
# 4 0.000000 0.000000 0.000000 -0.061423 0.000000 0.065427
# 5 -0.001636 0.004006 0.011997 0.000000 0.047731 0.000000
# 6 0.000000 0.000000 0.000000 0.065427 0.000000 0.000250
#
#
# Mechanical properties :
#
#
# Convention : Reuss Voigt Hill
#
# Bulk Modulus (GPa) = 41.00150 64.63803 52.81977
# Shear Modulus (GPa) = 43.16658 15.49204 29.32931
#
# Velocity S-wave (km/s) = 5.34023 3.19919 4.40187
# Velocity P-wave (km/s) = 8.06919 7.50664 7.79299
#
# Compressibility (1/GPa) = 0.02438935
#
# Stress axis : x y z
#
# Youngs Moduli (GPa) = 65.32944 40.70735 30.40091
#
# Poissons Ratio (x) = 0.31460 0.32768
# Poissons Ratio (y) = 0.50489 0.17272
# Poissons Ratio (z) = 0.70416 0.23128
#
# Static dielectric constant tensor:
#      x y z
#    x 1.508270 0.000000 -0.031570 
#    y 0.000000 1.504620 0.000000 
#    z -0.031570 0.000000 1.498220 
# 
# From -- ./inp_files/66212.got.cif
#   From: 2010.05.17/outbox.cif.g08.bks.cpg/sg10_34_cif.got.tgz:66212.got - 2010.06.03 11:33:40.
