data_PCOD9144496
_publ_section_title
;
Structure prediction by ZEFSAII (Michael W. Deem and Ramdas Pophale) SiO2 
 PCOD9144496
Probable space group: P 2/M
;
_chemical_formula_sum "Si O2"
_cell_formula_units_Z 32
_cell_length_a 21.705706
_cell_length_b 8.958168
_cell_length_c 12.921983
_cell_angle_alpha 90.000000
_cell_angle_beta 52.873230
_cell_angle_gamma 90.000000
_cell_volume 2003.296086
_symmetry_space_group_name_H-M "P 2/M"
_symmetry_group_IT_number 10
_symmetry_cell_setting 'monoclinic'
loop_
_space_group_symop_operation_xyz
x,y,z
-x,y,-z
-x,-y,-z
x,-y,z
loop_
_atom_site_type_symbol
_atom_site_label
_atom_site_fract_x
_atom_site_fract_y
_atom_site_fract_z
Si Si1 0.833638 0.179642 0.288022
Si Si2 0.839296 0.676767 0.055413
Si Si3 0.418082 0.178414 0.214721
Si Si4 0.408380 0.822365 0.603628
Si Si5 0.005011 0.827640 0.120577
Si Si6 0.322245 0.677896 0.495229
Si Si7 0.400784 0.822058 0.993386
Si Si8 0.323009 0.322758 0.882366
O O1 0.827584 0.238241 0.176112
O O2 0.919416 0.220681 0.241711
O O3 0.763253 0.251904 0.420686
O O4 0.828528 0.000000 0.292776
O O5 0.841897 0.500000 0.073727
O O6 0.765787 0.708257 0.058045
O O7 0.920921 0.730296 0.926260
O O8 0.371513 0.268040 0.347354
O O9 0.392003 0.212517 0.123813
O O10 0.408467 0.000000 0.241400
O O11 0.509805 0.209757 0.126521
O O12 0.500000 0.796320 0.500000
O O13 0.363572 0.741414 0.556205
O O14 0.376361 0.760417 0.744177
O O15 0.394639 0.000000 0.611033
O O16 0.017765 0.000000 0.137535
O O17 0.000000 0.824159 0.000000
O O18 0.318095 0.500000 0.505239
O O19 0.389623 0.000000 0.992140
O O20 0.345698 0.734182 0.972361
O O21 0.335493 0.500000 0.860995
#
# Coordination Sequence:
#
# PCOD9144496 Si02
#       8
#     4   4   4   4   4   4   4   4
#     4  10  19  32  49  69  97 133 169 205 242 291
#     4  10  19  30  45  70 102 134 164 200 246 296
#     4   9  19  37  56  74  96 126 169 215 253 295
#     4  11  23  36  50  68  95 135 174 204 243 296
#     4   8  16  29  46  68  93 127 168 203 240 287
#     4  12  23  33  49  75 103 132 165 204 254 302
#     4   9  19  36  57  75  94 127 171 213 252 295
#     4  11  22  33  48  74 105 133 164 204 249 297
#
# _framework density 15.973675
#
# number of rings (size 3 to 8) (size 9 to 14) (size 15 to 20)
#    0.000    2.000    1.250    4.875    0.000    9.250 
#    0.000    1.250    0.000    0.000    0.000    0.875 
#    0.000    7.000    0.000    0.000    0.000    0.000 
#
# Total GULP energy -178580.070874 kJ/mol
# GULP energy per Si atom -5580.627215 kJ/mol
# Density = 1.593732 g / cm^3
# Si number density = 15.973675 Si / 1000 Ang^3
#
#
#
# Elastic Constant Matrix: (Units=GPa)
#
#
# Indices 1 2 3 4 5 6 
#
# 1 72.7995 40.5873 12.6083 0.0000 -3.6777 0.0000
# 2 40.5873 57.4543 15.3715 0.0000 -5.4802 0.0000
# 3 12.6083 15.3715 23.7822 0.0000 -1.2178 0.0000
# 4 0.0000 0.0000 0.0000 13.3028 0.0000 12.0193
# 5 -3.6777 -5.4802 -1.2178 0.0000 16.5988 0.0000
# 6 0.0000 0.0000 0.0000 12.0193 0.0000 30.3659
#
#
#
# Elastic Compliance Matrix: (Units=1/GPa)
#
#
# Indices 1 2 3 4 5 6 
#
# 1 0.022743 -0.015549 -0.002020 0.000000 -0.000243 0.000000
# 2 -0.015549 0.032282 -0.012299 0.000000 0.006311 0.000000
# 3 -0.002020 -0.012299 0.051029 0.000000 -0.000764 0.000000
# 4 0.000000 0.000000 0.000000 0.117022 0.000000 -0.046319
# 5 -0.000243 0.006311 -0.000764 0.000000 0.062219 0.000000
# 6 0.000000 0.000000 0.000000 -0.046319 0.000000 0.051265
#
#
# Mechanical properties :
#
#
# Convention : Reuss Voigt Hill
#
# Bulk Modulus (GPa) = 21.58944 32.35226 26.97085
# Shear Modulus (GPa) = 12.14379 17.75143 14.94761
#
# Velocity S-wave (km/s) = 2.76023 3.33722 3.06235
# Velocity P-wave (km/s) = 4.86862 5.92848 5.42450
#
# Compressibility (1/GPa) = 0.04631894
#
# Stress axis : x y z
#
# Youngs Moduli (GPa) = 43.97007 30.97737 19.59672
#
# Poissons Ratio (x) = 0.48166 0.03958
# Poissons Ratio (y) = 0.68369 0.24101
# Poissons Ratio (z) = 0.08881 0.38098
#
# Static dielectric constant tensor:
#      x y z
#    x 1.532740 0.000000 -0.023190 
#    y 0.000000 1.531470 0.000000 
#    z -0.023190 0.000000 1.524390 
# 
# From -- ./inp_files/55295.got.cif
#   From: 2010.05.17/outbox.cif.g08.bks.cpg/sg10_28_cif.got.tgz:55295.got - 2010.06.03 11:33:40.
