data_PCOD9144853
_publ_section_title
;
Structure prediction by ZEFSAII (Michael W. Deem and Ramdas Pophale) SiO2 
 PCOD9144853
Probable space group: P 2/M
;
_chemical_formula_sum "Si O2"
_cell_formula_units_Z 28
_cell_length_a 25.331339
_cell_length_b 8.560308
_cell_length_c 10.580911
_cell_angle_alpha 90.000000
_cell_angle_beta 35.056738
_cell_angle_gamma 90.000000
_cell_volume 1317.878742
_symmetry_space_group_name_H-M "P 2/M"
_symmetry_group_IT_number 10
_symmetry_cell_setting 'monoclinic'
loop_
_space_group_symop_operation_xyz
x,y,z
-x,y,-z
-x,-y,-z
x,-y,z
loop_
_atom_site_type_symbol
_atom_site_label
_atom_site_fract_x
_atom_site_fract_y
_atom_site_fract_z
Si Si1 0.406585 0.675270 0.901127
Si Si2 0.767994 0.316369 0.619334
Si Si3 0.428221 0.000000 0.257993
Si Si4 0.576668 0.333719 0.739123
Si Si5 0.100601 0.311507 0.855937
Si Si6 0.445765 0.000000 0.735889
Si Si7 0.876142 0.812435 0.641465
Si Si8 0.086147 0.188063 0.160171
O O1 0.383461 0.500000 0.896142
O O2 0.511715 0.666584 0.741686
O O3 0.394032 0.832772 0.844987
O O4 0.341089 0.701211 0.152024
O O5 0.787004 0.500000 0.581613
O O6 0.822351 0.251850 0.392974
O O7 0.807993 0.250453 0.670779
O O8 0.375617 0.835059 0.354905
O O9 0.489447 0.000000 0.265901
O O10 0.500000 0.000000 0.000000
O O11 0.629001 0.500000 0.642424
O O12 0.500000 0.336934 0.000000
O O13 0.100807 0.500000 0.858272
O O14 0.115571 0.254375 0.968639
O O15 0.000000 0.262422 0.000000
O O16 0.500000 0.000000 0.500000
O O17 0.861974 0.759099 0.813824
O O18 0.979304 0.769279 0.394962
O O19 0.872060 0.000000 0.650122
O O20 0.091039 0.000000 0.145283
#
# Coordination Sequence:
#
# PCOD9144853 Si02
#       8
#     4   4   2   4   4   2   4   4
#     4   9  19  34  51  78 112 139 174 220 263 323
#     4  10  20  33  50  74 104 139 176 218 271 321
#     4   8  14  26  46  72 100 123 151 196 236 284
#     4   8  13  24  45  70  95 126 161 199 243 293
#     4  10  19  31  47  72 104 134 174 225 268 308
#     4  10  20  34  56  82 103 132 173 209 261 319
#     4   9  18  31  49  70  97 136 180 225 267 315
#     4   9  18  32  47  70  99 131 181 231 269 310
#
# _framework density 21.246262999999999
#
# number of rings (size 3 to 8) (size 9 to 14) (size 15 to 20)
#    0.000    2.857    1.429    0.857    1.000    1.714 
#    0.000    1.429    0.000    6.857    0.000   14.000 
#    0.000    0.000    0.000    0.000    0.000    0.000 
#
# Total GULP energy -155986.043247 kJ/mol
# GULP energy per Si atom -5570.930116 kJ/mol
# Density = 2.119791 g / cm^3
# Si number density = 21.246263 Si / 1000 Ang^3
#
#
#
# Elastic Constant Matrix: (Units=GPa)
#
#
# Indices 1 2 3 4 5 6 
#
# 1 91.8494 10.8544 46.4524 0.0000 20.2796 0.0000
# 2 10.8544 127.3522 45.9465 0.0000 -1.2144 0.0000
# 3 46.4524 45.9465 113.9281 0.0000 32.4840 0.0000
# 4 0.0000 0.0000 0.0000 24.6332 0.0000 7.0533
# 5 20.2796 -1.2144 32.4840 0.0000 27.7277 0.0000
# 6 0.0000 0.0000 0.0000 7.0533 0.0000 16.7650
#
#
#
# Elastic Compliance Matrix: (Units=1/GPa)
#
#
# Indices 1 2 3 4 5 6 
#
# 1 0.014251 0.000354 -0.004484 0.000000 -0.005155 0.000000
# 2 0.000354 0.010242 -0.006500 0.000000 0.007805 0.000000
# 3 -0.004484 -0.006500 0.018579 0.000000 -0.018772 0.000000
# 4 0.000000 0.000000 0.000000 0.046156 0.000000 -0.019418
# 5 -0.005155 0.007805 -0.018772 0.000000 0.062169 0.000000
# 6 0.000000 0.000000 0.000000 -0.019418 0.000000 0.067818
#
#
# Mechanical properties :
#
#
# Convention : Reuss Voigt Hill
#
# Bulk Modulus (GPa) = 45.84491 59.95958 52.90225
# Shear Modulus (GPa) = 20.18204 29.15027 24.66615
#
# Velocity S-wave (km/s) = 3.08540 3.70810 3.41099
# Velocity P-wave (km/s) = 5.85813 6.82758 6.36135
#
# Compressibility (1/GPa) = 0.02181267
#
# Stress axis : x y z
#
# Youngs Moduli (GPa) = 70.16890 97.64109 53.82331
#
# Poissons Ratio (x) = -0.03454 0.24132
# Poissons Ratio (y) = -0.02482 0.34985
# Poissons Ratio (z) = 0.31461 0.63466
#
# Static dielectric constant tensor:
#      x y z
#    x 1.803110 0.000000 -0.010220 
#    y 0.000000 1.822550 0.000000 
#    z -0.010220 0.000000 1.756580 
# 
# From -- ./inp_files/37185.got.cif
#   From: 2010.05.17/outbox.cif.g08.bks.cpg/sg10_19_cif.got.tgz:37185.got - 2010.06.03 11:33:40.
