data_PCOD9144179
_publ_section_title
;
Structure prediction by ZEFSAII (Michael W. Deem and Ramdas Pophale) SiO2 
 PCOD9144179
Probable space group: P 2/M
;
_chemical_formula_sum "Si O2"
_cell_formula_units_Z 30
_cell_length_a 11.922546
_cell_length_b 15.402464
_cell_length_c 12.940194
_cell_angle_alpha 90.000000
_cell_angle_beta 143.764144
_cell_angle_gamma 90.000000
_cell_volume 1404.651892
_symmetry_space_group_name_H-M "P 2/M"
_symmetry_group_IT_number 10
_symmetry_cell_setting 'monoclinic'
loop_
_space_group_symop_operation_xyz
x,y,z
-x,y,-z
-x,-y,-z
x,-y,z
loop_
_atom_site_type_symbol
_atom_site_label
_atom_site_fract_x
_atom_site_fract_y
_atom_site_fract_z
Si Si1 0.787222 0.402158 0.799859
Si Si2 0.515188 0.299027 0.298803
Si Si3 0.474252 0.000000 0.783563
Si Si4 0.361086 0.825733 0.017578
Si Si5 0.977211 0.100271 0.100922
Si Si6 0.726714 0.139265 0.515771
Si Si7 0.940612 0.244157 0.339446
Si Si8 0.860377 0.398929 0.613429
O O1 0.708018 0.500000 0.751989
O O2 0.664079 0.338699 0.777474
O O3 0.799411 0.383789 0.687095
O O4 0.000000 0.401519 0.000000
O O5 0.602997 0.224895 0.438158
O O6 0.677422 0.371852 0.409992
O O7 0.473119 0.250022 0.160466
O O8 0.397129 0.926245 0.642301
O O9 0.542341 0.919990 0.910351
O O10 0.176564 0.842408 0.954861
O O11 0.266995 0.793509 0.840644
O O12 0.176778 0.104303 0.308763
O O13 0.904411 0.000000 0.048332
O O14 0.000000 0.126914 0.000000
O O15 0.907231 0.170605 0.581768
O O16 0.978958 0.330151 0.299727
O O17 0.000000 0.264404 0.500000
O O18 0.911863 0.500000 0.640487
#
# Coordination Sequence:
#
# PCOD9144179 Si02
#       8
#     4   4   2   4   4   4   4   4
#     4  10  20  34  56  86 120 154 192 229 271 340
#     4  10  20  34  55  87 120 153 184 232 282 340
#     4  10  18  38  58  78 116 152 186 238 288 334
#     4  10  21  36  58  81 112 150 191 240 288 337
#     4  10  19  33  52  77 110 153 194 232 270 327
#     4   9  20  37  58  80 117 154 193 241 284 334
#     4  10  22  41  62  85 110 144 194 247 294 342
#     4  10  21  38  60  86 117 155 189 230 288 344
#
# _framework density 21.357605
#
# number of rings (size 3 to 8) (size 9 to 14) (size 15 to 20)
#    0.000    2.133    1.333    1.600    0.000    6.133 
#    0.000   11.333    0.000    0.800    0.000    0.000 
#    0.000    0.000    0.000    0.000    0.000    0.000 
#
# Total GULP energy -167047.630107 kJ/mol
# GULP energy per Si atom -5568.254337 kJ/mol
# Density = 2.130899 g / cm^3
# Si number density = 21.357605 Si / 1000 Ang^3
#
#
#
# Elastic Constant Matrix: (Units=GPa)
#
#
# Indices 1 2 3 4 5 6 
#
# 1 47.9234 19.9279 19.1933 0.0000 -21.6538 0.0000
# 2 19.9279 106.5091 39.0189 0.0000 -13.1008 0.0000
# 3 19.1933 39.0189 102.8805 0.0000 -18.1135 0.0000
# 4 0.0000 0.0000 0.0000 25.7977 0.0000 -2.5929
# 5 -21.6538 -13.1008 -18.1135 0.0000 19.2648 0.0000
# 6 0.0000 0.0000 0.0000 -2.5929 0.0000 13.9959
#
#
#
# Elastic Compliance Matrix: (Units=1/GPa)
#
#
# Indices 1 2 3 4 5 6 
#
# 1 0.043063 -0.002684 0.001420 0.000000 0.047913 0.000000
# 2 -0.002684 0.011366 -0.003572 0.000000 0.001355 0.000000
# 3 0.001420 -0.003572 0.012778 0.000000 0.011182 0.000000
# 4 0.000000 0.000000 0.000000 0.039499 0.000000 0.007318
# 5 0.047913 0.001355 0.011182 0.000000 0.117197 0.000000
# 6 0.000000 0.000000 0.000000 0.007318 0.000000 0.072805
#
#
# Mechanical properties :
#
#
# Convention : Reuss Voigt Hill
#
# Bulk Modulus (GPa) = 17.38030 45.95481 31.66756
# Shear Modulus (GPa) = 15.35819 23.75654 19.55737
#
# Velocity S-wave (km/s) = 2.68451 3.33877 3.02935
# Velocity P-wave (km/s) = 4.21476 6.03545 5.20533
#
# Compressibility (1/GPa) = 0.05753640
#
# Stress axis : x y z
#
# Youngs Moduli (GPa) = 23.22168 87.98132 78.25702
#
# Poissons Ratio (x) = 0.23613 -0.11111
# Poissons Ratio (y) = 0.06232 0.27950
# Poissons Ratio (z) = -0.03297 0.31423
#
# Static dielectric constant tensor:
#      x y z
#    x 1.811730 0.000000 0.018200 
#    y 0.000000 1.758450 0.000000 
#    z 0.018200 0.000000 1.816250 
# 
# From -- ./inp_files/67616.got.cif
#   From: 2010.05.17/outbox.cif.g08.bks.cpg/sg10_34_cif.got.tgz:67616.got - 2010.06.03 11:33:40.
