data_PCOD9144911
_publ_section_title
;
Structure prediction by ZEFSAII (Michael W. Deem and Ramdas Pophale) SiO2 
 PCOD9144911
Probable space group: P 2/M
;
_chemical_formula_sum "Si O2"
_cell_formula_units_Z 26
_cell_length_a 9.032558
_cell_length_b 31.928784
_cell_length_c 5.120506
_cell_angle_alpha 90.000000
_cell_angle_beta 60.206079
_cell_angle_gamma 90.000000
_cell_volume 1281.547653
_symmetry_space_group_name_H-M "P 2/M"
_symmetry_group_IT_number 10
_symmetry_cell_setting 'monoclinic'
loop_
_space_group_symop_operation_xyz
x,y,z
-x,y,-z
-x,-y,-z
x,-y,z
loop_
_atom_site_type_symbol
_atom_site_label
_atom_site_fract_x
_atom_site_fract_y
_atom_site_fract_z
Si Si1 0.304263 0.547738 0.583104
Si Si2 0.295479 0.264921 0.659393
Si Si3 0.875147 0.000000 0.359291
Si Si4 0.124155 0.089901 0.640512
Si Si5 0.877523 0.819184 0.356714
Si Si6 0.707037 0.687563 0.836285
Si Si7 0.818139 0.406526 0.800979
O O1 0.500000 0.546888 0.500000
O O2 0.241123 0.500000 0.611952
O O3 0.299673 0.570678 0.309523
O O4 0.201670 0.571844 0.900700
O O5 0.500000 0.266156 0.500000
O O6 0.241975 0.220175 0.593254
O O7 0.233592 0.299046 0.503011
O O8 0.235129 0.278177 0.000151
O O9 0.780483 0.955010 0.442009
O O10 0.000000 0.000000 0.500000
O O11 0.000000 0.000000 0.000000
O O12 0.214094 0.135190 0.549600
O O13 0.000000 0.089726 0.500000
O O14 0.000000 0.089861 0.000000
O O15 0.000000 0.813875 0.500000
O O16 0.000000 0.820829 0.000000
O O17 0.769497 0.642091 0.864140
O O18 0.500000 0.686868 0.000000
O O19 0.000000 0.410322 0.500000
#
# Coordination Sequence:
#
# PCOD9144911 Si02
#       7
#     4   4   2   4   4   4   4
#     4  11  24  43  66  89 117 156 192 218 258 322
#     4  10  21  36  54  75 100 136 178 216 258 311
#     4   8  12  20  34  54  83 118 153 194 240 294
#     4   8  14  23  37  59  88 120 156 197 247 300
#     4  10  19  31  48  72 100 130 164 210 263 310
#     4  10  21  38  58  78 105 142 181 217 257 316
#     4  12  25  40  62  92 120 145 180 231 280 316
#
# _framework density 20.287966999999998
#
# number of rings (size 3 to 8) (size 9 to 14) (size 15 to 20)
#    0.000    2.000    0.000    4.154    0.000    6.154 
#    0.000    0.000    0.000    0.000    0.000    0.538 
#    0.000    0.000    0.000   41.385    0.000    1.538 
#
# Total GULP energy -144996.802652 kJ/mol
# GULP energy per Si atom -5576.800102 kJ/mol
# Density = 2.024179 g / cm^3
# Si number density = 20.287967 Si / 1000 Ang^3
#
#
#
# Elastic Constant Matrix: (Units=GPa)
#
#
# Indices 1 2 3 4 5 6 
#
# 1 41.0356 24.1883 21.9532 0.0000 22.8252 0.0000
# 2 24.1883 161.8101 7.3843 0.0000 12.3839 0.0000
# 3 21.9532 7.3843 79.5107 0.0000 30.2194 0.0000
# 4 0.0000 0.0000 0.0000 29.4803 0.0000 9.4750
# 5 22.8252 12.3839 30.2194 0.0000 31.0487 0.0000
# 6 0.0000 0.0000 0.0000 9.4750 0.0000 21.3896
#
#
#
# Elastic Compliance Matrix: (Units=1/GPa)
#
#
# Indices 1 2 3 4 5 6 
#
# 1 0.043851 -0.004221 -0.000164 0.000000 -0.030393 0.000000
# 2 -0.004221 0.006799 0.000612 0.000000 -0.000204 0.000000
# 3 -0.000164 0.000612 0.020017 0.000000 -0.019606 0.000000
# 4 0.000000 0.000000 0.000000 0.039552 0.000000 -0.017520
# 5 -0.030393 -0.000204 -0.019606 0.000000 0.073714 0.000000
# 6 0.000000 0.000000 0.000000 -0.017520 0.000000 0.054513
#
#
# Mechanical properties :
#
#
# Convention : Reuss Voigt Hill
#
# Bulk Modulus (GPa) = 15.84313 43.26753 29.55533
# Shear Modulus (GPa) = 18.72432 31.63908 25.18170
#
# Velocity S-wave (km/s) = 3.04127 3.95333 3.52691
# Velocity P-wave (km/s) = 4.48982 6.49704 5.58435
#
# Compressibility (1/GPa) = 0.06311884
#
# Stress axis : x y z
#
# Youngs Moduli (GPa) = 22.80467 147.08463 49.95790
#
# Poissons Ratio (x) = 0.62091 0.00818
# Poissons Ratio (y) = 0.09627 -0.03055
# Poissons Ratio (z) = 0.00373 -0.08994
#
# Static dielectric constant tensor:
#      x y z
#    x 1.784000 0.000000 0.041950 
#    y 0.000000 1.791030 0.000000 
#    z 0.041950 0.000000 1.719880 
# 
# From -- ./inp_files/5435.got.cif
#   From: 2010.05.17/outbox.cif.g08.bks.cpg/sg10_3_cif.got.tgz:5435.got - 2010.06.03 11:33:40.
