data_PCOD9144998
_publ_section_title
;
Structure prediction by ZEFSAII (Michael W. Deem and Ramdas Pophale) SiO2 
 PCOD9144998
Probable space group: P 2/M
;
_chemical_formula_sum "Si O2"
_cell_formula_units_Z 32
_cell_length_a 34.771200
_cell_length_b 7.434587
_cell_length_c 5.077095
_cell_angle_alpha 90.000000
_cell_angle_beta 89.876733
_cell_angle_gamma 90.000000
_cell_volume 1312.474311
_symmetry_space_group_name_H-M "P 2/M"
_symmetry_group_IT_number 10
_symmetry_cell_setting 'monoclinic'
loop_
_space_group_symop_operation_xyz
x,y,z
-x,y,-z
-x,-y,-z
x,-y,z
loop_
_atom_site_type_symbol
_atom_site_label
_atom_site_fract_x
_atom_site_fract_y
_atom_site_fract_z
Si Si1 0.585706 0.780614 0.609297
Si Si2 0.832533 0.714514 0.611036
Si Si3 0.288751 0.295042 0.146716
Si Si4 0.040855 0.780078 0.116466
Si Si5 0.789903 0.279876 0.110462
Si Si6 0.664384 0.794899 0.354144
Si Si7 0.541058 0.780753 0.108778
Si Si8 0.083471 0.214417 0.617543
O O1 0.626074 0.717577 0.489845
O O2 0.552647 0.728342 0.402278
O O3 0.587585 0.000000 0.616792
O O4 0.573860 0.723998 0.901021
O O5 0.828627 0.500000 0.622011
O O6 0.822947 0.777661 0.904161
O O7 0.874453 0.751164 0.496148
O O8 0.801168 0.781960 0.400650
O O9 0.280200 0.500000 0.225242
O O10 0.320029 0.292990 0.911712
O O11 0.250373 0.219140 0.011740
O O12 0.304328 0.206786 0.411863
O O13 0.052363 0.718096 0.406003
O O14 0.039994 0.000000 0.127663
O O15 0.073594 0.720591 0.909189
O O16 0.000000 0.723905 0.000000
O O17 0.788324 0.500000 0.122293
O O18 0.655766 0.000000 0.276218
O O19 0.540067 0.000000 0.109412
O O20 0.500000 0.720339 0.000000
O O21 0.079102 0.000000 0.630369
#
# Coordination Sequence:
#
# PCOD9144998 Si02
#       8
#     4   4   4   4   4   4   4   4
#     4   9  17  28  43  66 101 140 170 208 268 328
#     4  10  19  34  54  74  98 131 167 202 253 313
#     4  11  22  39  61  83 108 143 192 238 270 315
#     4   9  17  30  49  71  96 129 166 200 238 289
#     4   9  19  35  55  75  98 133 174 214 254 305
#     4  11  22  37  56  82 117 150 179 220 285 346
#     4   9  15  24  40  64  96 135 176 214 256 311
#     4  10  19  31  49  74 100 125 160 206 248 287
#
# _framework density 24.381430999999999
#
# number of rings (size 3 to 8) (size 9 to 14) (size 15 to 20)
#    0.000    2.250    0.000    3.750    0.000    7.000 
#    0.000    3.750    0.000    2.250    0.000    0.000 
#    0.000   35.000    0.000    0.000    0.000    0.000 
#
# Total GULP energy -178955.134039 kJ/mol
# GULP energy per Si atom -5592.347939 kJ/mol
# Density = 2.432594 g / cm^3
# Si number density = 24.381431 Si / 1000 Ang^3
#
#
#
# Elastic Constant Matrix: (Units=GPa)
#
#
# Indices 1 2 3 4 5 6 
#
# 1 54.6070 -10.4436 -23.7643 0.0000 0.5194 0.0000
# 2 -10.4436 74.3275 -3.1714 0.0000 0.8923 0.0000
# 3 -23.7643 -3.1714 85.4107 0.0000 -0.2112 0.0000
# 4 0.0000 0.0000 0.0000 6.9136 0.0000 -6.1931
# 5 0.5194 0.8923 -0.2112 0.0000 40.3482 0.0000
# 6 0.0000 0.0000 0.0000 -6.1931 0.0000 22.9538
#
#
#
# Elastic Compliance Matrix: (Units=1/GPa)
#
#
# Indices 1 2 3 4 5 6 
#
# 1 0.021618 0.003303 0.006137 0.000000 -0.000319 0.000000
# 2 0.003303 0.013984 0.001437 0.000000 -0.000344 0.000000
# 3 0.006137 0.001437 0.013469 0.000000 -0.000040 0.000000
# 4 0.000000 0.000000 0.000000 0.190742 0.000000 0.051463
# 5 -0.000319 -0.000344 -0.000040 0.000000 0.024796 0.000000
# 6 0.000000 0.000000 0.000000 0.051463 0.000000 0.057451
#
#
# Mechanical properties :
#
#
# Convention : Reuss Voigt Hill
#
# Bulk Modulus (GPa) = 14.11924 15.50963 14.81443
# Shear Modulus (GPa) = 15.43625 30.82476 23.13051
#
# Velocity S-wave (km/s) = 2.51891 3.55952 3.08343
# Velocity P-wave (km/s) = 3.77669 4.82375 4.33198
#
# Compressibility (1/GPa) = 0.07082536
#
# Stress axis : x y z
#
# Youngs Moduli (GPa) = 46.25753 71.51252 74.24524
#
# Poissons Ratio (x) = -0.23622 -0.45563
# Poissons Ratio (y) = -0.15280 -0.10672
# Poissons Ratio (z) = -0.28387 -0.10279
#
# Static dielectric constant tensor:
#      x y z
#    x 1.942320 0.000000 -0.016990 
#    y 0.000000 1.923590 0.000000 
#    z -0.016990 0.000000 1.883860 
# 
# From -- ./inp_files/13561.got.cif
#   From: 2010.05.17/outbox.cif.g08.bks.cpg/sg10_7_cif.got.tgz:13561.got - 2010.06.03 11:33:40.
