data_PCOD9144087
_publ_section_title
;
Structure prediction by ZEFSAII (Michael W. Deem and Ramdas Pophale) SiO2 
 PCOD9144087
Probable space group: P 2/M
;
_chemical_formula_sum "Si O2"
_cell_formula_units_Z 28
_cell_length_a 14.283346
_cell_length_b 8.843924
_cell_length_c 13.017674
_cell_angle_alpha 90.000000
_cell_angle_beta 117.109661
_cell_angle_gamma 90.000000
_cell_volume 1463.742577
_symmetry_space_group_name_H-M "P 2/M"
_symmetry_group_IT_number 10
_symmetry_cell_setting 'monoclinic'
loop_
_space_group_symop_operation_xyz
x,y,z
-x,y,-z
-x,-y,-z
x,-y,z
loop_
_atom_site_type_symbol
_atom_site_label
_atom_site_fract_x
_atom_site_fract_y
_atom_site_fract_z
Si Si1 0.500000 0.315217 0.120733
Si Si2 0.686781 0.683257 0.366490
Si Si3 0.968269 0.172411 0.734135
Si Si4 0.906512 0.331505 0.373704
Si Si5 0.906512 0.331505 0.032808
Si Si6 0.313220 0.316743 0.179709
Si Si7 0.262181 0.682891 0.381090
O O1 0.500000 0.500000 0.117549
O O2 0.599803 0.266639 0.240255
O O3 0.400197 0.266639 0.140452
O O4 0.500000 0.266783 0.000000
O O5 0.678265 0.500000 0.366756
O O6 0.801132 0.718638 0.377720
O O7 0.684722 0.735085 0.484814
O O8 0.861104 0.270505 0.680552
O O9 0.044557 0.213474 0.679156
O O10 0.044557 0.213473 0.865401
O O11 0.934996 0.000000 0.717498
O O12 0.886339 0.500000 0.317641
O O13 0.000000 0.350366 0.500000
O O14 0.886340 0.500000 0.068699
O O15 0.801132 0.281363 0.923412
O O16 0.000000 0.350366 0.000000
O O17 0.321735 0.500000 0.188491
O O18 0.315278 0.264915 0.300092
O O19 0.265197 0.500000 0.382598
#
# Coordination Sequence:
#
# PCOD9144087 Si02
#       7
#     4   4   4   4   4   4   4
#     4   9  18  31  47  79 118 140 171 223 280 325
#     4   9  18  31  52  79 108 145 180 226 275 319
#     4  12  24  34  49  80 118 148 177 225 282 328
#     4  10  19  34  56  79 106 143 186 223 270 331
#     4  10  19  34  56  79 106 143 186 223 270 331
#     4   9  18  31  52  79 108 145 180 226 275 319
#     4  10  18  35  56  78 109 143 188 225 267 330
#
# _framework density 19.129047
#
# number of rings (size 3 to 8) (size 9 to 14) (size 15 to 20)
#    0.000    2.143    2.857    1.286    2.000    1.143 
#    0.000    2.857    0.000    0.000    0.000    6.000 
#    0.000    0.000    0.000    0.000    0.000    0.000 
#
# Total GULP energy -155876.341462 kJ/mol
# GULP energy per Si atom -5567.012195 kJ/mol
# Density = 1.908551 g / cm^3
# Si number density = 19.129047 Si / 1000 Ang^3
#
#
#
# Elastic Constant Matrix: (Units=GPa)
#
#
# Indices 1 2 3 4 5 6 
#
# 1 134.6106 0.1079 96.8323 0.0000 -1.9203 0.0000
# 2 0.1079 10.0371 9.3654 0.0000 -6.1542 0.0000
# 3 96.8323 9.3654 163.1838 0.0000 -17.0761 0.0000
# 4 0.0000 0.0000 0.0000 -3.6045 0.0000 2.9505
# 5 -1.9203 -6.1542 -17.0761 0.0000 30.4085 0.0000
# 6 0.0000 0.0000 0.0000 2.9505 0.0000 0.8337
#
#
#
# Elastic Compliance Matrix: (Units=1/GPa)
#
#
# Indices 1 2 3 4 5 6 
#
# 1 0.013706 0.006345 -0.008789 0.000000 -0.002786 0.000000
# 2 0.006345 0.119702 -0.008561 0.000000 0.019819 0.000000
# 3 -0.008789 -0.008561 0.012319 0.000000 0.004630 0.000000
# 4 0.000000 0.000000 0.000000 -0.071192 0.000000 0.251952
# 5 -0.002786 0.019819 0.004630 0.000000 0.039321 0.000000
# 6 0.000000 0.000000 0.000000 0.251952 0.000000 0.307794
#
#
# Mechanical properties :
#
#
# Convention : Reuss Voigt Hill
#
# Bulk Modulus (GPa) = 8.08289 57.82696 32.95492
# Shear Modulus (GPa) = 10.31140 18.96261 14.63700
#
# Velocity S-wave (km/s) = 2.32425 3.15191 2.76917
# Velocity P-wave (km/s) = 3.38193 6.59860 5.24305
#
# Compressibility (1/GPa) = 0.12371816
#
# Stress axis : x y z
#
# Youngs Moduli (GPa) = 72.95890 8.35406 81.17381
#
# Poissons Ratio (x) = -0.05301 0.71343
# Poissons Ratio (y) = -0.46296 0.69496
# Poissons Ratio (z) = 0.64123 0.07152
#
# Static dielectric constant tensor:
#      x y z
#    x 1.675730 0.000000 -0.001490 
#    y 0.000000 1.658750 0.000000 
#    z -0.001490 0.000000 1.677980 
# 
# From -- ./inp_files/50052.got.cif
#   From: 2010.05.17/outbox.cif.g08.bks.cpg/sg10_26_cif.got.tgz:50052.got - 2010.06.03 11:33:40.
