data_PCOD9144488
_publ_section_title
;
Structure prediction by ZEFSAII (Michael W. Deem and Ramdas Pophale) SiO2 
 PCOD9144488
Probable space group: P 2/M
;
_chemical_formula_sum "Si O2"
_cell_formula_units_Z 32
_cell_length_a 12.599214
_cell_length_b 8.641632
_cell_length_c 21.970599
_cell_angle_alpha 90.000000
_cell_angle_beta 47.189671
_cell_angle_gamma 90.000000
_cell_volume 1754.869402
_symmetry_space_group_name_H-M "P 2/M"
_symmetry_group_IT_number 10
_symmetry_cell_setting 'monoclinic'
loop_
_space_group_symop_operation_xyz
x,y,z
-x,y,-z
-x,-y,-z
x,-y,z
loop_
_atom_site_type_symbol
_atom_site_label
_atom_site_fract_x
_atom_site_fract_y
_atom_site_fract_z
Si Si1 0.942385 0.686830 0.282472
Si Si2 0.938966 0.685093 0.141881
Si Si3 0.670831 0.830456 0.925835
Si Si4 0.772959 0.320746 0.771444
Si Si5 0.215753 0.822304 0.981217
Si Si6 0.378937 0.815164 0.733130
Si Si7 0.374114 0.813325 0.594683
Si Si8 0.503310 0.685206 0.195414
O O1 0.944911 0.500000 0.282612
O O2 0.972665 0.731851 0.199624
O O3 0.782835 0.745756 0.359716
O O4 0.065137 0.744616 0.281766
O O5 0.926060 0.500000 0.145584
O O6 0.784343 0.760740 0.188155
O O7 0.061947 0.737383 0.046695
O O8 0.714818 0.696567 0.862959
O O9 0.712180 0.000000 0.883420
O O10 0.500000 0.827525 0.000000
O O11 0.734506 0.819690 0.967815
O O12 0.788225 0.500000 0.747904
O O13 0.643836 0.254918 0.779889
O O14 0.349617 0.748503 0.892925
O O15 0.196909 0.000000 0.968745
O O16 0.406247 0.770579 0.652321
O O17 0.486227 0.736607 0.738905
O O18 0.387468 0.000000 0.735311
O O19 0.500000 0.762375 0.500000
O O20 0.364807 0.000000 0.595937
O O21 0.505504 0.500000 0.188924
#
# Coordination Sequence:
#
# PCOD9144488 Si02
#       8
#     4   4   4   4   4   4   4   4
#     4   9  18  32  52  81 111 136 167 211 261 308
#     4  10  19  33  53  75 103 137 178 225 269 311
#     4  10  19  30  45  69 100 136 181 230 267 302
#     4  10  20  33  50  73 104 141 179 219 260 304
#     4  11  21  32  48  72 103 140 185 229 269 307
#     4  10  21  38  57  77 105 136 169 212 263 316
#     4   9  19  37  62  89 110 129 158 202 258 317
#     4  11  23  36  51  72 103 145 187 221 257 305
#
# _framework density 18.234976
#
# number of rings (size 3 to 8) (size 9 to 14) (size 15 to 20)
#    0.000    2.000    2.500    1.500    0.000    3.500 
#    0.000    2.500    0.000    0.750    0.000    5.250 
#    0.000    0.000    0.000    0.000    0.000    0.000 
#
# Total GULP energy -178418.786456 kJ/mol
# GULP energy per Si atom -5575.587077 kJ/mol
# Density = 1.819347 g / cm^3
# Si number density = 18.234976 Si / 1000 Ang^3
#
#
#
# Elastic Constant Matrix: (Units=GPa)
#
#
# Indices 1 2 3 4 5 6 
#
# 1 116.1018 18.0176 60.8999 0.0000 -1.4386 0.0000
# 2 18.0176 28.6963 19.2103 0.0000 -1.9804 0.0000
# 3 60.8999 19.2103 90.8501 0.0000 -18.4927 0.0000
# 4 0.0000 0.0000 0.0000 26.1166 0.0000 17.9766
# 5 -1.4386 -1.9804 -18.4927 0.0000 14.3303 0.0000
# 6 0.0000 0.0000 0.0000 17.9766 0.0000 86.2571
#
#
#
# Elastic Compliance Matrix: (Units=1/GPa)
#
#
# Indices 1 2 3 4 5 6 
#
# 1 0.015746 -0.002035 -0.013373 0.000000 -0.015958 0.000000
# 2 -0.002035 0.041446 -0.008511 0.000000 -0.005459 0.000000
# 3 -0.013373 -0.008511 0.028832 0.000000 0.034688 0.000000
# 4 0.000000 0.000000 0.000000 0.044702 0.000000 -0.009316
# 5 -0.015958 -0.005459 0.034688 0.000000 0.112189 0.000000
# 6 0.000000 0.000000 0.000000 -0.009316 0.000000 0.013535
#
#
# Mechanical properties :
#
#
# Convention : Reuss Voigt Hill
#
# Bulk Modulus (GPa) = 26.18759 47.98933 37.08846
# Shear Modulus (GPa) = 15.77205 34.50882 25.14044
#
# Velocity S-wave (km/s) = 2.94417 4.35495 3.71710
# Velocity P-wave (km/s) = 5.09410 7.18761 6.22943
#
# Compressibility (1/GPa) = 0.03818603
#
# Stress axis : x y z
#
# Youngs Moduli (GPa) = 63.50882 24.12767 34.68405
#
# Poissons Ratio (x) = 0.04911 0.46382
# Poissons Ratio (y) = 0.12927 0.29518
# Poissons Ratio (z) = 0.84929 0.20534
#
# Static dielectric constant tensor:
#      x y z
#    x 1.677270 0.000000 -0.004040 
#    y 0.000000 1.649630 0.000000 
#    z -0.004040 0.000000 1.604750 
# 
# From -- ./inp_files/83584.got.cif
#   From: 2010.05.17/outbox.cif.g08.bks.cpg/sg10_42_cif.got.tgz:83584.got - 2010.06.03 11:33:40.
