data_PCOD9144968
_publ_section_title
;
Structure prediction by ZEFSAII (Michael W. Deem and Ramdas Pophale) SiO2 
 PCOD9144968
Probable space group: P 2/M
;
_chemical_formula_sum "Si O2"
_cell_formula_units_Z 32
_cell_length_a 12.913530
_cell_length_b 19.147449
_cell_length_c 15.141145
_cell_angle_alpha 90.000000
_cell_angle_beta 31.474059
_cell_angle_gamma 90.000000
_cell_volume 1954.693570
_symmetry_space_group_name_H-M "P 2/M"
_symmetry_group_IT_number 10
_symmetry_cell_setting 'monoclinic'
loop_
_space_group_symop_operation_xyz
x,y,z
-x,y,-z
-x,-y,-z
x,-y,z
loop_
_atom_site_type_symbol
_atom_site_label
_atom_site_fract_x
_atom_site_fract_y
_atom_site_fract_z
Si Si1 0.993304 0.674289 0.699241
Si Si2 0.813674 0.177852 0.809722
Si Si3 0.676046 0.420669 0.204574
Si Si4 0.125803 0.079766 0.500000
Si Si5 0.391785 0.325711 0.300759
Si Si6 0.206591 0.579825 0.293409
Si Si7 0.085194 0.579331 0.795426
Si Si8 0.433119 0.822148 0.190278
O O1 0.893094 0.748679 0.788024
O O2 0.841743 0.622235 0.759967
O O3 0.074460 0.635358 0.726185
O O4 0.175404 0.686857 0.500000
O O5 0.714715 0.191979 0.785285
O O6 0.989534 0.123103 0.666579
O O7 0.637195 0.150810 1.000000
O O8 0.594734 0.500000 0.257706
O O9 0.526830 0.364642 0.273815
O O10 0.745439 0.408270 0.254561
O O11 0.876644 0.418891 1.000000
O O12 0.322693 0.123103 0.333421
O O13 0.000000 0.077396 0.500000
O O14 0.162946 0.000000 0.500000
O O15 0.361677 0.377765 0.240033
O O16 0.469141 0.251321 0.211976
O O17 0.265998 0.500000 0.234002
O O18 0.000000 0.577958 0.500000
O O19 0.110146 0.500000 0.742294
#
# Coordination Sequence:
#
# PCOD9144968 Si02
#       8
#     4   4   4   4   4   4   4   4
#     4  11  19  30  49  69  98 132 168 212 255 300
#     4  10  19  31  49  72 101 136 170 203 248 299
#     4   9  19  35  50  65  92 130 172 221 269 306
#     4   9  18  32  50  72 101 134 167 203 242 292
#     4  11  19  30  49  69  98 132 168 212 255 300
#     4   9  18  28  41  65  95 129 165 206 255 298
#     4   9  19  35  50  65  92 130 172 221 269 306
#     4  10  19  31  49  72 101 136 170 203 248 299
#
# _framework density 16.370853
#
# number of rings (size 3 to 8) (size 9 to 14) (size 15 to 20)
#    0.000    2.250    2.500    2.250    0.000    2.500 
#    0.000    3.750    0.000    3.000    0.000    0.000 
#    0.000    2.000    0.000    5.250    0.000    0.250 
#
# Total GULP energy -178551.112055 kJ/mol
# GULP energy per Si atom -5579.722252 kJ/mol
# Density = 1.633359 g / cm^3
# Si number density = 16.370853 Si / 1000 Ang^3
#
#
#
# Elastic Constant Matrix: (Units=GPa)
#
#
# Indices 1 2 3 4 5 6 
#
# 1 46.9799 36.3622 17.2614 0.0000 0.2147 0.0000
# 2 36.3622 126.9229 46.7197 0.0000 0.6940 0.0000
# 3 17.2614 46.7197 72.3420 0.0000 1.4847 0.0000
# 4 0.0000 0.0000 0.0000 11.5344 0.0000 -0.0966
# 5 0.2147 0.6940 1.4847 0.0000 16.5468 0.0000
# 6 0.0000 0.0000 0.0000 -0.0966 0.0000 12.9763
#
#
#
# Elastic Compliance Matrix: (Units=1/GPa)
#
#
# Indices 1 2 3 4 5 6 
#
# 1 0.027556 -0.007181 -0.001940 0.000000 0.000118 0.000000
# 2 -0.007181 0.012208 -0.006173 0.000000 0.000135 0.000000
# 3 -0.001940 -0.006173 0.018301 0.000000 -0.001358 0.000000
# 4 0.000000 0.000000 0.000000 0.086703 0.000000 0.000646
# 5 0.000118 0.000135 -0.001358 0.000000 0.060549 0.000000
# 6 0.000000 0.000000 0.000000 0.000646 0.000000 0.077068
#
#
# Mechanical properties :
#
#
# Convention : Reuss Voigt Hill
#
# Bulk Modulus (GPa) = 36.39523 49.65906 43.02715
# Shear Modulus (GPa) = 15.52158 17.93827 16.72992
#
# Velocity S-wave (km/s) = 3.08250 3.31379 3.20024
# Velocity P-wave (km/s) = 5.91177 6.71128 6.32418
#
# Compressibility (1/GPa) = 0.02747613
#
# Stress axis : x y z
#
# Youngs Moduli (GPa) = 36.28960 81.91521 54.64260
#
# Poissons Ratio (x) = 0.58825 0.10600
# Poissons Ratio (y) = 0.26060 0.33732
# Poissons Ratio (z) = 0.07039 0.50568
#
# Static dielectric constant tensor:
#      x y z
#    x 1.527390 0.000000 0.004220 
#    y 0.000000 1.527090 0.000000 
#    z 0.004220 0.000000 1.590330 
# 
# From -- ./inp_files/43276.got.cif
#   From: 2010.05.17/outbox.cif.g08.bks.cpg/sg10_22_cif.got.tgz:43276.got - 2010.06.03 11:33:40.
