data_PCOD9144147
_publ_section_title
;
Structure prediction by ZEFSAII (Michael W. Deem and Ramdas Pophale) SiO2 
 PCOD9144147
Probable space group: P 2/M
;
_chemical_formula_sum "Si O2"
_cell_formula_units_Z 32
_cell_length_a 17.081932
_cell_length_b 17.203396
_cell_length_c 11.162917
_cell_angle_alpha 90.000000
_cell_angle_beta 32.773634
_cell_angle_gamma 90.000000
_cell_volume 1775.758998
_symmetry_space_group_name_H-M "P 2/M"
_symmetry_group_IT_number 10
_symmetry_cell_setting 'monoclinic'
loop_
_space_group_symop_operation_xyz
x,y,z
-x,y,-z
-x,-y,-z
x,-y,z
loop_
_atom_site_type_symbol
_atom_site_label
_atom_site_fract_x
_atom_site_fract_y
_atom_site_fract_z
Si Si1 0.537137 0.669902 0.087170
Si Si2 0.852926 0.085074 0.805461
Si Si3 0.245961 0.731171 0.842115
Si Si4 0.953216 0.181201 0.281898
Si Si5 0.845894 0.245295 0.661678
Si Si6 0.325156 0.213868 0.484463
Si Si7 0.607455 0.590053 0.246209
Si Si8 0.568472 0.871854 0.293450
O O1 0.411688 0.732715 0.278917
O O2 0.544451 0.614952 0.196610
O O3 0.500000 0.638826 0.000000
O O4 0.696821 0.710245 0.877859
O O5 0.844905 0.161096 0.730460
O O6 0.975907 0.106544 0.744935
O O7 0.873087 0.000000 0.724992
O O8 0.699776 0.083625 0.067991
O O9 0.291384 0.733605 0.645082
O O10 0.264141 0.649066 0.883550
O O11 0.359635 0.789141 0.760347
O O12 0.088403 0.768534 0.061333
O O13 0.869488 0.228034 0.492871
O O14 0.826354 0.172687 0.350457
O O15 0.000000 0.284048 0.500000
O O16 0.439522 0.147606 0.370954
O O17 0.500000 0.598940 0.500000
O O18 0.649585 0.500000 0.186443
O O19 0.500000 0.907263 0.500000
#
# Coordination Sequence:
#
# PCOD9144147 Si02
#       8
#     4   4   4   4   4   4   4   4
#     4  12  21  36  61  88 118 147 188 247 287 334
#     4  10  20  35  52  75 112 154 190 232 291 354
#     4  10  18  36  59  85 109 144 197 236 274 329
#     4  10  21  33  55  83 111 146 190 240 287 334
#     4  10  20  34  54  81 108 147 196 235 279 339
#     4  11  18  33  58  88 108 140 189 246 286 324
#     4  11  21  36  60  89 119 153 193 233 282 345
#     4   9  17  31  57  79 103 137 195 243 276 330
#
# _framework density 18.020462999999999
#
# number of rings (size 3 to 8) (size 9 to 14) (size 15 to 20)
#    0.000    1.625    5.000    2.250    0.000    2.750 
#    0.000    0.625    0.000   16.500    0.000    0.000 
#    0.000    0.000    0.000    0.000    0.000    0.000 
#
# Total GULP energy -178149.895602 kJ/mol
# GULP energy per Si atom -5567.184238 kJ/mol
# Density = 1.797945 g / cm^3
# Si number density = 18.020463 Si / 1000 Ang^3
#
#
#
# Elastic Constant Matrix: (Units=GPa)
#
#
# Indices 1 2 3 4 5 6 
#
# 1 90.3371 16.6520 33.2270 0.0000 -15.0309 0.0000
# 2 16.6520 44.8632 29.8508 0.0000 -9.0202 0.0000
# 3 33.2270 29.8508 122.8175 0.0000 -7.1833 0.0000
# 4 0.0000 0.0000 0.0000 -214.5296 0.0000 176.3074
# 5 -15.0309 -9.0202 -7.1833 0.0000 43.7185 0.0000
# 6 0.0000 0.0000 0.0000 176.3074 0.0000 -64.9825
#
#
#
# Elastic Compliance Matrix: (Units=1/GPa)
#
#
# Indices 1 2 3 4 5 6 
#
# 1 0.013111 -0.002298 -0.002779 0.000000 0.003577 0.000000
# 2 -0.002298 0.027886 -0.005923 0.000000 0.003990 0.000000
# 3 -0.002779 -0.005923 0.010305 0.000000 -0.000484 0.000000
# 4 0.000000 0.000000 0.000000 0.003790 0.000000 0.010284
# 5 0.003577 0.003990 -0.000484 0.000000 0.024847 0.000000
# 6 0.000000 0.000000 0.000000 0.010284 0.000000 0.012514
#
#
# Mechanical properties :
#
#
# Convention : Reuss Voigt Hill
#
# Bulk Modulus (GPa) = 34.12708 46.38638 40.25673
# Shear Modulus (GPa) = 40.25119 -35.27284 2.48917
#
# Velocity S-wave (km/s) = 4.73126 -4.42902 1.17656
# Velocity P-wave (km/s) = 6.98753 0.59849 4.92277
#
# Compressibility (1/GPa) = 0.02930224
#
# Stress axis : x y z
#
# Youngs Moduli (GPa) = 76.27422 35.86031 97.03820
#
# Poissons Ratio (x) = 0.08240 0.26969
# Poissons Ratio (y) = 0.17527 0.57472
# Poissons Ratio (z) = 0.21198 0.21239
#
# Static dielectric constant tensor:
#      x y z
#    x 1.702470 0.000000 0.016780 
#    y 0.000000 1.607710 0.000000 
#    z 0.016780 0.000000 1.646120 
# 
# From -- ./inp_files/54131.got.cif
#   From: 2010.05.17/outbox.cif.g08.bks.cpg/sg10_28_cif.got.tgz:54131.got - 2010.06.03 11:33:40.
