data_PCOD9144129
_publ_section_title
;
Structure prediction by ZEFSAII (Michael W. Deem and Ramdas Pophale) SiO2 
 PCOD9144129
Probable space group: P 2/M
;
_chemical_formula_sum "Si O2"
_cell_formula_units_Z 28
_cell_length_a 27.837441
_cell_length_b 8.112016
_cell_length_c 10.331317
_cell_angle_alpha 90.000000
_cell_angle_beta 144.634968
_cell_angle_gamma 90.000000
_cell_volume 1350.299175
_symmetry_space_group_name_H-M "P 2/M"
_symmetry_group_IT_number 10
_symmetry_cell_setting 'monoclinic'
loop_
_space_group_symop_operation_xyz
x,y,z
-x,y,-z
-x,-y,-z
x,-y,z
loop_
_atom_site_type_symbol
_atom_site_label
_atom_site_fract_x
_atom_site_fract_y
_atom_site_fract_z
Si Si1 0.330566 0.810416 0.583931
Si Si2 0.431262 0.500000 0.460143
Si Si3 0.600211 0.821105 0.716802
Si Si4 0.133504 0.807124 0.131658
Si Si5 0.317552 0.300967 0.841635
Si Si6 0.877338 0.302042 0.601605
Si Si7 0.436387 0.500000 0.744483
Si Si8 0.000549 0.694234 0.353695
O O1 0.232556 0.780064 0.346810
O O2 0.345929 0.781761 0.770623
O O3 0.382165 0.665426 0.631770
O O4 0.350514 0.000000 0.592483
O O5 0.500000 0.500000 0.500000
O O6 0.378757 0.665474 0.326427
O O7 0.478805 0.500000 0.698824
O O8 0.500000 0.831087 0.500000
O O9 0.631951 0.000000 0.744646
O O10 0.633883 0.774846 0.931648
O O11 0.103873 0.760128 0.211752
O O12 0.118052 0.000000 0.078986
O O13 0.085969 0.714111 0.912895
O O14 0.326003 0.500000 0.853257
O O15 0.219214 0.265561 0.638132
O O16 0.887333 0.500000 0.629202
O O17 0.933328 0.236867 0.606337
O O18 0.500000 0.500000 0.000000
O O19 0.020142 0.500000 0.409526
O O20 0.000000 0.761875 0.500000
#
# Coordination Sequence:
#
# PCOD9144129 Si02
#       8
#     4   2   4   4   4   4   2   4
#     4  10  23  42  65  96 132 165 208 263 321 377
#     4  10  24  44  64  90 125 160 203 258 300 375
#     4  10  21  36  60  89 122 163 206 253 312 370
#     4  10  21  38  62  89 119 161 205 253 310 369
#     4  10  18  35  64  92 124 164 213 265 315 374
#     4   9  19  35  58  90 117 158 210 255 303 364
#     4  12  28  44  70 100 125 169 214 257 321 378
#     4  10  21  37  57  86 124 164 205 253 311 369
#
# _framework density 20.736146000000002
#
# number of rings (size 3 to 8) (size 9 to 14) (size 15 to 20)
#    0.000    2.000    1.429    1.286    6.000    4.000 
#    2.571    0.000    0.000    0.000    0.000    0.000 
#    0.000    0.000    0.000    0.000    0.000    0.000 
#
# Total GULP energy -156285.303625 kJ/mol
# GULP energy per Si atom -5581.617987 kJ/mol
# Density = 2.068895 g / cm^3
# Si number density = 20.736146 Si / 1000 Ang^3
#
#
#
# Elastic Constant Matrix: (Units=GPa)
#
#
# Indices 1 2 3 4 5 6 
#
# 1 89.9792 31.3056 40.8965 0.0000 -22.6360 0.0000
# 2 31.3056 103.0792 19.7113 0.0000 -0.8588 0.0000
# 3 40.8965 19.7113 113.7104 0.0000 -28.1532 0.0000
# 4 0.0000 0.0000 0.0000 -4.3341 0.0000 4.5929
# 5 -22.6360 -0.8588 -28.1532 0.0000 30.5300 0.0000
# 6 0.0000 0.0000 0.0000 4.5929 0.0000 -16.4128
#
#
#
# Elastic Compliance Matrix: (Units=1/GPa)
#
#
# Indices 1 2 3 4 5 6 
#
# 1 0.016231 -0.004321 -0.002772 0.000000 0.009356 0.000000
# 2 -0.004321 0.011254 -0.001440 0.000000 -0.004216 0.000000
# 3 -0.002772 -0.001440 0.012339 0.000000 0.009283 0.000000
# 4 0.000000 0.000000 0.000000 -0.327994 0.000000 -0.091785
# 5 0.009356 -0.004216 0.009283 0.000000 0.048133 0.000000
# 6 0.000000 0.000000 0.000000 -0.091785 0.000000 -0.086613
#
#
# Mechanical properties :
#
#
# Convention : Reuss Voigt Hill
#
# Bulk Modulus (GPa) = 43.94295 54.51061 49.22678
# Shear Modulus (GPa) = -16.55650 16.28032 -0.13809
#
# Velocity S-wave (km/s) = -2.82873 2.80504 -0.25834
# Velocity P-wave (km/s) = 3.25093 6.06925 4.86849
#
# Compressibility (1/GPa) = 0.02275678
#
# Stress axis : x y z
#
# Youngs Moduli (GPa) = 61.61117 88.85718 81.04258
#
# Poissons Ratio (x) = 0.38399 0.22464
# Poissons Ratio (y) = 0.26624 0.11673
# Poissons Ratio (z) = 0.17078 0.12799
#
# Static dielectric constant tensor:
#      x y z
#    x 1.752040 0.000000 -0.001860 
#    y 0.000000 1.953200 0.000000 
#    z -0.001860 0.000000 1.725260 
# 
# From -- ./inp_files/37373.got.cif
#   From: 2010.05.17/outbox.cif.g08.bks.cpg/sg10_19_cif.got.tgz:37373.got - 2010.06.03 11:33:40.
