data_PCOD9144505
_publ_section_title
;
Structure prediction by ZEFSAII (Michael W. Deem and Ramdas Pophale) SiO2 
 PCOD9144505
Probable space group: P 2/M
;
_chemical_formula_sum "Si O2"
_cell_formula_units_Z 32
_cell_length_a 28.344851
_cell_length_b 7.533758
_cell_length_c 16.149738
_cell_angle_alpha 90.000000
_cell_angle_beta 151.616413
_cell_angle_gamma 90.000000
_cell_volume 1639.400676
_symmetry_space_group_name_H-M "P 2/M"
_symmetry_group_IT_number 10
_symmetry_cell_setting 'monoclinic'
loop_
_space_group_symop_operation_xyz
x,y,z
-x,y,-z
-x,-y,-z
x,-y,z
loop_
_atom_site_type_symbol
_atom_site_label
_atom_site_fract_x
_atom_site_fract_y
_atom_site_fract_z
Si Si1 0.855709 0.712163 0.935060
Si Si2 0.924558 0.288314 0.703273
Si Si3 0.410560 0.782347 0.046880
Si Si4 0.262027 0.213260 0.685474
Si Si5 0.537375 0.783003 0.688793
Si Si6 0.795092 0.284684 0.659538
Si Si7 0.651118 0.212340 0.701221
Si Si8 0.609141 0.207838 0.269652
O O1 0.864059 0.500000 0.940385
O O2 0.828000 0.778926 0.800411
O O3 0.763498 0.745346 0.852671
O O4 0.963333 0.780226 0.129579
O O5 0.930134 0.500000 0.721132
O O6 0.850385 0.255670 0.512628
O O7 0.869262 0.222289 0.701206
O O8 0.429051 0.722458 0.169055
O O9 0.502809 0.721394 0.132411
O O10 0.412833 0.000000 0.051985
O O11 0.309350 0.727829 0.845032
O O12 0.332548 0.282870 0.719592
O O13 0.268276 0.000000 0.693332
O O14 0.427146 0.725538 0.489818
O O15 0.610693 0.726250 0.727846
O O16 0.537252 0.000000 0.690618
O O17 0.795436 0.500000 0.659943
O O18 0.685485 0.225273 0.463782
O O19 0.642585 0.000000 0.689331
O O20 0.593493 0.000000 0.227648
#
# Coordination Sequence:
#
# PCOD9144505 Si02
#       8
#     4   4   4   4   4   4   4   4
#     4  10  19  30  46  66  87 114 147 179 216 261
#     4   9  18  32  46  60  85 120 150 177 213 256
#     4   9  15  25  44  66  89 118 147 174 211 259
#     4   9  17  28  43  65  90 115 147 184 214 245
#     4   8  15  28  46  68  92 117 142 170 211 263
#     4   9  17  29  44  63  88 117 147 176 208 255
#     4   9  17  30  48  69  91 113 141 177 215 257
#     4   9  16  26  42  66  93 117 142 175 215 255
#
# _framework density 19.519328999999999
#
# number of rings (size 3 to 8) (size 9 to 14) (size 15 to 20)
#    0.000    3.000    0.000    2.250    0.000    5.000 
#    0.000    1.875    0.000    9.750    0.000    5.250 
#    0.000    0.000    0.000    0.000    0.000    0.000 
#
# Total GULP energy -178472.467559 kJ/mol
# GULP energy per Si atom -5577.264611 kJ/mol
# Density = 1.947490 g / cm^3
# Si number density = 19.519329 Si / 1000 Ang^3
#
#
#
# Elastic Constant Matrix: (Units=GPa)
#
#
# Indices 1 2 3 4 5 6 
#
# 1 41.9620 -4.6243 46.8495 0.0000 6.0511 0.0000
# 2 -4.6243 44.9529 -8.5449 0.0000 -0.6525 0.0000
# 3 46.8495 -8.5449 128.1984 0.0000 8.2119 0.0000
# 4 0.0000 0.0000 0.0000 19.8129 0.0000 3.7380
# 5 6.0511 -0.6525 8.2119 0.0000 30.5260 0.0000
# 6 0.0000 0.0000 0.0000 3.7380 0.0000 11.1506
#
#
#
# Elastic Compliance Matrix: (Units=1/GPa)
#
#
# Indices 1 2 3 4 5 6 
#
# 1 0.040848 0.001372 -0.014571 0.000000 -0.004148 0.000000
# 2 0.001372 0.022577 0.001007 0.000000 -0.000060 0.000000
# 3 -0.014571 0.001007 0.013234 0.000000 -0.000650 0.000000
# 4 0.000000 0.000000 0.000000 0.053880 0.000000 -0.018062
# 5 -0.004148 -0.000060 -0.000650 0.000000 0.033755 0.000000
# 6 0.000000 0.000000 0.000000 -0.018062 0.000000 0.095737
#
#
# Mechanical properties :
#
#
# Convention : Reuss Voigt Hill
#
# Bulk Modulus (GPa) = 19.12884 31.38600 25.25742
# Shear Modulus (GPa) = 16.56512 24.39341 20.47926
#
# Velocity S-wave (km/s) = 2.91632 3.53895 3.24262
# Velocity P-wave (km/s) = 4.60012 5.72829 5.19492
#
# Compressibility (1/GPa) = 0.05227708
#
# Stress axis : x y z
#
# Youngs Moduli (GPa) = 24.48084 44.29233 75.56305
#
# Poissons Ratio (x) = -0.06078 1.10100
# Poissons Ratio (y) = -0.03359 -0.07611
# Poissons Ratio (z) = 0.35670 -0.04461
#
# Static dielectric constant tensor:
#      x y z
#    x 1.669740 0.000000 -0.000690 
#    y 0.000000 1.754790 0.000000 
#    z -0.000690 0.000000 1.698970 
# 
# From -- ./inp_files/56795.got.cif
#   From: 2010.05.17/outbox.cif.g08.bks.cpg/sg10_29_cif.got.tgz:56795.got - 2010.06.03 11:33:40.
