data_PCOD9144331
_publ_section_title
;
Structure prediction by ZEFSAII (Michael W. Deem and Ramdas Pophale) SiO2 
 PCOD9144331
Probable space group: P 2/M
;
_chemical_formula_sum "Si O2"
_cell_formula_units_Z 32
_cell_length_a 13.688524
_cell_length_b 14.403255
_cell_length_c 11.963976
_cell_angle_alpha 90.000000
_cell_angle_beta 126.477598
_cell_angle_gamma 90.000000
_cell_volume 1896.693362
_symmetry_space_group_name_H-M "P 2/M"
_symmetry_group_IT_number 10
_symmetry_cell_setting 'monoclinic'
loop_
_space_group_symop_operation_xyz
x,y,z
-x,y,-z
-x,-y,-z
x,-y,z
loop_
_atom_site_type_symbol
_atom_site_label
_atom_site_fract_x
_atom_site_fract_y
_atom_site_fract_z
Si Si1 0.816414 0.761498 0.588884
Si Si2 0.306797 0.107549 0.873463
Si Si3 0.511799 0.608532 0.694067
Si Si4 0.299972 0.608713 0.361004
Si Si5 0.018693 0.105008 0.646219
Si Si6 0.619968 0.240303 0.274033
Si Si7 0.415879 0.107566 0.192109
Si Si8 0.641618 0.109144 0.610464
O O1 0.808031 0.670860 0.662169
O O2 0.747595 0.743478 0.423910
O O3 0.730037 0.833201 0.594602
O O4 0.942014 0.813596 0.651606
O O5 0.161308 0.111446 0.768813
O O6 0.358152 0.187857 0.827827
O O7 0.341832 0.000000 0.864137
O O8 0.354278 0.122923 0.030845
O O9 0.525308 0.500000 0.730827
O O10 0.405514 0.616152 0.527810
O O11 0.633924 0.638944 0.710030
O O12 0.463441 0.668275 0.765704
O O13 0.269055 0.500000 0.329426
O O14 0.000000 0.111965 0.500000
O O15 0.977328 0.000000 0.650722
O O16 0.537706 0.166100 0.283691
O O17 0.331053 0.126568 0.240205
O O18 0.449496 0.000000 0.223208
O O19 0.500000 0.135004 0.500000
O O20 0.652258 0.000000 0.593750
#
# Coordination Sequence:
#
# PCOD9144331 Si02
#       8
#     4   4   4   4   4   4   4   4
#     4  11  19  28  50  75  97 122 161 205 246 286
#     4  10  21  35  48  65  95 137 176 201 229 281
#     4   8  15  27  44  70 102 130 154 188 242 304
#     4   8  15  27  44  69 102 130 152 189 247 305
#     4  10  20  34  49  67  95 132 171 206 237 278
#     4  11  18  27  49  74  97 124 160 202 241 285
#     4  10  20  32  46  69 101 131 159 194 243 298
#     4  10  19  29  44  71 103 125 147 194 253 294
#
# _framework density 16.871468
#
# number of rings (size 3 to 8) (size 9 to 14) (size 15 to 20)
#    0.000    2.250    2.500    2.625    1.750    2.000 
#    0.000    0.625    0.000    5.625    0.000    0.000 
#    0.000    3.000    0.000    0.000    0.000    0.000 
#
# Total GULP energy -178213.984193 kJ/mol
# GULP energy per Si atom -5569.187006 kJ/mol
# Density = 1.683307 g / cm^3
# Si number density = 16.871468 Si / 1000 Ang^3
#
#
#
# Elastic Constant Matrix: (Units=GPa)
#
#
# Indices 1 2 3 4 5 6 
#
# 1 56.2965 45.2033 11.2625 0.0000 -5.9069 0.0000
# 2 45.2033 85.0839 22.5408 0.0000 -10.6747 0.0000
# 3 11.2625 22.5408 36.9492 0.0000 -8.1310 0.0000
# 4 0.0000 0.0000 0.0000 15.7521 0.0000 -7.3672
# 5 -5.9069 -10.6747 -8.1310 0.0000 20.5026 0.0000
# 6 0.0000 0.0000 0.0000 -7.3672 0.0000 36.8826
#
#
#
# Elastic Compliance Matrix: (Units=1/GPa)
#
#
# Indices 1 2 3 4 5 6 
#
# 1 0.031000 -0.016610 0.000817 0.000000 0.000607 0.000000
# 2 -0.016610 0.023270 -0.008239 0.000000 0.004063 0.000000
# 3 0.000817 -0.008239 0.033908 0.000000 0.009393 0.000000
# 4 0.000000 0.000000 0.000000 0.070025 0.000000 0.013987
# 5 0.000607 0.004063 0.009393 0.000000 0.054790 0.000000
# 6 0.000000 0.000000 0.000000 0.013987 0.000000 0.029907
#
#
# Mechanical properties :
#
#
# Convention : Reuss Voigt Hill
#
# Bulk Modulus (GPa) = 24.92803 37.37142 31.14973
# Shear Modulus (GPa) = 16.42920 21.24901 18.83910
#
# Velocity S-wave (km/s) = 3.12394 3.55274 3.34522
# Velocity P-wave (km/s) = 5.27440 6.24724 5.78132
#
# Compressibility (1/GPa) = 0.04011548
#
# Stress axis : x y z
#
# Youngs Moduli (GPa) = 32.25756 42.97348 29.49138
#
# Poissons Ratio (x) = 0.71380 -0.02411
# Poissons Ratio (y) = 0.53581 0.24298
# Poissons Ratio (z) = -0.02637 0.35405
#
# Static dielectric constant tensor:
#      x y z
#    x 1.572970 0.000000 -0.023470 
#    y 0.000000 1.611610 0.000000 
#    z -0.023470 0.000000 1.578590 
# 
# From -- ./inp_files/47421.got.cif
#   From: 2010.05.17/outbox.cif.g08.bks.cpg/sg10_24_cif.got.tgz:47421.got - 2010.06.03 11:33:40.
