data_PCOD9144891
_publ_section_title
;
Structure prediction by ZEFSAII (Michael W. Deem and Ramdas Pophale) SiO2 
 PCOD9144891
Probable space group: P 2/M
;
_chemical_formula_sum "Si O2"
_cell_formula_units_Z 28
_cell_length_a 15.452331
_cell_length_b 8.542931
_cell_length_c 19.706122
_cell_angle_alpha 90.000000
_cell_angle_beta 37.593665
_cell_angle_gamma 90.000000
_cell_volume 1586.985217
_symmetry_space_group_name_H-M "P 2/M"
_symmetry_group_IT_number 10
_symmetry_cell_setting 'monoclinic'
loop_
_space_group_symop_operation_xyz
x,y,z
-x,y,-z
-x,-y,-z
x,-y,z
loop_
_atom_site_type_symbol
_atom_site_label
_atom_site_fract_x
_atom_site_fract_y
_atom_site_fract_z
Si Si1 0.088058 0.186082 0.088095
Si Si2 0.930582 0.189809 0.474039
Si Si3 0.321093 0.683562 0.553331
Si Si4 0.384583 0.186283 0.371899
Si Si5 0.224233 0.310244 0.754931
Si Si6 0.675860 0.686714 0.158463
Si Si7 0.984961 0.187854 0.293142
O O1 0.935398 0.250862 0.158782
O O2 0.095489 0.218623 0.164423
O O3 0.087590 0.000000 0.079067
O O4 0.214373 0.257032 0.966137
O O5 0.768620 0.242013 0.560718
O O6 0.017719 0.224667 0.350920
O O7 0.000000 0.250161 0.500000
O O8 0.925355 0.000000 0.482342
O O9 0.356117 0.500000 0.529574
O O10 0.398371 0.764140 0.442343
O O11 0.325803 0.738932 0.628770
O O12 0.155589 0.715406 0.638441
O O13 0.516509 0.253103 0.248816
O O14 0.385405 0.000000 0.368198
O O15 0.222289 0.500000 0.754567
O O16 0.273177 0.257521 0.798574
O O17 0.675502 0.500000 0.160080
O O18 0.949915 0.000000 0.311799
#
# Coordination Sequence:
#
# PCOD9144891 Si02
#       7
#     4   4   4   4   4   4   4
#     4  10  19  31  48  70  96 125 160 200 237 271
#     4   8  14  28  53  79  97 115 143 184 233 283
#     4   9  16  29  48  67  91 123 157 192 232 277
#     4  10  20  33  48  70  98 123 152 191 237 285
#     4   9  19  33  48  67  91 124 166 204 233 268
#     4  11  22  34  47  64  92 130 167 199 232 273
#     4   8  15  28  47  72  98 121 149 189 232 273
#
# _framework density 17.643516000000002
#
# number of rings (size 3 to 8) (size 9 to 14) (size 15 to 20)
#    0.000    2.714    0.000    3.000    0.000    4.571 
#    0.000    2.857    0.000   11.571    0.000    6.000 
#    0.000    0.000    0.000    0.000    0.000    0.000 
#
# Total GULP energy -156028.078332 kJ/mol
# GULP energy per Si atom -5572.431369 kJ/mol
# Density = 1.760336 g / cm^3
# Si number density = 17.643516 Si / 1000 Ang^3
#
#
#
# Elastic Constant Matrix: (Units=GPa)
#
#
# Indices 1 2 3 4 5 6 
#
# 1 102.3298 15.1362 59.1320 0.0000 20.4309 0.0000
# 2 15.1362 17.3003 22.5937 0.0000 3.5824 0.0000
# 3 59.1320 22.5937 132.5894 0.0000 4.7240 0.0000
# 4 0.0000 0.0000 0.0000 58.9685 0.0000 25.1001
# 5 20.4309 3.5824 4.7240 0.0000 19.7148 0.0000
# 6 0.0000 0.0000 0.0000 25.1001 0.0000 32.3758
#
#
#
# Elastic Compliance Matrix: (Units=1/GPa)
#
#
# Indices 1 2 3 4 5 6 
#
# 1 0.017147 -0.003226 -0.006541 0.000000 -0.015617 0.000000
# 2 -0.003226 0.077202 -0.011434 0.000000 -0.007946 0.000000
# 3 -0.006541 -0.011434 0.012196 0.000000 0.005934 0.000000
# 4 0.000000 0.000000 0.000000 0.025311 0.000000 -0.019623
# 5 -0.015617 -0.007946 0.005934 0.000000 0.066929 0.000000
# 6 0.000000 0.000000 0.000000 -0.019623 0.000000 0.046100
#
#
# Mechanical properties :
#
#
# Convention : Reuss Voigt Hill
#
# Bulk Modulus (GPa) = 15.58987 49.54926 32.56957
# Shear Modulus (GPa) = 16.19856 32.56898 24.38377
#
# Velocity S-wave (km/s) = 3.03331 4.30111 3.72159
# Velocity P-wave (km/s) = 4.59599 7.26709 6.08004
#
# Compressibility (1/GPa) = 0.06414420
#
# Stress axis : x y z
#
# Youngs Moduli (GPa) = 58.31791 12.95297 81.99222
#
# Poissons Ratio (x) = 0.04178 0.53633
# Poissons Ratio (y) = 0.18813 0.93748
# Poissons Ratio (z) = 0.38147 0.14810
#
# Static dielectric constant tensor:
#      x y z
#    x 1.612670 0.000000 0.023920 
#    y 0.000000 1.601660 0.000000 
#    z 0.023920 0.000000 1.618530 
# 
# From -- ./inp_files/54701.got.cif
#   From: 2010.05.17/outbox.cif.g08.bks.cpg/sg10_28_cif.got.tgz:54701.got - 2010.06.03 11:33:40.
