data_PCOD9144847
_publ_section_title
;
Structure prediction by ZEFSAII (Michael W. Deem and Ramdas Pophale) SiO2 
 PCOD9144847
Probable space group: P 2/M
;
_chemical_formula_sum "Si O2"
_cell_formula_units_Z 32
_cell_length_a 10.508470
_cell_length_b 14.121590
_cell_length_c 14.435601
_cell_angle_alpha 90.000000
_cell_angle_beta 81.216765
_cell_angle_gamma 90.000000
_cell_volume 2117.068608
_symmetry_space_group_name_H-M "P 2/M"
_symmetry_group_IT_number 10
_symmetry_cell_setting 'monoclinic'
loop_
_space_group_symop_operation_xyz
x,y,z
-x,y,-z
-x,-y,-z
x,-y,z
loop_
_atom_site_type_symbol
_atom_site_label
_atom_site_fract_x
_atom_site_fract_y
_atom_site_fract_z
Si Si1 0.221023 0.109578 0.616912
Si Si2 0.521118 0.215457 0.387123
Si Si3 0.154130 0.387331 0.251429
Si Si4 0.871076 0.615315 0.961871
Si Si5 0.597977 0.385073 0.068516
Si Si6 0.732180 0.893091 0.610493
Si Si7 0.025009 0.234476 0.387252
Si Si8 0.453797 0.612245 0.273530
O O1 0.342940 0.164527 0.645892
O O2 0.248276 0.104261 0.503169
O O3 0.093933 0.173738 0.638952
O O4 0.207396 0.000000 0.649855
O O5 0.500000 0.217811 0.500000
O O6 0.405952 0.153105 0.357360
O O7 0.502915 0.320296 0.349286
O O8 0.130415 0.500000 0.260326
O O9 0.137424 0.358518 0.145600
O O10 0.057688 0.329068 0.327324
O O11 0.302655 0.371915 0.266662
O O12 0.871168 0.500000 0.963265
O O13 0.742063 0.647051 0.029399
O O14 0.000000 0.647049 0.000000
O O15 0.599641 0.500000 0.063901
O O16 0.538679 0.361863 0.174257
O O17 0.500000 0.352213 0.000000
O O18 0.847596 0.829689 0.634768
O O19 0.739264 0.000000 0.644389
O O20 0.000000 0.252394 0.500000
O O21 0.469006 0.500000 0.290683
#
# Coordination Sequence:
#
# PCOD9144847 Si02
#       8
#     4   4   4   4   4   4   4   4
#     4   9  18  31  47  68  95 123 153 203 260 285
#     4  10  19  31  47  69  98 130 163 199 235 280
#     4  10  19  32  49  69  98 135 166 194 232 280
#     4   9  17  29  47  70  95 120 152 201 249 281
#     4   9  15  27  47  68  89 120 159 197 241 281
#     4   9  16  29  49  69  89 120 162 204 248 288
#     4  10  19  31  48  70  98 131 165 198 230 284
#     4  10  19  31  49  70  97 134 169 197 228 278
#
# _framework density 15.115240999999999
#
# number of rings (size 3 to 8) (size 9 to 14) (size 15 to 20)
#    0.000    2.500    2.500    0.750    0.000    4.500 
#    0.000    1.875    0.000    0.000    0.000    0.000 
#    0.000   20.000    0.000    0.000    0.000    0.000 
#
# Total GULP energy -178186.155876 kJ/mol
# GULP energy per Si atom -5568.317371 kJ/mol
# Density = 1.508084 g / cm^3
# Si number density = 15.115241 Si / 1000 Ang^3
#
#
#
# Elastic Constant Matrix: (Units=GPa)
#
#
# Indices 1 2 3 4 5 6 
#
# 1 131.2454 46.1628 34.3363 0.0000 -7.5531 0.0000
# 2 46.1628 73.8688 33.9077 0.0000 -4.0436 0.0000
# 3 34.3363 33.9077 42.4251 0.0000 -7.9786 0.0000
# 4 0.0000 0.0000 0.0000 -1.8339 0.0000 -0.8103
# 5 -7.5531 -4.0436 -7.9786 0.0000 15.4364 0.0000
# 6 0.0000 0.0000 0.0000 -0.8103 0.0000 19.7533
#
#
#
# Elastic Compliance Matrix: (Units=1/GPa)
#
#
# Indices 1 2 3 4 5 6 
#
# 1 0.010453 -0.004261 -0.004766 0.000000 0.001535 0.000000
# 2 -0.004261 0.023299 -0.015969 0.000000 -0.004236 0.000000
# 3 -0.004766 -0.015969 0.043162 0.000000 0.015794 0.000000
# 4 0.000000 0.000000 0.000000 -0.535570 0.000000 -0.021968
# 5 0.001535 -0.004236 0.015794 0.000000 0.072587 0.000000
# 6 0.000000 0.000000 0.000000 -0.021968 0.000000 0.049723
#
#
# Mechanical properties :
#
#
# Convention : Reuss Voigt Hill
#
# Bulk Modulus (GPa) = 37.14530 52.92810 45.03670
# Shear Modulus (GPa) = -18.02579 15.54667 -1.23956
#
# Velocity S-wave (km/s) = -3.45709 3.21057 -0.90656
# Velocity P-wave (km/s) = 2.94836 6.98828 5.36325
#
# Compressibility (1/GPa) = 0.02692131
#
# Stress axis : x y z
#
# Youngs Moduli (GPa) = 95.66460 42.92111 23.16861
#
# Poissons Ratio (x) = 0.18287 0.11043
# Poissons Ratio (y) = 0.40759 0.36999
# Poissons Ratio (z) = 0.45596 0.68542
#
# Static dielectric constant tensor:
#      x y z
#    x 1.511670 0.000000 -0.001270 
#    y 0.000000 1.490310 0.000000 
#    z -0.001270 0.000000 1.488950 
# 
# From -- ./inp_files/29162.got.cif
#   From: 2010.05.17/outbox.cif.g08.bks.cpg/sg10_15_cif.got.tgz:29162.got - 2010.06.03 11:33:40.
