data_PCOD9144950
_publ_section_title
;
Structure prediction by ZEFSAII (Michael W. Deem and Ramdas Pophale) SiO2 
 PCOD9144950
Probable space group: P 2/M
;
_chemical_formula_sum "Si O2"
_cell_formula_units_Z 28
_cell_length_a 16.350477
_cell_length_b 7.609609
_cell_length_c 18.946905
_cell_angle_alpha 90.000000
_cell_angle_beta 143.189598
_cell_angle_gamma 90.000000
_cell_volume 1412.473648
_symmetry_space_group_name_H-M "P 2/M"
_symmetry_group_IT_number 10
_symmetry_cell_setting 'monoclinic'
loop_
_space_group_symop_operation_xyz
x,y,z
-x,y,-z
-x,-y,-z
x,-y,z
loop_
_atom_site_type_symbol
_atom_site_label
_atom_site_fract_x
_atom_site_fract_y
_atom_site_fract_z
Si Si1 0.320103 0.200281 0.075524
Si Si2 0.636544 0.215529 0.052364
Si Si3 0.143050 0.785980 0.683112
Si Si4 0.157913 0.211280 0.102379
Si Si5 0.558833 0.295740 0.330520
Si Si6 0.834602 0.212080 0.459338
Si Si7 0.582965 0.288688 0.626467
O O1 0.229599 0.275709 0.078341
O O2 0.473884 0.199139 0.211668
O O3 0.270507 0.000000 0.031897
O O4 0.334167 0.279043 0.007032
O O5 0.761013 0.269871 0.187939
O O6 0.629690 0.000000 0.043990
O O7 0.500000 0.270485 0.000000
O O8 0.194063 0.731076 0.640984
O O9 0.986839 0.729518 0.582870
O O10 0.143026 0.000000 0.682430
O O11 0.261143 0.248183 0.239779
O O12 0.153450 0.000000 0.094457
O O13 0.000000 0.272946 0.000000
O O14 0.520911 0.500000 0.299066
O O15 0.718329 0.277471 0.430051
O O16 0.506917 0.227908 0.369239
O O17 0.833078 0.000000 0.459459
O O18 0.500000 0.223649 0.500000
O O19 0.579608 0.500000 0.619593
#
# Coordination Sequence:
#
# PCOD9144950 Si02
#       7
#     4   4   4   4   4   4   4
#     4   9  17  30  49  69  93 125 159 192 231 284
#     4   9  15  24  43  70  93 117 154 195 228 263
#     4   8  15  27  44  68  96 122 156 196 227 269
#     4   9  18  33  51  75 105 131 158 200 255 307
#     4  10  19  31  49  70  93 120 155 198 240 281
#     4   9  16  29  48  68  92 124 158 192 231 278
#     4   9  19  36  54  72  96 128 170 211 244 292
#
# _framework density 19.823381000000001
#
# number of rings (size 3 to 8) (size 9 to 14) (size 15 to 20)
#    0.000    3.000    0.000    2.143    0.000    3.429 
#    2.571    1.429    0.000    4.714    0.000    0.000 
#    0.000    0.000    0.000    0.000    0.000    0.000 
#
# Total GULP energy -155921.485819 kJ/mol
# GULP energy per Si atom -5568.624494 kJ/mol
# Density = 1.977826 g / cm^3
# Si number density = 19.823381 Si / 1000 Ang^3
#
#
#
# Elastic Constant Matrix: (Units=GPa)
#
#
# Indices 1 2 3 4 5 6 
#
# 1 103.7237 5.9339 89.0889 0.0000 2.7356 0.0000
# 2 5.9339 41.7115 6.4074 0.0000 -2.9171 0.0000
# 3 89.0889 6.4074 154.6492 0.0000 -22.0587 0.0000
# 4 0.0000 0.0000 0.0000 -2.7842 0.0000 3.3320
# 5 2.7356 -2.9171 -22.0587 0.0000 31.5094 0.0000
# 6 0.0000 0.0000 0.0000 3.3320 0.0000 8.3471
#
#
#
# Elastic Compliance Matrix: (Units=1/GPa)
#
#
# Indices 1 2 3 4 5 6 
#
# 1 0.022870 -0.001846 -0.014893 0.000000 -0.012583 0.000000
# 2 -0.001846 0.024359 0.000443 0.000000 0.002725 0.000000
# 3 -0.014893 0.000443 0.016906 0.000000 0.013169 0.000000
# 4 0.000000 0.000000 0.000000 -0.243056 0.000000 0.097023
# 5 -0.012583 0.002725 0.013169 0.000000 0.042300 0.000000
# 6 0.000000 0.000000 0.000000 0.097023 0.000000 0.081072
#
#
# Mechanical properties :
#
#
# Convention : Reuss Voigt Hill
#
# Bulk Modulus (GPa) = 31.70259 55.88277 43.79268
# Shear Modulus (GPa) = -401.86819 20.65809 -190.60505
#
# Velocity S-wave (km/s) = -14.25358 3.23167 -9.81633
# Velocity P-wave (km/s) = 15.96429 6.49434 10.31218
#
# Compressibility (1/GPa) = 0.03154316
#
# Stress axis : x y z
#
# Youngs Moduli (GPa) = 43.72498 41.05201 59.15131
#
# Poissons Ratio (x) = 0.07577 0.88095
# Poissons Ratio (y) = 0.08070 -0.02619
# Poissons Ratio (z) = 0.65120 -0.01818
#
# Static dielectric constant tensor:
#      x y z
#    x 1.697430 0.000000 -0.010280 
#    y 0.000000 1.761130 0.000000 
#    z -0.010280 0.000000 1.696850 
# 
# From -- ./inp_files/77781.got.cif
#   From: 2010.05.17/outbox.cif.g08.bks.cpg/sg10_39_cif.got.tgz:77781.got - 2010.06.03 11:33:40.
