data_PCOD9144641
_publ_section_title
;
Structure prediction by ZEFSAII (Michael W. Deem and Ramdas Pophale) SiO2 
 PCOD9144641
Probable space group: P 2/M
;
_chemical_formula_sum "Si O2"
_cell_formula_units_Z 28
_cell_length_a 16.996262
_cell_length_b 7.624632
_cell_length_c 18.836919
_cell_angle_alpha 90.000000
_cell_angle_beta 25.180150
_cell_angle_gamma 90.000000
_cell_volume 1038.596421
_symmetry_space_group_name_H-M "P 2/M"
_symmetry_group_IT_number 10
_symmetry_cell_setting 'monoclinic'
loop_
_space_group_symop_operation_xyz
x,y,z
-x,y,-z
-x,-y,-z
x,-y,z
loop_
_atom_site_type_symbol
_atom_site_label
_atom_site_fract_x
_atom_site_fract_y
_atom_site_fract_z
Si Si1 0.789058 0.285144 0.731278
Si Si2 0.264193 0.789076 0.636590
Si Si3 0.513404 0.299824 0.684597
Si Si4 0.794840 0.791621 0.163363
Si Si5 0.438842 0.709904 0.940863
Si Si6 0.918276 0.794410 0.834532
Si Si7 0.854637 0.703009 0.488436
O O1 0.799894 0.500000 0.720940
O O2 0.650427 0.230443 0.780891
O O3 0.998212 0.223125 0.575030
O O4 0.674182 0.234961 0.896104
O O5 0.372304 0.706582 0.483008
O O6 0.304062 0.728650 0.683657
O O7 0.046109 0.757436 0.797894
O O8 0.299604 0.000000 0.602352
O O9 0.486558 0.500000 0.728112
O O10 0.318362 0.230258 0.816268
O O11 0.659424 0.217943 0.621362
O O12 0.809624 0.000000 0.161578
O O13 0.000000 0.716592 0.000000
O O14 0.445151 0.500000 0.937143
O O15 0.300881 0.758425 0.989616
O O16 0.019054 0.699599 0.686401
O O17 0.940179 0.000000 0.802470
O O18 0.818434 0.500000 0.537820
#
# Coordination Sequence:
#
# PCOD9144641 Si02
#       7
#     4   4   4   4   4   4   4
#     4   7  10  18  32  47  68 104 142 167 191 237
#     4   9  18  32  48  65  87 117 151 182 214 260
#     4  10  19  30  48  72  93 114 143 181 223 262
#     4  10  21  36  51  65  85 116 150 181 217 264
#     4   8  12  19  31  47  71 105 140 168 198 241
#     4   9  15  22  34  54  79 105 135 173 212 245
#     4   8  14  25  38  53  77 109 141 168 200 248
#
# _framework density 26.959461999999998
#
# number of rings (size 3 to 8) (size 9 to 14) (size 15 to 20)
#    0.000    3.286    0.000    3.000    0.000    3.714 
#    0.000    5.714    0.000    0.000    0.000    0.000 
#    0.000    1.143    0.000   14.286    0.000    8.000 
#
# Total GULP energy -156391.927606 kJ/mol
# GULP energy per Si atom -5585.425986 kJ/mol
# Density = 2.689810 g / cm^3
# Si number density = 26.959462 Si / 1000 Ang^3
#
#
#
# Elastic Constant Matrix: (Units=GPa)
#
#
# Indices 1 2 3 4 5 6 
#
# 1 189.5769 4.8313 47.5727 0.0000 -36.4469 0.0000
# 2 4.8313 52.5490 -1.2971 0.0000 -1.2764 0.0000
# 3 47.5727 -1.2971 174.1502 0.0000 -38.8387 0.0000
# 4 0.0000 0.0000 0.0000 16.6546 0.0000 -16.4790
# 5 -36.4469 -1.2764 -38.8387 0.0000 54.1545 0.0000
# 6 0.0000 0.0000 0.0000 -16.4790 0.0000 21.0191
#
#
#
# Elastic Compliance Matrix: (Units=1/GPa)
#
#
# Indices 1 2 3 4 5 6 
#
# 1 0.006190 -0.000507 -0.000915 0.000000 0.003498 0.000000
# 2 -0.000507 0.019094 0.000363 0.000000 0.000369 0.000000
# 3 -0.000915 0.000363 0.006975 0.000000 0.004395 0.000000
# 4 0.000000 0.000000 0.000000 0.267731 0.000000 0.209901
# 5 0.003498 0.000369 0.004395 0.000000 0.023981 0.000000
# 6 0.000000 0.000000 0.000000 0.209901 0.000000 0.212138
#
#
# Mechanical properties :
#
#
# Convention : Reuss Voigt Hill
#
# Bulk Modulus (GPa) = 33.17551 57.61000 45.39275
# Shear Modulus (GPa) = 9.11954 42.71025 25.91490
#
# Velocity S-wave (km/s) = 1.84120 3.98457 3.10377
# Velocity P-wave (km/s) = 4.10517 6.52568 5.45147
#
# Compressibility (1/GPa) = 0.03014272
#
# Stress axis : x y z
#
# Youngs Moduli (GPa) = 161.55557 52.37144 143.37038
#
# Poissons Ratio (x) = 0.02654 0.13112
# Poissons Ratio (y) = 0.08186 -0.05205
# Poissons Ratio (z) = 0.14775 -0.01901
#
# Static dielectric constant tensor:
#      x y z
#    x 2.147460 0.000000 0.006480 
#    y 0.000000 1.992050 0.000000 
#    z 0.006480 0.000000 2.200600 
# 
# From -- ./inp_files/38008.got.cif
#   From: 2010.05.17/outbox.cif.g08.bks.cpg/sg10_20_cif.got.tgz:38008.got - 2010.06.03 11:33:40.
