data_PCOD9144378
_publ_section_title
;
Structure prediction by ZEFSAII (Michael W. Deem and Ramdas Pophale) SiO2 
 PCOD9144378
Probable space group: P 2/M
;
_chemical_formula_sum "Si O2"
_cell_formula_units_Z 24
_cell_length_a 9.442377
_cell_length_b 11.485575
_cell_length_c 25.013437
_cell_angle_alpha 90.000000
_cell_angle_beta 150.076225
_cell_angle_gamma 90.000000
_cell_volume 1353.241092
_symmetry_space_group_name_H-M "P 2/M"
_symmetry_group_IT_number 10
_symmetry_cell_setting 'monoclinic'
loop_
_space_group_symop_operation_xyz
x,y,z
-x,y,-z
-x,-y,-z
x,-y,z
loop_
_atom_site_type_symbol
_atom_site_label
_atom_site_fract_x
_atom_site_fract_y
_atom_site_fract_z
Si Si1 0.882850 0.247452 0.574383
Si Si2 0.116777 0.638523 0.755350
Si Si3 0.363715 0.362750 0.672429
Si Si4 0.340977 0.243687 0.328093
Si Si5 0.042736 0.000000 0.603844
Si Si6 0.524821 0.000000 0.348364
Si Si7 0.683971 0.640974 0.886131
O O1 0.559217 0.242579 0.449662
O O2 0.953100 0.331556 0.646403
O O3 0.073104 0.293043 0.586951
O O4 0.996509 0.117163 0.622265
O O5 0.101770 0.500000 0.760323
O O6 0.442333 0.673471 0.849960
O O7 0.958732 0.710152 0.749410
O O8 0.304570 0.500000 0.655588
O O9 0.523226 0.329942 0.670852
O O10 0.562544 0.329314 0.787958
O O11 0.351966 0.116597 0.304887
O O12 0.331161 0.000000 0.663216
O O13 0.789393 0.000000 0.476776
O O14 0.695088 0.500000 0.891153
O O15 0.000000 0.685717 0.000000
#
# Coordination Sequence:
#
# PCOD9144378 Si02
#       7
#     4   4   4   4   2   2   4
#     4  10  19  31  48  68 100 139 170 197 232 278
#     4  10  21  33  47  74 105 130 160 197 248 303
#     4  10  19  29  47  75  98 127 168 196 238 302
#     4  11  20  31  47  71 104 135 162 201 239 281
#     4   9  16  31  49  67  90 131 184 214 222 258
#     4   9  18  31  47  67  96 132 174 210 234 261
#     4   8  16  34  54  69  92 124 160 205 246 288
#
# _framework density 17.735199999999999
#
# number of rings (size 3 to 8) (size 9 to 14) (size 15 to 20)
#    0.000    2.333    1.667    3.000    0.000    4.667 
#    0.000    3.333    0.000    4.000    0.000   22.167 
#    0.000    0.000    0.000    0.000    0.000    0.000 
#
# Total GULP energy -133828.449869 kJ/mol
# GULP energy per Si atom -5576.185411 kJ/mol
# Density = 1.769483 g / cm^3
# Si number density = 17.735200 Si / 1000 Ang^3
#
#
#
# Elastic Constant Matrix: (Units=GPa)
#
#
# Indices 1 2 3 4 5 6 
#
# 1 67.1796 13.2593 22.0902 0.0000 28.5875 0.0000
# 2 13.2593 77.0262 20.7504 0.0000 14.5743 0.0000
# 3 22.0902 20.7504 64.9569 0.0000 26.2667 0.0000
# 4 0.0000 0.0000 0.0000 -10.9081 0.0000 25.5497
# 5 28.5875 14.5743 26.2667 0.0000 24.1669 0.0000
# 6 0.0000 0.0000 0.0000 25.5497 0.0000 7.7532
#
#
#
# Elastic Compliance Matrix: (Units=1/GPa)
#
#
# Indices 1 2 3 4 5 6 
#
# 1 0.032223 0.001321 0.007771 0.000000 -0.047359 0.000000
# 2 0.001321 0.014853 -0.001677 0.000000 -0.008697 0.000000
# 3 0.007771 -0.001677 0.029610 0.000000 -0.040363 0.000000
# 4 0.000000 0.000000 0.000000 -0.010515 0.000000 0.034650
# 5 -0.047359 -0.008697 -0.040363 0.000000 0.146515 0.000000
# 6 0.000000 0.000000 0.000000 0.034650 0.000000 0.014793
#
#
# Mechanical properties :
#
#
# Convention : Reuss Voigt Hill
#
# Bulk Modulus (GPa) = 10.92735 35.70695 23.31715
# Shear Modulus (GPa) = 20.56302 14.40660 17.48481
#
# Velocity S-wave (km/s) = 3.40876 2.85321 3.14328
# Velocity P-wave (km/s) = 4.65485 5.57059 5.13318
#
# Compressibility (1/GPa) = 0.09151348
#
# Stress axis : x y z
#
# Youngs Moduli (GPa) = 31.03387 67.32854 33.77292
#
# Poissons Ratio (x) = -0.08892 -0.26244
# Poissons Ratio (y) = -0.04099 0.05664
# Poissons Ratio (z) = -0.24115 0.11292
#
# Static dielectric constant tensor:
#      x y z
#    x 1.620780 0.000000 0.009040 
#    y 0.000000 1.614180 0.000000 
#    z 0.009040 0.000000 1.607960 
# 
# From -- ./inp_files/27798.got.cif
#   From: 2010.05.17/outbox.cif.g08.bks.cpg/sg10_14_cif.got.tgz:27798.got - 2010.06.03 11:33:40.
