data_PCOD9144076
_publ_section_title
;
Structure prediction by ZEFSAII (Michael W. Deem and Ramdas Pophale) SiO2 
 PCOD9144076
Probable space group: P 2/M
;
_chemical_formula_sum "Si O2"
_cell_formula_units_Z 32
_cell_length_a 14.628542
_cell_length_b 14.183918
_cell_length_c 21.862922
_cell_angle_alpha 90.000000
_cell_angle_beta 19.104587
_cell_angle_gamma 90.000000
_cell_volume 1484.714348
_symmetry_space_group_name_H-M "P 2/M"
_symmetry_group_IT_number 10
_symmetry_cell_setting 'monoclinic'
loop_
_space_group_symop_operation_xyz
x,y,z
-x,y,-z
-x,-y,-z
x,-y,z
loop_
_atom_site_type_symbol
_atom_site_label
_atom_site_fract_x
_atom_site_fract_y
_atom_site_fract_z
Si Si1 0.643745 0.105545 0.022918
Si Si2 0.671695 0.107114 0.270794
Si Si3 0.074635 0.607667 0.763482
Si Si4 0.461754 0.838381 0.270058
Si Si5 0.846476 0.787624 0.352687
Si Si6 0.943728 0.290513 0.967973
Si Si7 0.882329 0.213548 0.684681
Si Si8 0.449987 0.605836 0.104170
O O1 0.545007 0.109887 0.155496
O O2 0.383567 0.144927 0.148690
O O3 0.714662 0.000000 0.959549
O O4 0.914070 0.170018 0.841925
O O5 0.570372 0.113365 0.264015
O O6 0.901403 0.188470 0.133277
O O7 0.411358 0.141648 0.476322
O O8 0.759717 0.000000 0.228773
O O9 0.169086 0.500000 0.696890
O O10 0.235696 0.685565 0.621489
O O11 0.058863 0.642430 0.842993
O O12 0.753443 0.612683 0.942874
O O13 0.132414 0.824827 0.485264
O O14 0.618987 0.737204 0.167294
O O15 0.986502 0.776844 0.330806
O O16 0.000000 0.328632 0.000000
O O17 0.758576 0.313617 0.742139
O O18 0.341202 0.500000 0.181901
O O19 0.500000 0.620393 0.000000
#
# Coordination Sequence:
#
# PCOD9144076 Si02
#       8
#     4   4   4   4   4   4   4   4
#     4  12  23  36  58  87 127 173 209 248 312 386
#     4  10  23  42  66  92 123 166 217 270 318 374
#     4  11  22  40  67  94 125 162 208 261 320 382
#     4  10  22  39  62  87 129 167 214 260 307 370
#     4  11  22  40  61  92 128 161 206 267 320 368
#     4  10  22  44  65  90 123 167 213 266 325 373
#     4  11  21  36  59  90 131 166 204 256 306 373
#     4  10  18  34  63  95 125 163 205 249 309 374
#
# _framework density 21.552966999999999
#
# number of rings (size 3 to 8) (size 9 to 14) (size 15 to 20)
#    0.000    1.375    3.750    1.500    0.000    7.500 
#    0.000    2.500    0.000    6.750    0.000    0.000 
#    0.000    0.000    0.000    0.000    0.000    0.000 
#
# Total GULP energy -179021.805856 kJ/mol
# GULP energy per Si atom -5594.431433 kJ/mol
# Density = 2.150391 g / cm^3
# Si number density = 21.552967 Si / 1000 Ang^3
#
#
#
# Elastic Constant Matrix: (Units=GPa)
#
#
# Indices 1 2 3 4 5 6 
#
# 1 98.6926 20.8435 16.3394 0.0000 10.9453 0.0000
# 2 20.8435 118.8163 23.0897 0.0000 7.6220 0.0000
# 3 16.3394 23.0897 99.2282 0.0000 5.7051 0.0000
# 4 0.0000 0.0000 0.0000 15.7315 0.0000 6.7641
# 5 10.9453 7.6220 5.7051 0.0000 29.6387 0.0000
# 6 0.0000 0.0000 0.0000 6.7641 0.0000 9.7832
#
#
#
# Elastic Compliance Matrix: (Units=1/GPa)
#
#
# Indices 1 2 3 4 5 6 
#
# 1 0.011037 -0.001466 -0.001278 0.000000 -0.003453 0.000000
# 2 -0.001466 0.009116 -0.001796 0.000000 -0.001457 0.000000
# 3 -0.001278 -0.001796 0.010772 0.000000 -0.001140 0.000000
# 4 0.000000 0.000000 0.000000 0.090459 0.000000 -0.062544
# 5 -0.003453 -0.001457 -0.001140 0.000000 0.035609 0.000000
# 6 0.000000 0.000000 0.000000 -0.062544 0.000000 0.145459
#
#
# Mechanical properties :
#
#
# Convention : Reuss Voigt Hill
#
# Bulk Modulus (GPa) = 45.77844 48.58691 47.18268
# Shear Modulus (GPa) = 15.68319 28.12831 21.90575
#
# Velocity S-wave (km/s) = 2.70044 3.61651 3.19151
# Velocity P-wave (km/s) = 5.56860 6.32699 5.95987
#
# Compressibility (1/GPa) = 0.02184435
#
# Stress axis : x y z
#
# Youngs Moduli (GPa) = 90.60767 109.69624 92.83661
#
# Poissons Ratio (x) = 0.16085 0.11861
# Poissons Ratio (y) = 0.13286 0.16674
# Poissons Ratio (z) = 0.11576 0.19702
#
# Static dielectric constant tensor:
#      x y z
#    x 1.811920 0.000000 -0.003800 
#    y 0.000000 1.758630 0.000000 
#    z -0.003800 0.000000 1.779650 
# 
# From -- ./inp_files/85400.got.cif
#   From: 2010.05.17/outbox.cif.g08.bks.cpg/sg10_43_cif.got.tgz:85400.got - 2010.06.03 11:33:40.
