data_PCOD9144838
_publ_section_title
;
Structure prediction by ZEFSAII (Michael W. Deem and Ramdas Pophale) SiO2 
 PCOD9144838
Probable space group: P 2/M
;
_chemical_formula_sum "Si O2"
_cell_formula_units_Z 32
_cell_length_a 8.579281
_cell_length_b 14.611701
_cell_length_c 25.197963
_cell_angle_alpha 90.000000
_cell_angle_beta 149.179253
_cell_angle_gamma 90.000000
_cell_volume 1618.404654
_symmetry_space_group_name_H-M "P 2/M"
_symmetry_group_IT_number 10
_symmetry_cell_setting 'monoclinic'
loop_
_space_group_symop_operation_xyz
x,y,z
-x,y,-z
-x,-y,-z
x,-y,z
loop_
_atom_site_type_symbol
_atom_site_label
_atom_site_fract_x
_atom_site_fract_y
_atom_site_fract_z
Si Si1 0.676880 0.396519 0.198879
Si Si2 0.618756 0.602139 0.474241
Si Si3 0.681261 0.107346 0.340253
Si Si4 0.789041 0.749801 0.795900
Si Si5 0.661157 0.600766 0.316154
Si Si6 0.247415 0.396568 0.972875
Si Si7 0.829772 0.749592 0.689667
Si Si8 0.637898 0.107193 0.456698
O O1 0.818013 0.500000 0.233101
O O2 0.564058 0.395393 0.226019
O O3 0.903885 0.310960 0.258295
O O4 0.417438 0.389638 0.078782
O O5 0.500000 0.608580 0.500000
O O6 0.550304 0.500000 0.435215
O O7 0.447941 0.678502 0.392325
O O8 0.978576 0.613985 0.578022
O O9 0.394244 0.163944 0.234063
O O10 0.652981 0.114585 0.396434
O O11 0.024935 0.139435 0.426042
O O12 0.662250 0.000000 0.321591
O O13 0.514161 0.679321 0.706141
O O14 0.925278 0.772847 0.777882
O O15 0.027212 0.689257 0.898509
O O16 0.596061 0.500000 0.318518
O O17 0.107786 0.500000 0.928866
O O18 0.500000 0.393773 0.000000
O O19 0.663190 0.836953 0.614502
O O20 0.609921 0.000000 0.461593
#
# Coordination Sequence:
#
# PCOD9144838 Si02
#       8
#     4   4   4   4   4   4   4   4
#     4  10  20  35  52  70  99 144 180 201 251 312
#     4  10  19  31  47  69 100 138 171 195 237 309
#     4   8  15  30  50  73 103 133 160 201 259 314
#     4  11  21  32  52  80 101 123 172 225 254 287
#     4  10  21  34  48  73 105 133 168 210 250 297
#     4  10  20  34  52  74 102 134 172 217 257 296
#     4  11  19  30  53  75  98 135 172 205 247 304
#     4   8  15  28  48  75 103 130 163 204 254 306
#
# _framework density 19.772558
#
# number of rings (size 3 to 8) (size 9 to 14) (size 15 to 20)
#    0.000    2.250    2.500    2.250    0.000    3.500 
#    0.000    3.125    0.000    2.250    0.000    0.875 
#    0.000    0.000    0.000    0.000    0.000    0.000 
#
# Total GULP energy -178381.791291 kJ/mol
# GULP energy per Si atom -5574.430978 kJ/mol
# Density = 1.972755 g / cm^3
# Si number density = 19.772558 Si / 1000 Ang^3
#
#
#
# Elastic Constant Matrix: (Units=GPa)
#
#
# Indices 1 2 3 4 5 6 
#
# 1 37.1062 12.2227 13.6419 0.0000 0.3567 0.0000
# 2 12.2227 91.2925 34.0187 0.0000 11.7758 0.0000
# 3 13.6419 34.0187 69.9952 0.0000 0.9106 0.0000
# 4 0.0000 0.0000 0.0000 38.2996 0.0000 14.6781
# 5 0.3567 11.7758 0.9106 0.0000 24.6035 0.0000
# 6 0.0000 0.0000 0.0000 14.6781 0.0000 11.3740
#
#
#
# Elastic Compliance Matrix: (Units=1/GPa)
#
#
# Indices 1 2 3 4 5 6 
#
# 1 0.029404 -0.002330 -0.004610 0.000000 0.000859 0.000000
# 2 -0.002330 0.014566 -0.006538 0.000000 -0.006696 0.000000
# 3 -0.004610 -0.006538 0.018330 0.000000 0.002518 0.000000
# 4 0.000000 0.000000 0.000000 0.051659 0.000000 -0.066666
# 5 0.000859 -0.006696 0.002518 0.000000 0.043744 0.000000
# 6 0.000000 0.000000 0.000000 -0.066666 0.000000 0.173953
#
#
# Mechanical properties :
#
#
# Convention : Reuss Voigt Hill
#
# Bulk Modulus (GPa) = 28.29303 35.35116 31.82210
# Shear Modulus (GPa) = 13.49924 24.08946 18.79435
#
# Velocity S-wave (km/s) = 2.61574 3.49424 3.08641
# Velocity P-wave (km/s) = 4.84387 5.84785 5.36938
#
# Compressibility (1/GPa) = 0.03534439
#
# Stress axis : x y z
#
# Youngs Moduli (GPa) = 34.00954 68.65448 54.55578
#
# Poissons Ratio (x) = 0.15996 0.25148
# Poissons Ratio (y) = 0.07924 0.35668
# Poissons Ratio (z) = 0.15677 0.44886
#
# Static dielectric constant tensor:
#      x y z
#    x 1.724490 0.000000 0.009060 
#    y 0.000000 1.726980 0.000000 
#    z 0.009060 0.000000 1.719780 
# 
# From -- ./inp_files/37699.got.cif
#   From: 2010.05.17/outbox.cif.g08.bks.cpg/sg10_19_cif.got.tgz:37699.got - 2010.06.03 11:33:40.
