data_PCOD9144098
_publ_section_title
;
Structure prediction by ZEFSAII (Michael W. Deem and Ramdas Pophale) SiO2 
 PCOD9144098
Probable space group: P 2/M
;
_chemical_formula_sum "Si O2"
_cell_formula_units_Z 32
_cell_length_a 14.374382
_cell_length_b 17.465889
_cell_length_c 11.710177
_cell_angle_alpha 90.000000
_cell_angle_beta 149.773511
_cell_angle_gamma 90.000000
_cell_volume 1480.039618
_symmetry_space_group_name_H-M "P 2/M"
_symmetry_group_IT_number 10
_symmetry_cell_setting 'monoclinic'
loop_
_space_group_symop_operation_xyz
x,y,z
-x,y,-z
-x,-y,-z
x,-y,z
loop_
_atom_site_type_symbol
_atom_site_label
_atom_site_fract_x
_atom_site_fract_y
_atom_site_fract_z
Si Si1 0.541465 0.351579 0.418699
Si Si2 0.214843 0.199730 0.753792
Si Si3 0.255595 0.350342 0.938536
Si Si4 0.866129 0.912417 0.134449
Si Si5 0.559101 0.829936 0.688211
Si Si6 0.254530 0.154865 0.545541
Si Si7 0.716572 0.414543 0.259852
Si Si8 0.124140 0.677842 0.362181
O O1 0.500000 0.382431 0.500000
O O2 0.471615 0.262220 0.342476
O O3 0.756598 0.355645 0.614862
O O4 0.426065 0.384274 0.189808
O O5 0.295951 0.269446 0.915425
O O6 0.197375 0.125044 0.813573
O O7 0.305599 0.177352 0.729877
O O8 0.000000 0.222975 0.500000
O O9 0.191772 0.403458 0.766821
O O10 0.090671 0.338504 0.853044
O O11 0.087998 0.905218 0.367692
O O12 0.809915 0.000000 0.062060
O O13 0.763866 0.859068 0.933226
O O14 0.500000 0.855870 0.500000
O O15 0.425764 0.862719 0.645931
O O16 0.160077 0.232062 0.397397
O O17 0.744284 0.500000 0.333426
O O18 0.785142 0.354125 0.424716
O O19 0.500000 0.403379 0.000000
#
# Coordination Sequence:
#
# PCOD9144098 Si02
#       8
#     4   4   4   4   4   4   4   4
#     4  10  22  38  59  90 120 157 212 259 296 341
#     4  10  18  35  58  88 115 150 193 235 295 361
#     4  12  19  37  63  88 124 158 200 243 299 359
#     4  11  23  39  58  86 120 155 195 248 308 363
#     4  10  22  40  59  82 114 155 209 257 292 349
#     4  10  21  37  60  88 115 154 199 242 299 356
#     4  11  23  37  60  99 134 161 193 242 307 366
#     4  11  20  36  63  90 119 163 200 245 301 358
#
# _framework density 21.621041999999999
#
# number of rings (size 3 to 8) (size 9 to 14) (size 15 to 20)
#    0.000    1.375    6.250    0.375    0.000    5.500 
#    0.000    5.000    0.000    1.500    0.000    1.750 
#    0.000    0.000    0.000    0.000    0.000    0.000 
#
# Total GULP energy -178757.727696 kJ/mol
# GULP energy per Si atom -5586.178990 kJ/mol
# Density = 2.157183 g / cm^3
# Si number density = 21.621042 Si / 1000 Ang^3
#
#
#
# Elastic Constant Matrix: (Units=GPa)
#
#
# Indices 1 2 3 4 5 6 
#
# 1 123.2485 -7.1584 32.6562 0.0000 -6.8611 0.0000
# 2 -7.1584 51.7195 0.1038 0.0000 4.9253 0.0000
# 3 32.6562 0.1038 67.7241 0.0000 -2.8101 0.0000
# 4 0.0000 0.0000 0.0000 13.9176 0.0000 5.0284
# 5 -6.8611 4.9253 -2.8101 0.0000 33.1965 0.0000
# 6 0.0000 0.0000 0.0000 5.0284 0.0000 9.7276
#
#
#
# Elastic Compliance Matrix: (Units=1/GPa)
#
#
# Indices 1 2 3 4 5 6 
#
# 1 0.009453 0.001184 -0.004502 0.000000 0.001397 0.000000
# 2 0.001184 0.019762 -0.000715 0.000000 -0.002748 0.000000
# 3 -0.004502 -0.000715 0.016963 0.000000 0.000612 0.000000
# 4 0.000000 0.000000 0.000000 0.088352 0.000000 -0.045671
# 5 0.001397 -0.002748 0.000612 0.000000 0.030872 0.000000
# 6 0.000000 0.000000 0.000000 -0.045671 0.000000 0.126409
#
#
# Mechanical properties :
#
#
# Convention : Reuss Voigt Hill
#
# Bulk Modulus (GPa) = 26.23837 32.65504 29.44671
# Shear Modulus (GPa) = 15.99583 25.84104 20.91844
#
# Velocity S-wave (km/s) = 2.72293 3.46089 3.11385
# Velocity P-wave (km/s) = 4.69550 5.57732 5.15530
#
# Compressibility (1/GPa) = 0.03811213
#
# Stress axis : x y z
#
# Youngs Moduli (GPa) = 105.78507 50.60189 58.95126
#
# Poissons Ratio (x) = -0.05993 0.26540
# Poissons Ratio (y) = -0.12529 0.04218
# Poissons Ratio (z) = 0.47626 0.03620
#
# Static dielectric constant tensor:
#      x y z
#    x 1.833710 0.000000 0.028170 
#    y 0.000000 1.774410 0.000000 
#    z 0.028170 0.000000 1.828710 
# 
# From -- ./inp_files/52010.got.cif
#   From: 2010.05.17/outbox.cif.g08.bks.cpg/sg10_27_cif.got.tgz:52010.got - 2010.06.03 11:33:40.
