data_PCOD9144450
_publ_section_title
;
Structure prediction by ZEFSAII (Michael W. Deem and Ramdas Pophale) SiO2 
 PCOD9144450
Probable space group: P 2/M
;
_chemical_formula_sum "Si O2"
_cell_formula_units_Z 32
_cell_length_a 4.869482
_cell_length_b 14.323828
_cell_length_c 17.969932
_cell_angle_alpha 90.000000
_cell_angle_beta 84.511091
_cell_angle_gamma 90.000000
_cell_volume 1247.648820
_symmetry_space_group_name_H-M "P 2/M"
_symmetry_group_IT_number 10
_symmetry_cell_setting 'monoclinic'
loop_
_space_group_symop_operation_xyz
x,y,z
-x,y,-z
-x,-y,-z
x,-y,z
loop_
_atom_site_type_symbol
_atom_site_label
_atom_site_fract_x
_atom_site_fract_y
_atom_site_fract_z
Si Si1 0.654881 0.608649 0.653273
Si Si2 0.050591 0.886152 0.300460
Si Si3 0.221420 0.653920 0.555615
Si Si4 0.576028 0.890788 0.218099
Si Si5 0.141904 0.349539 0.924110
Si Si6 0.694456 0.606189 0.825619
Si Si7 0.264886 0.140070 0.952191
Si Si8 0.282024 0.105843 0.448640
O O1 0.552836 0.500000 0.651093
O O2 0.425059 0.675237 0.620183
O O3 0.960868 0.607457 0.607363
O O4 0.675622 0.633402 0.739878
O O5 0.263684 0.859190 0.230600
O O6 0.181568 0.851518 0.373752
O O7 0.759917 0.850394 0.279746
O O8 0.029469 0.000000 0.309795
O O9 0.500000 0.616768 0.500000
O O10 0.000000 0.700298 0.500000
O O11 0.703449 0.883745 0.134327
O O12 0.559824 0.000000 0.235766
O O13 0.399636 0.393525 0.874424
O O14 0.253519 0.252023 0.951800
O O15 0.904479 0.334084 0.869198
O O16 0.000000 0.396815 0.000000
O O17 0.804758 0.500000 0.824648
O O18 0.500000 0.107279 0.000000
O O19 0.000000 0.104200 0.000000
O O20 0.500000 0.152828 0.500000
O O21 0.000000 0.094212 0.500000
O O22 0.397753 0.000000 0.429788
#
# Coordination Sequence:
#
# PCOD9144450 Si02
#       8
#     4   4   4   4   4   4   4   4
#     4  10  19  30  44  69 105 140 175 217 265 312
#     4   9  17  29  45  71 108 144 179 222 269 313
#     4   9  18  28  43  68 103 146 181 210 256 318
#     4  10  20  34  54  80 111 145 179 221 271 322
#     4  11  23  40  59  81 109 142 181 227 276 326
#     4  11  23  38  58  83 113 146 179 224 278 330
#     4  11  23  40  60  81 109 143 179 225 273 319
#     4   9  15  23  38  62  97 141 178 209 257 317
#
# _framework density 25.648242
#
# number of rings (size 3 to 8) (size 9 to 14) (size 15 to 20)
#    0.000    2.000    0.000    4.875    0.000   12.000 
#    0.000    0.000    0.000    0.000    0.000    0.000 
#    0.000   70.000    0.000    0.000    0.000    0.000 
#
# Total GULP energy -178279.115645 kJ/mol
# GULP energy per Si atom -5571.222364 kJ/mol
# Density = 2.558987 g / cm^3
# Si number density = 25.648242 Si / 1000 Ang^3
#
#
#
# Elastic Constant Matrix: (Units=GPa)
#
#
# Indices 1 2 3 4 5 6 
#
# 1 189.4871 21.8517 65.8506 0.0000 20.6635 0.0000
# 2 21.8517 72.8660 25.0966 0.0000 3.1993 0.0000
# 3 65.8506 25.0966 157.5364 0.0000 17.9656 0.0000
# 4 0.0000 0.0000 0.0000 6.7261 0.0000 25.5691
# 5 20.6635 3.1993 17.9656 0.0000 52.9010 0.0000
# 6 0.0000 0.0000 0.0000 25.5691 0.0000 -10.7166
#
#
#
# Elastic Compliance Matrix: (Units=1/GPa)
#
#
# Indices 1 2 3 4 5 6 
#
# 1 0.006381 -0.001045 -0.002313 0.000000 -0.001644 0.000000
# 2 -0.001045 0.014692 -0.001924 0.000000 0.000173 0.000000
# 3 -0.002313 -0.001924 0.007807 0.000000 -0.001631 0.000000
# 4 0.000000 0.000000 0.000000 0.014764 0.000000 0.035226
# 5 -0.001644 0.000173 -0.001631 0.000000 0.020089 0.000000
# 6 0.000000 0.000000 0.000000 0.035226 0.000000 -0.009266
#
#
# Mechanical properties :
#
#
# Convention : Reuss Voigt Hill
#
# Bulk Modulus (GPa) = 54.59398 71.72081 63.15739
# Shear Modulus (GPa) = 70.28800 30.25479 50.27140
#
# Velocity S-wave (km/s) = 5.24062 3.43826 4.43203
# Velocity P-wave (km/s) = 7.61253 6.61711 7.13221
#
# Compressibility (1/GPa) = 0.01831704
#
# Stress axis : x y z
#
# Youngs Moduli (GPa) = 156.71320 68.06406 128.08603
#
# Poissons Ratio (x) = 0.07110 0.29632
# Poissons Ratio (y) = 0.16371 0.24638
# Poissons Ratio (z) = 0.36255 0.13093
#
# Static dielectric constant tensor:
#      x y z
#    x 2.021830 0.000000 -0.024780 
#    y 0.000000 2.107140 0.000000 
#    z -0.024780 0.000000 2.043320 
# 
# From -- ./inp_files/59418.got.cif
#   From: 2010.05.17/outbox.cif.g08.bks.cpg/sg10_30_cif.got.tgz:59418.got - 2010.06.03 11:33:40.
