data_PCOD9144749
_publ_section_title
;
Structure prediction by ZEFSAII (Michael W. Deem and Ramdas Pophale) SiO2 
 PCOD9144749
Probable space group: P 2/M
;
_chemical_formula_sum "Si O2"
_cell_formula_units_Z 32
_cell_length_a 9.367540
_cell_length_b 20.512360
_cell_length_c 12.477332
_cell_angle_alpha 90.000000
_cell_angle_beta 46.863758
_cell_angle_gamma 90.000000
_cell_volume 1749.544838
_symmetry_space_group_name_H-M "P 2/M"
_symmetry_group_IT_number 10
_symmetry_cell_setting 'monoclinic'
loop_
_space_group_symop_operation_xyz
x,y,z
-x,y,-z
-x,-y,-z
x,-y,z
loop_
_atom_site_type_symbol
_atom_site_label
_atom_site_fract_x
_atom_site_fract_y
_atom_site_fract_z
Si Si1 0.722343 0.653930 0.912305
Si Si2 0.863113 0.177437 0.348488
Si Si3 0.802339 0.882095 0.144324
Si Si4 0.617259 0.754733 0.150290
Si Si5 0.408502 0.929432 0.427651
Si Si6 0.028798 0.572934 0.857567
Si Si7 0.311277 0.690712 0.656588
Si Si8 0.162602 0.752339 0.322501
O O1 0.822121 0.687130 0.757749
O O2 0.827450 0.590458 0.902584
O O3 0.500000 0.639227 0.000000
O O4 0.712800 0.709418 0.010030
O O5 0.853942 0.142122 0.238309
O O6 0.734460 0.132725 0.495078
O O7 0.768978 0.248366 0.372300
O O8 0.073623 0.191429 0.291507
O O9 0.745663 0.819588 0.100936
O O10 0.599005 0.920711 0.256159
O O11 0.000000 0.914441 0.000000
O O12 0.631516 0.718855 0.256970
O O13 0.386863 0.766025 0.242907
O O14 0.500000 0.930579 0.500000
O O15 0.313132 0.000000 0.456890
O O16 0.098080 0.500000 0.796519
O O17 0.163694 0.632106 0.750415
O O18 0.000000 0.577261 0.000000
O O19 0.500000 0.664790 0.500000
O O20 0.000000 0.745598 0.500000
#
# Coordination Sequence:
#
# PCOD9144749 Si02
#       8
#     4   4   4   4   4   4   4   4
#     4  10  21  37  55  80 111 145 184 227 279 327
#     4  10  19  34  55  82 107 145 181 227 281 327
#     4  10  19  30  52  79 107 141 184 224 275 321
#     4  10  21  33  51  82 112 140 175 235 283 322
#     4   9  18  33  50  76 114 147 181 222 272 333
#     4  11  23  39  59  82 112 152 187 223 277 337
#     4  11  20  34  58  83 111 140 183 238 277 322
#     4  11  20  32  54  82 110 138 182 234 283 322
#
# _framework density 18.290472999999999
#
# number of rings (size 3 to 8) (size 9 to 14) (size 15 to 20)
#    0.000    1.750    2.500    4.125    1.750    0.750 
#    0.000    0.000    0.000    3.750    0.000    0.000 
#    0.000   14.000    0.000    0.000    0.000    0.000 
#
# Total GULP energy -178429.720459 kJ/mol
# GULP energy per Si atom -5575.928764 kJ/mol
# Density = 1.824884 g / cm^3
# Si number density = 18.290473 Si / 1000 Ang^3
#
#
#
# Elastic Constant Matrix: (Units=GPa)
#
#
# Indices 1 2 3 4 5 6 
#
# 1 74.1557 29.3509 6.5057 0.0000 -4.3924 0.0000
# 2 29.3509 100.0234 28.2846 0.0000 -9.9107 0.0000
# 3 6.5057 28.2846 74.3004 0.0000 -9.3253 0.0000
# 4 0.0000 0.0000 0.0000 10.6779 0.0000 -7.4354
# 5 -4.3924 -9.9107 -9.3253 0.0000 21.4933 0.0000
# 6 0.0000 0.0000 0.0000 -7.4354 0.0000 15.2360
#
#
#
# Elastic Compliance Matrix: (Units=1/GPa)
#
#
# Indices 1 2 3 4 5 6 
#
# 1 0.015301 -0.004516 0.000540 0.000000 0.001279 0.000000
# 2 -0.004516 0.012792 -0.004072 0.000000 0.003209 0.000000
# 3 0.000540 -0.004072 0.015589 0.000000 0.004996 0.000000
# 4 0.000000 0.000000 0.000000 0.141858 0.000000 0.069229
# 5 0.001279 0.003209 0.004996 0.000000 0.050435 0.000000
# 6 0.000000 0.000000 0.000000 0.069229 0.000000 0.099419
#
#
# Mechanical properties :
#
#
# Convention : Reuss Voigt Hill
#
# Bulk Modulus (GPa) = 36.24942 41.86242 39.05592
# Shear Modulus (GPa) = 13.86256 21.77066 17.81661
#
# Velocity S-wave (km/s) = 2.75601 3.45378 3.12443
# Velocity P-wave (km/s) = 5.47624 6.23234 5.86648
#
# Compressibility (1/GPa) = 0.02758665
#
# Stress axis : x y z
#
# Youngs Moduli (GPa) = 65.35565 78.17320 64.14938
#
# Poissons Ratio (x) = 0.35302 -0.03463
# Poissons Ratio (y) = 0.29514 0.26118
# Poissons Ratio (z) = -0.03528 0.31828
#
# Static dielectric constant tensor:
#      x y z
#    x 1.650640 0.000000 -0.004260 
#    y 0.000000 1.630610 0.000000 
#    z -0.004260 0.000000 1.659690 
# 
# From -- ./inp_files/26083.got.cif
#   From: 2010.05.17/outbox.cif.g08.bks.cpg/sg10_14_cif.got.tgz:26083.got - 2010.06.03 11:33:40.
