data_PCOD9144288
_publ_section_title
;
Structure prediction by ZEFSAII (Michael W. Deem and Ramdas Pophale) SiO2 
 PCOD9144288
Probable space group: P 2/M
;
_chemical_formula_sum "Si O2"
_cell_formula_units_Z 32
_cell_length_a 28.622470
_cell_length_b 9.122381
_cell_length_c 15.299528
_cell_angle_alpha 90.000000
_cell_angle_beta 152.796324
_cell_angle_gamma 90.000000
_cell_volume 1826.235634
_symmetry_space_group_name_H-M "P 2/M"
_symmetry_group_IT_number 10
_symmetry_cell_setting 'monoclinic'
loop_
_space_group_symop_operation_xyz
x,y,z
-x,y,-z
-x,-y,-z
x,-y,z
loop_
_atom_site_type_symbol
_atom_site_label
_atom_site_fract_x
_atom_site_fract_y
_atom_site_fract_z
Si Si1 0.908096 0.175084 0.541917
Si Si2 0.855764 0.176477 0.095014
Si Si3 0.122604 0.333452 0.688811
Si Si4 0.740561 0.327048 0.367233
Si Si5 0.417595 0.327948 0.056239
Si Si6 0.439918 0.824169 0.265987
Si Si7 0.352549 0.176054 0.313953
Si Si8 0.419799 0.168450 0.785276
O O1 0.865933 0.242350 0.380908
O O2 0.845379 0.248098 0.515838
O O3 0.029384 0.208803 0.745489
O O4 0.895051 0.000000 0.520056
O O5 0.838357 0.252564 0.159728
O O6 0.849481 0.000000 0.096863
O O7 0.765075 0.223855 0.878888
O O8 0.161906 0.500000 0.744845
O O9 0.000000 0.341924 0.500000
O O10 0.753903 0.500000 0.403734
O O11 0.679661 0.252337 0.345307
O O12 0.667212 0.308276 0.160111
O O13 0.434528 0.500000 0.094942
O O14 0.388334 0.255382 0.099134
O O15 0.519970 0.249526 0.191382
O O16 0.557960 0.771223 0.473238
O O17 0.389231 0.795235 0.275565
O O18 0.437179 0.000000 0.247779
O O19 0.353573 0.000000 0.326014
O O20 0.397695 0.000000 0.726111
O O21 0.500000 0.168395 0.000000
#
# Coordination Sequence:
#
# PCOD9144288 Si02
#       8
#     4   4   4   4   4   4   4   4
#     4  10  19  29  43  64  90 121 160 195 224 269
#     4   9  17  30  46  64  87 120 158 196 234 271
#     4   9  17  28  40  57  85 118 152 189 227 269
#     4  10  20  32  46  67  99 129 153 186 230 274
#     4  10  20  32  47  69  97 125 153 187 232 278
#     4   9  17  31  50  70  91 119 158 197 234 279
#     4   8  16  31  49  68  91 120 156 200 241 272
#     4   9  17  31  50  71  93 120 155 188 224 273
#
# _framework density 17.522383000000001
#
# number of rings (size 3 to 8) (size 9 to 14) (size 15 to 20)
#    0.000    2.750    0.000    2.625    1.750    5.000 
#    0.000    1.875    0.000    0.000    0.000    0.875 
#    0.000    7.000    0.000    0.000    0.000    0.000 
#
# Total GULP energy -178383.005334 kJ/mol
# GULP energy per Si atom -5574.468917 kJ/mol
# Density = 1.748250 g / cm^3
# Si number density = 17.522383 Si / 1000 Ang^3
#
#
#
# Elastic Constant Matrix: (Units=GPa)
#
#
# Indices 1 2 3 4 5 6 
#
# 1 40.3403 26.6922 0.8698 0.0000 17.3993 0.0000
# 2 26.6922 64.7612 22.6516 0.0000 13.4627 0.0000
# 3 0.8698 22.6516 54.4458 0.0000 16.1758 0.0000
# 4 0.0000 0.0000 0.0000 8.7458 0.0000 -1.0381
# 5 17.3993 13.4627 16.1758 0.0000 25.9625 0.0000
# 6 0.0000 0.0000 0.0000 -1.0381 0.0000 12.6239
#
#
#
# Elastic Compliance Matrix: (Units=1/GPa)
#
#
# Indices 1 2 3 4 5 6 
#
# 1 0.054804 -0.021507 0.019231 0.000000 -0.037557 0.000000
# 2 -0.021507 0.027239 -0.013590 0.000000 0.008756 0.000000
# 3 0.019231 -0.013590 0.031230 0.000000 -0.025298 0.000000
# 4 0.000000 0.000000 0.000000 0.115468 0.000000 0.009495
# 5 -0.037557 0.008756 -0.025298 0.000000 0.074908 0.000000
# 6 0.000000 0.000000 0.000000 0.009495 0.000000 0.079995
#
#
# Mechanical properties :
#
#
# Convention : Reuss Voigt Hill
#
# Bulk Modulus (GPa) = 12.26404 28.88605 20.57504
# Shear Modulus (GPa) = 11.29794 16.75535 14.02665
#
# Velocity S-wave (km/s) = 2.54199 3.09564 2.83238
# Velocity P-wave (km/s) = 3.95347 5.41280 4.73963
#
# Compressibility (1/GPa) = 0.08153922
#
# Stress axis : x y z
#
# Youngs Moduli (GPa) = 18.24684 36.71209 32.02057
#
# Poissons Ratio (x) = 0.78957 -0.61577
# Poissons Ratio (y) = 0.39243 0.43517
# Poissons Ratio (z) = -0.35090 0.49893
#
# Static dielectric constant tensor:
#      x y z
#    x 1.588950 0.000000 0.030840 
#    y 0.000000 1.585380 0.000000 
#    z 0.030840 0.000000 1.632380 
# 
# From -- ./inp_files/72169.got.cif
#   From: 2010.05.17/outbox.cif.g08.bks.cpg/sg10_37_cif.got.tgz:72169.got - 2010.06.03 11:33:40.
