data_PCOD9144901
_publ_section_title
;
Structure prediction by ZEFSAII (Michael W. Deem and Ramdas Pophale) SiO2 
 PCOD9144901
Probable space group: P 2/M
;
_chemical_formula_sum "Si O2"
_cell_formula_units_Z 32
_cell_length_a 17.287048
_cell_length_b 12.564757
_cell_length_c 8.240635
_cell_angle_alpha 90.000000
_cell_angle_beta 85.234962
_cell_angle_gamma 90.000000
_cell_volume 1783.741732
_symmetry_space_group_name_H-M "P 2/M"
_symmetry_group_IT_number 10
_symmetry_cell_setting 'monoclinic'
loop_
_space_group_symop_operation_xyz
x,y,z
-x,y,-z
-x,-y,-z
x,-y,z
loop_
_atom_site_type_symbol
_atom_site_label
_atom_site_fract_x
_atom_site_fract_y
_atom_site_fract_z
Si Si1 0.167012 0.310408 0.037225
Si Si2 0.955106 0.619051 0.709446
Si Si3 0.918620 0.125115 0.111516
Si Si4 0.102610 0.277999 0.596153
Si Si5 0.249260 0.621910 0.699729
Si Si6 0.398075 0.628248 0.852019
Si Si7 0.453823 0.629346 0.346939
Si Si8 0.691636 0.627630 0.799411
O O1 0.088198 0.362111 0.115672
O O2 0.227954 0.315514 0.174661
O O3 0.145245 0.194714 0.973096
O O4 0.206694 0.374121 0.883341
O O5 0.936689 0.500000 0.654309
O O6 0.923775 0.706091 0.584879
O O7 0.047197 0.635940 0.697598
O O8 0.917126 0.172999 0.295304
O O9 0.902841 0.000000 0.116248
O O10 0.000000 0.141202 0.000000
O O11 0.192328 0.309396 0.598585
O O12 0.253531 0.500000 0.640509
O O13 0.335284 0.663139 0.727447
O O14 0.399309 0.500000 0.837349
O O15 0.485297 0.663911 0.802770
O O16 0.362108 0.648920 0.033274
O O17 0.500000 0.659467 0.500000
O O18 0.449322 0.500000 0.344687
O O19 0.364971 0.662862 0.335878
O O20 0.706729 0.500000 0.786634
#
# Coordination Sequence:
#
# PCOD9144901 Si02
#       8
#     4   4   4   4   4   4   4   4
#     4  10  19  31  48  71  92 121 162 198 241 286
#     4  11  20  31  45  68 105 134 153 185 226 288
#     4  10  20  38  56  69  87 117 162 216 256 278
#     4  10  20  32  45  67  93 126 160 191 237 288
#     4   9  16  27  43  63  89 123 163 197 229 277
#     4   8  14  24  37  54  80 116 156 194 227 263
#     4   9  16  24  36  57  87 125 164 191 219 265
#     4   9  16  27  42  62  92 125 157 192 227 274
#
# _framework density 17.939817000000001
#
# number of rings (size 3 to 8) (size 9 to 14) (size 15 to 20)
#    0.000    2.500    1.250    3.750    0.000    2.500 
#    0.000    6.250    0.000    0.000    0.000    0.000 
#    0.000   18.500    0.000    0.000    0.000   13.625 
#
# Total GULP energy -178200.665049 kJ/mol
# GULP energy per Si atom -5568.770783 kJ/mol
# Density = 1.789899 g / cm^3
# Si number density = 17.939817 Si / 1000 Ang^3
#
#
#
# Elastic Constant Matrix: (Units=GPa)
#
#
# Indices 1 2 3 4 5 6 
#
# 1 74.1747 18.3814 8.0524 0.0000 18.9271 0.0000
# 2 18.3814 70.8621 14.9723 0.0000 8.2461 0.0000
# 3 8.0524 14.9723 47.9637 0.0000 7.5401 0.0000
# 4 0.0000 0.0000 0.0000 13.0805 0.0000 -2.5325
# 5 18.9271 8.2461 7.5401 0.0000 30.5536 0.0000
# 6 0.0000 0.0000 0.0000 -2.5325 0.0000 3.3064
#
#
#
# Elastic Compliance Matrix: (Units=1/GPa)
#
#
# Indices 1 2 3 4 5 6 
#
# 1 0.016704 -0.003167 -0.000337 0.000000 -0.009410 0.000000
# 2 -0.003167 0.015984 -0.004253 0.000000 -0.001302 0.000000
# 3 -0.000337 -0.004253 0.022909 0.000000 -0.004297 0.000000
# 4 0.000000 0.000000 0.000000 0.089761 0.000000 0.068753
# 5 -0.009410 -0.001302 -0.004297 0.000000 0.039971 0.000000
# 6 0.000000 0.000000 0.000000 0.068753 0.000000 0.355106
#
#
# Mechanical properties :
#
#
# Convention : Reuss Voigt Hill
#
# Bulk Modulus (GPa) = 24.94780 30.64585 27.79682
# Shear Modulus (GPa) = 8.78258 19.49437 14.13847
#
# Velocity S-wave (km/s) = 2.21500 3.30002 2.81037
# Velocity P-wave (km/s) = 4.52528 5.62493 5.10480
#
# Compressibility (1/GPa) = 0.04008370
#
# Stress axis : x y z
#
# Youngs Moduli (GPa) = 59.86529 62.56423 43.65146
#
# Poissons Ratio (x) = 0.19813 0.01469
# Poissons Ratio (y) = 0.18959 0.18565
# Poissons Ratio (z) = 0.02014 0.26609
#
# Static dielectric constant tensor:
#      x y z
#    x 1.671800 0.000000 0.017420 
#    y 0.000000 1.558640 0.000000 
#    z 0.017420 0.000000 1.732660 
# 
# From -- ./inp_files/32174.got.cif
#   From: 2010.05.17/outbox.cif.g08.bks.cpg/sg10_17_cif.got.tgz:32174.got - 2010.06.03 11:33:40.
