data_PCOD9144383
_publ_section_title
;
Structure prediction by ZEFSAII (Michael W. Deem and Ramdas Pophale) SiO2 
 PCOD9144383
Probable space group: P 2/M
;
_chemical_formula_sum "Si O2"
_cell_formula_units_Z 32
_cell_length_a 9.136767
_cell_length_b 21.538317
_cell_length_c 16.731672
_cell_angle_alpha 90.000000
_cell_angle_beta 24.628567
_cell_angle_gamma 90.000000
_cell_volume 1372.153411
_symmetry_space_group_name_H-M "P 2/M"
_symmetry_group_IT_number 10
_symmetry_cell_setting 'monoclinic'
loop_
_space_group_symop_operation_xyz
x,y,z
-x,y,-z
-x,-y,-z
x,-y,z
loop_
_atom_site_type_symbol
_atom_site_label
_atom_site_fract_x
_atom_site_fract_y
_atom_site_fract_z
Si Si1 0.651012 0.932830 0.335829
Si Si2 0.561541 0.306725 0.761459
Si Si3 0.947250 0.432018 0.229321
Si Si4 0.284963 0.817475 0.235358
Si Si5 0.211418 0.308047 0.769948
Si Si6 0.571334 0.070995 0.202382
Si Si7 0.994358 0.189926 0.215359
Si Si8 0.723208 0.431280 0.763247
O O1 0.500000 0.936217 0.500000
O O2 0.427659 0.926745 0.365277
O O3 0.870017 0.870940 0.231370
O O4 0.837387 0.000000 0.232722
O O5 0.759044 0.245130 0.692625
O O6 0.481854 0.302230 0.707645
O O7 0.738370 0.371203 0.700122
O O8 0.176710 0.307311 0.995828
O O9 0.789540 0.500000 0.291746
O O10 0.028685 0.425107 0.282592
O O11 0.746499 0.373458 0.294648
O O12 0.328364 0.431767 0.996557
O O13 0.390929 0.876390 0.237505
O O14 0.993381 0.824340 0.310681
O O15 0.622362 0.802427 0.012889
O O16 0.212847 0.250959 0.708089
O O17 0.514374 0.000000 0.201921
O O18 0.000000 0.080473 0.000000
O O19 0.779193 0.500000 0.699242
#
# Coordination Sequence:
#
# PCOD9144383 Si02
#       8
#     4   4   4   4   4   4   4   4
#     4  10  21  37  55  74 100 132 162 196 243 297
#     4   9  16  23  35  57  83 117 154 197 244 284
#     4   8  13  21  32  47  73 112 153 194 238 284
#     4  10  19  29  48  72  98 124 159 206 246 288
#     4   9  16  24  37  56  84 116 155 199 239 288
#     4  10  19  33  53  75  98 125 160 199 239 287
#     4  10  19  31  47  71  97 126 161 202 246 290
#     4   8  13  21  31  45  73 114 157 193 232 286
#
# _framework density 23.321007999999999
#
# number of rings (size 3 to 8) (size 9 to 14) (size 15 to 20)
#    0.000    2.750    1.250    2.250    1.750    4.000 
#    0.000    4.375    0.000    2.250    0.000    0.000 
#    0.000    0.500    0.000    0.250    0.000   23.375 
#
# Total GULP energy -178590.510479 kJ/mol
# GULP energy per Si atom -5580.953452 kJ/mol
# Density = 2.326793 g / cm^3
# Si number density = 23.321008 Si / 1000 Ang^3
#
#
#
# Elastic Constant Matrix: (Units=GPa)
#
#
# Indices 1 2 3 4 5 6 
#
# 1 145.3463 135.0217 20.6468 0.0000 44.0892 0.0000
# 2 135.0217 249.8421 17.7814 0.0000 23.1769 0.0000
# 3 20.6468 17.7814 85.7235 0.0000 10.8658 0.0000
# 4 0.0000 0.0000 0.0000 -8.2669 0.0000 14.1747
# 5 44.0892 23.1769 10.8658 0.0000 26.6275 0.0000
# 6 0.0000 0.0000 0.0000 14.1747 0.0000 45.7400
#
#
#
# Elastic Compliance Matrix: (Units=1/GPa)
#
#
# Indices 1 2 3 4 5 6 
#
# 1 0.031579 -0.013301 0.000330 0.000000 -0.040846 0.000000
# 2 -0.013301 0.009972 -0.000587 0.000000 0.013582 0.000000
# 3 0.000330 -0.000587 0.012351 0.000000 -0.005076 0.000000
# 4 0.000000 0.000000 0.000000 -0.078992 0.000000 0.024479
# 5 -0.040846 0.013582 -0.005076 0.000000 0.095436 0.000000
# 6 0.000000 0.000000 0.000000 0.024479 0.000000 0.014277
#
#
# Mechanical properties :
#
#
# Convention : Reuss Voigt Hill
#
# Bulk Modulus (GPa) = 37.32933 91.97907 64.65420
# Shear Modulus (GPa) = 41.43633 33.31760 37.37696
#
# Velocity S-wave (km/s) = 4.21976 3.78385 4.00774
# Velocity P-wave (km/s) = 6.30740 7.65612 7.01425
#
# Compressibility (1/GPa) = 0.02678858
#
# Stress axis : x y z
#
# Youngs Moduli (GPa) = 31.66635 100.27695 80.96523
#
# Poissons Ratio (x) = 1.33376 -0.02675
# Poissons Ratio (y) = 0.42119 0.04750
# Poissons Ratio (z) = -0.01046 0.05883
#
# Static dielectric constant tensor:
#      x y z
#    x 1.849040 0.000000 -0.017940 
#    y 0.000000 1.834070 0.000000 
#    z -0.017940 0.000000 1.993830 
# 
# From -- ./inp_files/62490.got.cif
#   From: 2010.05.17/outbox.cif.g08.bks.cpg/sg10_32_cif.got.tgz:62490.got - 2010.06.03 11:33:40.
