data_PCOD9144195
_publ_section_title
;
Structure prediction by ZEFSAII (Michael W. Deem and Ramdas Pophale) SiO2 
 PCOD9144195
Probable space group: P 2/M
;
_chemical_formula_sum "Si O2"
_cell_formula_units_Z 26
_cell_length_a 8.392086
_cell_length_b 19.478070
_cell_length_c 10.122033
_cell_angle_alpha 90.000000
_cell_angle_beta 125.376272
_cell_angle_gamma 90.000000
_cell_volume 1349.078000
_symmetry_space_group_name_H-M "P 2/M"
_symmetry_group_IT_number 10
_symmetry_cell_setting 'monoclinic'
loop_
_space_group_symop_operation_xyz
x,y,z
-x,y,-z
-x,-y,-z
x,-y,z
loop_
_atom_site_type_symbol
_atom_site_label
_atom_site_fract_x
_atom_site_fract_y
_atom_site_fract_z
Si Si1 0.366514 0.578815 0.737217
Si Si2 0.004817 0.706960 0.204861
Si Si3 0.218515 0.579118 0.970974
Si Si4 0.675151 0.813081 0.685043
Si Si5 0.000000 0.333088 0.500000
Si Si6 0.992212 0.922220 0.156401
Si Si7 0.324949 0.816266 0.012486
O O1 0.363104 0.500000 0.688802
O O2 0.297467 0.578729 0.857270
O O3 0.199878 0.622402 0.584949
O O4 0.593487 0.601837 0.851257
O O5 0.959834 0.631948 0.124780
O O6 0.984936 0.706609 0.354609
O O7 0.208087 0.741469 0.265436
O O8 0.836191 0.756432 0.068242
O O9 0.171161 0.500000 0.980698
O O10 0.500000 0.812714 0.500000
O O11 0.830048 0.872487 0.719585
O O12 0.611467 0.825456 0.805516
O O13 0.006434 0.000000 0.212149
O O14 0.000000 0.923606 0.000000
O O15 0.789670 0.884167 0.091528
O O16 0.500000 0.798638 0.000000
#
# Coordination Sequence:
#
# PCOD9144195 Si02
#       7
#     4   4   4   4   2   4   4
#     4   8  14  25  41  69 110 140 174 230 286 340
#     4  10  21  33  53  79 113 149 189 236 283 341
#     4   8  15  28  47  71 102 144 189 231 281 341
#     4  10  22  39  58  84 116 152 188 232 285 329
#     4  10  19  26  46  82 109 144 186 232 278 330
#     4   8  16  36  61  87 118 152 185 219 271 336
#     4  10  22  37  60  84 112 153 189 230 275 334
#
# _framework density 19.27242
#
# number of rings (size 3 to 8) (size 9 to 14) (size 15 to 20)
#    0.000    2.923    0.000    2.538    6.462    1.231 
#    0.000    0.000    0.000    3.231    0.000    0.000 
#    0.000    0.000    0.000    0.000    0.000    0.000 
#
# Total GULP energy -144965.757211 kJ/mol
# GULP energy per Si atom -5575.606047 kJ/mol
# Density = 1.922856 g / cm^3
# Si number density = 19.272420 Si / 1000 Ang^3
#
#
#
# Elastic Constant Matrix: (Units=GPa)
#
#
# Indices 1 2 3 4 5 6 
#
# 1 42.4200 2.9713 33.8190 0.0000 0.0737 0.0000
# 2 2.9713 91.7981 46.4069 0.0000 14.3419 0.0000
# 3 33.8190 46.4069 135.0400 0.0000 12.8380 0.0000
# 4 0.0000 0.0000 0.0000 2.5150 0.0000 -2.5232
# 5 0.0737 14.3419 12.8380 0.0000 26.2652 0.0000
# 6 0.0000 0.0000 0.0000 -2.5232 0.0000 13.8050
#
#
#
# Elastic Compliance Matrix: (Units=1/GPa)
#
#
# Indices 1 2 3 4 5 6 
#
# 1 0.030493 0.003140 -0.008961 0.000000 0.002580 0.000000
# 2 0.003140 0.014229 -0.005177 0.000000 -0.005248 0.000000
# 3 -0.008961 -0.005177 0.011701 0.000000 -0.002867 0.000000
# 4 0.000000 0.000000 0.000000 0.486895 0.000000 0.088992
# 5 0.002580 -0.005248 -0.002867 0.000000 0.042333 0.000000
# 6 0.000000 0.000000 0.000000 0.088992 0.000000 0.088703
#
#
# Mechanical properties :
#
#
# Convention : Reuss Voigt Hill
#
# Bulk Modulus (GPa) = 29.04695 48.40583 38.72639
# Shear Modulus (GPa) = 7.06387 20.92109 13.99248
#
# Velocity S-wave (km/s) = 1.91657 3.29834 2.69743
# Velocity P-wave (km/s) = 4.47237 6.29893 5.46254
#
# Compressibility (1/GPa) = 0.03442703
#
# Stress axis : x y z
#
# Youngs Moduli (GPa) = 32.79391 70.27884 85.46158
#
# Poissons Ratio (x) = -0.22068 0.76582
# Poissons Ratio (y) = -0.10297 0.44246
# Poissons Ratio (z) = 0.29387 0.36386
#
# Static dielectric constant tensor:
#      x y z
#    x 1.671440 0.000000 0.011650 
#    y 0.000000 1.698430 0.000000 
#    z 0.011650 0.000000 1.664860 
# 
# From -- ./inp_files/43656.got.cif
#   From: 2010.05.17/outbox.cif.g08.bks.cpg/sg10_22_cif.got.tgz:43656.got - 2010.06.03 11:33:40.
