data_PCOD9144094
_publ_section_title
;
Structure prediction by ZEFSAII (Michael W. Deem and Ramdas Pophale) SiO2 
 PCOD9144094
Probable space group: P 2/M
;
_chemical_formula_sum "Si O2"
_cell_formula_units_Z 32
_cell_length_a 11.463807
_cell_length_b 21.177796
_cell_length_c 8.811383
_cell_angle_alpha 90.000000
_cell_angle_beta 122.387849
_cell_angle_gamma 90.000000
_cell_volume 1806.438977
_symmetry_space_group_name_H-M "P 2/M"
_symmetry_group_IT_number 10
_symmetry_cell_setting 'monoclinic'
loop_
_space_group_symop_operation_xyz
x,y,z
-x,y,-z
-x,-y,-z
x,-y,z
loop_
_atom_site_type_symbol
_atom_site_label
_atom_site_fract_x
_atom_site_fract_y
_atom_site_fract_z
Si Si1 0.622278 0.319199 0.961515
Si Si2 0.082498 0.570705 0.214703
Si Si3 0.073240 0.067136 0.215975
Si Si4 0.378551 0.424538 0.293810
Si Si5 0.926734 0.203216 0.786801
Si Si6 0.936792 0.319293 0.289814
Si Si7 0.376933 0.068107 0.293622
Si Si8 0.622830 0.790699 0.708632
O O1 0.607774 0.382025 0.846659
O O2 0.617583 0.261258 0.837425
O O3 0.500000 0.315352 0.000000
O O4 0.771560 0.319009 0.149479
O O5 0.092563 0.500000 0.286154
O O6 0.235614 0.593128 0.277909
O O7 0.999086 0.617518 0.261039
O O8 0.000000 0.567729 0.000000
O O9 0.046955 0.134871 0.272388
O O10 0.234723 0.067322 0.287986
O O11 0.036939 0.000000 0.266337
O O12 0.000000 0.066889 0.000000
O O13 0.500000 0.413861 0.500000
O O14 0.372887 0.500000 0.255047
O O15 0.765841 0.214150 0.713443
O O16 0.997573 0.259974 0.750611
O O17 0.000000 0.199755 0.000000
O O18 0.000000 0.315803 0.500000
O O19 0.500000 0.067637 0.500000
O O20 0.382066 0.137865 0.224149
O O21 0.382078 0.000000 0.211669
O O22 0.500000 0.783407 0.500000
#
# Coordination Sequence:
#
# PCOD9144094 Si02
#       8
#     4   4   4   4   4   4   4   4
#     4  12  26  40  55  81 118 151 183 228 276 326
#     4  10  20  40  67  87 108 141 184 231 272 321
#     4   8  14  24  45  78 105 127 169 230 284 322
#     4  10  22  41  66  91 113 143 182 224 273 328
#     4  10  18  35  58  78 107 145 187 233 275 324
#     4  12  26  39  56  82 114 151 188 228 275 324
#     4   8  14  26  46  77 109 133 170 226 278 321
#     4  10  20  34  58  84 108 146 188 228 276 330
#
# _framework density 17.714410999999998
#
# number of rings (size 3 to 8) (size 9 to 14) (size 15 to 20)
#    0.000    2.000    2.500    1.500    3.500    0.500 
#    0.000    0.000    0.000    0.750    0.000    0.000 
#    0.000    0.000    0.000    0.000    0.000    0.000 
#
# Total GULP energy -178203.405445 kJ/mol
# GULP energy per Si atom -5568.856420 kJ/mol
# Density = 1.767409 g / cm^3
# Si number density = 17.714411 Si / 1000 Ang^3
#
#
#
# Elastic Constant Matrix: (Units=GPa)
#
#
# Indices 1 2 3 4 5 6 
#
# 1 99.9790 53.3660 45.0158 0.0000 20.0627 0.0000
# 2 53.3660 118.7238 31.3733 0.0000 -13.3877 0.0000
# 3 45.0158 31.3733 88.2876 0.0000 18.4302 0.0000
# 4 0.0000 0.0000 0.0000 13.8143 0.0000 13.7370
# 5 20.0627 -13.3877 18.4302 0.0000 32.6657 0.0000
# 6 0.0000 0.0000 0.0000 13.7370 0.0000 11.4776
#
#
#
# Elastic Compliance Matrix: (Units=1/GPa)
#
#
# Indices 1 2 3 4 5 6 
#
# 1 0.019332 -0.009224 -0.003753 0.000000 -0.013536 0.000000
# 2 -0.009224 0.015064 -0.003538 0.000000 0.013835 0.000000
# 3 -0.003753 -0.003538 0.016231 0.000000 -0.008302 0.000000
# 4 0.000000 0.000000 0.000000 -0.380656 0.000000 0.455592
# 5 -0.013536 0.013835 -0.008302 0.000000 0.049281 0.000000
# 6 0.000000 0.000000 0.000000 0.455592 0.000000 -0.458152
#
#
# Mechanical properties :
#
#
# Convention : Reuss Voigt Hill
#
# Bulk Modulus (GPa) = 56.83231 62.94452 59.88841
# Shear Modulus (GPa) = -7.14282 23.40721 8.13220
#
# Velocity S-wave (km/s) = -2.01021 3.63900 2.14492
# Velocity P-wave (km/s) = 5.17342 7.29839 6.32577
#
# Compressibility (1/GPa) = 0.01759562
#
# Stress axis : x y z
#
# Youngs Moduli (GPa) = 51.72789 66.38239 61.61129
#
# Poissons Ratio (x) = 0.61232 0.23125
# Poissons Ratio (y) = 0.47715 0.21799
# Poissons Ratio (z) = 0.19415 0.23487
#
# Static dielectric constant tensor:
#      x y z
#    x 1.569980 0.000000 0.042560 
#    y 0.000000 1.706440 0.000000 
#    z 0.042560 0.000000 1.605260 
# 
# From -- ./inp_files/26109.got.cif
#   From: 2010.05.17/outbox.cif.g08.bks.cpg/sg10_14_cif.got.tgz:26109.got - 2010.06.03 11:33:40.
