data_PCOD9144120
_publ_section_title
;
Structure prediction by ZEFSAII (Michael W. Deem and Ramdas Pophale) SiO2 
 PCOD9144120
Probable space group: P 2/M
;
_chemical_formula_sum "Si O2"
_cell_formula_units_Z 32
_cell_length_a 9.895761
_cell_length_b 13.544932
_cell_length_c 25.218486
_cell_angle_alpha 90.000000
_cell_angle_beta 30.716093
_cell_angle_gamma 90.000000
_cell_volume 1726.563954
_symmetry_space_group_name_H-M "P 2/M"
_symmetry_group_IT_number 10
_symmetry_cell_setting 'monoclinic'
loop_
_space_group_symop_operation_xyz
x,y,z
-x,y,-z
-x,-y,-z
x,-y,z
loop_
_atom_site_type_symbol
_atom_site_label
_atom_site_fract_x
_atom_site_fract_y
_atom_site_fract_z
Si Si1 0.911257 0.612409 0.087864
Si Si2 0.418821 0.883404 0.466689
Si Si3 0.575724 0.805256 0.845393
Si Si4 0.091733 0.205898 0.086511
Si Si5 0.945719 0.246772 0.578679
Si Si6 0.448882 0.884898 0.773215
Si Si7 0.994896 0.884942 0.228104
Si Si8 0.316789 0.386905 0.253763
O O1 0.008132 0.500000 0.058946
O O2 0.020375 0.681503 0.096549
O O3 0.595005 0.612739 0.191804
O O4 0.000000 0.652193 0.000000
O O5 0.500000 0.859200 0.500000
O O6 0.683883 0.869551 0.342487
O O7 0.181372 0.818822 0.523744
O O8 0.347900 0.000000 0.489555
O O9 0.468937 0.856575 0.828316
O O10 0.844059 0.857175 0.773614
O O11 0.637467 0.691237 0.809263
O O12 0.356694 0.816678 0.964689
O O13 0.840882 0.144051 0.149483
O O14 0.106019 0.181318 0.143237
O O15 0.678787 0.180514 0.669181
O O16 0.894064 0.338307 0.635480
O O17 0.000000 0.276269 0.500000
O O18 0.497545 0.000000 0.748107
O O19 0.037351 0.000000 0.201168
O O20 0.261662 0.500000 0.256673
#
# Coordination Sequence:
#
# PCOD9144120 Si02
#       8
#     4   4   4   4   4   4   4   4
#     4  10  18  35  62  88 114 148 194 240 289 344
#     4  10  21  39  61  80 107 155 205 240 280 337
#     4  11  22  38  59  84 115 157 199 234 277 350
#     4  12  21  36  56  88 121 153 189 232 297 342
#     4  11  22  36  58  86 115 145 185 246 299 346
#     4  11  22  35  55  84 117 151 197 243 282 340
#     4  11  25  40  57  84 123 162 195 234 285 344
#     4  10  21  38  62  88 114 148 191 243 295 347
#
# _framework density 18.533920999999999
#
# number of rings (size 3 to 8) (size 9 to 14) (size 15 to 20)
#    0.000    1.250    3.750    4.125    0.000    6.250 
#    0.000    0.625    0.000    4.875    0.000    0.000 
#    0.000    0.000    0.000    0.000    0.000    0.000 
#
# Total GULP energy -178763.790684 kJ/mol
# GULP energy per Si atom -5586.368459 kJ/mol
# Density = 1.849174 g / cm^3
# Si number density = 18.533921 Si / 1000 Ang^3
#
#
#
# Elastic Constant Matrix: (Units=GPa)
#
#
# Indices 1 2 3 4 5 6 
#
# 1 49.6492 -5.0420 10.5364 0.0000 -3.6261 0.0000
# 2 -5.0420 65.0100 13.2045 0.0000 -2.2553 0.0000
# 3 10.5364 13.2045 75.6671 0.0000 2.0571 0.0000
# 4 0.0000 0.0000 0.0000 14.7905 0.0000 -4.3274
# 5 -3.6261 -2.2553 2.0571 0.0000 33.0404 0.0000
# 6 0.0000 0.0000 0.0000 -4.3274 0.0000 19.2013
#
#
#
# Elastic Compliance Matrix: (Units=1/GPa)
#
#
# Indices 1 2 3 4 5 6 
#
# 1 0.021326 0.002454 -0.003472 0.000000 0.002724 0.000000
# 2 0.002454 0.016283 -0.003226 0.000000 0.001582 0.000000
# 3 -0.003472 -0.003226 0.014303 0.000000 -0.001492 0.000000
# 4 0.000000 0.000000 0.000000 0.072384 0.000000 0.016313
# 5 0.002724 0.001582 -0.001492 0.000000 0.030766 0.000000
# 6 0.000000 0.000000 0.000000 0.016313 0.000000 0.055756
#
#
# Mechanical properties :
#
#
# Convention : Reuss Voigt Hill
#
# Bulk Modulus (GPa) = 23.02922 25.30269 24.16596
# Shear Modulus (GPa) = 21.38757 24.84826 23.11791
#
# Velocity S-wave (km/s) = 3.40070 3.66552 3.53559
# Velocity P-wave (km/s) = 5.27940 5.62107 5.45291
#
# Compressibility (1/GPa) = 0.04342310
#
# Stress axis : x y z
#
# Youngs Moduli (GPa) = 46.89059 61.41493 69.91652
#
# Poissons Ratio (x) = -0.15069 0.24274
# Poissons Ratio (y) = -0.11505 0.22556
# Poissons Ratio (z) = 0.16280 0.19813
#
# Static dielectric constant tensor:
#      x y z
#    x 1.618990 0.000000 0.009960 
#    y 0.000000 1.639400 0.000000 
#    z 0.009960 0.000000 1.654990 
# 
# From -- ./inp_files/51639.got.cif
#   From: 2010.05.17/outbox.cif.g08.bks.cpg/sg10_26_cif.got.tgz:51639.got - 2010.06.03 11:33:40.
