data_PCOD9144485
_publ_section_title
;
Structure prediction by ZEFSAII (Michael W. Deem and Ramdas Pophale) SiO2 
 PCOD9144485
Probable space group: P 2/M
;
_chemical_formula_sum "Si O2"
_cell_formula_units_Z 20
_cell_length_a 9.431774
_cell_length_b 15.660245
_cell_length_c 6.925088
_cell_angle_alpha 90.000000
_cell_angle_beta 52.724229
_cell_angle_gamma 90.000000
_cell_volume 813.921995
_symmetry_space_group_name_H-M "P 2/M"
_symmetry_group_IT_number 10
_symmetry_cell_setting 'monoclinic'
loop_
_space_group_symop_operation_xyz
x,y,z
-x,y,-z
-x,-y,-z
x,-y,z
loop_
_atom_site_type_symbol
_atom_site_label
_atom_site_fract_x
_atom_site_fract_y
_atom_site_fract_z
Si Si1 0.213141 0.404054 0.762241
Si Si2 0.670532 0.293127 0.985892
Si Si3 0.364531 0.094180 0.886882
Si Si4 0.229148 0.909026 0.556177
Si Si5 0.952759 0.263321 0.273118
O O1 0.271643 0.500000 0.671442
O O2 0.329292 0.356325 0.829087
O O3 0.202617 0.333723 0.602992
O O4 0.000000 0.411365 0.000000
O O5 0.673450 0.189973 0.013116
O O6 0.500000 0.312969 0.000000
O O7 0.877567 0.301902 0.759189
O O8 0.579584 0.092846 0.704336
O O9 0.284103 0.094556 0.736501
O O10 0.309200 0.000000 0.012252
O O11 0.113564 0.827639 0.602112
O O12 0.139195 0.000000 0.595786
O O13 0.000000 0.248749 0.000000
#
# Coordination Sequence:
#
# PCOD9144485 Si02
#       5
#     4   4   4   4   4
#     4   8  15  29  47  67  90 114 146 187 227 265
#     4  10  19  30  45  68  95 120 148 184 224 265
#     4   9  17  29  45  67  94 121 148 184 228 263
#     4   9  16  28  48  68  88 119 155 188 220 260
#     4   9  16  29  46  69  89 115 152 189 219 257
#
# _framework density 24.572379000000002
#
# number of rings (size 3 to 8) (size 9 to 14) (size 15 to 20)
#    0.000    3.400    4.000    1.200    0.000    2.000 
#    0.000    1.000    0.000    4.800    0.000    0.000 
#    0.000   16.000    0.000    0.000    0.000    0.000 
#
# Total GULP energy -111474.159796 kJ/mol
# GULP energy per Si atom -5573.707990 kJ/mol
# Density = 2.451645 g / cm^3
# Si number density = 24.572379 Si / 1000 Ang^3
#
#
#
# Elastic Constant Matrix: (Units=GPa)
#
#
# Indices 1 2 3 4 5 6 
#
# 1 179.3334 74.3140 34.2175 0.0000 -26.0724 0.0000
# 2 74.3140 220.9912 13.9430 0.0000 -7.2524 0.0000
# 3 34.2175 13.9430 41.2600 0.0000 -8.5742 0.0000
# 4 0.0000 0.0000 0.0000 -81.1193 0.0000 -23.4312
# 5 -26.0724 -7.2524 -8.5742 0.0000 31.3620 0.0000
# 6 0.0000 0.0000 0.0000 -23.4312 0.0000 17.5742
#
#
#
# Elastic Compliance Matrix: (Units=1/GPa)
#
#
# Indices 1 2 3 4 5 6 
#
# 1 0.008188 -0.002277 -0.005000 0.000000 0.004914 0.000000
# 2 -0.002277 0.005270 -0.000035 0.000000 -0.000684 0.000000
# 3 -0.005000 -0.000035 0.029188 0.000000 0.003815 0.000000
# 4 0.000000 0.000000 0.000000 -0.008900 0.000000 -0.011866
# 5 0.004914 -0.000684 0.003815 0.000000 0.036855 0.000000
# 6 0.000000 0.000000 0.000000 -0.011866 0.000000 0.041081
#
#
# Mechanical properties :
#
#
# Convention : Reuss Voigt Hill
#
# Bulk Modulus (GPa) = 35.68516 76.28151 55.98334
# Shear Modulus (GPa) = 36.86043 14.83739 25.84891
#
# Velocity S-wave (km/s) = 3.87728 2.45995 3.24690
# Velocity P-wave (km/s) = 5.88204 6.25935 6.07363
#
# Compressibility (1/GPa) = 0.02802285
#
# Stress axis : x y z
#
# Youngs Moduli (GPa) = 122.12938 189.73721 34.26095
#
# Poissons Ratio (x) = 0.43198 0.17131
# Poissons Ratio (y) = 0.27805 0.00120
# Poissons Ratio (z) = 0.61065 0.00663
#
# Static dielectric constant tensor:
#      x y z
#    x 2.025110 0.000000 0.095560 
#    y 0.000000 1.946090 0.000000 
#    z 0.095560 0.000000 2.114430 
# 
# From -- ./inp_files/24352.got.cif
#   From: 2010.05.17/outbox.cif.g08.bks.cpg/sg10_13_cif.got.tgz:24352.got - 2010.06.03 11:33:40.
