data_PCOD9144872
_publ_section_title
;
Structure prediction by ZEFSAII (Michael W. Deem and Ramdas Pophale) SiO2 
 PCOD9144872
Probable space group: P 2/M
;
_chemical_formula_sum "Si O2"
_cell_formula_units_Z 24
_cell_length_a 24.826115
_cell_length_b 7.731900
_cell_length_c 11.511419
_cell_angle_alpha 90.000000
_cell_angle_beta 144.854584
_cell_angle_gamma 90.000000
_cell_volume 1271.994012
_symmetry_space_group_name_H-M "P 2/M"
_symmetry_group_IT_number 10
_symmetry_cell_setting 'monoclinic'
loop_
_space_group_symop_operation_xyz
x,y,z
-x,y,-z
-x,-y,-z
x,-y,z
loop_
_atom_site_type_symbol
_atom_site_label
_atom_site_fract_x
_atom_site_fract_y
_atom_site_fract_z
Si Si1 0.947481 0.710925 0.232979
Si Si2 0.328087 0.300205 0.894452
Si Si3 0.142256 0.288199 0.684533
Si Si4 0.092709 0.290807 0.096022
Si Si5 0.522828 0.708768 0.172788
Si Si6 0.715529 0.198780 0.440071
O O1 0.947218 0.500000 0.231947
O O2 0.884662 0.763942 0.232154
O O3 0.054502 0.763516 0.448897
O O4 0.912399 0.770198 0.046130
O O5 0.335456 0.500000 0.944694
O O6 0.241440 0.223178 0.812423
O O7 0.300382 0.299561 0.708759
O O8 0.433511 0.226218 0.088082
O O9 0.143963 0.500000 0.684683
O O10 0.090613 0.500000 0.090761
O O11 0.186461 0.238827 0.327468
O O12 0.000000 0.231389 0.000000
O O13 0.521720 0.500000 0.175316
O O14 0.629415 0.765619 0.376323
O O15 0.500000 0.761928 0.000000
O O16 0.712108 0.000000 0.399762
#
# Coordination Sequence:
#
# PCOD9144872 Si02
#       6
#     4   4   4   4   4   4
#     4   8  14  24  42  69  95 116 141 179 223 265
#     4   9  16  28  48  70  91 116 148 186 226 268
#     4   8  13  24  44  70  94 112 139 182 227 265
#     4  10  19  31  48  68  91 121 153 181 216 265
#     4   8  15  28  45  65  88 115 148 186 226 266
#     4  11  21  30  43  65  94 123 149 183 224 265
#
# _framework density 18.868013999999999
#
# number of rings (size 3 to 8) (size 9 to 14) (size 15 to 20)
#    0.000    3.000    0.000    4.500    0.000    6.000 
#    0.000    0.000    0.000    2.000    0.000   10.500 
#    0.000    0.000    0.000    0.000    0.000    0.000 
#
# Total GULP energy -133704.494018 kJ/mol
# GULP energy per Si atom -5571.020584 kJ/mol
# Density = 1.882507 g / cm^3
# Si number density = 18.868014 Si / 1000 Ang^3
#
#
#
# Elastic Constant Matrix: (Units=GPa)
#
#
# Indices 1 2 3 4 5 6 
#
# 1 109.3139 1.5887 54.6481 0.0000 43.2050 0.0000
# 2 1.5887 29.6930 -2.4864 0.0000 4.6303 0.0000
# 3 54.6481 -2.4864 96.8289 0.0000 33.2034 0.0000
# 4 0.0000 0.0000 0.0000 -49.2477 0.0000 -28.9620
# 5 43.2050 4.6303 33.2034 0.0000 41.0063 0.0000
# 6 0.0000 0.0000 0.0000 -28.9620 0.0000 -25.5241
#
#
#
# Elastic Compliance Matrix: (Units=1/GPa)
#
#
# Indices 1 2 3 4 5 6 
#
# 1 0.017188 0.000923 -0.004750 0.000000 -0.014367 0.000000
# 2 0.000923 0.034997 0.002861 0.000000 -0.007241 0.000000
# 3 -0.004750 0.002861 0.015888 0.000000 -0.008183 0.000000
# 4 0.000000 0.000000 0.000000 -0.061032 0.000000 0.069252
# 5 -0.014367 -0.007241 -0.008183 0.000000 0.046968 0.000000
# 6 0.000000 0.000000 0.000000 0.069252 0.000000 -0.117759
#
#
# Mechanical properties :
#
#
# Convention : Reuss Voigt Hill
#
# Bulk Modulus (GPa) = 15.11947 38.14851 26.63399
# Shear Modulus (GPa) = -125.71899 5.38594 -60.16653
#
# Velocity S-wave (km/s) = -8.17162 1.69137 -5.65308
# Velocity P-wave (km/s) = 9.00018 4.90681 5.33509
#
# Compressibility (1/GPa) = 0.06613990
#
# Stress axis : x y z
#
# Youngs Moduli (GPa) = 58.18119 28.57375 62.94186
#
# Poissons Ratio (x) = -0.02638 0.29897
# Poissons Ratio (y) = -0.05371 -0.18005
# Poissons Ratio (z) = 0.27636 -0.08174
#
# Static dielectric constant tensor:
#      x y z
#    x 1.680440 0.000000 0.040030 
#    y 0.000000 1.696250 0.000000 
#    z 0.040030 0.000000 1.637440 
# 
# From -- ./inp_files/52862.got.cif
#   From: 2010.05.17/outbox.cif.g08.bks.cpg/sg10_27_cif.got.tgz:52862.got - 2010.06.03 11:33:40.
