data_PCOD9144078
_publ_section_title
;
Structure prediction by ZEFSAII (Michael W. Deem and Ramdas Pophale) SiO2 
 PCOD9144078
Probable space group: P 2/M
;
_chemical_formula_sum "Si O2"
_cell_formula_units_Z 28
_cell_length_a 14.501388
_cell_length_b 15.780292
_cell_length_c 9.427763
_cell_angle_alpha 90.000000
_cell_angle_beta 44.675005
_cell_angle_gamma 90.000000
_cell_volume 1516.843661
_symmetry_space_group_name_H-M "P 2/M"
_symmetry_group_IT_number 10
_symmetry_cell_setting 'monoclinic'
loop_
_space_group_symop_operation_xyz
x,y,z
-x,y,-z
-x,-y,-z
x,-y,z
loop_
_atom_site_type_symbol
_atom_site_label
_atom_site_fract_x
_atom_site_fract_y
_atom_site_fract_z
Si Si1 0.460103 0.819338 0.385707
Si Si2 0.630075 0.777679 0.941753
Si Si3 0.954385 0.500000 0.711079
Si Si4 0.859872 0.500000 0.242796
Si Si5 0.041777 0.202383 0.800929
Si Si6 0.751885 0.901209 0.576073
Si Si7 0.815331 0.321326 0.925955
Si Si8 0.271860 0.323155 0.666136
O O1 0.500000 0.844409 0.500000
O O2 0.347377 0.879008 0.444349
O O3 0.398347 0.724067 0.464742
O O4 0.576573 0.819599 0.144949
O O5 0.699516 0.845473 0.764296
O O6 0.732821 0.707340 0.879896
O O7 0.500000 0.746624 0.000000
O O8 0.874654 0.414811 0.838676
O O9 0.000000 0.500000 0.500000
O O10 0.086249 0.500000 0.658322
O O11 0.769379 0.419001 0.316389
O O12 0.000000 0.500000 0.000000
O O13 0.108187 0.133564 0.628023
O O14 0.151372 0.270408 0.730118
O O15 0.930312 0.254491 0.839651
O O16 0.000000 0.165423 0.000000
O O17 0.751586 0.000000 0.607994
O O18 0.727087 0.316704 0.164521
#
# Coordination Sequence:
#
# PCOD9144078 Si02
#       8
#     4   4   2   2   4   4   4   4
#     4  10  20  38  62  90 113 159 211 250 296 358
#     4  10  23  39  62  83 121 166 202 243 301 371
#     4  12  26  32  56  94 128 157 206 246 289 350
#     4  12  18  36  58  93 126 161 199 257 298 355
#     4   9  19  35  63  92 119 155 194 248 311 364
#     4  10  23  41  62  89 121 156 197 254 316 371
#     4  11  20  38  59  89 121 161 203 249 295 357
#     4  10  18  34  64  89 120 153 206 252 298 345
#
# _framework density 18.459384
#
# number of rings (size 3 to 8) (size 9 to 14) (size 15 to 20)
#    0.000    1.714    4.286    0.429    2.000    4.286 
#    0.000    2.857    0.000    0.000    0.000    0.000 
#    0.000    0.000    0.000    0.000    0.000    0.000 
#
# Total GULP energy -156132.605388 kJ/mol
# GULP energy per Si atom -5576.164478 kJ/mol
# Density = 1.841737 g / cm^3
# Si number density = 18.459384 Si / 1000 Ang^3
#
#
#
# Elastic Constant Matrix: (Units=GPa)
#
#
# Indices 1 2 3 4 5 6 
#
# 1 103.0892 48.0256 36.9234 0.0000 18.7756 0.0000
# 2 48.0256 109.3071 36.0864 0.0000 -0.9777 0.0000
# 3 36.9234 36.0864 104.2510 0.0000 7.8887 0.0000
# 4 0.0000 0.0000 0.0000 6.5989 0.0000 4.1356
# 5 18.7756 -0.9777 7.8887 0.0000 28.2793 0.0000
# 6 0.0000 0.0000 0.0000 4.1356 0.0000 15.8614
#
#
#
# Elastic Compliance Matrix: (Units=1/GPa)
#
#
# Indices 1 2 3 4 5 6 
#
# 1 0.015089 -0.005857 -0.002598 0.000000 -0.009496 0.000000
# 2 -0.005857 0.012655 -0.002691 0.000000 0.005076 0.000000
# 3 -0.002598 -0.002691 0.011564 0.000000 -0.001594 0.000000
# 4 0.000000 0.000000 0.000000 0.181138 0.000000 -0.047228
# 5 -0.009496 0.005076 -0.001594 0.000000 0.042286 0.000000
# 6 0.000000 0.000000 0.000000 -0.047228 0.000000 0.075360
#
#
# Mechanical properties :
#
#
# Convention : Reuss Voigt Hill
#
# Bulk Modulus (GPa) = 58.76227 62.07980 60.42103
# Shear Modulus (GPa) = 13.65911 23.18873 18.42392
#
# Velocity S-wave (km/s) = 2.72316 3.54814 3.16267
# Velocity P-wave (km/s) = 6.46451 7.10558 6.79261
#
# Compressibility (1/GPa) = 0.01701772
#
# Stress axis : x y z
#
# Youngs Moduli (GPa) = 66.27441 79.01793 86.47209
#
# Poissons Ratio (x) = 0.46278 0.22468
# Poissons Ratio (y) = 0.38814 0.23265
# Poissons Ratio (z) = 0.17220 0.21260
#
# Static dielectric constant tensor:
#      x y z
#    x 1.660590 0.000000 -0.004040 
#    y 0.000000 1.616120 0.000000 
#    z -0.004040 0.000000 1.666800 
# 
# From -- ./inp_files/29452.got.cif
#   From: 2010.05.17/outbox.cif.g08.bks.cpg/sg10_15_cif.got.tgz:29452.got - 2010.06.03 11:33:40.
