data_PCOD9144537
_publ_section_title
;
Structure prediction by ZEFSAII (Michael W. Deem and Ramdas Pophale) SiO2 
 PCOD9144537
Probable space group: P 2/M
;
_chemical_formula_sum "Si O2"
_cell_formula_units_Z 32
_cell_length_a 27.398747
_cell_length_b 8.603196
_cell_length_c 15.061601
_cell_angle_alpha 90.000000
_cell_angle_beta 34.388979
_cell_angle_gamma 90.000000
_cell_volume 2005.223163
_symmetry_space_group_name_H-M "P 2/M"
_symmetry_group_IT_number 10
_symmetry_cell_setting 'monoclinic'
loop_
_space_group_symop_operation_xyz
x,y,z
-x,y,-z
-x,-y,-z
x,-y,z
loop_
_atom_site_type_symbol
_atom_site_label
_atom_site_fract_x
_atom_site_fract_y
_atom_site_fract_z
Si Si1 0.084146 0.187269 0.817136
Si Si2 0.053800 0.817176 0.665618
Si Si3 0.760368 0.317059 0.931220
Si Si4 0.769958 0.683999 0.279409
Si Si5 0.870127 0.320196 0.944487
Si Si6 0.911128 0.188429 0.583050
Si Si7 0.592078 0.815105 0.261201
Si Si8 0.404208 0.312809 0.545530
O O1 0.082309 0.247656 0.718535
O O2 0.171948 0.232935 0.734685
O O3 0.077452 0.000000 0.824180
O O4 0.000000 0.243119 0.000000
O O5 0.088111 0.754637 0.520185
O O6 0.951014 0.792624 0.816774
O O7 0.074352 0.000000 0.635459
O O8 0.748376 0.500000 0.933210
O O9 0.807673 0.298132 0.955156
O O10 0.826823 0.247220 0.760627
O O11 0.667937 0.236147 0.081270
O O12 0.768062 0.500000 0.302115
O O13 0.672219 0.737018 0.406158
O O14 0.819457 0.704252 0.111619
O O15 0.900894 0.500000 0.896556
O O16 0.000000 0.238029 0.500000
O O17 0.911593 0.000000 0.582783
O O18 0.611797 0.751061 0.330903
O O19 0.498879 0.744981 0.376318
O O20 0.586117 0.000000 0.274819
O O21 0.402766 0.500000 0.553264
#
# Coordination Sequence:
#
# PCOD9144537 Si02
#       8
#     4   4   4   4   4   4   4   4
#     4  10  20  32  48  71  98 131 169 206 245 292
#     4  10  20  34  48  68 100 133 166 208 254 289
#     4  11  21  34  50  71 100 135 170 205 248 296
#     4  10  20  33  49  71  98 133 169 203 244 290
#     4  10  19  30  46  69  97 130 169 205 243 287
#     4  10  20  33  50  72  98 131 169 209 250 293
#     4  11  21  32  49  75 102 131 167 203 246 298
#     4  10  19  34  51  71 102 134 165 203 250 296
#
# _framework density 15.958323
#
# number of rings (size 3 to 8) (size 9 to 14) (size 15 to 20)
#    0.000    1.750    3.750    2.625    0.000    3.000 
#    0.000    0.000    0.000    0.000    0.000    0.875 
#    0.000    7.000    0.000    0.000    0.000    0.000 
#
# Total GULP energy -178487.870105 kJ/mol
# GULP energy per Si atom -5577.745941 kJ/mol
# Density = 1.592200 g / cm^3
# Si number density = 15.958323 Si / 1000 Ang^3
#
#
#
# Elastic Constant Matrix: (Units=GPa)
#
#
# Indices 1 2 3 4 5 6 
#
# 1 84.4357 23.8622 55.9095 0.0000 5.4402 0.0000
# 2 23.8622 25.4482 20.0942 0.0000 0.3436 0.0000
# 3 55.9095 20.0942 98.0630 0.0000 -4.4754 0.0000
# 4 0.0000 0.0000 0.0000 24.2823 0.0000 -7.8659
# 5 5.4402 0.3436 -4.4754 0.0000 26.9190 0.0000
# 6 0.0000 0.0000 0.0000 -7.8659 0.0000 22.7019
#
#
#
# Elastic Compliance Matrix: (Units=1/GPa)
#
#
# Indices 1 2 3 4 5 6 
#
# 1 0.023059 -0.013040 -0.010762 0.000000 -0.006283 0.000000
# 2 -0.013040 0.054386 -0.003649 0.000000 0.001334 0.000000
# 3 -0.010762 -0.003649 0.017314 0.000000 0.005100 0.000000
# 4 0.000000 0.000000 0.000000 0.046389 0.000000 0.016073
# 5 -0.006283 0.001334 0.005100 0.000000 0.039249 0.000000
# 6 0.000000 0.000000 0.000000 0.016073 0.000000 0.049618
#
#
# Mechanical properties :
#
#
# Convention : Reuss Voigt Hill
#
# Bulk Modulus (GPa) = 25.08911 45.29763 35.19337
# Shear Modulus (GPa) = 16.76722 21.98605 19.37663
#
# Velocity S-wave (km/s) = 3.24495 3.71579 3.48832
# Velocity P-wave (km/s) = 5.45851 6.84515 6.19077
#
# Compressibility (1/GPa) = 0.03985793
#
# Stress axis : x y z
#
# Youngs Moduli (GPa) = 43.36678 18.38721 57.75797
#
# Poissons Ratio (x) = 0.23976 0.62157
# Poissons Ratio (y) = 0.56549 0.21076
# Poissons Ratio (z) = 0.46670 0.06709
#
# Static dielectric constant tensor:
#      x y z
#    x 1.537900 0.000000 0.006540 
#    y 0.000000 1.545760 0.000000 
#    z 0.006540 0.000000 1.528020 
# 
# From -- ./inp_files/66473.got.cif
#   From: 2010.05.17/outbox.cif.g08.bks.cpg/sg10_34_cif.got.tgz:66473.got - 2010.06.03 11:33:40.
