data_PCOD9144005
_publ_section_title
;
Structure prediction by ZEFSAII (Michael W. Deem and Ramdas Pophale) SiO2 
 PCOD9144005
Probable space group: P 2/M
;
_chemical_formula_sum "Si O2"
_cell_formula_units_Z 32
_cell_length_a 8.217786
_cell_length_b 15.350297
_cell_length_c 14.065134
_cell_angle_alpha 90.000000
_cell_angle_beta 60.190815
_cell_angle_gamma 90.000000
_cell_volume 1539.493860
_symmetry_space_group_name_H-M "P 2/M"
_symmetry_group_IT_number 10
_symmetry_cell_setting 'monoclinic'
loop_
_space_group_symop_operation_xyz
x,y,z
-x,y,-z
-x,-y,-z
x,-y,z
loop_
_atom_site_type_symbol
_atom_site_label
_atom_site_fract_x
_atom_site_fract_y
_atom_site_fract_z
Si Si1 0.046333 0.402082 0.135928
Si Si2 0.646096 0.721738 0.040271
Si Si3 0.053458 0.675075 0.327895
Si Si4 0.302953 0.904055 0.501160
Si Si5 0.945471 0.156564 0.260119
Si Si6 0.170804 0.094637 0.024285
Si Si7 0.328216 0.701899 0.751050
Si Si8 0.285898 0.290257 0.444604
O O1 0.073749 0.500000 0.094338
O O2 0.097315 0.393288 0.233047
O O3 0.830782 0.371628 0.198314
O O4 0.168254 0.334356 0.039069
O O5 0.693814 0.823718 0.021107
O O6 0.500000 0.698725 0.000000
O O7 0.589859 0.706964 0.165998
O O8 0.071748 0.767796 0.269793
O O9 0.838344 0.677001 0.430186
O O10 0.182348 0.672752 0.382150
O O11 0.500000 0.897118 0.500000
O O12 0.148783 0.896495 0.628387
O O13 0.277397 0.816015 0.447720
O O14 0.294379 0.000000 0.457116
O O15 0.785056 0.210330 0.247563
O O16 0.069117 0.100049 0.154920
O O17 0.258083 0.000000 0.982437
O O18 0.000000 0.106339 0.000000
O O19 0.496273 0.687051 0.628361
#
# Coordination Sequence:
#
# PCOD9144005 Si02
#       8
#     4   4   4   4   4   4   4   4
#     4  11  24  44  69  93 118 154 203 259 316 377
#     4  12  24  41  64  91 128 164 201 253 311 373
#     4   9  20  38  64  87 123 159 198 244 312 375
#     4  10  19  31  52  87 124 161 213 259 292 347
#     4  10  18  34  56  81 117 161 204 255 302 347
#     4  11  21  37  59  85 121 167 212 253 300 354
#     4  11  21  37  64  88 122 160 205 254 302 370
#     4  10  20  38  60  90 122 171 198 247 313 363
#
# _framework density 20.786052000000002
#
# number of rings (size 3 to 8) (size 9 to 14) (size 15 to 20)
#    0.000    1.500    5.000    1.500    0.000    1.500 
#    0.000   10.625    0.000    0.000    0.000    0.000 
#    0.000    0.000    0.000    0.000    0.000    0.000 
#
# Total GULP energy -178626.050660 kJ/mol
# GULP energy per Si atom -5582.064083 kJ/mol
# Density = 2.073874 g / cm^3
# Si number density = 20.786052 Si / 1000 Ang^3
#
#
#
# Elastic Constant Matrix: (Units=GPa)
#
#
# Indices 1 2 3 4 5 6 
#
# 1 39.9742 3.1740 -2.9352 0.0000 7.8380 0.0000
# 2 3.1740 69.4665 7.2143 0.0000 -7.7393 0.0000
# 3 -2.9352 7.2143 62.6391 0.0000 -0.0634 0.0000
# 4 0.0000 0.0000 0.0000 -9.7833 0.0000 -0.9823
# 5 7.8380 -7.7393 -0.0634 0.0000 32.8988 0.0000
# 6 0.0000 0.0000 0.0000 -0.9823 0.0000 4.3839
#
#
#
# Elastic Compliance Matrix: (Units=1/GPa)
#
#
# Indices 1 2 3 4 5 6 
#
# 1 0.026637 -0.002134 0.001487 0.000000 -0.006845 0.000000
# 2 -0.002134 0.015137 -0.001839 0.000000 0.004066 0.000000
# 3 0.001487 -0.001839 0.016245 0.000000 -0.000756 0.000000
# 4 0.000000 0.000000 0.000000 -0.099965 0.000000 -0.022399
# 5 -0.006845 0.004066 -0.000756 0.000000 0.032982 0.000000
# 6 0.000000 0.000000 0.000000 -0.022399 0.000000 0.223087
#
#
# Mechanical properties :
#
#
# Convention : Reuss Voigt Hill
#
# Bulk Modulus (GPa) = 18.85142 20.77623 19.81382
# Shear Modulus (GPa) = 21.11685 16.47499 18.79592
#
# Velocity S-wave (km/s) = 3.19080 2.81837 3.01035
# Velocity P-wave (km/s) = 4.76066 4.53959 4.65144
#
# Compressibility (1/GPa) = 0.05304639
#
# Stress axis : x y z
#
# Youngs Moduli (GPa) = 37.54182 66.06361 61.55659
#
# Poissons Ratio (x) = 0.14099 -0.09154
# Poissons Ratio (y) = 0.08012 0.11322
# Poissons Ratio (z) = -0.05583 0.12151
#
# Static dielectric constant tensor:
#      x y z
#    x 1.786620 0.000000 0.015990 
#    y 0.000000 1.746390 0.000000 
#    z 0.015990 0.000000 1.744840 
# 
# From -- ./inp_files/61834.got.cif
#   From: 2010.05.17/outbox.cif.g08.bks.cpg/sg10_31_cif.got.tgz:61834.got - 2010.06.03 11:33:40.
