data_PCOD9144986
_publ_section_title
;
Structure prediction by ZEFSAII (Michael W. Deem and Ramdas Pophale) SiO2 
 PCOD9144986
Probable space group: P 2/M
;
_chemical_formula_sum "Si O2"
_cell_formula_units_Z 32
_cell_length_a 7.965728
_cell_length_b 19.077708
_cell_length_c 23.718300
_cell_angle_alpha 90.000000
_cell_angle_beta 32.900154
_cell_angle_gamma 90.000000
_cell_volume 1957.836251
_symmetry_space_group_name_H-M "P 2/M"
_symmetry_group_IT_number 10
_symmetry_cell_setting 'monoclinic'
loop_
_space_group_symop_operation_xyz
x,y,z
-x,y,-z
-x,-y,-z
x,-y,z
loop_
_atom_site_type_symbol
_atom_site_label
_atom_site_fract_x
_atom_site_fract_y
_atom_site_fract_z
Si Si1 0.379011 0.822824 0.124016
Si Si2 0.748606 0.579738 0.380954
Si Si3 0.680837 0.325285 0.806785
Si Si4 0.000909 0.822824 0.124016
Si Si5 0.684851 0.080095 0.126059
Si Si6 0.346624 0.420262 0.380954
Si Si7 0.285237 0.674715 0.806785
Si Si8 0.795066 0.580005 0.000000
O O1 0.258558 0.749002 0.181489
O O2 0.151894 0.849783 0.139242
O O3 0.442770 0.876993 0.156300
O O4 0.710974 0.809172 1.000000
O O5 0.500000 0.593569 0.500000
O O6 0.869061 0.500000 0.355818
O O7 0.569379 0.581383 0.372249
O O8 0.022095 0.635362 0.301342
O O9 0.440948 0.312202 0.823621
O O10 0.512446 0.377495 0.897999
O O11 0.775730 0.876993 0.156300
O O12 0.833997 0.749002 0.181489
O O13 0.592003 0.000000 0.163199
O O14 0.000000 0.077891 0.000000
O O15 0.351846 0.500000 0.355819
O O16 0.471193 0.364638 0.301342
O O17 0.000000 0.406431 0.500000
O O18 0.997558 0.622505 0.897999
O O19 0.735551 0.500000 0.000000
O O20 0.000000 0.578032 0.000000
#
# Coordination Sequence:
#
# PCOD9144986 Si02
#       8
#     4   4   4   4   4   4   4   4
#     4  10  19  31  49  73 103 138 173 209 256 305
#     4  10  21  36  51  69  95 131 176 225 272 314
#     4  11  19  31  51  71 100 137 172 214 263 309
#     4  10  19  31  49  73 103 138 173 209 256 305
#     4   9  18  32  50  72 102 138 172 206 250 309
#     4  10  21  36  51  69  95 131 176 225 272 314
#     4  11  19  31  51  71 100 137 172 214 263 309
#     4   9  18  28  43  69  97 131 175 212 251 308
#
# _framework density 16.344573
#
# number of rings (size 3 to 8) (size 9 to 14) (size 15 to 20)
#    0.000    2.000    2.500    2.250    0.000    3.000 
#    0.000    2.500    0.000    3.000    0.000    0.000 
#    0.000    1.000    0.500    0.000    0.000    0.000 
#
# Total GULP energy -178597.544966 kJ/mol
# GULP energy per Si atom -5581.173280 kJ/mol
# Density = 1.630737 g / cm^3
# Si number density = 16.344573 Si / 1000 Ang^3
#
#
#
# Elastic Constant Matrix: (Units=GPa)
#
#
# Indices 1 2 3 4 5 6 
#
# 1 79.6965 45.2907 14.3161 0.0000 2.2934 0.0000
# 2 45.2907 124.0819 36.7263 0.0000 0.5556 0.0000
# 3 14.3161 36.7263 45.5793 0.0000 -0.0803 0.0000
# 4 0.0000 0.0000 0.0000 -7.5649 0.0000 1.3418
# 5 2.2934 0.5556 -0.0803 0.0000 15.1664 0.0000
# 6 0.0000 0.0000 0.0000 1.3418 0.0000 13.1194
#
#
#
# Elastic Compliance Matrix: (Units=1/GPa)
#
#
# Indices 1 2 3 4 5 6 
#
# 1 0.015911 -0.005669 -0.000433 0.000000 -0.002201 0.000000
# 2 -0.005669 0.012606 -0.008376 0.000000 0.000351 0.000000
# 3 -0.000433 -0.008376 0.028826 0.000000 0.000525 0.000000
# 4 0.000000 0.000000 0.000000 -0.129834 0.000000 0.013279
# 5 -0.002201 0.000351 0.000525 0.000000 0.066258 0.000000
# 6 0.000000 0.000000 0.000000 0.013279 0.000000 0.074865
#
#
# Mechanical properties :
#
#
# Convention : Reuss Voigt Hill
#
# Bulk Modulus (GPa) = 35.22949 49.11378 42.17164
# Shear Modulus (GPa) = 46.70656 14.34581 30.52619
#
# Velocity S-wave (km/s) = 5.35147 2.96583 4.32634
# Velocity P-wave (km/s) = 7.73210 6.46857 7.12839
#
# Compressibility (1/GPa) = 0.02838531
#
# Stress axis : x y z
#
# Youngs Moduli (GPa) = 62.85120 79.32553 34.69075
#
# Poissons Ratio (x) = 0.44973 0.01502
# Poissons Ratio (y) = 0.35633 0.29058
# Poissons Ratio (z) = 0.02722 0.66446
#
# Static dielectric constant tensor:
#      x y z
#    x 1.584110 0.000000 0.004190 
#    y 0.000000 1.530280 0.000000 
#    z 0.004190 0.000000 1.519540 
# 
# From -- ./inp_files/70884.got.cif
#   From: 2010.05.17/outbox.cif.g08.bks.cpg/sg10_36_cif.got.tgz:70884.got - 2010.06.03 11:33:40.
