data_PCOD9144500
_publ_section_title
;
Structure prediction by ZEFSAII (Michael W. Deem and Ramdas Pophale) SiO2 
 PCOD9144500
Probable space group: P 2/M
;
_chemical_formula_sum "Si O2"
_cell_formula_units_Z 28
_cell_length_a 19.827787
_cell_length_b 7.705772
_cell_length_c 21.253420
_cell_angle_alpha 90.000000
_cell_angle_beta 150.622298
_cell_angle_gamma 90.000000
_cell_volume 1592.998936
_symmetry_space_group_name_H-M "P 2/M"
_symmetry_group_IT_number 10
_symmetry_cell_setting 'monoclinic'
loop_
_space_group_symop_operation_xyz
x,y,z
-x,y,-z
-x,-y,-z
x,-y,z
loop_
_atom_site_type_symbol
_atom_site_label
_atom_site_fract_x
_atom_site_fract_y
_atom_site_fract_z
Si Si1 0.534523 0.801642 0.863933
Si Si2 0.363863 0.791442 0.184088
Si Si3 0.153891 0.708409 0.118998
Si Si4 0.653131 0.292470 0.613481
Si Si5 0.225074 0.802130 0.556571
Si Si6 0.545685 0.500000 0.109622
Si Si7 0.656484 0.208799 0.474533
Si Si8 0.855061 0.500000 0.417740
O O1 0.629978 0.736597 0.883908
O O2 0.383244 0.809132 0.709039
O O3 0.518404 0.668207 0.907558
O O4 0.571042 0.000000 0.911777
O O5 0.231629 0.744486 0.117061
O O6 0.502032 0.726206 0.332192
O O7 0.373828 0.000000 0.190192
O O8 0.147355 0.500000 0.119877
O O9 0.246239 0.777345 0.251392
O O10 0.000000 0.776807 0.000000
O O11 0.500000 0.221545 0.500000
O O12 0.646770 0.500000 0.616604
O O13 0.695731 0.259077 0.576596
O O14 0.240239 0.737290 0.497087
O O15 0.151736 0.668664 0.542851
O O16 0.171234 0.000000 0.514776
O O17 0.712076 0.500000 0.259823
O O18 0.500000 0.500000 0.000000
O O19 0.652016 0.000000 0.467456
O O20 0.000000 0.500000 0.500000
#
# Coordination Sequence:
#
# PCOD9144500 Si02
#       8
#     4   4   4   4   4   2   4   2
#     4   8  16  31  51  79 106 130 169 214 251 293
#     4   9  17  30  50  73  95 125 168 211 248 290
#     4  10  21  34  46  65  99 135 169 203 251 301
#     4  10  19  30  45  72  97 124 166 211 251 291
#     4   8  16  31  50  78 107 134 169 208 250 298
#     4  10  20  34  56  84 106 132 168 202 252 304
#     4   9  17  29  49  74  98 124 162 213 257 286
#     4  10  20  34  56  82 106 137 168 200 244 305
#
# _framework density 17.576912
#
# number of rings (size 3 to 8) (size 9 to 14) (size 15 to 20)
#    0.000    2.857    1.429    1.714    2.000    1.714 
#    0.000    0.000    3.143    0.000    0.000    0.000 
#    0.000    0.000    0.000    0.000    0.000    0.000 
#
# Total GULP energy -155981.679313 kJ/mol
# GULP energy per Si atom -5570.774261 kJ/mol
# Density = 1.753691 g / cm^3
# Si number density = 17.576912 Si / 1000 Ang^3
#
#
#
# Elastic Constant Matrix: (Units=GPa)
#
#
# Indices 1 2 3 4 5 6 
#
# 1 175.8337 46.8716 75.1973 0.0000 -2.9106 0.0000
# 2 46.8716 57.4453 27.6402 0.0000 -1.6590 0.0000
# 3 75.1973 27.6402 74.5006 0.0000 -2.4832 0.0000
# 4 0.0000 0.0000 0.0000 8.2114 0.0000 -3.8902
# 5 -2.9106 -1.6590 -2.4832 0.0000 30.1692 0.0000
# 6 0.0000 0.0000 0.0000 -3.8902 0.0000 32.7115
#
#
#
# Elastic Compliance Matrix: (Units=1/GPa)
#
#
# Indices 1 2 3 4 5 6 
#
# 1 0.010834 -0.004355 -0.009318 0.000000 0.000039 0.000000
# 2 -0.004355 0.022949 -0.004102 0.000000 0.000504 0.000000
# 3 -0.009318 -0.004102 0.024379 0.000000 0.000882 0.000000
# 4 0.000000 0.000000 0.000000 0.129053 0.000000 0.015348
# 5 0.000039 0.000504 0.000882 0.000000 0.033251 0.000000
# 6 0.000000 0.000000 0.000000 0.015348 0.000000 0.032396
#
#
# Mechanical properties :
#
#
# Convention : Reuss Voigt Hill
#
# Bulk Modulus (GPa) = 44.22325 67.46640 55.84483
# Shear Modulus (GPa) = 16.89485 24.75644 20.82564
#
# Velocity S-wave (km/s) = 3.10368 3.75702 3.44587
# Velocity P-wave (km/s) = 6.16914 7.56883 6.90454
#
# Compressibility (1/GPa) = 0.02261254
#
# Stress axis : x y z
#
# Youngs Moduli (GPa) = 92.30472 43.57396 41.01889
#
# Poissons Ratio (x) = 0.18977 0.38221
# Poissons Ratio (y) = 0.40199 0.16825
# Poissons Ratio (z) = 0.86009 0.17873
#
# Static dielectric constant tensor:
#      x y z
#    x 1.612590 0.000000 -0.004810 
#    y 0.000000 1.632720 0.000000 
#    z -0.004810 0.000000 1.590660 
# 
# From -- ./inp_files/77840.got.cif
#   From: 2010.05.17/outbox.cif.g08.bks.cpg/sg10_39_cif.got.tgz:77840.got - 2010.06.03 11:33:40.
