data_PCOD9144523
_publ_section_title
;
Structure prediction by ZEFSAII (Michael W. Deem and Ramdas Pophale) SiO2 
 PCOD9144523
Probable space group: P 2/M
;
_chemical_formula_sum "Si O2"
_cell_formula_units_Z 28
_cell_length_a 30.060897
_cell_length_b 8.914275
_cell_length_c 18.730505
_cell_angle_alpha 90.000000
_cell_angle_beta 20.758886
_cell_angle_gamma 90.000000
_cell_volume 1778.997570
_symmetry_space_group_name_H-M "P 2/M"
_symmetry_group_IT_number 10
_symmetry_cell_setting 'monoclinic'
loop_
_space_group_symop_operation_xyz
x,y,z
-x,y,-z
-x,-y,-z
x,-y,z
loop_
_atom_site_type_symbol
_atom_site_label
_atom_site_fract_x
_atom_site_fract_y
_atom_site_fract_z
Si Si1 0.492615 0.820269 0.927125
Si Si2 0.238187 0.178336 0.543925
Si Si3 0.138706 0.672212 0.827769
Si Si4 0.869639 0.327889 0.740525
Si Si5 0.246866 0.319820 0.228190
Si Si6 0.996706 0.319337 0.830260
Si Si7 0.999436 0.821671 0.329617
O O1 0.625287 0.783471 0.691483
O O2 0.472308 0.000000 0.951120
O O3 0.500000 0.784564 0.000000
O O4 0.377564 0.735027 0.063623
O O5 0.222050 0.228645 0.650271
O O6 0.129320 0.259616 0.661919
O O7 0.219782 0.000000 0.565168
O O8 0.183739 0.500000 0.760161
O O9 0.110119 0.722816 0.951258
O O10 0.000000 0.671489 0.000000
O O11 0.845596 0.500000 0.798706
O O12 0.769468 0.279512 0.831189
O O13 0.896022 0.226754 0.769316
O O14 0.000000 0.328317 0.500000
O O15 0.233337 0.500000 0.253482
O O16 0.132669 0.244334 0.443000
O O17 0.001163 0.500000 0.820772
O O18 0.974721 0.250264 0.785958
O O19 0.990436 0.000000 0.338030
#
# Coordination Sequence:
#
# PCOD9144523 Si02
#       7
#     4   4   4   4   4   4   4
#     4  10  21  34  46  65  95 127 158 191 224 262
#     4  10  19  30  46  68  94 124 156 192 230 268
#     4   8  16  30  46  64  88 120 154 188 228 273
#     4   8  16  31  47  65  90 118 151 188 225 269
#     4  10  20  33  49  67  90 124 160 191 223 265
#     4  10  19  31  47  67  93 123 154 190 230 272
#     4  11  20  29  46  71  96 121 149 186 233 278
#
# _framework density 15.7392
#
# number of rings (size 3 to 8) (size 9 to 14) (size 15 to 20)
#    0.000    2.429    0.000    5.143    0.000    8.857 
#    0.000    0.000    0.000    0.000    0.000    1.000 
#    0.000    8.000    0.000    0.000    0.000    0.000 
#
# Total GULP energy -156095.316258 kJ/mol
# GULP energy per Si atom -5574.832723 kJ/mol
# Density = 1.570338 g / cm^3
# Si number density = 15.739200 Si / 1000 Ang^3
#
#
#
# Elastic Constant Matrix: (Units=GPa)
#
#
# Indices 1 2 3 4 5 6 
#
# 1 134.7326 59.2971 59.7427 0.0000 15.3737 0.0000
# 2 59.2971 68.7653 44.1701 0.0000 10.9976 0.0000
# 3 59.7427 44.1701 77.7895 0.0000 16.3449 0.0000
# 4 0.0000 0.0000 0.0000 20.1250 0.0000 4.1635
# 5 15.3737 10.9976 16.3449 0.0000 26.4708 0.0000
# 6 0.0000 0.0000 0.0000 4.1635 0.0000 21.4363
#
#
#
# Elastic Compliance Matrix: (Units=1/GPa)
#
#
# Indices 1 2 3 4 5 6 
#
# 1 0.013520 -0.007811 -0.005723 0.000000 -0.001073 0.000000
# 2 -0.007811 0.027471 -0.009371 0.000000 -0.001091 0.000000
# 3 -0.005723 -0.009371 0.024194 0.000000 -0.007722 0.000000
# 4 0.000000 0.000000 0.000000 0.051770 0.000000 -0.010055
# 5 -0.001073 -0.001091 -0.007722 0.000000 0.043622 0.000000
# 6 0.000000 0.000000 0.000000 -0.010055 0.000000 0.048603
#
#
# Mechanical properties :
#
#
# Convention : Reuss Voigt Hill
#
# Bulk Modulus (GPa) = 51.60939 67.52302 59.56621
# Shear Modulus (GPa) = 19.12447 21.47826 20.30136
#
# Velocity S-wave (km/s) = 3.48959 3.69810 3.59536
# Velocity P-wave (km/s) = 7.00699 7.82489 7.42721
#
# Compressibility (1/GPa) = 0.01937632
#
# Stress axis : x y z
#
# Youngs Moduli (GPa) = 73.96661 36.40208 41.33340
#
# Poissons Ratio (x) = 0.28432 0.23653
# Poissons Ratio (y) = 0.57773 0.38732
# Poissons Ratio (z) = 0.42328 0.34111
#
# Static dielectric constant tensor:
#      x y z
#    x 1.540490 0.000000 0.013030 
#    y 0.000000 1.526780 0.000000 
#    z 0.013030 0.000000 1.506500 
# 
# From -- ./inp_files/80643.got.cif
#   From: 2010.05.17/outbox.cif.g08.bks.cpg/sg10_41_cif.got.tgz:80643.got - 2010.06.03 11:33:40.
