data_PCOD9144889
_publ_section_title
;
Structure prediction by ZEFSAII (Michael W. Deem and Ramdas Pophale) SiO2 
 PCOD9144889
Probable space group: P 2/M
;
_chemical_formula_sum "Si O2"
_cell_formula_units_Z 24
_cell_length_a 18.899282
_cell_length_b 9.231313
_cell_length_c 9.337858
_cell_angle_alpha 90.000000
_cell_angle_beta 120.081583
_cell_angle_gamma 90.000000
_cell_volume 1409.707677
_symmetry_space_group_name_H-M "P 2/M"
_symmetry_group_IT_number 10
_symmetry_cell_setting 'monoclinic'
loop_
_space_group_symop_operation_xyz
x,y,z
-x,y,-z
-x,-y,-z
x,-y,z
loop_
_atom_site_type_symbol
_atom_site_label
_atom_site_fract_x
_atom_site_fract_y
_atom_site_fract_z
Si Si1 0.747702 0.172696 0.154031
Si Si2 0.242556 0.174382 0.167731
Si Si3 0.584042 0.826416 0.164085
Si Si4 0.911360 0.673883 0.843920
Si Si5 0.165112 0.666096 0.517336
Si Si6 0.666231 0.332190 0.497425
O O1 0.660370 0.208440 0.137480
O O2 0.817400 0.242663 0.323773
O O3 0.756749 0.000000 0.169212
O O4 0.749288 0.216032 0.990167
O O5 0.157515 0.238264 0.141009
O O6 0.312963 0.244470 0.337927
O O7 0.244262 0.000000 0.182549
O O8 0.599846 0.743607 0.328480
O O9 0.584823 0.000000 0.190411
O O10 0.500000 0.788570 0.000000
O O11 0.893932 0.500000 0.835110
O O12 0.902822 0.713449 0.666941
O O13 0.000000 0.699789 0.000000
O O14 0.149914 0.500000 0.542343
O O15 0.249140 0.671769 0.509120
O O16 0.647381 0.500000 0.506844
#
# Coordination Sequence:
#
# PCOD9144889 Si02
#       6
#     4   4   4   4   4   4
#     4   9  18  31  47  69  95 122 154 193 234 277
#     4  10  19  31  48  70  95 123 156 192 232 279
#     4   9  17  31  51  72  94 123 159 197 236 277
#     4   9  18  33  51  71  95 122 155 194 233 276
#     4   8  15  28  47  68  88 117 155 189 225 273
#     4   9  17  30  48  69  93 123 159 194 230 278
#
# _framework density 17.024805000000001
#
# number of rings (size 3 to 8) (size 9 to 14) (size 15 to 20)
#    0.000    3.000    0.000    2.000    0.000    6.000 
#    0.000    1.667    0.000   10.000    0.000    0.000 
#    0.000    0.000    0.000    0.000    0.000    0.000 
#
# Total GULP energy -133684.772291 kJ/mol
# GULP energy per Si atom -5570.198845 kJ/mol
# Density = 1.698606 g / cm^3
# Si number density = 17.024805 Si / 1000 Ang^3
#
#
#
# Elastic Constant Matrix: (Units=GPa)
#
#
# Indices 1 2 3 4 5 6 
#
# 1 28.4032 29.9809 57.1473 0.0000 2.1661 0.0000
# 2 29.9809 55.1316 79.1581 0.0000 -2.5674 0.0000
# 3 57.1473 79.1581 215.1237 0.0000 3.6934 0.0000
# 4 0.0000 0.0000 0.0000 33.6884 0.0000 3.6683
# 5 2.1661 -2.5674 3.6934 0.0000 31.3402 0.0000
# 6 0.0000 0.0000 0.0000 3.6683 0.0000 6.0178
#
#
#
# Elastic Compliance Matrix: (Units=1/GPa)
#
#
# Indices 1 2 3 4 5 6 
#
# 1 0.100703 -0.035927 -0.013389 0.000000 -0.008325 0.000000
# 2 -0.035927 0.052016 -0.009732 0.000000 0.007891 0.000000
# 3 -0.013389 -0.009732 0.011808 0.000000 -0.001263 0.000000
# 4 0.000000 0.000000 0.000000 0.031794 0.000000 -0.019381
# 5 -0.008325 0.007891 -0.001263 0.000000 0.033279 0.000000
# 6 0.000000 0.000000 0.000000 -0.019381 0.000000 0.177988
#
#
# Mechanical properties :
#
#
# Convention : Reuss Voigt Hill
#
# Bulk Modulus (GPa) = 21.53681 70.13678 45.83680
# Shear Modulus (GPa) = 9.23942 23.03410 16.13676
#
# Velocity S-wave (km/s) = 2.33213 3.68227 3.08204
# Velocity P-wave (km/s) = 4.46424 7.70487 6.29661
#
# Compressibility (1/GPa) = 0.04643212
#
# Stress axis : x y z
#
# Youngs Moduli (GPa) = 9.93017 19.22496 84.68983
#
# Poissons Ratio (x) = 0.69069 1.13390
# Poissons Ratio (y) = 0.35676 0.82416
# Poissons Ratio (z) = 0.13295 0.18709
#
# Static dielectric constant tensor:
#      x y z
#    x 1.563020 0.000000 0.004340 
#    y 0.000000 1.573030 0.000000 
#    z 0.004340 0.000000 1.587900 
# 
# From -- ./inp_files/31190.got.cif
#   From: 2010.05.17/outbox.cif.g08.bks.cpg/sg10_16_cif.got.tgz:31190.got - 2010.06.03 11:33:40.
