data_PCOD9144373
_publ_section_title
;
Structure prediction by ZEFSAII (Michael W. Deem and Ramdas Pophale) SiO2 
 PCOD9144373
Probable space group: P 2/M
;
_chemical_formula_sum "Si O2"
_cell_formula_units_Z 28
_cell_length_a 13.866679
_cell_length_b 9.837231
_cell_length_c 11.876467
_cell_angle_alpha 90.000000
_cell_angle_beta 123.081336
_cell_angle_gamma 90.000000
_cell_volume 1357.447393
_symmetry_space_group_name_H-M "P 2/M"
_symmetry_group_IT_number 10
_symmetry_cell_setting 'monoclinic'
loop_
_space_group_symop_operation_xyz
x,y,z
-x,y,-z
-x,-y,-z
x,-y,z
loop_
_atom_site_type_symbol
_atom_site_label
_atom_site_fract_x
_atom_site_fract_y
_atom_site_fract_z
Si Si1 0.959579 0.348649 0.754959
Si Si2 0.275450 0.344942 0.814920
Si Si3 0.687002 0.652749 0.577497
Si Si4 0.553412 0.343055 0.264584
Si Si5 0.073728 0.850521 0.658169
Si Si6 0.805982 0.346811 0.979280
Si Si7 0.639142 0.162859 0.746462
O O1 0.980468 0.500000 0.718295
O O2 0.823881 0.340856 0.687223
O O3 0.996020 0.229785 0.696112
O O4 0.056624 0.338751 0.913669
O O5 0.244042 0.500000 0.764297
O O6 0.395329 0.321052 0.827416
O O7 0.186195 0.237941 0.709216
O O8 0.257297 0.336596 0.938272
O O9 0.647708 0.500000 0.585993
O O10 0.652807 0.666815 0.424413
O O11 0.630723 0.769016 0.617712
O O12 0.509631 0.500000 0.241379
O O13 0.459453 0.233366 0.240811
O O14 0.000000 0.861245 0.500000
O O15 0.105245 0.000000 0.720438
O O16 0.781912 0.500000 0.919648
O O17 0.756132 0.226139 0.873147
O O18 0.635562 0.000000 0.743156
#
# Coordination Sequence:
#
# PCOD9144373 Si02
#       7
#     4   4   4   4   4   4   4
#     4   9  19  36  60  86 110 143 188 237 284 334
#     4   9  19  36  60  86 110 143 188 237 284 334
#     4  10  21  39  63  88 113 145 189 240 290 337
#     4  10  21  39  63  88 113 145 189 240 290 337
#     4  10  19  29  46  78 119 156 184 219 275 339
#     4   9  19  38  61  86 116 148 186 231 282 338
#     4  12  26  40  56  80 115 157 196 236 281 336
#
# _framework density 20.626950000000001
#
# number of rings (size 3 to 8) (size 9 to 14) (size 15 to 20)
#    0.000    2.143    0.000    3.857    0.000    9.143 
#    0.000    5.714    0.000    0.000    0.000    0.000 
#    0.000    0.000    0.000    0.000    0.000    0.000 
#
# Total GULP energy -156209.323544 kJ/mol
# GULP energy per Si atom -5578.904412 kJ/mol
# Density = 2.058000 g / cm^3
# Si number density = 20.626950 Si / 1000 Ang^3
#
#
#
# Elastic Constant Matrix: (Units=GPa)
#
#
# Indices 1 2 3 4 5 6 
#
# 1 51.5507 36.9558 12.6021 0.0000 13.2958 0.0000
# 2 36.9558 151.2308 31.0251 0.0000 1.8531 0.0000
# 3 12.6021 31.0251 61.9355 0.0000 9.3541 0.0000
# 4 0.0000 0.0000 0.0000 25.8482 0.0000 -2.2184
# 5 13.2958 1.8531 9.3541 0.0000 25.1816 0.0000
# 6 0.0000 0.0000 0.0000 -2.2184 0.0000 7.0690
#
#
#
# Elastic Compliance Matrix: (Units=1/GPa)
#
#
# Indices 1 2 3 4 5 6 
#
# 1 0.027808 -0.006575 -0.000233 0.000000 -0.014112 0.000000
# 2 -0.006575 0.008943 -0.003779 0.000000 0.004217 0.000000
# 3 -0.000233 -0.003779 0.019097 0.000000 -0.006692 0.000000
# 4 0.000000 0.000000 0.000000 0.039758 0.000000 0.012477
# 5 -0.014112 0.004217 -0.006692 0.000000 0.049338 0.000000
# 6 0.000000 0.000000 0.000000 0.012477 0.000000 0.145378
#
#
# Mechanical properties :
#
#
# Convention : Reuss Voigt Hill
#
# Bulk Modulus (GPa) = 28.83976 47.32033 38.08004
# Shear Modulus (GPa) = 15.47728 23.89537 19.68632
#
# Velocity S-wave (km/s) = 2.74221 3.40730 3.09269
# Velocity P-wave (km/s) = 4.90288 6.20245 5.59056
#
# Compressibility (1/GPa) = 0.03467436
#
# Stress axis : x y z
#
# Youngs Moduli (GPa) = 35.96026 111.82479 52.36446
#
# Poissons Ratio (x) = 0.73521 0.01223
# Poissons Ratio (y) = 0.23643 0.19787
# Poissons Ratio (z) = 0.00840 0.42255
#
# Static dielectric constant tensor:
#      x y z
#    x 1.770070 0.000000 0.005300 
#    y 0.000000 1.705690 0.000000 
#    z 0.005300 0.000000 1.781140 
# 
# From -- ./inp_files/50060.got.cif
#   From: 2010.05.17/outbox.cif.g08.bks.cpg/sg10_26_cif.got.tgz:50060.got - 2010.06.03 11:33:40.
