data_PCOD9144380
_publ_section_title
;
Structure prediction by ZEFSAII (Michael W. Deem and Ramdas Pophale) SiO2 
 PCOD9144380
Probable space group: P 2/M
;
_chemical_formula_sum "Si O2"
_cell_formula_units_Z 28
_cell_length_a 17.705801
_cell_length_b 11.044450
_cell_length_c 20.512109
_cell_angle_alpha 90.000000
_cell_angle_beta 159.966029
_cell_angle_gamma 90.000000
_cell_volume 1374.132098
_symmetry_space_group_name_H-M "P 2/M"
_symmetry_group_IT_number 10
_symmetry_cell_setting 'monoclinic'
loop_
_space_group_symop_operation_xyz
x,y,z
-x,y,-z
-x,-y,-z
x,-y,z
loop_
_atom_site_type_symbol
_atom_site_label
_atom_site_fract_x
_atom_site_fract_y
_atom_site_fract_z
Si Si1 0.936479 0.000000 0.561508
Si Si2 0.104836 0.361235 0.503106
Si Si3 0.643263 0.269313 0.175545
Si Si4 0.652478 0.000000 0.200674
Si Si5 0.896797 0.144604 0.090743
Si Si6 0.567278 0.856243 0.712224
Si Si7 0.249708 0.141229 0.270840
Si Si8 0.884549 0.770932 0.613675
O O1 0.766287 0.000000 0.363584
O O2 0.901776 0.114544 0.579377
O O3 0.169737 0.000000 0.713858
O O4 0.043740 0.500000 0.465467
O O5 0.313775 0.328698 0.718594
O O6 0.136035 0.339991 0.451940
O O7 0.895642 0.277444 0.353538
O O8 0.549272 0.133501 0.110803
O O9 0.500000 0.324547 0.000000
O O10 0.081344 0.188327 0.188227
O O11 0.919028 0.218709 0.175204
O O12 0.931730 0.000000 0.133567
O O13 0.672038 0.155523 0.868476
O O14 0.731121 0.813222 0.787806
O O15 0.336955 0.789079 0.524632
O O16 0.528624 0.000000 0.669035
O O17 0.500000 0.147484 0.500000
O O18 0.183801 0.000000 0.212118
#
# Coordination Sequence:
#
# PCOD9144380 Si02
#       8
#     2   4   4   2   4   4   4   4
#     4  11  18  34  58  73 112 152 170 223 270 332
#     4  11  25  42  58  78 107 146 191 235 272 313
#     4  11  22  39  64  88 110 139 178 223 274 332
#     4  11  19  38  58  89 115 144 175 207 274 339
#     4  10  19  29  47  76 109 144 177 211 263 330
#     4  10  19  29  47  76 109 144 177 211 263 330
#     4   9  15  27  45  68 107 150 178 206 252 319
#     4  12  20  35  52  75 108 140 179 221 277 320
#
# _framework density 20.376498000000002
#
# number of rings (size 3 to 8) (size 9 to 14) (size 15 to 20)
#    0.000    1.429    5.714    2.357    0.000    4.000 
#    0.000    0.000    0.000    0.000    0.000    2.000 
#    0.000    2.286    0.000    0.000    0.000    0.000 
#
# Total GULP energy -156120.233223 kJ/mol
# GULP energy per Si atom -5575.722615 kJ/mol
# Density = 2.033012 g / cm^3
# Si number density = 20.376498 Si / 1000 Ang^3
#
#
#
# Elastic Constant Matrix: (Units=GPa)
#
#
# Indices 1 2 3 4 5 6 
#
# 1 86.7143 12.3419 19.8036 0.0000 -29.6287 0.0000
# 2 12.3419 54.0357 2.3121 0.0000 -8.6625 0.0000
# 3 19.8036 2.3121 69.5557 0.0000 -32.8617 0.0000
# 4 0.0000 0.0000 0.0000 3.5133 0.0000 -1.2151
# 5 -29.6287 -8.6625 -32.8617 0.0000 33.1948 0.0000
# 6 0.0000 0.0000 0.0000 -1.2151 0.0000 8.6685
#
#
#
# Elastic Compliance Matrix: (Units=1/GPa)
#
#
# Indices 1 2 3 4 5 6 
#
# 1 0.017349 -0.001026 0.004291 0.000000 0.019466 0.000000
# 2 -0.001026 0.019778 0.003082 0.000000 0.007297 0.000000
# 3 0.004291 0.003082 0.028635 0.000000 0.032983 0.000000
# 4 0.000000 0.000000 0.000000 0.299137 0.000000 0.041931
# 5 0.019466 0.007297 0.032983 0.000000 0.082056 0.000000
# 6 0.000000 0.000000 0.000000 0.041931 0.000000 0.121238
#
#
# Mechanical properties :
#
#
# Convention : Reuss Voigt Hill
#
# Bulk Modulus (GPa) = 12.74559 31.02455 21.88507
# Shear Modulus (GPa) = 8.59622 20.79852 14.69737
#
# Velocity S-wave (km/s) = 2.05617 3.19832 2.68860
# Velocity P-wave (km/s) = 3.45047 5.37566 4.51683
#
# Compressibility (1/GPa) = 0.07845854
#
# Stress axis : x y z
#
# Youngs Moduli (GPa) = 57.63940 50.56004 34.92176
#
# Poissons Ratio (x) = 0.05185 -0.14986
# Poissons Ratio (y) = 0.05912 -0.10763
# Poissons Ratio (z) = -0.24734 -0.15583
#
# Static dielectric constant tensor:
#      x y z
#    x 1.796990 0.000000 -0.008550 
#    y 0.000000 1.705330 0.000000 
#    z -0.008550 0.000000 1.789870 
# 
# From -- ./inp_files/85862.got.cif
#   From: 2010.05.17/outbox.cif.g08.bks.cpg/sg10_43_cif.got.tgz:85862.got - 2010.06.03 11:33:40.
