data_PCOD9144753
_publ_section_title
;
Structure prediction by ZEFSAII (Michael W. Deem and Ramdas Pophale) SiO2 
 PCOD9144753
Probable space group: P 2/M
;
_chemical_formula_sum "Si O2"
_cell_formula_units_Z 28
_cell_length_a 11.645447
_cell_length_b 7.288498
_cell_length_c 15.124785
_cell_angle_alpha 90.000000
_cell_angle_beta 113.902939
_cell_angle_gamma 90.000000
_cell_volume 1173.654822
_symmetry_space_group_name_H-M "P 2/M"
_symmetry_group_IT_number 10
_symmetry_cell_setting 'monoclinic'
loop_
_space_group_symop_operation_xyz
x,y,z
-x,y,-z
-x,-y,-z
x,-y,z
loop_
_atom_site_type_symbol
_atom_site_label
_atom_site_fract_x
_atom_site_fract_y
_atom_site_fract_z
Si Si1 0.640271 0.708976 0.524444
Si Si2 0.029303 0.223173 0.909875
Si Si3 0.682773 0.221418 0.253331
Si Si4 0.221669 0.222334 0.251730
Si Si5 0.587030 0.222917 0.838051
Si Si6 0.858210 0.290952 0.462766
Si Si7 0.308631 0.776856 0.946010
O O1 0.500000 0.788630 0.500000
O O2 0.617177 0.500000 0.485818
O O3 0.711491 0.708744 0.640126
O O4 0.745079 0.789648 0.488942
O O5 0.921415 0.280238 0.808399
O O6 0.168165 0.276498 0.927927
O O7 0.027655 0.000000 0.910355
O O8 0.000000 0.283029 0.000000
O O9 0.545457 0.274887 0.246353
O O10 0.796823 0.292083 0.346609
O O11 0.675969 0.281948 0.149669
O O12 0.693034 0.000000 0.257883
O O13 0.299340 0.278471 0.189019
O O14 0.224858 0.000000 0.256978
O O15 0.588530 0.000000 0.841519
O O16 0.604919 0.283278 0.945168
O O17 0.875525 0.500000 0.501260
O O18 0.000000 0.211616 0.500000
O O19 0.319625 0.000000 0.947506
#
# Coordination Sequence:
#
# PCOD9144753 Si02
#       7
#     4   4   4   4   4   4   4
#     4  10  22  40  59  77 100 136 179 219 264 317
#     4   9  15  26  44  72 107 139 168 202 247 305
#     4  10  20  32  53  81 105 132 173 220 258 294
#     4  10  19  30  53  82 106 134 171 214 259 303
#     4   9  16  29  48  78 114 141 164 201 257 315
#     4  10  23  42  58  73 101 142 179 213 265 325
#     4   9  16  27  46  74 109 141 168 200 248 309
#
# _framework density 23.857102000000001
#
# number of rings (size 3 to 8) (size 9 to 14) (size 15 to 20)
#    0.000    2.429    1.429    1.286    2.000    2.857 
#    0.000    0.000    0.000    3.000    0.000    0.000 
#    0.000    0.000    0.000    0.000    0.000    0.000 
#
# Total GULP energy -156357.751289 kJ/mol
# GULP energy per Si atom -5584.205403 kJ/mol
# Density = 2.380280 g / cm^3
# Si number density = 23.857102 Si / 1000 Ang^3
#
#
#
# Elastic Constant Matrix: (Units=GPa)
#
#
# Indices 1 2 3 4 5 6 
#
# 1 156.4660 5.8622 60.6724 0.0000 26.2255 0.0000
# 2 5.8622 99.6955 -4.7264 0.0000 -0.0870 0.0000
# 3 60.6724 -4.7264 152.6017 0.0000 28.0619 0.0000
# 4 0.0000 0.0000 0.0000 24.2442 0.0000 3.6039
# 5 26.2255 -0.0870 28.0619 0.0000 49.0451 0.0000
# 6 0.0000 0.0000 0.0000 3.6039 0.0000 -21.3494
#
#
#
# Elastic Compliance Matrix: (Units=1/GPa)
#
#
# Indices 1 2 3 4 5 6 
#
# 1 0.007898 -0.000593 -0.002662 0.000000 -0.002701 0.000000
# 2 -0.000593 0.010091 0.000544 0.000000 0.000024 0.000000
# 3 -0.002662 0.000544 0.008232 0.000000 -0.003286 0.000000
# 4 0.000000 0.000000 0.000000 0.040237 0.000000 0.006792
# 5 -0.002701 0.000024 -0.003286 0.000000 0.023714 0.000000
# 6 0.000000 0.000000 0.000000 0.006792 0.000000 -0.045693
#
#
# Mechanical properties :
#
#
# Convention : Reuss Voigt Hill
#
# Bulk Modulus (GPa) = 48.07651 59.15328 53.61489
# Shear Modulus (GPa) = 87.97326 33.51832 60.74579
#
# Velocity S-wave (km/s) = 6.07907 3.75235 5.05150
# Velocity P-wave (km/s) = 8.33481 6.60471 7.51968
#
# Compressibility (1/GPa) = 0.02080018
#
# Stress axis : x y z
#
# Youngs Moduli (GPa) = 126.60842 99.09603 121.47065
#
# Poissons Ratio (x) = 0.05876 0.32334
# Poissons Ratio (y) = 0.07508 -0.06607
# Poissons Ratio (z) = 0.33702 -0.05390
#
# Static dielectric constant tensor:
#      x y z
#    x 1.908350 0.000000 -0.014870 
#    y 0.000000 1.960080 0.000000 
#    z -0.014870 0.000000 1.828840 
# 
# From -- ./inp_files/49597.got.cif
#   From: 2010.05.17/outbox.cif.g08.bks.cpg/sg10_25_cif.got.tgz:49597.got - 2010.06.03 11:33:40.
