data_PCOD9144719
_publ_section_title
;
Structure prediction by ZEFSAII (Michael W. Deem and Ramdas Pophale) SiO2 
 PCOD9144719
Probable space group: P 2/M
;
_chemical_formula_sum "Si O2"
_cell_formula_units_Z 28
_cell_length_a 12.072133
_cell_length_b 11.434593
_cell_length_c 24.805134
_cell_angle_alpha 90.000000
_cell_angle_beta 152.621785
_cell_angle_gamma 90.000000
_cell_volume 1574.613606
_symmetry_space_group_name_H-M "P 2/M"
_symmetry_group_IT_number 10
_symmetry_cell_setting 'monoclinic'
loop_
_space_group_symop_operation_xyz
x,y,z
-x,y,-z
-x,-y,-z
x,-y,z
loop_
_atom_site_type_symbol
_atom_site_label
_atom_site_fract_x
_atom_site_fract_y
_atom_site_fract_z
Si Si1 0.814158 0.000000 0.367915
Si Si2 0.739811 0.358237 0.633213
Si Si3 0.323914 0.751509 0.058067
Si Si4 0.356093 0.361755 0.180073
Si Si5 0.841359 0.362192 0.266495
Si Si6 0.090313 0.640562 0.176582
Si Si7 0.121479 0.258324 0.610419
Si Si8 0.275642 0.000000 0.094327
O O1 0.881379 0.875943 0.371147
O O2 0.000000 0.000000 0.500000
O O3 0.514400 0.000000 0.238116
O O4 0.500000 0.314040 0.500000
O O5 0.729918 0.500000 0.627234
O O6 0.769158 0.326810 0.708394
O O7 0.976827 0.325925 0.701775
O O8 0.234103 0.675256 0.071130
O O9 0.594323 0.710644 0.161289
O O10 0.303026 0.884149 0.069464
O O11 0.152856 0.714252 0.935292
O O12 0.395876 0.500000 0.195380
O O13 0.239087 0.333754 0.186641
O O14 0.605436 0.293807 0.283456
O O15 0.784951 0.500000 0.237141
O O16 0.965676 0.339471 0.378486
O O17 0.041229 0.500000 0.156690
O O18 0.000000 0.270615 0.500000
O O19 0.000000 0.000000 0.000000
#
# Coordination Sequence:
#
# PCOD9144719 Si02
#       8
#     2   4   4   4   4   4   4   2
#     4  10  20  38  56  79 112 153 198 226 274 338
#     4   9  20  37  55  80 112 149 191 229 272 333
#     4  11  21  35  55  83 111 144 185 229 283 334
#     4  10  19  30  49  81 117 144 172 218 279 341
#     4  10  20  34  55  81 113 146 181 229 279 335
#     4  10  20  34  54  79 112 149 180 222 279 337
#     4  10  20  32  52  80 108 146 186 224 274 331
#     4  12  22  36  58  84 118 153 189 239 284 332
#
# _framework density 17.782139999999998
#
# number of rings (size 3 to 8) (size 9 to 14) (size 15 to 20)
#    0.000    1.857    2.857    3.857    2.000    2.857 
#    0.000    2.143    0.000    2.571    0.000    2.500 
#    0.000    0.000    0.000    0.000    0.000    0.000 
#
# Total GULP energy -155880.821399 kJ/mol
# GULP energy per Si atom -5567.172193 kJ/mol
# Density = 1.774167 g / cm^3
# Si number density = 17.782140 Si / 1000 Ang^3
#
#
#
# Elastic Constant Matrix: (Units=GPa)
#
#
# Indices 1 2 3 4 5 6 
#
# 1 83.4390 25.4553 43.2213 0.0000 -0.5557 0.0000
# 2 25.4553 60.0364 15.5919 0.0000 5.0711 0.0000
# 3 43.2213 15.5919 111.6916 0.0000 -13.6666 0.0000
# 4 0.0000 0.0000 0.0000 17.0194 0.0000 -13.6790
# 5 -0.5557 5.0711 -13.6666 0.0000 23.0951 0.0000
# 6 0.0000 0.0000 0.0000 -13.6790 0.0000 -11.7494
#
#
#
# Elastic Compliance Matrix: (Units=1/GPa)
#
#
# Indices 1 2 3 4 5 6 
#
# 1 0.016690 -0.005368 -0.005946 0.000000 -0.001938 0.000000
# 2 -0.005368 0.019717 -0.001316 0.000000 -0.005237 0.000000
# 3 -0.005946 -0.001316 0.012350 0.000000 0.007454 0.000000
# 4 0.000000 0.000000 0.000000 0.030354 0.000000 -0.035339
# 5 -0.001938 -0.005237 0.007454 0.000000 0.048813 0.000000
# 6 0.000000 0.000000 0.000000 -0.035339 0.000000 -0.043969
#
#
# Mechanical properties :
#
#
# Convention : Reuss Voigt Hill
#
# Bulk Modulus (GPa) = 42.56093 47.07822 44.81957
# Shear Modulus (GPa) = 42.71748 17.06627 29.89187
#
# Velocity S-wave (km/s) = 4.90661 3.10133 4.10445
# Velocity P-wave (km/s) = 7.48909 6.27350 6.90808
#
# Compressibility (1/GPa) = 0.02349573
#
# Stress axis : x y z
#
# Youngs Moduli (GPa) = 59.91675 50.71798 80.97173
#
# Poissons Ratio (x) = 0.27228 0.48148
# Poissons Ratio (y) = 0.32166 0.10654
# Poissons Ratio (z) = 0.35628 0.06674
#
# Static dielectric constant tensor:
#      x y z
#    x 1.603220 0.000000 -0.009360 
#    y 0.000000 1.599890 0.000000 
#    z -0.009360 0.000000 1.713600 
# 
# From -- ./inp_files/88874.got.cif
#   From: 2010.05.17/outbox.cif.g08.bks.cpg/sg10_45_cif.got.tgz:88874.got - 2010.06.03 11:33:40.
