data_PCOD9144503
_publ_section_title
;
Structure prediction by ZEFSAII (Michael W. Deem and Ramdas Pophale) SiO2 
 PCOD9144503
Probable space group: P 2/M
;
_chemical_formula_sum "Si O2"
_cell_formula_units_Z 32
_cell_length_a 15.382740
_cell_length_b 7.556937
_cell_length_c 14.216558
_cell_angle_alpha 90.000000
_cell_angle_beta 98.161277
_cell_angle_gamma 90.000000
_cell_volume 1635.886535
_symmetry_space_group_name_H-M "P 2/M"
_symmetry_group_IT_number 10
_symmetry_cell_setting 'monoclinic'
loop_
_space_group_symop_operation_xyz
x,y,z
-x,y,-z
-x,-y,-z
x,-y,z
loop_
_atom_site_type_symbol
_atom_site_label
_atom_site_fract_x
_atom_site_fract_y
_atom_site_fract_z
Si Si1 0.096421 0.213163 0.622919
Si Si2 0.049302 0.202021 0.096724
Si Si3 0.892869 0.784348 0.582913
Si Si4 0.625441 0.795820 0.827187
Si Si5 0.206174 0.218221 0.245864
Si Si6 0.881406 0.292606 0.169871
Si Si7 0.543163 0.786040 0.106344
Si Si8 0.286688 0.293254 0.963225
O O1 0.132423 0.270946 0.526855
O O2 0.143490 0.271832 0.725047
O O3 0.994210 0.271355 0.612789
O O4 0.096270 0.000000 0.622757
O O5 0.137179 0.278837 0.155021
O O6 0.974429 0.201544 0.165067
O O7 0.070845 0.000000 0.073017
O O8 0.000000 0.286359 0.000000
O O9 0.831455 0.726409 0.658987
O O10 0.893007 0.000000 0.584475
O O11 0.696612 0.719833 0.766339
O O12 0.527727 0.720278 0.828338
O O13 0.612712 0.000000 0.798265
O O14 0.673486 0.793574 0.937081
O O15 0.205320 0.000000 0.243760
O O16 0.893125 0.500000 0.152921
O O17 0.806244 0.223671 0.088255
O O18 0.642751 0.724773 0.110710
O O19 0.544546 0.000000 0.110512
O O20 0.500000 0.733558 0.000000
O O21 0.277238 0.500000 0.983744
#
# Coordination Sequence:
#
# PCOD9144503 Si02
#       8
#     4   4   4   4   4   4   4   4
#     4   9  16  29  49  67  84 111 150 189 222 262
#     4  10  19  30  46  65  86 120 159 182 205 254
#     4   8  14  26  47  70  87 108 144 189 226 258
#     4   9  17  29  47  69  91 115 144 181 220 260
#     4   9  15  26  45  68  91 114 143 178 217 262
#     4  11  22  32  42  62  92 122 150 184 225 260
#     4   8  15  28  45  66  88 110 142 184 225 258
#     4  10  20  31  43  61  88 122 153 181 217 260
#
# _framework density 19.561257000000001
#
# number of rings (size 3 to 8) (size 9 to 14) (size 15 to 20)
#    0.000    2.750    1.250    3.000    0.000    5.500 
#    0.000    1.875    0.000    0.000    0.000    0.875 
#    0.000    7.000    0.000    0.000    0.000    0.000 
#
# Total GULP energy -178361.850306 kJ/mol
# GULP energy per Si atom -5573.807822 kJ/mol
# Density = 1.951674 g / cm^3
# Si number density = 19.561257 Si / 1000 Ang^3
#
#
#
# Elastic Constant Matrix: (Units=GPa)
#
#
# Indices 1 2 3 4 5 6 
#
# 1 72.1426 2.1432 1.0432 0.0000 -28.9381 0.0000
# 2 2.1432 49.3906 -2.4728 0.0000 -2.1083 0.0000
# 3 1.0432 -2.4728 66.5976 0.0000 -25.5048 0.0000
# 4 0.0000 0.0000 0.0000 -5.7807 0.0000 9.6157
# 5 -28.9381 -2.1083 -25.5048 0.0000 31.1436 0.0000
# 6 0.0000 0.0000 0.0000 9.6157 0.0000 5.7657
#
#
#
# Elastic Compliance Matrix: (Units=1/GPa)
#
#
# Indices 1 2 3 4 5 6 
#
# 1 0.029454 0.001144 0.014703 0.000000 0.039486 0.000000
# 2 0.001144 0.020510 0.002451 0.000000 0.004458 0.000000
# 3 0.014703 0.002451 0.029389 0.000000 0.037896 0.000000
# 4 0.000000 0.000000 0.000000 -0.045835 0.000000 0.076441
# 5 0.039486 0.004458 0.037896 0.000000 0.100136 0.000000
# 6 0.000000 0.000000 0.000000 0.076441 0.000000 0.045954
#
#
# Mechanical properties :
#
#
# Convention : Reuss Voigt Hill
#
# Bulk Modulus (GPa) = 8.62452 21.06199 14.84325
# Shear Modulus (GPa) = 27.52362 18.72019 23.12190
#
# Velocity S-wave (km/s) = 3.75513 3.09690 3.44179
# Velocity P-wave (km/s) = 4.81870 4.85575 4.83726
#
# Compressibility (1/GPa) = 0.11594851
#
# Stress axis : x y z
#
# Youngs Moduli (GPa) = 33.95148 48.75628 34.02613
#
# Poissons Ratio (x) = -0.05575 -0.50029
# Poissons Ratio (y) = -0.03882 -0.08340
# Poissons Ratio (z) = -0.49919 -0.11950
#
# Static dielectric constant tensor:
#      x y z
#    x 1.722320 0.000000 -0.045750 
#    y 0.000000 1.740120 0.000000 
#    z -0.045750 0.000000 1.705630 
# 
# From -- ./inp_files/66208.got.cif
#   From: 2010.05.17/outbox.cif.g08.bks.cpg/sg10_34_cif.got.tgz:66208.got - 2010.06.03 11:33:40.
