data_PCOD9144579
_publ_section_title
;
Structure prediction by ZEFSAII (Michael W. Deem and Ramdas Pophale) SiO2 
 PCOD9144579
Probable space group: P 2/M
;
_chemical_formula_sum "Si O2"
_cell_formula_units_Z 32
_cell_length_a 25.158385
_cell_length_b 7.514705
_cell_length_c 18.127865
_cell_angle_alpha 90.000000
_cell_angle_beta 152.552896
_cell_angle_gamma 90.000000
_cell_volume 1579.704578
_symmetry_space_group_name_H-M "P 2/M"
_symmetry_group_IT_number 10
_symmetry_cell_setting 'monoclinic'
loop_
_space_group_symop_operation_xyz
x,y,z
-x,y,-z
-x,-y,-z
x,-y,z
loop_
_atom_site_type_symbol
_atom_site_label
_atom_site_fract_x
_atom_site_fract_y
_atom_site_fract_z
Si Si1 0.139494 0.795093 0.664413
Si Si2 0.983275 0.715395 0.064736
Si Si3 0.383065 0.212623 0.531520
Si Si4 0.367431 0.209390 0.200508
Si Si5 0.207653 0.792060 0.435563
Si Si6 0.887251 0.218976 0.529272
Si Si7 0.726185 0.712031 0.761272
Si Si8 0.152595 0.218335 0.842395
O O1 0.160440 0.719200 0.608913
O O2 0.180259 0.720062 0.792809
O O3 0.000000 0.797452 0.500000
O O4 0.179577 0.000000 0.711832
O O5 0.985876 0.500000 0.070346
O O6 0.087773 0.780895 0.243127
O O7 0.857019 0.777954 0.934449
O O8 0.000000 0.768114 0.000000
O O9 0.512326 0.284916 0.681132
O O10 0.306775 0.285398 0.504950
O O11 0.316885 0.238836 0.372850
O O12 0.391274 0.000000 0.551850
O O13 0.355961 0.226845 0.274208
O O14 0.368729 0.000000 0.185086
O O15 0.251204 0.280589 0.019490
O O16 0.183627 0.718333 0.487271
O O17 0.234926 0.000000 0.479673
O O18 0.022088 0.272045 0.701876
O O19 0.887126 0.000000 0.527827
O O20 0.729559 0.500000 0.768589
O O21 0.150427 0.000000 0.838723
#
# Coordination Sequence:
#
# PCOD9144579 Si02
#       8
#     4   4   4   4   4   4   4   4
#     4   7  10  18  35  61  91 116 138 173 222 268
#     4  10  20  34  48  65  91 118 143 182 234 276
#     4  10  21  34  46  63  90 124 156 190 229 263
#     4  10  20  33  48  66  91 120 154 193 227 263
#     4  10  19  30  47  69  92 121 156 188 221 266
#     4   8  13  22  39  66  93 113 142 185 224 262
#     4  11  22  35  51  68  87 114 152 193 232 275
#     4   8  13  23  41  64  89 117 146 178 223 272
#
# _framework density 20.256951000000001
#
# number of rings (size 3 to 8) (size 9 to 14) (size 15 to 20)
#    0.000    2.750    1.250    3.000    0.000    4.250 
#    0.000    0.000    0.000    0.750    0.000    6.125 
#    0.000    5.000    0.000    3.375    0.000    4.750 
#
# Total GULP energy -178493.985154 kJ/mol
# GULP energy per Si atom -5577.937036 kJ/mol
# Density = 2.021085 g / cm^3
# Si number density = 20.256951 Si / 1000 Ang^3
#
#
#
# Elastic Constant Matrix: (Units=GPa)
#
#
# Indices 1 2 3 4 5 6 
#
# 1 202.9709 8.7983 49.4432 0.0000 -2.3079 0.0000
# 2 8.7983 57.0110 -2.2852 0.0000 2.9233 0.0000
# 3 49.4432 -2.2852 45.9048 0.0000 12.8172 0.0000
# 4 0.0000 0.0000 0.0000 -35.8736 0.0000 30.9969
# 5 -2.3079 2.9233 12.8172 0.0000 31.2721 0.0000
# 6 0.0000 0.0000 0.0000 30.9969 0.0000 -34.0619
#
#
#
# Elastic Compliance Matrix: (Units=1/GPa)
#
#
# Indices 1 2 3 4 5 6 
#
# 1 0.007289 -0.001722 -0.009183 0.000000 0.004462 0.000000
# 2 -0.001722 0.018125 0.003687 0.000000 -0.003333 0.000000
# 3 -0.009183 0.003687 0.036297 0.000000 -0.015899 0.000000
# 4 0.000000 0.000000 0.000000 -0.130449 0.000000 -0.118711
# 5 0.004462 -0.003333 -0.015899 0.000000 0.039135 0.000000
# 6 0.000000 0.000000 0.000000 -0.118711 0.000000 -0.137387
#
#
# Mechanical properties :
#
#
# Convention : Reuss Voigt Hill
#
# Bulk Modulus (GPa) = 21.15185 46.42218 33.78701
# Shear Modulus (GPa) = -36.55065 8.92935 -13.81065
#
# Velocity S-wave (km/s) = -4.25237 2.10181 -2.61391
# Velocity P-wave (km/s) = 3.69402 5.37183 2.75779
#
# Compressibility (1/GPa) = 0.04727719
#
# Stress axis : x y z
#
# Youngs Moduli (GPa) = 137.19215 55.17278 27.55016
#
# Poissons Ratio (x) = 0.09500 0.25298
# Poissons Ratio (y) = 0.23621 -0.10159
# Poissons Ratio (z) = 1.25978 -0.20344
#
# Static dielectric constant tensor:
#      x y z
#    x 1.754030 0.000000 -0.003850 
#    y 0.000000 1.819660 0.000000 
#    z -0.003850 0.000000 1.698840 
# 
# From -- ./inp_files/54887.got.cif
#   From: 2010.05.17/outbox.cif.g08.bks.cpg/sg10_28_cif.got.tgz:54887.got - 2010.06.03 11:33:40.
