data_PCOD9144936
_publ_section_title
;
Structure prediction by ZEFSAII (Michael W. Deem and Ramdas Pophale) SiO2 
 PCOD9144936
Probable space group: P 2/M
;
_chemical_formula_sum "Si O2"
_cell_formula_units_Z 28
_cell_length_a 15.921496
_cell_length_b 7.456947
_cell_length_c 18.841258
_cell_angle_alpha 90.000000
_cell_angle_beta 36.108989
_cell_angle_gamma 90.000000
_cell_volume 1318.281932
_symmetry_space_group_name_H-M "P 2/M"
_symmetry_group_IT_number 10
_symmetry_cell_setting 'monoclinic'
loop_
_space_group_symop_operation_xyz
x,y,z
-x,y,-z
-x,-y,-z
x,-y,z
loop_
_atom_site_type_symbol
_atom_site_label
_atom_site_fract_x
_atom_site_fract_y
_atom_site_fract_z
Si Si1 0.332013 0.218432 0.609680
Si Si2 0.983891 0.714290 0.430436
Si Si3 0.419313 0.208545 0.780156
Si Si4 0.157652 0.219218 0.868877
Si Si5 0.536296 0.283517 0.088056
Si Si6 0.713800 0.784538 0.517032
Si Si7 0.723607 0.718646 0.828780
O O1 0.500000 0.273165 0.500000
O O2 0.229947 0.274620 0.744480
O O3 0.269937 0.275511 0.575576
O O4 0.334767 0.000000 0.609957
O O5 0.999760 0.500000 0.424620
O O6 0.838052 0.744527 0.488105
O O7 0.000000 0.783492 0.500000
O O8 0.117760 0.781936 0.293548
O O9 0.272655 0.279801 0.848993
O O10 0.430721 0.219644 0.856428
O O11 0.562807 0.286930 0.648635
O O12 0.419600 0.000000 0.758728
O O13 0.150195 0.000000 0.871879
O O14 0.000000 0.279643 0.000000
O O15 0.537103 0.500000 0.088951
O O16 0.382131 0.228490 0.162972
O O17 0.651443 0.223342 0.951254
O O18 0.706571 0.000000 0.519285
O O19 0.722700 0.500000 0.830987
#
# Coordination Sequence:
#
# PCOD9144936 Si02
#       7
#     4   4   4   4   4   4   4
#     4   9  15  29  50  68  93 132 169 199 243 305
#     4  10  20  34  52  74 102 134 168 207 250 299
#     4  10  19  31  48  74 103 126 159 208 254 294
#     4   9  17  29  47  71  98 128 164 206 247 295
#     4   9  17  32  54  72  92 129 170 202 241 301
#     4  10  20  32  51  77 101 132 171 210 253 298
#     4   8  16  32  51  71  95 128 169 205 240 293
#
# _framework density 21.239768000000002
#
# number of rings (size 3 to 8) (size 9 to 14) (size 15 to 20)
#    0.000    2.714    1.429    1.714    0.000    3.143 
#    0.000    4.286    0.000    1.714    0.000    0.000 
#    0.000    0.000    0.000    0.000    0.000    0.000 
#
# Total GULP energy -156236.679022 kJ/mol
# GULP energy per Si atom -5579.881394 kJ/mol
# Density = 2.119143 g / cm^3
# Si number density = 21.239768 Si / 1000 Ang^3
#
#
#
# Elastic Constant Matrix: (Units=GPa)
#
#
# Indices 1 2 3 4 5 6 
#
# 1 162.3950 -7.7063 112.6635 0.0000 1.3214 0.0000
# 2 -7.7063 58.5176 2.4298 0.0000 -3.6706 0.0000
# 3 112.6635 2.4298 176.1388 0.0000 -18.9204 0.0000
# 4 0.0000 0.0000 0.0000 2.1184 0.0000 4.6363
# 5 1.3214 -3.6706 -18.9204 0.0000 36.7656 0.0000
# 6 0.0000 0.0000 0.0000 4.6363 0.0000 26.4043
#
#
#
# Elastic Compliance Matrix: (Units=1/GPa)
#
#
# Indices 1 2 3 4 5 6 
#
# 1 0.011896 0.001625 -0.008108 0.000000 -0.004438 0.000000
# 2 0.001625 0.017419 -0.001163 0.000000 0.001082 0.000000
# 3 -0.008108 -0.001163 0.011536 0.000000 0.006112 0.000000
# 4 0.000000 0.000000 0.000000 0.766688 0.000000 -0.134623
# 5 -0.004438 0.001082 0.006112 0.000000 0.030612 0.000000
# 6 0.000000 0.000000 0.000000 -0.134623 0.000000 0.061511
#
#
# Mechanical properties :
#
#
# Convention : Reuss Voigt Hill
#
# Bulk Modulus (GPa) = 39.12683 67.98061 53.55372
# Shear Modulus (GPa) = 5.41432 32.36862 18.89147
#
# Velocity S-wave (km/s) = 1.59834 3.90803 2.98558
# Velocity P-wave (km/s) = 4.67629 7.24150 6.09537
#
# Compressibility (1/GPa) = 0.02555791
#
# Stress axis : x y z
#
# Youngs Moduli (GPa) = 84.05946 57.40847 86.68288
#
# Poissons Ratio (x) = -0.09329 0.70286
# Poissons Ratio (y) = -0.13659 0.10085
# Poissons Ratio (z) = 0.68159 0.06679
#
# Static dielectric constant tensor:
#      x y z
#    x 1.731610 0.000000 -0.001860 
#    y 0.000000 1.826110 0.000000 
#    z -0.001860 0.000000 1.757240 
# 
# From -- ./inp_files/46079.got.cif
#   From: 2010.05.17/outbox.cif.g08.bks.cpg/sg10_24_cif.got.tgz:46079.got - 2010.06.03 11:33:40.
