data_PCOD9144721
_publ_section_title
;
Structure prediction by ZEFSAII (Michael W. Deem and Ramdas Pophale) SiO2 
 PCOD9144721
Probable space group: P 2/M
;
_chemical_formula_sum "Si O2"
_cell_formula_units_Z 32
_cell_length_a 7.139711
_cell_length_b 14.672948
_cell_length_c 15.447981
_cell_angle_alpha 90.000000
_cell_angle_beta 122.032342
_cell_angle_gamma 90.000000
_cell_volume 1371.945753
_symmetry_space_group_name_H-M "P 2/M"
_symmetry_group_IT_number 10
_symmetry_cell_setting 'monoclinic'
loop_
_space_group_symop_operation_xyz
x,y,z
-x,y,-z
-x,-y,-z
x,-y,z
loop_
_atom_site_type_symbol
_atom_site_label
_atom_site_fract_x
_atom_site_fract_y
_atom_site_fract_z
Si Si1 0.473411 0.606141 0.639714
Si Si2 0.472503 0.104148 0.738523
Si Si3 0.769068 0.110345 0.481658
Si Si4 0.244870 0.603678 0.973299
Si Si5 0.146608 0.605929 0.414539
Si Si6 0.598436 0.278990 0.839353
Si Si7 0.980337 0.103680 0.707130
Si Si8 0.110743 0.712208 0.784614
O O1 0.445947 0.500000 0.658946
O O2 0.253698 0.634787 0.532179
O O3 0.661549 0.608276 0.611828
O O4 0.545130 0.665032 0.739026
O O5 0.425261 0.139547 0.629278
O O6 0.634847 0.173771 0.824807
O O7 0.223627 0.103287 0.719635
O O8 0.547740 0.000000 0.757798
O O9 0.000000 0.145658 0.500000
O O10 0.793185 0.124898 0.589120
O O11 0.769639 0.000000 0.472375
O O12 0.186739 0.500000 0.978290
O O13 0.091267 0.643456 0.859500
O O14 0.500000 0.601437 0.000000
O O15 0.245064 0.666407 0.058069
O O16 0.076219 0.500000 0.405035
O O17 0.966874 0.669267 0.325535
O O18 0.369230 0.272297 0.836164
O O19 0.994204 0.191121 0.771304
O O20 0.947734 0.000000 0.730694
#
# Coordination Sequence:
#
# PCOD9144721 Si02
#       8
#     4   4   4   4   4   4   4   4
#     4   9  19  35  51  69  98 130 155 192 252 304
#     4   8  14  24  39  64  97 126 154 193 240 283
#     4   7  10  18  32  52  84 119 142 174 229 277
#     4   9  18  32  46  66 100 131 155 201 262 291
#     4   9  19  35  51  69  98 130 155 192 252 304
#     4  10  19  30  50  74  95 126 169 203 235 285
#     4   8  14  24  39  64  97 126 154 193 240 283
#     4  10  19  30  50  74  95 126 169 203 235 285
#
# _framework density 23.324538
#
# number of rings (size 3 to 8) (size 9 to 14) (size 15 to 20)
#    0.000    3.250    0.000    3.000    1.750    2.000 
#    0.000    2.500    0.000    6.750    0.000    1.750 
#    0.000    2.000    0.000    0.000    0.000    0.000 
#
# Total GULP energy -178667.176360 kJ/mol
# GULP energy per Si atom -5583.349261 kJ/mol
# Density = 2.327145 g / cm^3
# Si number density = 23.324538 Si / 1000 Ang^3
#
#
#
# Elastic Constant Matrix: (Units=GPa)
#
#
# Indices 1 2 3 4 5 6 
#
# 1 65.2255 5.0395 2.1579 0.0000 -11.4781 0.0000
# 2 5.0395 150.7903 87.1225 0.0000 9.9451 0.0000
# 3 2.1579 87.1225 112.0888 0.0000 5.2739 0.0000
# 4 0.0000 0.0000 0.0000 38.0995 0.0000 2.6734
# 5 -11.4781 9.9451 5.2739 0.0000 16.5138 0.0000
# 6 0.0000 0.0000 0.0000 2.6734 0.0000 -52.7868
#
#
#
# Elastic Compliance Matrix: (Units=1/GPa)
#
#
# Indices 1 2 3 4 5 6 
#
# 1 0.017781 -0.001652 0.000318 0.000000 0.013252 0.000000
# 2 -0.001652 0.012503 -0.009420 0.000000 -0.005670 0.000000
# 3 0.000318 -0.009420 0.016203 0.000000 0.000719 0.000000
# 4 0.000000 0.000000 0.000000 0.026154 0.000000 0.001325
# 5 0.013252 -0.005670 0.000719 0.000000 0.072951 0.000000
# 6 0.000000 0.000000 0.000000 0.001325 0.000000 -0.018877
#
#
# Mechanical properties :
#
#
# Convention : Reuss Voigt Hill
#
# Bulk Modulus (GPa) = 40.03227 57.41605 48.72416
# Shear Modulus (GPa) = 31.93875 15.95092 23.94483
#
# Velocity S-wave (km/s) = 3.70445 2.61792 3.20753
# Velocity P-wave (km/s) = 5.95799 5.81443 5.88665
#
# Compressibility (1/GPa) = 0.02497984
#
# Stress axis : x y z
#
# Youngs Moduli (GPa) = 56.24116 79.97789 61.71595
#
# Poissons Ratio (x) = 0.13214 -0.01965
# Poissons Ratio (y) = 0.09292 0.58136
# Poissons Ratio (z) = -0.01790 0.75338
#
# Static dielectric constant tensor:
#      x y z
#    x 1.978950 0.000000 -0.009640 
#    y 0.000000 1.864600 0.000000 
#    z -0.009640 0.000000 1.852850 
# 
# From -- ./inp_files/61871.got.cif
#   From: 2010.05.17/outbox.cif.g08.bks.cpg/sg10_31_cif.got.tgz:61871.got - 2010.06.03 11:33:40.
