data_PCOD9144554
_publ_section_title
;
Structure prediction by ZEFSAII (Michael W. Deem and Ramdas Pophale) SiO2 
 PCOD9144554
Probable space group: P 2/M
;
_chemical_formula_sum "Si O2"
_cell_formula_units_Z 32
_cell_length_a 15.869111
_cell_length_b 7.756893
_cell_length_c 23.529637
_cell_angle_alpha 90.000000
_cell_angle_beta 148.884627
_cell_angle_gamma 90.000000
_cell_volume 1496.742473
_symmetry_space_group_name_H-M "P 2/M"
_symmetry_group_IT_number 10
_symmetry_cell_setting 'monoclinic'
loop_
_space_group_symop_operation_xyz
x,y,z
-x,y,-z
-x,-y,-z
x,-y,z
loop_
_atom_site_type_symbol
_atom_site_label
_atom_site_fract_x
_atom_site_fract_y
_atom_site_fract_z
Si Si1 0.453644 0.702984 0.655838
Si Si2 0.131355 0.210914 0.623223
Si Si3 0.009945 0.696864 0.943297
Si Si4 0.103518 0.793901 0.418307
Si Si5 0.503334 0.207973 0.192387
Si Si6 0.794727 0.805965 0.046920
Si Si7 0.885744 0.789146 0.703334
Si Si8 0.304771 0.202897 0.299007
O O1 0.464359 0.500000 0.657750
O O2 0.265411 0.758977 0.548102
O O3 0.534224 0.753847 0.762814
O O4 0.530522 0.775703 0.641667
O O5 0.313652 0.269930 0.715100
O O6 0.000000 0.263688 0.500000
O O7 0.055068 0.267715 0.639255
O O8 0.135620 0.000000 0.625029
O O9 0.073733 0.500000 0.982012
O O10 0.828784 0.695935 0.814205
O O11 0.116162 0.808458 0.962530
O O12 0.000000 0.769110 0.000000
O O13 0.128216 0.725626 0.368929
O O14 0.088038 0.000000 0.404746
O O15 0.499309 0.000000 0.185267
O O16 0.376750 0.275271 0.071418
O O17 0.939270 0.729634 0.169560
O O18 0.764610 0.000000 0.051131
O O19 0.735903 0.743766 0.659341
O O20 0.890061 0.000000 0.705162
O O21 0.266027 0.000000 0.274489
#
# Coordination Sequence:
#
# PCOD9144554 Si02
#       8
#     4   4   4   4   4   4   4   4
#     4  12  24  35  50  79 112 138 177 226 271 314
#     4   9  16  30  55  84 107 132 175 219 263 317
#     4  10  19  30  46  71 104 138 176 219 265 310
#     4  10  19  36  59  77 103 142 179 216 266 322
#     4  10  19  34  56  81 109 142 176 217 267 320
#     4   9  18  32  51  75 104 138 179 217 256 311
#     4   8  17  34  55  78 103 138 181 220 256 307
#     4  10  20  35  53  74 103 140 181 218 260 314
#
# _framework density 21.379764000000002
#
# number of rings (size 3 to 8) (size 9 to 14) (size 15 to 20)
#    0.000    2.250    1.250    3.375    0.000    4.000 
#    0.000    7.500    0.000    3.750    0.000    0.000 
#    0.000    6.000    0.000    0.000    0.000    0.000 
#
# Total GULP energy -178365.068172 kJ/mol
# GULP energy per Si atom -5573.908380 kJ/mol
# Density = 2.133110 g / cm^3
# Si number density = 21.379764 Si / 1000 Ang^3
#
#
#
# Elastic Constant Matrix: (Units=GPa)
#
#
# Indices 1 2 3 4 5 6 
#
# 1 -137.6445 155.8785 111.7297 0.0000 4.0775 0.0000
# 2 155.8785 -57.5288 -71.3398 0.0000 1.1092 0.0000
# 3 111.7297 -71.3398 14.7196 0.0000 13.6627 0.0000
# 4 0.0000 0.0000 0.0000 54.6450 0.0000 50.8114
# 5 4.0775 1.1092 13.6627 0.0000 32.9597 0.0000
# 6 0.0000 0.0000 0.0000 50.8114 0.0000 170.5530
#
#
#
# Elastic Compliance Matrix: (Units=1/GPa)
#
#
# Indices 1 2 3 4 5 6 
#
# 1 0.004733 0.007763 0.004042 0.000000 -0.002522 0.000000
# 2 0.007763 0.011139 -0.006019 0.000000 0.001160 0.000000
# 3 0.004042 -0.006019 0.013593 0.000000 -0.005932 0.000000
# 4 0.000000 0.000000 0.000000 0.025312 0.000000 -0.007541
# 5 -0.002522 0.001160 -0.005932 0.000000 0.033072 0.000000
# 6 0.000000 0.000000 0.000000 -0.007541 0.000000 0.008110
#
#
# Mechanical properties :
#
#
# Convention : Reuss Voigt Hill
#
# Bulk Modulus (GPa) = 24.36776 23.56478 23.96627
# Shear Modulus (GPa) = 50.98671 26.51673 38.75172
#
# Velocity S-wave (km/s) = 4.88875 3.52557 4.26201
# Velocity P-wave (km/s) = 6.57943 5.25536 5.95431
#
# Compressibility (1/GPa) = 0.04103782
#
# Stress axis : x y z
#
# Youngs Moduli (GPa) = 211.28540 89.77410 73.56856
#
# Poissons Ratio (x) = -0.69696 -0.29735
# Poissons Ratio (y) = -1.64030 0.44279
# Poissons Ratio (z) = -0.85398 0.54033
#
# Static dielectric constant tensor:
#      x y z
#    x 1.796720 0.000000 0.037960 
#    y 0.000000 1.782740 0.000000 
#    z 0.037960 0.000000 1.856820 
# 
# From -- ./inp_files/89639.got.cif
#   From: 2010.05.17/outbox.cif.g08.bks.cpg/sg10_45_cif.got.tgz:89639.got - 2010.06.03 11:33:40.
