data_PCOD9144527
_publ_section_title
;
Structure prediction by ZEFSAII (Michael W. Deem and Ramdas Pophale) SiO2 
 PCOD9144527
Probable space group: P 2/M
;
_chemical_formula_sum "Si O2"
_cell_formula_units_Z 18
_cell_length_a 6.440193
_cell_length_b 22.247663
_cell_length_c 7.681801
_cell_angle_alpha 90.000000
_cell_angle_beta 42.647544
_cell_angle_gamma 90.000000
_cell_volume 745.670582
_symmetry_space_group_name_H-M "P 2/M"
_symmetry_group_IT_number 10
_symmetry_cell_setting 'monoclinic'
loop_
_space_group_symop_operation_xyz
x,y,z
-x,y,-z
-x,-y,-z
x,-y,z
loop_
_atom_site_type_symbol
_atom_site_label
_atom_site_fract_x
_atom_site_fract_y
_atom_site_fract_z
Si Si1 0.146064 0.241289 0.089745
Si Si2 0.869421 0.370569 0.775528
Si Si3 0.870973 0.500000 0.776856
Si Si4 0.343588 0.187602 0.401935
Si Si5 0.632072 0.933986 0.222390
O O1 0.036168 0.309038 0.190776
O O2 0.005279 0.198574 0.324995
O O3 0.502034 0.237981 0.816526
O O4 0.000000 0.219307 0.000000
O O5 0.967936 0.435309 0.793663
O O6 0.000000 0.368203 0.500000
O O7 0.500000 0.370307 0.000000
O O8 0.000000 0.500000 0.500000
O O9 0.500000 0.500000 0.000000
O O10 0.500000 0.192308 0.500000
O O11 0.451681 0.123380 0.260203
O O12 0.500000 0.937459 0.500000
O O13 0.578231 0.000000 0.174256
O O14 0.000000 0.924392 0.000000
#
# Coordination Sequence:
#
# PCOD9144527 Si02
#       5
#     4   4   2   4   4
#     4  10  19  30  46  68  96 125 152 185 232 281
#     4  10  19  33  51  71  93 120 156 193 229 272
#     4   8  16  30  49  68  89 118 150 188 232 272
#     4   9  16  27  41  61  92 125 151 182 230 278
#     4   9  15  23  37  58  86 121 156 187 223 270
#
# _framework density 24.139343
#
# number of rings (size 3 to 8) (size 9 to 14) (size 15 to 20)
#    0.000    2.667    0.000    4.667    0.000    0.000 
#    0.000    0.556    0.000    0.000    0.000   14.000 
#    0.000   17.778    0.000    0.000    0.000    0.000 
#
# Total GULP energy -100383.242534 kJ/mol
# GULP energy per Si atom -5576.846807 kJ/mol
# Density = 2.408440 g / cm^3
# Si number density = 24.139343 Si / 1000 Ang^3
#
#
#
# Elastic Constant Matrix: (Units=GPa)
#
#
# Indices 1 2 3 4 5 6 
#
# 1 26.2370 -6.9606 33.7360 0.0000 -6.6041 0.0000
# 2 -6.9606 217.1845 57.0278 0.0000 11.1784 0.0000
# 3 33.7360 57.0278 202.4120 0.0000 -13.2121 0.0000
# 4 0.0000 0.0000 0.0000 40.9185 0.0000 -0.5760
# 5 -6.6041 11.1784 -13.2121 0.0000 37.3573 0.0000
# 6 0.0000 0.0000 0.0000 -0.5760 0.0000 12.6646
#
#
#
# Elastic Compliance Matrix: (Units=1/GPa)
#
#
# Indices 1 2 3 4 5 6 
#
# 1 0.052687 0.003962 -0.009588 0.000000 0.004737 0.000000
# 2 0.003962 0.005425 -0.002302 0.000000 -0.001737 0.000000
# 3 -0.009588 -0.002302 0.007290 0.000000 0.001572 0.000000
# 4 0.000000 0.000000 0.000000 0.024454 0.000000 0.001112
# 5 0.004737 -0.001737 0.001572 0.000000 0.028682 0.000000
# 6 0.000000 0.000000 0.000000 0.001112 0.000000 0.079011
#
#
# Mechanical properties :
#
#
# Convention : Reuss Voigt Hill
#
# Bulk Modulus (GPa) = 20.18354 68.15999 44.17176
# Shear Modulus (GPa) = 21.74659 42.32343 32.03501
#
# Velocity S-wave (km/s) = 3.00472 4.19178 3.64687
# Velocity P-wave (km/s) = 4.51854 7.19204 6.00594
#
# Compressibility (1/GPa) = 0.04954532
#
# Stress axis : x y z
#
# Youngs Moduli (GPa) = 18.98004 184.32030 137.17768
#
# Poissons Ratio (x) = -0.73037 1.31533
# Poissons Ratio (y) = -0.07521 0.31583
# Poissons Ratio (z) = 0.18199 0.42437
#
# Static dielectric constant tensor:
#      x y z
#    x 2.058780 0.000000 -0.014880 
#    y 0.000000 2.001790 0.000000 
#    z -0.014880 0.000000 1.910100 
# 
# From -- ./inp_files/7967.got.cif
#   From: 2010.05.17/outbox.cif.g08.bks.cpg/sg10_4_cif.got.tgz:7967.got - 2010.06.03 11:33:40.
