data_PCOD9144342
_publ_section_title
;
Structure prediction by ZEFSAII (Michael W. Deem and Ramdas Pophale) SiO2 
 PCOD9144342
Probable space group: P 2/M
;
_chemical_formula_sum "Si O2"
_cell_formula_units_Z 28
_cell_length_a 14.166334
_cell_length_b 8.980065
_cell_length_c 14.351523
_cell_angle_alpha 90.000000
_cell_angle_beta 120.335528
_cell_angle_gamma 90.000000
_cell_volume 1575.749863
_symmetry_space_group_name_H-M "P 2/M"
_symmetry_group_IT_number 10
_symmetry_cell_setting 'monoclinic'
loop_
_space_group_symop_operation_xyz
x,y,z
-x,y,-z
-x,-y,-z
x,-y,z
loop_
_atom_site_type_symbol
_atom_site_label
_atom_site_fract_x
_atom_site_fract_y
_atom_site_fract_z
Si Si1 0.362357 0.679363 0.834436
Si Si2 0.618350 0.319754 0.950590
Si Si3 0.166117 0.178458 0.635539
Si Si4 0.567109 0.831154 0.436110
Si Si5 0.055359 0.178883 0.382906
Si Si6 0.634455 0.679693 0.756302
Si Si7 0.762956 0.677913 0.634961
O O1 0.355045 0.500000 0.825895
O O2 0.489430 0.719041 0.883243
O O3 0.279723 0.748793 0.719975
O O4 0.334676 0.730360 0.926674
O O5 0.623045 0.500000 0.955878
O O6 0.668921 0.272534 0.877301
O O7 0.119970 0.217747 0.510674
O O8 0.070241 0.221534 0.660780
O O9 0.175934 0.000000 0.642740
O O10 0.500000 0.838239 0.500000
O O11 0.484257 0.747926 0.326260
O O12 0.676602 0.743945 0.517239
O O13 0.591541 0.000000 0.417911
O O14 0.119149 0.257009 0.331354
O O15 0.060448 0.000000 0.375155
O O16 0.624308 0.500000 0.749387
O O17 0.716822 0.721545 0.714030
O O18 0.762915 0.500000 0.629088
#
# Coordination Sequence:
#
# PCOD9144342 Si02
#       7
#     4   4   4   4   4   4   4
#     4   9  17  31  52  74  95 123 159 197 235 280
#     4   8  16  31  49  71  99 128 156 189 237 285
#     4   9  19  35  52  70  94 124 156 196 244 286
#     4   9  17  28  41  61  92 128 161 189 225 276
#     4   9  19  35  51  68  95 128 157 190 241 294
#     4   9  17  30  46  66  96 129 159 193 233 278
#     4  10  19  29  45  69  95 124 160 199 232 272
#
# _framework density 17.769317999999998
#
# number of rings (size 3 to 8) (size 9 to 14) (size 15 to 20)
#    0.000    3.000    0.000    2.571    2.000    3.429 
#    0.000    3.571    0.000    0.857    0.000    6.000 
#    0.000    0.000    0.000    0.000    0.000    0.000 
#
# Total GULP energy -156022.929729 kJ/mol
# GULP energy per Si atom -5572.247490 kJ/mol
# Density = 1.772887 g / cm^3
# Si number density = 17.769318 Si / 1000 Ang^3
#
#
#
# Elastic Constant Matrix: (Units=GPa)
#
#
# Indices 1 2 3 4 5 6 
#
# 1 60.2979 14.7916 -2.7544 0.0000 -11.5541 0.0000
# 2 14.7916 17.1774 3.5436 0.0000 -2.7831 0.0000
# 3 -2.7544 3.5436 36.4644 0.0000 -6.5412 0.0000
# 4 0.0000 0.0000 0.0000 11.9619 0.0000 0.4899
# 5 -11.5541 -2.7831 -6.5412 0.0000 26.4724 0.0000
# 6 0.0000 0.0000 0.0000 0.4899 0.0000 28.2103
#
#
#
# Elastic Compliance Matrix: (Units=1/GPa)
#
#
# Indices 1 2 3 4 5 6 
#
# 1 0.023519 -0.019826 0.005411 0.000000 0.009517 0.000000
# 2 -0.019826 0.076771 -0.009483 0.000000 -0.002925 0.000000
# 3 0.005411 -0.009483 0.030344 0.000000 0.008862 0.000000
# 4 0.000000 0.000000 0.000000 0.083658 0.000000 -0.001453
# 5 0.009517 -0.002925 0.008862 0.000000 0.043811 0.000000
# 6 0.000000 0.000000 0.000000 -0.001453 0.000000 0.035473
#
#
# Mechanical properties :
#
#
# Convention : Reuss Voigt Hill
#
# Bulk Modulus (GPa) = 12.07200 16.12237 14.09719
# Shear Modulus (GPa) = 13.55066 19.88619 16.71842
#
# Velocity S-wave (km/s) = 2.76449 3.34897 3.07067
# Velocity P-wave (km/s) = 4.12291 4.90377 4.53020
#
# Compressibility (1/GPa) = 0.08283630
#
# Stress axis : x y z
#
# Youngs Moduli (GPa) = 42.51931 13.02577 32.95544
#
# Poissons Ratio (x) = 0.25825 -0.17831
# Poissons Ratio (y) = 0.84300 0.31251
# Poissons Ratio (z) = -0.23005 0.12352
#
# Static dielectric constant tensor:
#      x y z
#    x 1.638370 0.000000 -0.040840 
#    y 0.000000 1.596360 0.000000 
#    z -0.040840 0.000000 1.606250 
# 
# From -- ./inp_files/49636.got.cif
#   From: 2010.05.17/outbox.cif.g08.bks.cpg/sg10_25_cif.got.tgz:49636.got - 2010.06.03 11:33:40.
