data_PCOD9144706
_publ_section_title
;
Structure prediction by ZEFSAII (Michael W. Deem and Ramdas Pophale) SiO2 
 PCOD9144706
Probable space group: P 2/M
;
_chemical_formula_sum "Si O2"
_cell_formula_units_Z 30
_cell_length_a 13.018963
_cell_length_b 14.986059
_cell_length_c 21.004418
_cell_angle_alpha 90.000000
_cell_angle_beta 22.821901
_cell_angle_gamma 90.000000
_cell_volume 1589.492055
_symmetry_space_group_name_H-M "P 2/M"
_symmetry_group_IT_number 10
_symmetry_cell_setting 'monoclinic'
loop_
_space_group_symop_operation_xyz
x,y,z
-x,y,-z
-x,-y,-z
x,-y,z
loop_
_atom_site_type_symbol
_atom_site_label
_atom_site_fract_x
_atom_site_fract_y
_atom_site_fract_z
Si Si1 0.000051 0.104582 0.841810
Si Si2 0.458593 0.893755 0.794427
Si Si3 0.963176 0.257675 0.384846
Si Si4 0.000000 0.783000 0.500000
Si Si5 0.884078 0.601342 0.330117
Si Si6 0.343977 0.781500 0.737942
Si Si7 0.188492 0.900782 0.189760
Si Si8 0.262913 0.602250 0.727090
O O1 0.952143 0.127271 0.795640
O O2 0.216965 0.163637 0.752836
O O3 0.073079 0.000000 0.803254
O O4 0.727424 0.114279 0.037327
O O5 0.741359 0.846294 0.643021
O O6 0.317907 0.838873 0.817377
O O7 0.483606 0.000000 0.765437
O O8 0.028319 0.332162 0.295652
O O9 0.657788 0.230298 0.549609
O O10 0.003284 0.278761 0.435619
O O11 0.129344 0.169503 0.277169
O O12 0.979931 0.500000 0.281408
O O13 0.574569 0.601312 0.529040
O O14 0.886314 0.625123 0.253983
O O15 0.227801 0.680886 0.798519
O O16 0.095577 0.000000 0.260154
O O17 0.500000 0.904539 0.000000
O O18 0.196533 0.500000 0.783776
#
# Coordination Sequence:
#
# PCOD9144706 Si02
#       8
#     4   4   4   2   4   4   4   4
#     4  10  20  33  49  70  98 131 164 200 247 297
#     4  10  20  34  51  70  97 134 173 206 240 289
#     4  10  20  33  50  74 100 125 162 207 247 292
#     4  10  21  34  51  72  96 130 171 208 243 284
#     4   8  14  27  48  72  98 127 158 195 242 295
#     4  10  19  30  49  77 103 127 158 201 251 295
#     4  10  21  35  50  69  95 131 171 207 243 286
#     4   8  14  26  46  72 100 129 159 192 237 295
#
# _framework density 18.873953
#
# number of rings (size 3 to 8) (size 9 to 14) (size 15 to 20)
#    0.000    2.533    0.000    3.400    0.000    6.933 
#    0.000    1.667    0.000    2.800    0.000    1.867 
#    0.000    0.000    0.000    0.000    0.000    0.000 
#
# Total GULP energy -167247.506384 kJ/mol
# GULP energy per Si atom -5574.916879 kJ/mol
# Density = 1.883100 g / cm^3
# Si number density = 18.873953 Si / 1000 Ang^3
#
#
#
# Elastic Constant Matrix: (Units=GPa)
#
#
# Indices 1 2 3 4 5 6 
#
# 1 78.0271 37.2338 7.2188 0.0000 -14.0242 0.0000
# 2 37.2338 62.1607 5.7570 0.0000 0.6074 0.0000
# 3 7.2188 5.7570 11.3777 0.0000 -3.4650 0.0000
# 4 0.0000 0.0000 0.0000 27.1860 0.0000 -9.6388
# 5 -14.0242 0.6074 -3.4650 0.0000 18.0982 0.0000
# 6 0.0000 0.0000 0.0000 -9.6388 0.0000 39.7773
#
#
#
# Elastic Compliance Matrix: (Units=1/GPa)
#
#
# Indices 1 2 3 4 5 6 
#
# 1 0.022630 -0.013527 -0.002161 0.000000 0.017576 0.000000
# 2 -0.013527 0.025057 -0.008012 0.000000 -0.012857 0.000000
# 3 -0.002161 -0.008012 0.098640 0.000000 0.017480 0.000000
# 4 0.000000 0.000000 0.000000 0.040241 0.000000 0.009751
# 5 0.017576 -0.012857 0.017480 0.000000 0.072652 0.000000
# 6 0.000000 0.000000 0.000000 0.009751 0.000000 0.027503
#
#
# Mechanical properties :
#
#
# Convention : Reuss Voigt Hill
#
# Bulk Modulus (GPa) = 10.10840 27.99832 19.05336
# Shear Modulus (GPa) = 13.62037 23.76935 18.69486
#
# Velocity S-wave (km/s) = 2.68927 3.55261 3.15065
# Velocity P-wave (km/s) = 3.87431 5.62980 4.83244
#
# Compressibility (1/GPa) = 0.09892762
#
# Stress axis : x y z
#
# Youngs Moduli (GPa) = 44.18948 39.90837 10.13792
#
# Poissons Ratio (x) = 0.53983 0.02191
# Poissons Ratio (y) = 0.59774 0.08122
# Poissons Ratio (z) = 0.09549 0.31974
#
# Static dielectric constant tensor:
#      x y z
#    x 1.670630 0.000000 0.010260 
#    y 0.000000 1.665360 0.000000 
#    z 0.010260 0.000000 1.647520 
# 
# From -- ./inp_files/89795.got.cif
#   From: 2010.05.17/outbox.cif.g08.bks.cpg/sg10_45_cif.got.tgz:89795.got - 2010.06.03 11:33:40.
