data_PCOD9144202
_publ_section_title
;
Structure prediction by ZEFSAII (Michael W. Deem and Ramdas Pophale) SiO2 
 PCOD9144202
Probable space group: P 2/M
;
_chemical_formula_sum "Si O2"
_cell_formula_units_Z 30
_cell_length_a 12.663474
_cell_length_b 26.182891
_cell_length_c 5.397880
_cell_angle_alpha 90.000000
_cell_angle_beta 66.522080
_cell_angle_gamma 90.000000
_cell_volume 1641.588140
_symmetry_space_group_name_H-M "P 2/M"
_symmetry_group_IT_number 10
_symmetry_cell_setting 'monoclinic'
loop_
_space_group_symop_operation_xyz
x,y,z
-x,y,-z
-x,-y,-z
x,-y,z
loop_
_atom_site_type_symbol
_atom_site_label
_atom_site_fract_x
_atom_site_fract_y
_atom_site_fract_z
Si Si1 0.385750 0.303763 0.747285
Si Si2 0.216462 0.353702 0.564659
Si Si3 0.423741 0.943186 0.320887
Si Si4 0.000000 0.624687 0.500000
Si Si5 0.841818 0.442129 0.006201
Si Si6 0.364547 0.207545 0.089626
Si Si7 0.360935 0.159652 0.585629
Si Si8 0.618052 0.406235 0.972048
O O1 0.500000 0.284085 0.500000
O O2 0.271535 0.311481 0.690156
O O3 0.360317 0.265469 0.995569
O O4 0.413586 0.361190 0.807584
O O5 0.101923 0.341010 0.519250
O O6 0.319884 0.373909 0.299835
O O7 0.176998 0.404219 0.749299
O O8 0.500000 0.947250 0.500000
O O9 0.343253 0.895834 0.474057
O O10 0.372892 0.000000 0.326462
O O11 0.500000 0.931833 0.000000
O O12 0.934405 0.586830 0.749962
O O13 0.872685 0.500000 0.038283
O O14 0.718135 0.441378 0.984644
O O15 0.318534 0.197809 0.408992
O O16 0.500000 0.195064 0.000000
O O17 0.317160 0.173542 0.902894
O O18 0.500000 0.163346 0.500000
O O19 0.500000 0.431853 0.000000
#
# Coordination Sequence:
#
# PCOD9144202 Si02
#       8
#     4   4   4   2   4   4   4   4
#     4  11  20  31  51  70  96 125 161 196 247 298
#     4  10  22  36  54  77  99 127 157 200 237 292
#     4   9  15  22  33  47  70 108 151 199 251 294
#     4  10  21  40  60  76  98 122 158 196 243 282
#     4  10  22  37  57  80  99 123 155 196 242 288
#     4  10  19  27  42  64  89 122 157 203 253 295
#     4   9  16  26  36  56  85 113 156 206 251 295
#     4  10  20  35  52  73 103 131 159 189 237 295
#
# _framework density 18.274985999999998
#
# number of rings (size 3 to 8) (size 9 to 14) (size 15 to 20)
#    0.000    2.133    1.333    4.200    1.867    3.467 
#    0.000    0.667    0.000    0.000    0.000    0.000 
#    0.000    0.000    0.000    0.000    0.000    0.000 
#
# Total GULP energy -167046.995820 kJ/mol
# GULP energy per Si atom -5568.233194 kJ/mol
# Density = 1.823339 g / cm^3
# Si number density = 18.274986 Si / 1000 Ang^3
#
#
#
# Elastic Constant Matrix: (Units=GPa)
#
#
# Indices 1 2 3 4 5 6 
#
# 1 107.3095 17.7676 28.6386 0.0000 2.4257 0.0000
# 2 17.7676 95.1220 20.0244 0.0000 12.0441 0.0000
# 3 28.6386 20.0244 81.5363 0.0000 17.8242 0.0000
# 4 0.0000 0.0000 0.0000 147.4082 0.0000 95.9655
# 5 2.4257 12.0441 17.8242 0.0000 23.2807 0.0000
# 6 0.0000 0.0000 0.0000 95.9655 0.0000 68.2268
#
#
#
# Elastic Compliance Matrix: (Units=1/GPa)
#
#
# Indices 1 2 3 4 5 6 
#
# 1 0.010552 -0.001483 -0.003927 0.000000 0.002674 0.000000
# 2 -0.001483 0.011680 -0.001274 0.000000 -0.004913 0.000000
# 3 -0.003927 -0.001274 0.016481 0.000000 -0.011550 0.000000
# 4 0.000000 0.000000 0.000000 0.080474 0.000000 -0.113193
# 5 0.002674 -0.004913 -0.011550 0.000000 0.054060 0.000000
# 6 0.000000 0.000000 0.000000 -0.113193 0.000000 0.173870
#
#
# Mechanical properties :
#
#
# Convention : Reuss Voigt Hill
#
# Bulk Modulus (GPa) = 39.45247 46.31436 42.88341
# Shear Modulus (GPa) = 13.55259 62.28562 37.91911
#
# Velocity S-wave (km/s) = 2.72617 5.84435 4.56007
# Velocity P-wave (km/s) = 5.61645 8.42259 7.15837
#
# Compressibility (1/GPa) = 0.02534696
#
# Stress axis : x y z
#
# Youngs Moduli (GPa) = 94.77013 85.61658 60.67453
#
# Poissons Ratio (x) = 0.12696 0.23824
# Poissons Ratio (y) = 0.14054 0.07728
# Poissons Ratio (z) = 0.37212 0.10904
#
# Static dielectric constant tensor:
#      x y z
#    x 1.668680 0.000000 0.020000 
#    y 0.000000 1.675940 0.000000 
#    z 0.020000 0.000000 1.811190 
# 
# From -- ./inp_files/8128.got.cif
#   From: 2010.05.17/outbox.cif.g08.bks.cpg/sg10_5_cif.got.tgz:8128.got - 2010.06.03 11:33:40.
