data_PCOD9144390
_publ_section_title
;
Structure prediction by ZEFSAII (Michael W. Deem and Ramdas Pophale) SiO2 
 PCOD9144390
Probable space group: P 2/M
;
_chemical_formula_sum "Si O2"
_cell_formula_units_Z 26
_cell_length_a 24.706229
_cell_length_b 15.223242
_cell_length_c 22.173787
_cell_angle_alpha 90.000000
_cell_angle_beta 168.988778
_cell_angle_gamma 90.000000
_cell_volume 1592.904371
_symmetry_space_group_name_H-M "P 2/M"
_symmetry_group_IT_number 10
_symmetry_cell_setting 'monoclinic'
loop_
_space_group_symop_operation_xyz
x,y,z
-x,y,-z
-x,-y,-z
x,-y,z
loop_
_atom_site_type_symbol
_atom_site_label
_atom_site_fract_x
_atom_site_fract_y
_atom_site_fract_z
Si Si1 0.541433 0.217134 0.753848
Si Si2 0.726001 0.362349 0.798381
Si Si3 0.668023 0.893828 0.011457
Si Si4 0.617044 0.597274 0.456974
Si Si5 0.314810 0.105816 0.741591
Si Si6 0.824298 0.000000 0.870521
Si Si7 0.104783 0.177422 0.978443
O O1 0.496230 0.322912 0.708691
O O2 0.229415 0.190282 0.391678
O O3 0.617913 0.164272 0.897556
O O4 0.758459 0.189173 0.938322
O O5 0.500000 0.389329 0.500000
O O6 0.583497 0.394011 0.704212
O O7 0.754136 0.256519 0.829489
O O8 0.056431 0.391740 0.162239
O O9 0.982419 0.875298 0.380600
O O10 0.648311 0.000000 0.977479
O O11 0.444594 0.869449 0.818975
O O12 0.593526 0.500000 0.404461
O O13 0.339139 0.000000 0.770191
O O14 0.500000 0.140566 0.000000
O O15 0.500000 0.000000 0.500000
O O16 0.865461 0.914554 0.956394
O O17 0.000000 0.000000 0.000000
#
# Coordination Sequence:
#
# PCOD9144390 Si02
#       7
#     4   4   4   4   4   2   4
#     4  10  21  36  50  72  99 127 164 202 244 286
#     4  10  20  34  51  71  93 118 153 199 255 310
#     4  10  19  29  49  73  98 134 166 195 227 281
#     4  10  21  35  51  71  95 123 154 200 255 301
#     4   9  17  30  46  71 104 135 163 194 230 267
#     4  12  24  36  52  70  90 126 173 204 243 300
#     4  10  22  35  50  67  95 128 157 210 248 286
#
# _framework density 16.322386999999999
#
# number of rings (size 3 to 8) (size 9 to 14) (size 15 to 20)
#    0.000    2.000    0.000    3.692    2.154    6.154 
#    0.000    0.000    0.000    0.000    0.000    0.000 
#    0.000    3.692    0.000    0.000    0.000    0.000 
#
# Total GULP energy -144859.694744 kJ/mol
# GULP energy per Si atom -5571.526721 kJ/mol
# Density = 1.628524 g / cm^3
# Si number density = 16.322387 Si / 1000 Ang^3
#
#
#
# Elastic Constant Matrix: (Units=GPa)
#
#
# Indices 1 2 3 4 5 6 
#
# 1 245.3631 39.0190 247.0677 0.0000 33.9457 0.0000
# 2 39.0190 111.1979 35.0916 0.0000 -6.0372 0.0000
# 3 247.0677 35.0916 304.4487 0.0000 42.6402 0.0000
# 4 0.0000 0.0000 0.0000 8.5947 0.0000 -3.3945
# 5 33.9457 -6.0372 42.6402 0.0000 39.3031 0.0000
# 6 0.0000 0.0000 0.0000 -3.3945 0.0000 -15.5248
#
#
#
# Elastic Compliance Matrix: (Units=1/GPa)
#
#
# Indices 1 2 3 4 5 6 
#
# 1 0.022821 -0.002275 -0.018216 0.000000 -0.000297 0.000000
# 2 -0.002275 0.009884 0.000259 0.000000 0.003203 0.000000
# 3 -0.018216 0.000259 0.018664 0.000000 -0.004476 0.000000
# 4 0.000000 0.000000 0.000000 0.107102 0.000000 -0.023418
# 5 -0.000297 0.003203 -0.004476 0.000000 0.031049 0.000000
# 6 0.000000 0.000000 0.000000 -0.023418 0.000000 -0.059293
#
#
# Mechanical properties :
#
#
# Convention : Reuss Voigt Hill
#
# Bulk Modulus (GPa) = 91.70967 144.81846 118.26407
# Shear Modulus (GPa) = 28.68173 29.13002 28.90587
#
# Velocity S-wave (km/s) = 4.19645 4.22911 4.21281
# Velocity P-wave (km/s) = 8.93245 10.61902 9.81204
#
# Compressibility (1/GPa) = 0.01090398
#
# Stress axis : x y z
#
# Youngs Moduli (GPa) = 43.81907 101.17746 53.57765
#
# Poissons Ratio (x) = 0.23022 0.97597
# Poissons Ratio (y) = 0.09971 -0.01387
# Poissons Ratio (z) = 0.79821 -0.02618
#
# Static dielectric constant tensor:
#      x y z
#    x 1.537550 0.000000 0.019000 
#    y 0.000000 1.395130 0.000000 
#    z 0.019000 0.000000 1.534120 
# 
# From -- ./inp_files/13281.got.cif
#   From: 2010.05.17/outbox.cif.g08.bks.cpg/sg10_7_cif.got.tgz:13281.got - 2010.06.03 11:33:40.
