data_PCOD9144402
_publ_section_title
;
Structure prediction by ZEFSAII (Michael W. Deem and Ramdas Pophale) SiO2 
 PCOD9144402
Probable space group: P 2/M
;
_chemical_formula_sum "Si O2"
_cell_formula_units_Z 28
_cell_length_a 7.950990
_cell_length_b 13.888588
_cell_length_c 15.353127
_cell_angle_alpha 90.000000
_cell_angle_beta 42.403648
_cell_angle_gamma 90.000000
_cell_volume 1143.302418
_symmetry_space_group_name_H-M "P 2/M"
_symmetry_group_IT_number 10
_symmetry_cell_setting 'monoclinic'
loop_
_space_group_symop_operation_xyz
x,y,z
-x,y,-z
-x,-y,-z
x,-y,z
loop_
_atom_site_type_symbol
_atom_site_label
_atom_site_fract_x
_atom_site_fract_y
_atom_site_fract_z
Si Si1 0.384764 0.887251 0.445813
Si Si2 0.705080 0.390277 0.092276
Si Si3 0.561888 0.615478 0.337304
Si Si4 0.615197 0.192750 0.050434
Si Si5 0.911167 0.385847 0.360729
Si Si6 0.112344 0.191647 0.303959
Si Si7 0.095945 0.115415 0.801633
O O1 0.500000 0.878761 0.500000
O O2 0.618232 0.848588 0.300335
O O3 0.112876 0.839770 0.546983
O O4 0.348032 0.000000 0.442168
O O5 0.626697 0.500000 0.099435
O O6 0.584642 0.356348 0.229437
O O7 0.656051 0.307356 0.041915
O O8 0.000000 0.394165 0.000000
O O9 0.571787 0.500000 0.330860
O O10 0.307991 0.636121 0.485752
O O11 0.791165 0.640090 0.312996
O O12 0.398030 0.157879 0.199472
O O13 0.500000 0.169906 0.000000
O O14 0.888287 0.146784 0.950154
O O15 0.970465 0.500000 0.342067
O O16 0.120092 0.307854 0.298573
O O17 0.009077 0.152993 0.250736
O O18 0.107395 0.000000 0.793584
#
# Coordination Sequence:
#
# PCOD9144402 Si02
#       7
#     4   4   4   4   4   4   4
#     4   8  15  28  49  80 114 143 186 245 294 342
#     4  10  22  39  59  82 117 168 213 246 286 352
#     4   8  17  33  53  79 110 150 200 240 286 337
#     4  10  23  37  54  88 123 159 199 245 306 357
#     4   9  18  31  53  87 118 148 188 242 294 348
#     4  10  19  29  52  87 121 148 186 243 307 344
#     4   9  19  35  55  82 118 156 198 247 298 360
#
# _framework density 24.490458
#
# number of rings (size 3 to 8) (size 9 to 14) (size 15 to 20)
#    0.000    2.857    0.000    2.143   10.000    4.000 
#    0.000    0.714    0.000    3.000    0.000    2.000 
#    0.000   13.714    0.000    0.000    0.000    0.000 
#
# Total GULP energy -156350.177046 kJ/mol
# GULP energy per Si atom -5583.934895 kJ/mol
# Density = 2.443472 g / cm^3
# Si number density = 24.490458 Si / 1000 Ang^3
#
#
#
# Elastic Constant Matrix: (Units=GPa)
#
#
# Indices 1 2 3 4 5 6 
#
# 1 60.8707 5.8602 58.5634 0.0000 2.2815 0.0000
# 2 5.8602 91.9168 51.3472 0.0000 -15.9871 0.0000
# 3 58.5634 51.3472 147.6462 0.0000 -57.2513 0.0000
# 4 0.0000 0.0000 0.0000 5.2424 0.0000 6.6208
# 5 2.2815 -15.9871 -57.2513 0.0000 27.0377 0.0000
# 6 0.0000 0.0000 0.0000 6.6208 0.0000 -7.7637
#
#
#
# Elastic Compliance Matrix: (Units=1/GPa)
#
#
# Indices 1 2 3 4 5 6 
#
# 1 -0.009217 -0.004522 0.025110 0.000000 0.051274 0.000000
# 2 -0.004522 0.011891 0.002976 0.000000 0.013713 0.000000
# 3 0.025110 0.002976 -0.024373 0.000000 -0.051968 0.000000
# 4 0.000000 0.000000 0.000000 0.091840 0.000000 0.078320
# 5 0.051274 0.013713 -0.051968 0.000000 -0.069272 0.000000
# 6 0.000000 0.000000 0.000000 0.078320 0.000000 -0.062015
#
#
# Mechanical properties :
#
#
# Convention : Reuss Voigt Hill
#
# Bulk Modulus (GPa) = 39.32406 59.10837 49.21622
# Shear Modulus (GPa) = -50.10139 17.21415 -16.44362
#
# Velocity S-wave (km/s) = -4.52791 2.65409 -2.59401
# Velocity P-wave (km/s) = 3.35323 5.79482 3.34184
#
# Compressibility (1/GPa) = 0.02542972
#
# Stress axis : x y z
#
# Youngs Moduli (GPa) = -108.49965 84.10048 -41.02948
#
# Poissons Ratio (x) = 0.38026 1.03026
# Poissons Ratio (y) = -0.49058 0.12209
# Poissons Ratio (z) = 2.72445 -0.25025
#
# Static dielectric constant tensor:
#      x y z
#    x 1.909110 0.000000 0.019810 
#    y 0.000000 1.917370 0.000000 
#    z 0.019810 0.000000 2.089210 
# 
# From -- ./inp_files/75283.got.cif
#   From: 2010.05.17/outbox.cif.g08.bks.cpg/sg10_38_cif.got.tgz:75283.got - 2010.06.03 11:33:40.
