data_PCOD9144304
_publ_section_title
;
Structure prediction by ZEFSAII (Michael W. Deem and Ramdas Pophale) SiO2 
 PCOD9144304
Probable space group: P 2/M
;
_chemical_formula_sum "Si O2"
_cell_formula_units_Z 32
_cell_length_a 25.583375
_cell_length_b 7.703034
_cell_length_c 14.910209
_cell_angle_alpha 90.000000
_cell_angle_beta 154.095450
_cell_angle_gamma 90.000000
_cell_volume 1283.686013
_symmetry_space_group_name_H-M "P 2/M"
_symmetry_group_IT_number 10
_symmetry_cell_setting 'monoclinic'
loop_
_space_group_symop_operation_xyz
x,y,z
-x,y,-z
-x,-y,-z
x,-y,z
loop_
_atom_site_type_symbol
_atom_site_label
_atom_site_fract_x
_atom_site_fract_y
_atom_site_fract_z
Si Si1 0.300316 0.212167 0.875825
Si Si2 0.836368 0.206242 0.156459
Si Si3 0.546839 0.190729 0.326741
Si Si4 0.158247 0.789522 0.343880
Si Si5 0.029194 0.801008 0.801328
Si Si6 0.586482 0.699929 0.716704
Si Si7 0.197489 0.695273 0.209465
Si Si8 0.637239 0.788909 0.217525
O O1 0.209899 0.270452 0.816194
O O2 0.281335 0.260165 0.743080
O O3 0.301767 0.000000 0.883951
O O4 0.439896 0.270966 0.102884
O O5 0.941946 0.273432 0.253460
O O6 0.856703 0.000000 0.198792
O O7 0.721873 0.242278 0.916779
O O8 0.468402 0.176286 0.295029
O O9 0.665798 0.275992 0.549106
O O10 0.578297 0.000000 0.338892
O O11 0.133166 0.726970 0.205177
O O12 0.291569 0.737873 0.582968
O O13 0.068580 0.722880 0.281985
O O14 0.150389 0.000000 0.329351
O O15 0.991133 0.000000 0.725241
O O16 0.144244 0.805254 0.045999
O O17 0.500000 0.707340 0.500000
O O18 0.586309 0.500000 0.748402
O O19 0.183709 0.500000 0.156601
O O20 0.633106 0.000000 0.209722
O O21 0.500000 0.728819 0.000000
#
# Coordination Sequence:
#
# PCOD9144304 Si02
#       8
#     4   4   4   4   4   4   4   4
#     4   8  15  29  51  80 110 139 175 219 266 316
#     4   9  18  32  50  72 102 142 183 222 267 317
#     4  10  19  32  52  76 105 141 177 215 262 317
#     4  10  21  37  57  80 105 138 181 225 271 325
#     4  10  21  37  55  76 105 142 185 228 268 319
#     4  10  19  29  43  69 104 138 176 221 264 310
#     4  12  24  36  53  78 108 142 180 225 276 327
#     4   9  16  29  54  85 111 136 172 219 270 324
#
# _framework density 24.928215999999999
#
# number of rings (size 3 to 8) (size 9 to 14) (size 15 to 20)
#    0.000    2.250    0.000    4.500    0.000    7.500 
#    0.000    0.625    0.000   10.125    0.000    0.000 
#    0.000    6.000    0.000    0.000    0.000    0.000 
#
# Total GULP energy -178366.682646 kJ/mol
# GULP energy per Si atom -5573.958833 kJ/mol
# Density = 2.487148 g / cm^3
# Si number density = 24.928216 Si / 1000 Ang^3
#
#
#
# Elastic Constant Matrix: (Units=GPa)
#
#
# Indices 1 2 3 4 5 6 
#
# 1 130.2374 6.3662 7.4531 0.0000 8.4811 0.0000
# 2 6.3662 30.3177 -1.3732 0.0000 -3.2052 0.0000
# 3 7.4531 -1.3732 25.8192 0.0000 -2.6170 0.0000
# 4 0.0000 0.0000 0.0000 17.3506 0.0000 -50.5582
# 5 8.4811 -3.2052 -2.6170 0.0000 37.9195 0.0000
# 6 0.0000 0.0000 0.0000 -50.5582 0.0000 25.8426
#
#
#
# Elastic Compliance Matrix: (Units=1/GPa)
#
#
# Indices 1 2 3 4 5 6 
#
# 1 0.008071 -0.002044 -0.002658 0.000000 -0.002161 0.000000
# 2 -0.002044 0.033909 0.002750 0.000000 0.003513 0.000000
# 3 -0.002658 0.002750 0.040008 0.000000 0.003588 0.000000
# 4 0.000000 0.000000 0.000000 -0.012261 0.000000 -0.023987
# 5 -0.002161 0.003513 0.003588 0.000000 0.027400 0.000000
# 6 0.000000 0.000000 0.000000 -0.023987 0.000000 -0.008232
#
#
# Mechanical properties :
#
#
# Convention : Reuss Voigt Hill
#
# Bulk Modulus (GPa) = 12.80663 23.47405 18.14034
# Shear Modulus (GPa) = 42.07815 27.81775 34.94795
#
# Velocity S-wave (km/s) = 4.11295 3.34415 3.74832
# Velocity P-wave (km/s) = 5.26343 4.93440 5.10157
#
# Compressibility (1/GPa) = 0.07808453
#
# Stress axis : x y z
#
# Youngs Moduli (GPa) = 123.90018 29.49064 24.99509
#
# Poissons Ratio (x) = 0.06027 0.06643
# Poissons Ratio (y) = 0.25321 -0.06872
# Poissons Ratio (z) = 0.32927 -0.08109
#
# Static dielectric constant tensor:
#      x y z
#    x 1.995820 0.000000 0.074840 
#    y 0.000000 1.962050 0.000000 
#    z 0.074840 0.000000 1.967360 
# 
# From -- ./inp_files/71579.got.cif
#   From: 2010.05.17/outbox.cif.g08.bks.cpg/sg10_36_cif.got.tgz:71579.got - 2010.06.03 11:33:40.
