data_PCOD9144717
_publ_section_title
;
Structure prediction by ZEFSAII (Michael W. Deem and Ramdas Pophale) SiO2 
 PCOD9144717
Probable space group: P 2/M
;
_chemical_formula_sum "Si O2"
_cell_formula_units_Z 28
_cell_length_a 11.764692
_cell_length_b 10.175713
_cell_length_c 13.876055
_cell_angle_alpha 90.000000
_cell_angle_beta 71.144625
_cell_angle_gamma 90.000000
_cell_volume 1572.017613
_symmetry_space_group_name_H-M "P 2/M"
_symmetry_group_IT_number 10
_symmetry_cell_setting 'monoclinic'
loop_
_space_group_symop_operation_xyz
x,y,z
-x,y,-z
-x,-y,-z
x,-y,z
loop_
_atom_site_type_symbol
_atom_site_label
_atom_site_fract_x
_atom_site_fract_y
_atom_site_fract_z
Si Si1 0.792180 0.842489 0.312109
Si Si2 0.336597 0.651102 0.788350
Si Si3 0.134002 0.357615 0.005144
Si Si4 0.865180 0.159601 0.508921
Si Si5 0.256526 0.848312 0.266865
Si Si6 0.446163 0.344993 0.121639
Si Si7 0.941991 0.852917 0.829906
O O1 0.690990 0.755895 0.287558
O O2 0.819617 0.803915 0.415138
O O3 0.919051 0.818831 0.222541
O O4 0.768104 0.000000 0.314641
O O5 0.338429 0.500000 0.751583
O O6 0.227396 0.661569 0.894346
O O7 0.453106 0.672190 0.822846
O O8 0.160685 0.500000 0.043060
O O9 0.131174 0.243458 0.082591
O O10 0.000000 0.360738 0.000000
O O11 0.769291 0.197334 0.617354
O O12 0.000000 0.206140 0.500000
O O13 0.870598 0.000000 0.508704
O O14 0.340339 0.752254 0.182647
O O15 0.124887 0.852617 0.253920
O O16 0.301609 0.000000 0.253373
O O17 0.411865 0.500000 0.129889
O O18 0.500000 0.315918 0.000000
O O19 0.936029 0.000000 0.871765
#
# Coordination Sequence:
#
# PCOD9144717 Si02
#       7
#     4   4   4   4   4   4   4
#     4  10  19  32  54  82 110 141 176 216 269 329
#     4  10  21  37  54  75 107 145 182 224 275 325
#     4  10  19  31  49  73 102 139 179 217 264 326
#     4   9  16  32  57  83 113 147 180 219 273 332
#     4  10  20  35  58  85 110 140 184 232 273 318
#     4  10  22  41  61  78 105 149 192 227 271 329
#     4  10  19  30  49  80 111 138 170 217 274 324
#
# _framework density 17.811506000000001
#
# number of rings (size 3 to 8) (size 9 to 14) (size 15 to 20)
#    0.000    2.143    2.857    0.857    0.000    3.429 
#    0.000    1.429    0.000    5.143    0.000    0.000 
#    0.000    0.000    0.000    0.000    0.000    0.000 
#
# Total GULP energy -156042.305882 kJ/mol
# GULP energy per Si atom -5572.939496 kJ/mol
# Density = 1.777097 g / cm^3
# Si number density = 17.811506 Si / 1000 Ang^3
#
#
#
# Elastic Constant Matrix: (Units=GPa)
#
#
# Indices 1 2 3 4 5 6 
#
# 1 74.8574 36.1414 24.5864 0.0000 12.8620 0.0000
# 2 36.1414 72.9514 58.6343 0.0000 8.4206 0.0000
# 3 24.5864 58.6343 79.2537 0.0000 9.0049 0.0000
# 4 0.0000 0.0000 0.0000 36.1663 0.0000 12.9966
# 5 12.8620 8.4206 9.0049 0.0000 26.7169 0.0000
# 6 0.0000 0.0000 0.0000 12.9966 0.0000 20.4588
#
#
#
# Elastic Compliance Matrix: (Units=1/GPa)
#
#
# Indices 1 2 3 4 5 6 
#
# 1 0.018809 -0.011024 0.003073 0.000000 -0.006616 0.000000
# 2 -0.011024 0.040416 -0.026657 0.000000 0.001554 0.000000
# 3 0.003073 -0.026657 0.031818 0.000000 -0.003802 0.000000
# 4 0.000000 0.000000 0.000000 0.035829 0.000000 -0.022761
# 5 -0.006616 0.001554 -0.003802 0.000000 0.041406 0.000000
# 6 0.000000 0.000000 0.000000 -0.022761 0.000000 0.063338
#
#
# Mechanical properties :
#
#
# Convention : Reuss Voigt Hill
#
# Bulk Modulus (GPa) = 45.81840 51.75408 48.78624
# Shear Modulus (GPa) = 16.22802 23.84844 20.03823
#
# Velocity S-wave (km/s) = 3.02171 3.66312 3.35776
# Velocity P-wave (km/s) = 6.16070 6.85645 6.51786
#
# Compressibility (1/GPa) = 0.02182529
#
# Stress axis : x y z
#
# Youngs Moduli (GPa) = 53.16647 24.74275 31.42838
#
# Poissons Ratio (x) = 0.27278 -0.09658
# Poissons Ratio (y) = 0.58613 0.83780
# Poissons Ratio (z) = -0.16338 0.65958
#
# Static dielectric constant tensor:
#      x y z
#    x 1.632720 0.000000 0.022650 
#    y 0.000000 1.614130 0.000000 
#    z 0.022650 0.000000 1.609920 
# 
# From -- ./inp_files/63353.got.cif
#   From: 2010.05.17/outbox.cif.g08.bks.cpg/sg10_32_cif.got.tgz:63353.got - 2010.06.03 11:33:40.
