data_PCOD9144653
_publ_section_title
;
Structure prediction by ZEFSAII (Michael W. Deem and Ramdas Pophale) SiO2 
 PCOD9144653
Probable space group: P 2/M
;
_chemical_formula_sum "Si O2"
_cell_formula_units_Z 28
_cell_length_a 8.353360
_cell_length_b 7.342473
_cell_length_c 26.069432
_cell_angle_alpha 90.000000
_cell_angle_beta 49.569895
_cell_angle_gamma 90.000000
_cell_volume 1217.117677
_symmetry_space_group_name_H-M "P 2/M"
_symmetry_group_IT_number 10
_symmetry_cell_setting 'monoclinic'
loop_
_space_group_symop_operation_xyz
x,y,z
-x,y,-z
-x,-y,-z
x,-y,z
loop_
_atom_site_type_symbol
_atom_site_label
_atom_site_fract_x
_atom_site_fract_y
_atom_site_fract_z
Si Si1 0.871773 0.220597 0.218781
Si Si2 0.111659 0.713332 0.350543
Si Si3 0.757100 0.780400 0.787344
Si Si4 0.972330 0.221275 0.923983
Si Si5 0.353886 0.721716 0.578475
Si Si6 0.337447 0.221448 0.928817
Si Si7 0.555838 0.710553 0.641658
O O1 0.636913 0.283980 0.278169
O O2 0.023696 0.280234 0.233310
O O3 0.974153 0.282221 0.144137
O O4 0.866217 0.000000 0.219233
O O5 0.079632 0.500000 0.368216
O O6 0.251079 0.727045 0.270118
O O7 0.241125 0.790494 0.371779
O O8 0.882572 0.788587 0.383526
O O9 0.563338 0.715970 0.862417
O O10 0.753763 0.000000 0.789436
O O11 0.164299 0.269509 0.921858
O O12 0.964915 0.000000 0.923828
O O13 0.758378 0.280924 0.996737
O O14 0.500000 0.765615 0.500000
O O15 0.341895 0.500000 0.585148
O O16 0.460975 0.788974 0.608804
O O17 0.345548 0.000000 0.928840
O O18 0.606429 0.500000 0.619695
#
# Coordination Sequence:
#
# PCOD9144653 Si02
#       7
#     4   4   4   4   4   4   4
#     4  10  19  30  48  74 102 134 171 210 252 297
#     4  10  20  34  54  78 103 134 168 203 249 299
#     4  10  19  30  48  74 102 134 171 210 252 297
#     4   8  14  25  41  63  93 128 166 209 253 293
#     4   9  18  34  55  79 106 131 160 204 249 293
#     4   8  14  25  41  63  93 128 166 209 253 293
#     4  10  20  34  54  78 103 134 168 203 249 299
#
# _framework density 23.005171000000001
#
# number of rings (size 3 to 8) (size 9 to 14) (size 15 to 20)
#    0.000    2.714    1.429    1.714    0.000    2.857 
#    0.000    5.714    0.000    2.571    0.000    8.000 
#    0.000    0.000    0.000    0.000    0.000    0.000 
#
# Total GULP energy -156358.310662 kJ/mol
# GULP energy per Si atom -5584.225381 kJ/mol
# Density = 2.295281 g / cm^3
# Si number density = 23.005171 Si / 1000 Ang^3
#
#
#
# Elastic Constant Matrix: (Units=GPa)
#
#
# Indices 1 2 3 4 5 6 
#
# 1 159.1589 7.9261 54.8640 0.0000 27.4563 0.0000
# 2 7.9261 88.9080 -7.2955 0.0000 0.7163 0.0000
# 3 54.8640 -7.2955 100.5250 0.0000 24.0674 0.0000
# 4 0.0000 0.0000 0.0000 10.3054 0.0000 2.2149
# 5 27.4563 0.7163 24.0674 0.0000 9.0686 0.0000
# 6 0.0000 0.0000 0.0000 2.2149 0.0000 -1.9146
#
#
#
# Elastic Compliance Matrix: (Units=1/GPa)
#
#
# Indices 1 2 3 4 5 6 
#
# 1 0.014887 -0.000213 0.007259 0.000000 -0.064321 0.000000
# 2 -0.000213 0.011558 0.002795 0.000000 -0.007686 0.000000
# 3 0.007259 0.002795 0.031551 0.000000 -0.105931 0.000000
# 4 0.000000 0.000000 0.000000 0.077713 0.000000 0.089903
# 5 -0.064321 -0.007686 -0.105931 0.000000 0.586753 0.000000
# 6 0.000000 0.000000 0.000000 0.089903 0.000000 -0.418289
#
#
# Mechanical properties :
#
#
# Convention : Reuss Voigt Hill
#
# Bulk Modulus (GPa) = 12.87370 51.06459 31.96914
# Shear Modulus (GPa) = 16.10907 23.03169 19.57038
#
# Velocity S-wave (km/s) = 2.64907 3.16753 2.91983
# Velocity P-wave (km/s) = 3.86845 5.96849 5.02930
#
# Compressibility (1/GPa) = 0.07767776
#
# Stress axis : x y z
#
# Youngs Moduli (GPa) = 67.17108 86.52098 31.69506
#
# Poissons Ratio (x) = 0.01846 -0.23007
# Poissons Ratio (y) = 0.01433 -0.08860
# Poissons Ratio (z) = -0.48759 -0.24185
#
# Static dielectric constant tensor:
#      x y z
#    x 1.845140 0.000000 -0.002710 
#    y 0.000000 1.916480 0.000000 
#    z -0.002710 0.000000 1.820700 
# 
# From -- ./inp_files/94499.got.cif
#   From: 2010.05.17/outbox.cif.g08.bks.cpg/sg10_48_cif.got.tgz:94499.got - 2010.06.03 11:33:40.
