data_PCOD9144504
_publ_section_title
;
Structure prediction by ZEFSAII (Michael W. Deem and Ramdas Pophale) SiO2 
 PCOD9144504
Probable space group: P 2/M
;
_chemical_formula_sum "Si O2"
_cell_formula_units_Z 32
_cell_length_a 13.660773
_cell_length_b 9.451625
_cell_length_c 26.328498
_cell_angle_alpha 90.000000
_cell_angle_beta 147.821297
_cell_angle_gamma 90.000000
_cell_volume 1810.413490
_symmetry_space_group_name_H-M "P 2/M"
_symmetry_group_IT_number 10
_symmetry_cell_setting 'monoclinic'
loop_
_space_group_symop_operation_xyz
x,y,z
-x,y,-z
-x,-y,-z
x,-y,z
loop_
_atom_site_type_symbol
_atom_site_label
_atom_site_fract_x
_atom_site_fract_y
_atom_site_fract_z
Si Si1 0.300605 0.161598 0.440523
Si Si2 0.798317 0.834905 0.117412
Si Si3 0.537974 0.335751 0.400956
Si Si4 0.013231 0.839347 0.944500
Si Si5 0.647859 0.667482 0.780444
Si Si6 0.565757 0.834248 0.111483
Si Si7 0.859130 0.664806 0.719420
Si Si8 0.617418 0.667503 0.886394
O O1 0.500000 0.159942 0.500000
O O2 0.334756 0.235248 0.509588
O O3 0.173969 0.253993 0.348069
O O4 0.237057 0.000000 0.416859
O O5 0.726452 0.797611 0.142459
O O6 0.970332 0.739657 0.178535
O O7 0.850836 0.000000 0.140653
O O8 0.622499 0.819796 0.003853
O O9 0.593933 0.500000 0.431458
O O10 0.511557 0.301275 0.330115
O O11 0.331236 0.324188 0.333199
O O12 0.826802 0.760984 0.846850
O O13 0.029948 0.000000 0.931706
O O14 0.000000 0.848835 0.000000
O O15 0.193974 0.746268 0.014869
O O16 0.694286 0.500000 0.795216
O O17 0.595191 0.690437 0.816089
O O18 0.542041 0.737007 0.150000
O O19 0.582574 0.000000 0.132584
O O20 0.896396 0.500000 0.727727
O O21 0.632209 0.500000 0.901755
#
# Coordination Sequence:
#
# PCOD9144504 Si02
#       8
#     4   4   4   4   4   4   4   4
#     4   9  17  30  47  68  94 124 156 188 228 276
#     4   9  19  35  51  68  92 121 156 198 241 282
#     4   9  18  31  46  67  98 128 155 189 228 271
#     4   9  17  28  41  59  85 118 157 195 226 264
#     4   9  18  31  44  64  94 126 157 190 230 276
#     4   9  19  35  51  67  91 123 157 198 243 278
#     4  10  19  30  48  72  96 123 156 191 231 278
#     4  10  19  30  46  65  90 124 158 193 234 277
#
# _framework density 17.675521
#
# number of rings (size 3 to 8) (size 9 to 14) (size 15 to 20)
#    0.000    2.750    0.000    2.250    1.750    5.500 
#    0.000    1.250    0.000    0.000    0.000    0.875 
#    0.000    7.000    0.000    0.000    0.000    0.000 
#
# Total GULP energy -178463.230505 kJ/mol
# GULP energy per Si atom -5576.975953 kJ/mol
# Density = 1.763529 g / cm^3
# Si number density = 17.675521 Si / 1000 Ang^3
#
#
#
# Elastic Constant Matrix: (Units=GPa)
#
#
# Indices 1 2 3 4 5 6 
#
# 1 66.6912 30.2898 1.7225 0.0000 -15.7711 0.0000
# 2 30.2898 71.4031 19.5741 0.0000 -12.4880 0.0000
# 3 1.7225 19.5741 35.3065 0.0000 -15.0254 0.0000
# 4 0.0000 0.0000 0.0000 19.6663 0.0000 -2.5707
# 5 -15.7711 -12.4880 -15.0254 0.0000 23.4197 0.0000
# 6 0.0000 0.0000 0.0000 -2.5707 0.0000 20.7934
#
#
#
# Elastic Compliance Matrix: (Units=1/GPa)
#
#
# Indices 1 2 3 4 5 6 
#
# 1 0.023661 -0.010199 0.012334 0.000000 0.018409 0.000000
# 2 -0.010199 0.021193 -0.012883 0.000000 -0.003833 0.000000
# 3 0.012334 -0.012883 0.048799 0.000000 0.032744 0.000000
# 4 0.000000 0.000000 0.000000 0.051684 0.000000 0.006390
# 5 0.018409 -0.003833 0.032744 0.000000 0.074060 0.000000
# 6 0.000000 0.000000 0.000000 0.006390 0.000000 0.048882
#
#
# Mechanical properties :
#
#
# Convention : Reuss Voigt Hill
#
# Bulk Modulus (GPa) = 13.85855 30.73039 22.29447
# Shear Modulus (GPa) = 15.93236 20.89684 18.41460
#
# Velocity S-wave (km/s) = 3.00556 3.44211 3.23122
# Velocity P-wave (km/s) = 4.46117 5.76378 5.15379
#
# Compressibility (1/GPa) = 0.07215761
#
# Stress axis : x y z
#
# Youngs Moduli (GPa) = 42.26302 47.18584 20.49226
#
# Poissons Ratio (x) = 0.48125 -0.25275
# Poissons Ratio (y) = 0.43104 0.26400
# Poissons Ratio (z) = -0.52128 0.60789
#
# Static dielectric constant tensor:
#      x y z
#    x 1.628300 0.000000 -0.026230 
#    y 0.000000 1.593310 0.000000 
#    z -0.026230 0.000000 1.598210 
# 
# From -- ./inp_files/66458.got.cif
#   From: 2010.05.17/outbox.cif.g08.bks.cpg/sg10_34_cif.got.tgz:66458.got - 2010.06.03 11:33:40.
