data_PCOD9144989
_publ_section_title
;
Structure prediction by ZEFSAII (Michael W. Deem and Ramdas Pophale) SiO2 
 PCOD9144989
Probable space group: P 2/M
;
_chemical_formula_sum "Si O2"
_cell_formula_units_Z 32
_cell_length_a 18.863382
_cell_length_b 8.683952
_cell_length_c 10.297635
_cell_angle_alpha 90.000000
_cell_angle_beta 118.946301
_cell_angle_gamma 90.000000
_cell_volume 1476.111279
_symmetry_space_group_name_H-M "P 2/M"
_symmetry_group_IT_number 10
_symmetry_cell_setting 'monoclinic'
loop_
_space_group_symop_operation_xyz
x,y,z
-x,y,-z
-x,-y,-z
x,-y,z
loop_
_atom_site_type_symbol
_atom_site_label
_atom_site_fract_x
_atom_site_fract_y
_atom_site_fract_z
Si Si1 0.936070 0.326335 0.564332
Si Si2 0.069248 0.831045 0.826122
Si Si3 0.262634 0.311635 0.260548
Si Si4 0.482770 0.818150 0.137211
Si Si5 0.690693 0.318161 0.985819
Si Si6 0.910024 0.677847 0.914895
Si Si7 0.429968 0.686240 0.544771
Si Si8 0.803945 0.171872 0.295248
O O1 0.934498 0.500000 0.612674
O O2 0.847018 0.275060 0.442086
O O3 0.000000 0.327241 0.500000
O O4 0.978432 0.212968 0.703494
O O5 0.123907 0.839389 0.746743
O O6 0.074333 0.000000 0.892831
O O7 0.106128 0.695679 0.945404
O O8 0.260643 0.500000 0.257430
O O9 0.277485 0.259091 0.125308
O O10 0.172137 0.260659 0.222634
O O11 0.341066 0.267816 0.413512
O O12 0.403837 0.718914 0.099263
O O13 0.550044 0.762950 0.299497
O O14 0.467179 0.000000 0.142906
O O15 0.500000 0.795256 0.000000
O O16 0.705479 0.500000 0.005865
O O17 0.730796 0.240863 0.147507
O O18 0.919152 0.500000 0.886337
O O19 0.000000 0.751412 0.000000
O O20 0.500000 0.725946 0.500000
O O21 0.431619 0.500000 0.559240
O O22 0.784848 0.000000 0.325203
#
# Coordination Sequence:
#
# PCOD9144989 Si02
#       8
#     4   4   4   4   4   4   4   4
#     4   9  17  29  47  71 100 139 186 234 283 341
#     4  10  19  31  49  73 105 144 186 241 302 356
#     4   9  18  34  58  89 120 148 194 259 311 362
#     4  11  25  43  61  89 132 171 204 250 313 381
#     4  11  20  35  61  88 117 155 202 253 306 367
#     4  10  20  35  55  79 112 155 198 246 305 364
#     4  10  19  37  65  96 124 158 207 264 318 375
#     4  10  19  31  49  79 113 143 184 240 298 356
#
# _framework density 21.678584000000001
#
# number of rings (size 3 to 8) (size 9 to 14) (size 15 to 20)
#    0.000    2.000    2.500    1.875    0.000    4.000 
#    0.000    1.875    0.000    4.500    0.000    0.000 
#    0.000    0.000    0.000    0.000    0.000    0.000 
#
# Total GULP energy -178417.351046 kJ/mol
# GULP energy per Si atom -5575.542220 kJ/mol
# Density = 2.162924 g / cm^3
# Si number density = 21.678584 Si / 1000 Ang^3
#
#
#
# Elastic Constant Matrix: (Units=GPa)
#
#
# Indices 1 2 3 4 5 6 
#
# 1 49.4360 5.4619 28.8859 0.0000 21.0643 0.0000
# 2 5.4619 42.0305 11.3853 0.0000 -3.9794 0.0000
# 3 28.8859 11.3853 130.3719 0.0000 23.3733 0.0000
# 4 0.0000 0.0000 0.0000 18.4282 0.0000 -6.3972
# 5 21.0643 -3.9794 23.3733 0.0000 42.6680 0.0000
# 6 0.0000 0.0000 0.0000 -6.3972 0.0000 2.6387
#
#
#
# Elastic Compliance Matrix: (Units=1/GPa)
#
#
# Indices 1 2 3 4 5 6 
#
# 1 0.027977 -0.003785 -0.003691 0.000000 -0.012143 0.000000
# 2 -0.003785 0.025453 -0.002378 0.000000 0.005546 0.000000
# 3 -0.003691 -0.002378 0.009325 0.000000 -0.003508 0.000000
# 4 0.000000 0.000000 0.000000 0.342582 0.000000 0.830541
# 5 -0.012143 0.005546 -0.003508 0.000000 0.031870 0.000000
# 6 0.000000 0.000000 0.000000 0.830541 0.000000 2.392495
#
#
# Mechanical properties :
#
#
# Convention : Reuss Voigt Hill
#
# Bulk Modulus (GPa) = 23.23126 34.81162 29.02144
# Shear Modulus (GPa) = 1.74596 24.48734 13.11665
#
# Velocity S-wave (km/s) = 0.89840 3.36454 2.46245
# Velocity P-wave (km/s) = 3.43739 5.58449 4.63692
#
# Compressibility (1/GPa) = 0.04304545
#
# Stress axis : x y z
#
# Youngs Moduli (GPa) = 35.74340 39.28739 107.24150
#
# Poissons Ratio (x) = 0.14872 0.39585
# Poissons Ratio (y) = 0.13530 0.25505
# Poissons Ratio (z) = 0.13194 0.09344
#
# Static dielectric constant tensor:
#      x y z
#    x 1.882030 0.000000 -0.031080 
#    y 0.000000 1.766390 0.000000 
#    z -0.031080 0.000000 1.828350 
# 
# From -- ./inp_files/55393.got.cif
#   From: 2010.05.17/outbox.cif.g08.bks.cpg/sg10_28_cif.got.tgz:55393.got - 2010.06.03 11:33:40.
