data_PCOD9144174
_publ_section_title
;
Structure prediction by ZEFSAII (Michael W. Deem and Ramdas Pophale) SiO2 
 PCOD9144174
Probable space group: P 2/M
;
_chemical_formula_sum "Si O2"
_cell_formula_units_Z 32
_cell_length_a 8.128238
_cell_length_b 15.527058
_cell_length_c 23.070863
_cell_angle_alpha 90.000000
_cell_angle_beta 151.663217
_cell_angle_gamma 90.000000
_cell_volume 1382.057113
_symmetry_space_group_name_H-M "P 2/M"
_symmetry_group_IT_number 10
_symmetry_cell_setting 'monoclinic'
loop_
_space_group_symop_operation_xyz
x,y,z
-x,y,-z
-x,-y,-z
x,-y,z
loop_
_atom_site_type_symbol
_atom_site_label
_atom_site_fract_x
_atom_site_fract_y
_atom_site_fract_z
Si Si1 0.126776 0.095703 0.915615
Si Si2 0.572748 0.343204 0.664151
Si Si3 0.647771 0.261899 0.282942
Si Si4 0.934265 0.906633 0.548826
Si Si5 0.841094 0.593433 0.566273
Si Si6 0.659855 0.594264 0.113336
Si Si7 0.464133 0.777629 0.107599
Si Si8 0.788722 0.158982 0.694257
O O1 0.868150 0.127192 0.784771
O O2 0.026362 0.000000 0.904825
O O3 0.500000 0.089284 0.000000
O O4 0.207376 0.164090 0.990312
O O5 0.497993 0.312734 0.706435
O O6 0.275892 0.391033 0.536272
O O7 0.625633 0.253390 0.647334
O O8 0.927798 0.394761 0.767001
O O9 0.389238 0.238129 0.151498
O O10 0.853434 0.175560 0.363557
O O11 0.917109 0.329625 0.339303
O O12 0.518980 0.896381 0.428762
O O13 0.000000 0.906713 0.500000
O O14 0.048079 0.000000 0.607383
O O15 0.500000 0.594007 0.500000
O O16 0.010246 0.500000 0.624066
O O17 0.588659 0.500000 0.119039
O O18 0.517651 0.682541 0.096992
O O19 0.500000 0.592380 0.000000
O O20 0.837260 0.828641 0.219380
#
# Coordination Sequence:
#
# PCOD9144174 Si02
#       8
#     4   4   4   4   4   4   4   4
#     4   9  18  35  61  91 119 154 209 266 314 359
#     4  11  21  38  61  87 125 163 208 247 310 379
#     4  12  24  39  58  91 130 172 204 255 311 384
#     4  11  22  38  60  87 122 168 215 257 313 375
#     4  11  23  39  63  93 124 162 210 262 317 372
#     4  10  21  41  67  93 118 156 209 261 315 377
#     4  10  22  37  62  89 128 162 202 261 319 373
#     4  10  18  37  62  87 115 161 214 262 310 363
#
# _framework density 23.153890000000001
#
# number of rings (size 3 to 8) (size 9 to 14) (size 15 to 20)
#    0.000    1.500    2.500    4.500    0.000    4.000 
#    0.000    3.125    0.000    2.250    0.000    0.000 
#    0.000    0.000    0.000    0.000    0.000    0.000 
#
# Total GULP energy -178884.740989 kJ/mol
# GULP energy per Si atom -5590.148156 kJ/mol
# Density = 2.310119 g / cm^3
# Si number density = 23.153890 Si / 1000 Ang^3
#
#
#
# Elastic Constant Matrix: (Units=GPa)
#
#
# Indices 1 2 3 4 5 6 
#
# 1 78.1270 32.0603 21.8223 0.0000 -12.3592 0.0000
# 2 32.0603 187.4673 44.0382 0.0000 -5.7521 0.0000
# 3 21.8223 44.0382 68.5733 0.0000 -23.0406 0.0000
# 4 0.0000 0.0000 0.0000 177.6987 0.0000 -171.7968
# 5 -12.3592 -5.7521 -23.0406 0.0000 36.8901 0.0000
# 6 0.0000 0.0000 0.0000 -171.7968 0.0000 194.8173
#
#
#
# Elastic Compliance Matrix: (Units=1/GPa)
#
#
# Indices 1 2 3 4 5 6 
#
# 1 0.014737 -0.001848 -0.002457 0.000000 0.003115 0.000000
# 2 -0.001848 0.006626 -0.004465 0.000000 -0.002375 0.000000
# 3 -0.002457 -0.004465 0.022429 0.000000 0.012489 0.000000
# 4 0.000000 0.000000 0.000000 0.038165 0.000000 0.033655
# 5 0.003115 -0.002375 0.012489 0.000000 0.035581 0.000000
# 6 0.000000 0.000000 0.000000 0.033655 0.000000 0.034811
#
#
# Mechanical properties :
#
#
# Convention : Reuss Voigt Hill
#
# Bulk Modulus (GPa) = 38.09148 58.88991 48.49069
# Shear Modulus (GPa) = 27.98939 97.63101 62.81020
#
# Velocity S-wave (km/s) = 3.48061 6.50059 5.21404
# Velocity P-wave (km/s) = 5.71315 9.04615 7.56548
#
# Compressibility (1/GPa) = 0.02625259
#
# Stress axis : x y z
#
# Youngs Moduli (GPa) = 67.85752 150.91257 44.58553
#
# Poissons Ratio (x) = 0.27882 0.10953
# Poissons Ratio (y) = 0.12537 0.19909
# Poissons Ratio (z) = 0.16670 0.67389
#
# Static dielectric constant tensor:
#      x y z
#    x 1.906860 0.000000 0.021200 
#    y 0.000000 1.875910 0.000000 
#    z 0.021200 0.000000 1.885250 
# 
# From -- ./inp_files/88286.got.cif
#   From: 2010.05.17/outbox.cif.g08.bks.cpg/sg10_45_cif.got.tgz:88286.got - 2010.06.03 11:33:40.
