data_PCOD9144733
_publ_section_title
;
Structure prediction by ZEFSAII (Michael W. Deem and Ramdas Pophale) SiO2 
 PCOD9144733
Probable space group: P 2/M
;
_chemical_formula_sum "Si O2"
_cell_formula_units_Z 32
_cell_length_a 7.894447
_cell_length_b 13.046297
_cell_length_c 25.952308
_cell_angle_alpha 90.000000
_cell_angle_beta 37.469328
_cell_angle_gamma 90.000000
_cell_volume 1626.031425
_symmetry_space_group_name_H-M "P 2/M"
_symmetry_group_IT_number 10
_symmetry_cell_setting 'monoclinic'
loop_
_space_group_symop_operation_xyz
x,y,z
-x,y,-z
-x,-y,-z
x,-y,z
loop_
_atom_site_type_symbol
_atom_site_label
_atom_site_fract_x
_atom_site_fract_y
_atom_site_fract_z
Si Si1 0.678865 0.380037 0.009364
Si Si2 0.621700 0.228121 0.837540
Si Si3 0.668898 0.383960 0.671347
Si Si4 0.017204 0.391615 0.305275
Si Si5 0.401885 0.390472 0.465271
Si Si6 0.697869 0.788754 0.577274
Si Si7 0.773950 0.258716 0.157251
Si Si8 0.864158 0.879348 0.236435
O O1 0.712427 0.500000 0.017819
O O2 0.969011 0.323139 0.927176
O O3 0.500000 0.381873 0.000000
O O4 0.520907 0.305511 0.087416
O O5 0.839577 0.296867 0.754168
O O6 0.389321 0.201963 0.850243
O O7 0.830271 0.145862 0.812941
O O8 0.610047 0.500000 0.669174
O O9 0.936095 0.385076 0.644572
O O10 0.712387 0.303750 0.615606
O O11 0.427754 0.341485 0.766671
O O12 0.151990 0.500000 0.257229
O O13 0.701266 0.393979 0.364260
O O14 0.500000 0.395229 0.500000
O O15 0.255686 0.500000 0.487428
O O16 0.307340 0.277197 0.473816
O O17 0.410095 0.846258 0.662623
O O18 0.000000 0.845427 0.500000
O O19 0.849862 0.182214 0.185677
O O20 0.841040 0.000000 0.233449
#
# Coordination Sequence:
#
# PCOD9144733 Si02
#       8
#     4   4   4   4   4   4   4   4
#     4  11  22  37  64 102 142 176 204 237 291 367
#     4  11  21  40  65  90 125 168 207 252 313 366
#     4   9  18  32  54  84 120 159 196 234 290 366
#     4   9  17  31  51  80 116 157 196 234 285 359
#     4  10  19  30  50  81 120 157 190 231 289 366
#     4  11  22  37  58  84 114 156 199 256 318 376
#     4  10  22  40  64  94 126 166 208 255 305 369
#     4  11  25  46  67  88 116 155 213 278 329 370
#
# _framework density 19.679815000000001
#
# number of rings (size 3 to 8) (size 9 to 14) (size 15 to 20)
#    0.000    1.750    2.500    2.250    0.000    4.750 
#    0.000    1.250    0.000    1.875    0.000    0.000 
#    0.000    0.000    0.000    0.000    0.000    0.000 
#
# Total GULP energy -178138.329687 kJ/mol
# GULP energy per Si atom -5566.822803 kJ/mol
# Density = 1.963502 g / cm^3
# Si number density = 19.679815 Si / 1000 Ang^3
#
#
#
# Elastic Constant Matrix: (Units=GPa)
#
#
# Indices 1 2 3 4 5 6 
#
# 1 78.0574 21.2733 32.9704 0.0000 -11.3258 0.0000
# 2 21.2733 84.1549 31.4185 0.0000 -10.7540 0.0000
# 3 32.9704 31.4185 84.1336 0.0000 -14.0759 0.0000
# 4 0.0000 0.0000 0.0000 9.2895 0.0000 -1.9376
# 5 -11.3258 -10.7540 -14.0759 0.0000 32.4301 0.0000
# 6 0.0000 0.0000 0.0000 -1.9376 0.0000 10.6330
#
#
#
# Elastic Compliance Matrix: (Units=1/GPa)
#
#
# Indices 1 2 3 4 5 6 
#
# 1 0.015838 -0.001752 -0.005094 0.000000 0.002739 0.000000
# 2 -0.001752 0.014196 -0.004237 0.000000 0.002257 0.000000
# 3 -0.005094 -0.004237 0.016101 0.000000 0.003804 0.000000
# 4 0.000000 0.000000 0.000000 0.111902 0.000000 0.020391
# 5 0.002739 0.002257 0.003804 0.000000 0.034192 0.000000
# 6 0.000000 0.000000 0.000000 0.020391 0.000000 0.097763
#
#
# Mechanical properties :
#
#
# Convention : Reuss Voigt Hill
#
# Bulk Modulus (GPa) = 41.72150 46.40779 44.06465
# Shear Modulus (GPa) = 15.61787 21.18276 18.40032
#
# Velocity S-wave (km/s) = 2.82014 3.28437 3.06107
# Velocity P-wave (km/s) = 5.64362 6.16566 5.91041
#
# Compressibility (1/GPa) = 0.02396846
#
# Stress axis : x y z
#
# Youngs Moduli (GPa) = 63.14098 70.44251 62.10821
#
# Poissons Ratio (x) = 0.12339 0.31638
# Poissons Ratio (y) = 0.11060 0.26317
# Poissons Ratio (z) = 0.32164 0.29849
#
# Static dielectric constant tensor:
#      x y z
#    x 1.801190 0.000000 0.000380 
#    y 0.000000 1.656290 0.000000 
#    z 0.000380 0.000000 1.792310 
# 
# From -- ./inp_files/94649.got.cif
#   From: 2010.05.17/outbox.cif.g08.bks.cpg/sg10_48_cif.got.tgz:94649.got - 2010.06.03 11:33:40.
