data_PCOD9144814
_publ_section_title
;
Structure prediction by ZEFSAII (Michael W. Deem and Ramdas Pophale) SiO2 
 PCOD9144814
Probable space group: P 2/M
;
_chemical_formula_sum "Si O2"
_cell_formula_units_Z 28
_cell_length_a 18.980952
_cell_length_b 9.367464
_cell_length_c 14.673170
_cell_angle_alpha 90.000000
_cell_angle_beta 40.484342
_cell_angle_gamma 90.000000
_cell_volume 1693.828311
_symmetry_space_group_name_H-M "P 2/M"
_symmetry_group_IT_number 10
_symmetry_cell_setting 'monoclinic'
loop_
_space_group_symop_operation_xyz
x,y,z
-x,y,-z
-x,-y,-z
x,-y,z
loop_
_atom_site_type_symbol
_atom_site_label
_atom_site_fract_x
_atom_site_fract_y
_atom_site_fract_z
Si Si1 0.369280 0.840088 0.627115
Si Si2 0.178367 0.833418 0.571155
Si Si3 0.153481 0.668852 0.100557
Si Si4 0.626716 0.669760 0.560168
Si Si5 0.013750 0.831077 0.381294
Si Si6 0.993994 0.170800 0.898681
Si Si7 0.376316 0.332008 0.800211
O O1 0.500000 0.851997 0.500000
O O2 0.345460 0.742761 0.563952
O O3 0.341892 0.761817 0.747466
O O4 0.322691 0.000000 0.665767
O O5 0.284526 0.737038 0.460911
O O6 0.105711 0.802227 0.732978
O O7 0.097303 0.812258 0.566337
O O8 0.209590 0.000000 0.544647
O O9 0.130077 0.500000 0.121545
O O10 0.102845 0.741278 0.239284
O O11 0.096237 0.743358 0.069553
O O12 0.282962 0.688097 0.966251
O O13 0.637020 0.500000 0.544787
O O14 0.500207 0.703900 0.705144
O O15 0.000000 0.791259 0.500000
O O16 0.040824 0.000000 0.349850
O O17 0.972837 0.000000 0.912506
O O18 0.000000 0.207461 0.000000
O O19 0.376976 0.500000 0.773195
#
# Coordination Sequence:
#
# PCOD9144814 Si02
#       7
#     4   4   4   4   4   4   4
#     4   9  17  28  43  64  90 128 177 215 240 274
#     4   9  18  32  50  75 101 125 164 209 248 297
#     4  10  20  33  51  77 103 128 167 210 249 297
#     4  10  19  31  47  67 100 139 171 203 245 293
#     4   9  19  38  61  80  99 125 158 203 261 315
#     4   9  19  34  49  68  99 138 171 207 255 298
#     4   9  19  33  46  67 101 138 170 205 246 289
#
# _framework density 16.530601999999998
#
# number of rings (size 3 to 8) (size 9 to 14) (size 15 to 20)
#    0.000    2.714    0.000    2.143    2.000    6.286 
#    0.000    0.000    0.000    0.857    0.000    6.000 
#    0.000    0.000    0.000    0.000    0.000    0.000 
#
# Total GULP energy -156052.121236 kJ/mol
# GULP energy per Si atom -5573.290044 kJ/mol
# Density = 1.649298 g / cm^3
# Si number density = 16.530602 Si / 1000 Ang^3
#
#
#
# Elastic Constant Matrix: (Units=GPa)
#
#
# Indices 1 2 3 4 5 6 
#
# 1 73.5971 45.5237 65.3073 0.0000 7.8096 0.0000
# 2 45.5237 69.1827 65.6402 0.0000 -7.2003 0.0000
# 3 65.3073 65.6402 108.5289 0.0000 0.9381 0.0000
# 4 0.0000 0.0000 0.0000 20.3064 0.0000 -6.0087
# 5 7.8096 -7.2003 0.9381 0.0000 27.9806 0.0000
# 6 0.0000 0.0000 0.0000 -6.0087 0.0000 20.3374
#
#
#
# Elastic Compliance Matrix: (Units=1/GPa)
#
#
# Indices 1 2 3 4 5 6 
#
# 1 0.033269 -0.009785 -0.014004 0.000000 -0.011334 0.000000
# 2 -0.009785 0.039474 -0.018103 0.000000 0.013496 0.000000
# 3 -0.014004 -0.018103 0.028605 0.000000 -0.001709 0.000000
# 4 0.000000 0.000000 0.000000 0.053963 0.000000 0.015943
# 5 -0.011334 0.013496 -0.001709 0.000000 0.042433 0.000000
# 6 0.000000 0.000000 0.000000 0.015943 0.000000 0.053881
#
#
# Mechanical properties :
#
#
# Convention : Reuss Voigt Hill
#
# Bulk Modulus (GPa) = 56.93328 67.13901 62.03615
# Shear Modulus (GPa) = 14.65153 18.71405 16.68279
#
# Velocity S-wave (km/s) = 2.98035 3.36830 3.18025
# Velocity P-wave (km/s) = 6.80876 7.47197 7.14806
#
# Compressibility (1/GPa) = 0.01756442
#
# Stress axis : x y z
#
# Youngs Moduli (GPa) = 30.05834 25.33328 34.95920
#
# Poissons Ratio (x) = 0.24787 0.48955
# Poissons Ratio (y) = 0.29411 0.63288
# Poissons Ratio (z) = 0.42092 0.45862
#
# Static dielectric constant tensor:
#      x y z
#    x 1.557350 0.000000 -0.024050 
#    y 0.000000 1.558140 0.000000 
#    z -0.024050 0.000000 1.560970 
# 
# From -- ./inp_files/54716.got.cif
#   From: 2010.05.17/outbox.cif.g08.bks.cpg/sg10_28_cif.got.tgz:54716.got - 2010.06.03 11:33:40.
