data_PCOD9144044
_publ_section_title
;
Structure prediction by ZEFSAII (Michael W. Deem and Ramdas Pophale) SiO2 
 PCOD9144044
Probable space group: P 2/M
;
_chemical_formula_sum "Si O2"
_cell_formula_units_Z 32
_cell_length_a 20.616569
_cell_length_b 8.676783
_cell_length_c 12.531417
_cell_angle_alpha 90.000000
_cell_angle_beta 53.598146
_cell_angle_gamma 90.000000
_cell_volume 1804.278315
_symmetry_space_group_name_H-M "P 2/M"
_symmetry_group_IT_number 10
_symmetry_cell_setting 'monoclinic'
loop_
_space_group_symop_operation_xyz
x,y,z
-x,y,-z
-x,-y,-z
x,-y,z
loop_
_atom_site_type_symbol
_atom_site_label
_atom_site_fract_x
_atom_site_fract_y
_atom_site_fract_z
Si Si1 0.121362 0.813239 0.115292
Si Si2 0.730905 0.815280 0.182287
Si Si3 0.375177 0.316327 0.894972
Si Si4 0.237604 0.814567 0.184756
Si Si5 0.292330 0.684734 0.349923
Si Si6 0.528757 0.815366 0.851878
Si Si7 0.785711 0.684033 0.348283
Si Si8 0.964120 0.185445 0.152832
O O1 0.159918 0.766584 0.190427
O O2 0.032541 0.761171 0.169567
O O3 0.118961 0.000000 0.116839
O O4 0.186588 0.769579 0.960886
O O5 0.658862 0.740554 0.185241
O O6 0.739077 0.760462 0.294967
O O7 0.724544 0.000000 0.182823
O O8 0.371366 0.500000 0.905770
O O9 0.464151 0.257103 0.834467
O O10 0.314947 0.243333 0.042075
O O11 0.242411 0.746995 0.297748
O O12 0.240704 0.000000 0.185768
O O13 0.296480 0.500000 0.339841
O O14 0.381942 0.752839 0.253638
O O15 0.252085 0.729084 0.501271
O O16 0.527953 0.000000 0.843379
O O17 0.500000 0.775140 0.000000
O O18 0.780767 0.500000 0.342582
O O19 0.878424 0.736359 0.251724
O O20 0.953557 0.000000 0.171878
O O21 0.000000 0.214934 0.000000
#
# Coordination Sequence:
#
# PCOD9144044 Si02
#       8
#     4   4   4   4   4   4   4   4
#     4   8  16  31  54  84 112 139 183 238 282 327
#     4  10  19  36  59  83 114 151 192 234 280 335
#     4  11  21  34  57  88 120 149 182 231 290 340
#     4  10  19  34  56  83 114 149 192 238 282 335
#     4  11  24  40  57  80 116 156 191 234 290 349
#     4  11  22  37  60  88 114 145 193 243 280 331
#     4  11  24  39  55  83 119 153 190 235 292 348
#     4  10  18  34  59  85 111 148 193 236 285 340
#
# _framework density 17.735624000000001
#
# number of rings (size 3 to 8) (size 9 to 14) (size 15 to 20)
#    0.000    1.750    2.500    3.750    0.000    2.750 
#    0.000    2.500    0.000    7.500    0.000    0.000 
#    0.000    0.000    0.000    0.000    0.000    0.000 
#
# Total GULP energy -178693.749238 kJ/mol
# GULP energy per Si atom -5584.179664 kJ/mol
# Density = 1.769526 g / cm^3
# Si number density = 17.735624 Si / 1000 Ang^3
#
#
#
# Elastic Constant Matrix: (Units=GPa)
#
#
# Indices 1 2 3 4 5 6 
#
# 1 149.2843 42.4607 61.1851 0.0000 21.0534 0.0000
# 2 42.4607 57.7153 41.5462 0.0000 6.3109 0.0000
# 3 61.1851 41.5462 99.3697 0.0000 15.9404 0.0000
# 4 0.0000 0.0000 0.0000 24.8823 0.0000 7.2660
# 5 21.0534 6.3109 15.9404 0.0000 27.5049 0.0000
# 6 0.0000 0.0000 0.0000 7.2660 0.0000 25.7584
#
#
#
# Elastic Compliance Matrix: (Units=1/GPa)
#
#
# Indices 1 2 3 4 5 6 
#
# 1 0.010065 -0.004251 -0.003683 0.000000 -0.004594 0.000000
# 2 -0.004251 0.026585 -0.008865 0.000000 0.002292 0.000000
# 3 -0.003683 -0.008865 0.016823 0.000000 -0.004897 0.000000
# 4 0.000000 0.000000 0.000000 0.043797 0.000000 -0.012354
# 5 -0.004594 0.002292 -0.004897 0.000000 0.042186 0.000000
# 6 0.000000 0.000000 0.000000 -0.012354 0.000000 0.042307
#
#
# Mechanical properties :
#
#
# Convention : Reuss Voigt Hill
#
# Bulk Modulus (GPa) = 50.31576 66.30591 58.31084
# Shear Modulus (GPa) = 22.52381 26.37427 24.44904
#
# Velocity S-wave (km/s) = 3.56754 3.86045 3.71688
# Velocity P-wave (km/s) = 6.73804 7.57216 7.16725
#
# Compressibility (1/GPa) = 0.01987449
#
# Stress axis : x y z
#
# Youngs Moduli (GPa) = 99.35137 37.61515 59.44187
#
# Poissons Ratio (x) = 0.15992 0.21893
# Poissons Ratio (y) = 0.42238 0.52696
# Poissons Ratio (z) = 0.36591 0.33346
#
# Static dielectric constant tensor:
#      x y z
#    x 1.615550 0.000000 0.012540 
#    y 0.000000 1.595420 0.000000 
#    z 0.012540 0.000000 1.576920 
# 
# From -- ./inp_files/55196.got.cif
#   From: 2010.05.17/outbox.cif.g08.bks.cpg/sg10_28_cif.got.tgz:55196.got - 2010.06.03 11:33:40.
