data_PCOD9144190
_publ_section_title
;
Structure prediction by ZEFSAII (Michael W. Deem and Ramdas Pophale) SiO2 
 PCOD9144190
Probable space group: P 2/M
;
_chemical_formula_sum "Si O2"
_cell_formula_units_Z 21
_cell_length_a 10.148274
_cell_length_b 16.617060
_cell_length_c 8.763321
_cell_angle_alpha 90.000000
_cell_angle_beta 43.969923
_cell_angle_gamma 90.000000
_cell_volume 1026.006618
_symmetry_space_group_name_H-M "P 2/M"
_symmetry_group_IT_number 10
_symmetry_cell_setting 'monoclinic'
loop_
_space_group_symop_operation_xyz
x,y,z
-x,y,-z
-x,-y,-z
x,-y,z
loop_
_atom_site_type_symbol
_atom_site_label
_atom_site_fract_x
_atom_site_fract_y
_atom_site_fract_z
Si Si1 0.000000 0.500000 0.000000
Si Si2 0.432767 0.092468 0.879813
Si Si3 0.920726 0.800890 0.896745
Si Si4 0.691583 0.233315 0.576418
Si Si5 0.500000 0.336747 0.000000
Si Si6 0.771544 0.620484 0.023899
Si Si7 0.500000 0.647648 0.500000
O O1 0.043241 0.569991 0.095004
O O2 0.572952 0.150898 0.670410
O O3 0.436317 0.000000 0.826343
O O4 0.500000 0.095020 0.000000
O O5 0.225712 0.131694 0.035417
O O6 0.090227 0.787282 0.635316
O O7 0.812255 0.715556 0.999606
O O8 0.000000 0.819399 0.000000
O O9 0.625997 0.279413 0.784711
O O10 0.627535 0.294209 0.497452
O O11 0.352305 0.388700 0.024578
O O12 0.633931 0.597058 0.278624
#
# Coordination Sequence:
#
# PCOD9144190 Si02
#       7
#     1   4   4   4   2   4   2
#     4  12  24  40  64  98 138 162 214 270 318 374
#     4  11  24  41  59  92 133 169 215 269 326 377
#     4  12  22  40  68  96 124 172 220 264 315 393
#     4  11  19  39  66  93 125 172 219 266 312 384
#     4  10  22  39  67  94 124 172 222 252 319 387
#     4  11  22  41  64  98 126 170 212 266 316 387
#     4  10  18  39  69  90 128 170 216 252 323 397
#
# _framework density 20.467704000000001
#
# number of rings (size 3 to 8) (size 9 to 14) (size 15 to 20)
#    0.000    0.952    7.619    0.000    0.000    4.952 
#    0.000    5.238    0.000   11.429    0.000    0.000 
#    0.000    0.000    0.000    0.000    0.000    0.000 
#
# Total GULP energy -117056.852205 kJ/mol
# GULP energy per Si atom -5574.135819 kJ/mol
# Density = 2.042112 g / cm^3
# Si number density = 20.467704 Si / 1000 Ang^3
#
#
#
# Elastic Constant Matrix: (Units=GPa)
#
#
# Indices 1 2 3 4 5 6 
#
# 1 142.7766 37.4072 18.8613 0.0000 6.8983 0.0000
# 2 37.4072 92.0845 -0.5346 0.0000 6.8630 0.0000
# 3 18.8613 -0.5346 97.3384 0.0000 -0.1566 0.0000
# 4 0.0000 0.0000 0.0000 6.0730 0.0000 -11.4599
# 5 6.8983 6.8630 -0.1566 0.0000 27.7693 0.0000
# 6 0.0000 0.0000 0.0000 -11.4599 0.0000 39.9019
#
#
#
# Elastic Compliance Matrix: (Units=1/GPa)
#
#
# Indices 1 2 3 4 5 6 
#
# 1 0.008116 -0.003214 -0.001592 0.000000 -0.001231 0.000000
# 2 -0.003214 0.012337 0.000687 0.000000 -0.002247 0.000000
# 3 -0.001592 0.000687 0.010586 0.000000 0.000285 0.000000
# 4 0.000000 0.000000 0.000000 0.359488 0.000000 0.103246
# 5 -0.001231 -0.002247 0.000285 0.000000 0.036874 0.000000
# 6 0.000000 0.000000 0.000000 0.103246 0.000000 0.054714
#
#
# Mechanical properties :
#
#
# Convention : Reuss Voigt Hill
#
# Bulk Modulus (GPa) = 43.86051 49.29638 46.57844
# Shear Modulus (GPa) = 10.04109 33.17988 21.61048
#
# Velocity S-wave (km/s) = 2.21731 4.03064 3.25288
# Velocity P-wave (km/s) = 5.29443 6.76747 6.07575
#
# Compressibility (1/GPa) = 0.02279955
#
# Stress axis : x y z
#
# Youngs Moduli (GPa) = 123.21449 81.05830 94.46259
#
# Poissons Ratio (x) = 0.26056 0.15041
# Poissons Ratio (y) = 0.39606 -0.06490
# Poissons Ratio (z) = 0.19619 -0.05569
#
# Static dielectric constant tensor:
#      x y z
#    x 1.786690 0.000000 -0.033830 
#    y 0.000000 1.732010 0.000000 
#    z -0.033830 0.000000 1.796680 
# 
# From -- ./inp_files/19567.got.cif
#   From: 2010.05.17/outbox.cif.g08.bks.cpg/sg10_10_cif.got.tgz:19567.got - 2010.06.03 11:33:40.
