data_PCOD9144585
_publ_section_title
;
Structure prediction by ZEFSAII (Michael W. Deem and Ramdas Pophale) SiO2 
 PCOD9144585
Probable space group: P 2/M
;
_chemical_formula_sum "Si O2"
_cell_formula_units_Z 28
_cell_length_a 26.565837
_cell_length_b 7.556562
_cell_length_c 9.778325
_cell_angle_alpha 90.000000
_cell_angle_beta 40.238273
_cell_angle_gamma 90.000000
_cell_volume 1268.011110
_symmetry_space_group_name_H-M "P 2/M"
_symmetry_group_IT_number 10
_symmetry_cell_setting 'monoclinic'
loop_
_space_group_symop_operation_xyz
x,y,z
-x,y,-z
-x,-y,-z
x,-y,z
loop_
_atom_site_type_symbol
_atom_site_label
_atom_site_fract_x
_atom_site_fract_y
_atom_site_fract_z
Si Si1 0.736618 0.713202 0.649965
Si Si2 0.999027 0.206088 0.151133
Si Si3 0.327464 0.204677 0.641653
Si Si4 0.753347 0.210860 0.934740
Si Si5 0.075545 0.217145 0.427391
Si Si6 0.172079 0.286832 0.799059
Si Si7 0.585371 0.704945 0.803622
O O1 0.736351 0.500000 0.643805
O O2 0.742277 0.762453 0.796334
O O3 0.805810 0.769509 0.402767
O O4 0.656240 0.780443 0.747346
O O5 0.088090 0.217216 0.017251
O O6 0.978001 0.000000 0.179606
O O7 0.000000 0.291154 0.000000
O O8 0.940693 0.279062 0.384245
O O9 0.242650 0.219620 0.745722
O O10 0.386484 0.290649 0.411956
O O11 0.350999 0.000000 0.601307
O O12 0.312424 0.279714 0.824762
O O13 0.839647 0.279100 0.793776
O O14 0.754422 0.000000 0.955725
O O15 0.000000 0.273686 0.500000
O O16 0.075938 0.000000 0.424590
O O17 0.171115 0.500000 0.807309
O O18 0.579588 0.500000 0.858695
O O19 0.500000 0.785455 0.000000
#
# Coordination Sequence:
#
# PCOD9144585 Si02
#       7
#     4   4   4   4   4   4   4
#     4   9  19  34  53  77 103 135 173 212 256 308
#     4  10  19  30  47  70  95 129 175 224 271 314
#     4  10  20  34  55  81 105 133 172 213 256 308
#     4  10  20  34  53  77 105 138 175 217 265 314
#     4   9  17  30  47  67  95 132 173 216 260 305
#     4  10  20  34  51  72 101 138 179 220 264 315
#     4   9  19  38  61  83 108 138 172 208 251 309
#
# _framework density 22.081824999999998
#
# number of rings (size 3 to 8) (size 9 to 14) (size 15 to 20)
#    0.000    2.429    0.000    3.429    0.000    8.000 
#    0.000    1.429    0.000    6.000    0.000    0.000 
#    0.000    0.000    0.000    0.000    0.000    0.000 
#
# Total GULP energy -156310.465438 kJ/mol
# GULP energy per Si atom -5582.516623 kJ/mol
# Density = 2.203157 g / cm^3
# Si number density = 22.081825 Si / 1000 Ang^3
#
#
#
# Elastic Constant Matrix: (Units=GPa)
#
#
# Indices 1 2 3 4 5 6 
#
# 1 44.5558 -3.3315 35.4463 0.0000 7.9663 0.0000
# 2 -3.3315 57.5492 -10.9098 0.0000 -0.7550 0.0000
# 3 35.4463 -10.9098 128.4787 0.0000 3.0107 0.0000
# 4 0.0000 0.0000 0.0000 17.3306 0.0000 3.6491
# 5 7.9663 -0.7550 3.0107 0.0000 38.3496 0.0000
# 6 0.0000 0.0000 0.0000 3.6491 0.0000 15.6390
#
#
#
# Elastic Compliance Matrix: (Units=1/GPa)
#
#
# Indices 1 2 3 4 5 6 
#
# 1 0.029899 0.000121 -0.008108 0.000000 -0.005572 0.000000
# 2 0.000121 0.017663 0.001462 0.000000 0.000208 0.000000
# 3 -0.008108 0.001462 0.010123 0.000000 0.000918 0.000000
# 4 0.000000 0.000000 0.000000 0.060683 0.000000 -0.014159
# 5 -0.005572 0.000208 0.000918 0.000000 0.027165 0.000000
# 6 0.000000 0.000000 0.000000 -0.014159 0.000000 0.067246
#
#
# Mechanical properties :
#
#
# Convention : Reuss Voigt Hill
#
# Bulk Modulus (GPa) = 22.40440 30.33264 26.36852
# Shear Modulus (GPa) = 20.77188 28.22243 24.49715
#
# Velocity S-wave (km/s) = 3.07037 3.57891 3.33435
# Velocity P-wave (km/s) = 4.76841 5.55377 5.17601
#
# Compressibility (1/GPa) = 0.04463408
#
# Stress axis : x y z
#
# Youngs Moduli (GPa) = 33.44538 56.61472 98.78508
#
# Poissons Ratio (x) = -0.00683 0.80097
# Poissons Ratio (y) = -0.00404 -0.14439
# Poissons Ratio (z) = 0.27118 -0.08275
#
# Static dielectric constant tensor:
#      x y z
#    x 1.834540 0.000000 0.033220 
#    y 0.000000 1.824930 0.000000 
#    z 0.033220 0.000000 1.834430 
# 
# From -- ./inp_files/37024.got.cif
#   From: 2010.05.17/outbox.cif.g08.bks.cpg/sg10_19_cif.got.tgz:37024.got - 2010.06.03 11:33:40.
