data_PCOD9144035
_publ_section_title
;
Structure prediction by ZEFSAII (Michael W. Deem and Ramdas Pophale) SiO2 
 PCOD9144035
Probable space group: P 2/M
;
_chemical_formula_sum "Si O2"
_cell_formula_units_Z 26
_cell_length_a 19.210826
_cell_length_b 9.774156
_cell_length_c 10.983963
_cell_angle_alpha 90.000000
_cell_angle_beta 36.563596
_cell_angle_gamma 90.000000
_cell_volume 1228.634370
_symmetry_space_group_name_H-M "P 2/M"
_symmetry_group_IT_number 10
_symmetry_cell_setting 'monoclinic'
loop_
_space_group_symop_operation_xyz
x,y,z
-x,y,-z
-x,-y,-z
x,-y,z
loop_
_atom_site_type_symbol
_atom_site_label
_atom_site_fract_x
_atom_site_fract_y
_atom_site_fract_z
Si Si1 0.500000 0.751656 0.000000
Si Si2 0.862849 0.664555 0.989328
Si Si3 0.933892 0.158618 0.385391
Si Si4 0.443834 0.151820 0.345407
Si Si5 0.630006 0.655636 0.185940
Si Si6 0.166095 0.154149 0.747601
Si Si7 0.738563 0.651352 0.763820
O O1 0.484202 0.833180 0.147893
O O2 0.379711 0.668839 0.149615
O O3 0.877939 0.500000 0.962566
O O4 0.729516 0.699212 0.140002
O O5 0.879676 0.728962 0.098980
O O6 0.951584 0.745942 0.776867
O O7 0.886678 0.159669 0.312708
O O8 0.831560 0.231171 0.605428
O O9 0.954709 0.000000 0.390596
O O10 0.515220 0.256051 0.327775
O O11 0.305333 0.170773 0.541347
O O12 0.471667 0.000000 0.349127
O O13 0.597189 0.500000 0.258112
O O14 0.695887 0.657632 0.962654
O O15 0.142167 0.000000 0.831283
O O16 0.788878 0.500000 0.668949
#
# Coordination Sequence:
#
# PCOD9144035 Si02
#       7
#     2   4   4   4   4   4   4
#     4  10  18  34  58  90 122 152 184 238 292 340
#     4  11  24  42  61  82 114 158 204 245 285 342
#     4  11  23  40  61  88 120 153 191 244 297 345
#     4  10  20  35  60  89 119 153 193 236 289 352
#     4   9  22  41  58  84 121 157 194 241 293 339
#     4  10  22  40  59  87 120 153 189 241 299 344
#     4  10  20  36  60  88 118 154 193 236 289 349
#
# _framework density 21.161705000000001
#
# number of rings (size 3 to 8) (size 9 to 14) (size 15 to 20)
#    0.000    1.846    1.538    1.846    0.000    9.231 
#    0.000    6.154    0.000    0.000    0.000    0.000 
#    0.000    0.000    0.000    0.000    0.000    0.000 
#
# Total GULP energy -145267.033367 kJ/mol
# GULP energy per Si atom -5587.193591 kJ/mol
# Density = 2.111354 g / cm^3
# Si number density = 21.161705 Si / 1000 Ang^3
#
#
#
# Elastic Constant Matrix: (Units=GPa)
#
#
# Indices 1 2 3 4 5 6 
#
# 1 70.8198 21.8492 4.9184 0.0000 -15.3039 0.0000
# 2 21.8492 91.6787 37.2972 0.0000 -25.1956 0.0000
# 3 4.9184 37.2972 75.7051 0.0000 -19.0731 0.0000
# 4 0.0000 0.0000 0.0000 1.2174 0.0000 -14.1435
# 5 -15.3039 -25.1956 -19.0731 0.0000 30.7666 0.0000
# 6 0.0000 0.0000 0.0000 -14.1435 0.0000 9.3203
#
#
#
# Elastic Compliance Matrix: (Units=1/GPa)
#
#
# Indices 1 2 3 4 5 6 
#
# 1 0.016386 -0.002796 0.002121 0.000000 0.007176 0.000000
# 2 -0.002796 0.016178 -0.005690 0.000000 0.008331 0.000000
# 3 0.002121 -0.005690 0.017737 0.000000 0.007391 0.000000
# 4 0.000000 0.000000 0.000000 -0.049394 0.000000 -0.074956
# 5 0.007176 0.008331 0.007391 0.000000 0.047476 0.000000
# 6 0.000000 0.000000 0.000000 -0.074956 0.000000 -0.006452
#
#
# Mechanical properties :
#
#
# Convention : Reuss Voigt Hill
#
# Bulk Modulus (GPa) = 26.61627 40.70371 33.65999
# Shear Modulus (GPa) = 74.42133 19.87011 47.14572
#
# Velocity S-wave (km/s) = 5.93669 3.06758 4.72516
# Velocity P-wave (km/s) = 7.71992 5.64119 6.76093
#
# Compressibility (1/GPa) = 0.03757100
#
# Stress axis : x y z
#
# Youngs Moduli (GPa) = 61.02645 61.81111 56.38057
#
# Poissons Ratio (x) = 0.17282 -0.11957
# Poissons Ratio (y) = 0.17062 0.32081
# Poissons Ratio (z) = -0.12942 0.35170
#
# Static dielectric constant tensor:
#      x y z
#    x 1.754310 0.000000 -0.003950 
#    y 0.000000 1.743150 0.000000 
#    z -0.003950 0.000000 1.767290 
# 
# From -- ./inp_files/55097.got.cif
#   From: 2010.05.17/outbox.cif.g08.bks.cpg/sg10_28_cif.got.tgz:55097.got - 2010.06.03 11:33:40.
