data_PCOD9144600
_publ_section_title
;
Structure prediction by ZEFSAII (Michael W. Deem and Ramdas Pophale) SiO2 
 PCOD9144600
Probable space group: P 2/M
;
_chemical_formula_sum "Si O2"
_cell_formula_units_Z 32
_cell_length_a 12.074822
_cell_length_b 8.858296
_cell_length_c 17.121796
_cell_angle_alpha 90.000000
_cell_angle_beta 83.291247
_cell_angle_gamma 90.000000
_cell_volume 1818.847642
_symmetry_space_group_name_H-M "P 2/M"
_symmetry_group_IT_number 10
_symmetry_cell_setting 'monoclinic'
loop_
_space_group_symop_operation_xyz
x,y,z
-x,y,-z
-x,-y,-z
x,-y,z
loop_
_atom_site_type_symbol
_atom_site_label
_atom_site_fract_x
_atom_site_fract_y
_atom_site_fract_z
Si Si1 0.616657 0.819401 0.737205
Si Si2 0.763100 0.316873 0.585984
Si Si3 0.976112 0.180631 0.912427
Si Si4 0.378830 0.322391 0.550470
Si Si5 0.632128 0.821317 0.281014
Si Si6 0.863735 0.318584 0.230506
Si Si7 0.036419 0.673408 0.335821
Si Si8 0.793517 0.326046 0.827066
O O1 0.676461 0.749324 0.656014
O O2 0.486652 0.779137 0.746607
O O3 0.683453 0.756085 0.805693
O O4 0.627101 0.000000 0.732636
O O5 0.761925 0.500000 0.593988
O O6 0.716616 0.281701 0.504334
O O7 0.887266 0.262744 0.600544
O O8 0.068194 0.251418 0.847477
O O9 0.858501 0.243428 0.890820
O O10 0.977901 0.000000 0.904657
O O11 0.000000 0.220973 0.000000
O O12 0.500000 0.307855 0.500000
O O13 0.364862 0.500000 0.572650
O O14 0.375044 0.222279 0.627398
O O15 0.737169 0.733114 0.238609
O O16 0.648512 0.000000 0.270381
O O17 0.873660 0.500000 0.228825
O O18 0.924158 0.262478 0.306272
O O19 0.010976 0.500000 0.359776
O O20 0.121886 0.674598 0.254758
O O21 0.772174 0.500000 0.847946
#
# Coordination Sequence:
#
# PCOD9144600 Si02
#       8
#     4   4   4   4   4   4   4   4
#     4  10  19  30  47  72 101 135 175 218 266 315
#     4   9  16  29  49  71  97 127 168 223 273 315
#     4  10  20  35  58  87 116 141 165 201 252 306
#     4  10  19  31  49  73  99 132 177 225 271 318
#     4  11  23  35  49  71 104 143 178 218 272 325
#     4  10  20  35  55  77 103 137 179 219 256 307
#     4   7  13  27  47  70  93 123 163 209 257 299
#     4   9  17  30  51  78 106 135 171 213 252 297
#
# _framework density 17.593557000000001
#
# number of rings (size 3 to 8) (size 9 to 14) (size 15 to 20)
#    0.000    2.500    1.250    3.375    0.000    3.250 
#    0.000    1.250    0.000    4.500    0.000    5.250 
#    0.000    0.000    0.000    0.000    0.000    0.000 
#
# Total GULP energy -178385.482189 kJ/mol
# GULP energy per Si atom -5574.546318 kJ/mol
# Density = 1.755351 g / cm^3
# Si number density = 17.593557 Si / 1000 Ang^3
#
#
#
# Elastic Constant Matrix: (Units=GPa)
#
#
# Indices 1 2 3 4 5 6 
#
# 1 116.5578 41.5701 46.8066 0.0000 28.5049 0.0000
# 2 41.5701 41.3860 28.2358 0.0000 13.0020 0.0000
# 3 46.8066 28.2358 62.5804 0.0000 29.1040 0.0000
# 4 0.0000 0.0000 0.0000 14.1345 0.0000 20.8425
# 5 28.5049 13.0020 29.1040 0.0000 27.6886 0.0000
# 6 0.0000 0.0000 0.0000 20.8425 0.0000 -9.2029
#
#
#
# Elastic Compliance Matrix: (Units=1/GPa)
#
#
# Indices 1 2 3 4 5 6 
#
# 1 0.015710 -0.011250 -0.003149 0.000000 -0.007581 0.000000
# 2 -0.011250 0.042966 -0.013645 0.000000 0.005748 0.000000
# 3 -0.003149 -0.013645 0.039134 0.000000 -0.031485 0.000000
# 4 0.000000 0.000000 0.000000 0.016303 0.000000 0.036923
# 5 -0.007581 0.005748 -0.031485 0.000000 0.074316 0.000000
# 6 0.000000 0.000000 0.000000 0.036923 0.000000 -0.025040
#
#
# Mechanical properties :
#
#
# Convention : Reuss Voigt Hill
#
# Bulk Modulus (GPa) = 23.96780 50.41658 37.19219
# Shear Modulus (GPa) = 21.42383 13.45148 17.43766
#
# Velocity S-wave (km/s) = 3.49335 2.76808 3.15165
# Velocity P-wave (km/s) = 5.47028 6.23978 5.86766
#
# Compressibility (1/GPa) = 0.04172265
#
# Stress axis : x y z
#
# Youngs Moduli (GPa) = 63.65296 23.27401 25.55341
#
# Poissons Ratio (x) = 0.26184 0.08046
# Poissons Ratio (y) = 0.71611 0.34867
# Poissons Ratio (z) = 0.20043 0.31757
#
# Static dielectric constant tensor:
#      x y z
#    x 1.629750 0.000000 0.024500 
#    y 0.000000 1.589770 0.000000 
#    z 0.024500 0.000000 1.588690 
# 
# From -- ./inp_files/75982.got.cif
#   From: 2010.05.17/outbox.cif.g08.bks.cpg/sg10_38_cif.got.tgz:75982.got - 2010.06.03 11:33:40.
