data_PCOD9144199
_publ_section_title
;
Structure prediction by ZEFSAII (Michael W. Deem and Ramdas Pophale) SiO2 
 PCOD9144199
Probable space group: P 2/M
;
_chemical_formula_sum "Si O2"
_cell_formula_units_Z 32
_cell_length_a 24.159477
_cell_length_b 7.497181
_cell_length_c 17.024179
_cell_angle_alpha 90.000000
_cell_angle_beta 30.081325
_cell_angle_gamma 90.000000
_cell_volume 1545.566343
_symmetry_space_group_name_H-M "P 2/M"
_symmetry_group_IT_number 10
_symmetry_cell_setting 'monoclinic'
loop_
_space_group_symop_operation_xyz
x,y,z
-x,y,-z
-x,-y,-z
x,-y,z
loop_
_atom_site_type_symbol
_atom_site_label
_atom_site_fract_x
_atom_site_fract_y
_atom_site_fract_z
Si Si1 0.076824 0.284780 0.478252
Si Si2 0.739007 0.780344 0.018467
Si Si3 0.317470 0.202556 0.222503
Si Si4 0.404123 0.710173 0.388773
Si Si5 0.388803 0.211884 0.975510
Si Si6 0.214025 0.787637 0.510285
Si Si7 0.978921 0.797019 0.764688
Si Si8 0.536209 0.794782 0.372959
O O1 0.085796 0.500000 0.474544
O O2 0.198597 0.205117 0.324794
O O3 0.019688 0.205909 0.624925
O O4 0.000000 0.242687 0.500000
O O5 0.641052 0.720489 0.196760
O O6 0.740444 0.000000 0.013855
O O7 0.704292 0.722119 0.972554
O O8 0.856363 0.718307 0.908205
O O9 0.391412 0.284223 0.061692
O O10 0.283439 0.283208 0.349084
O O11 0.356591 0.000000 0.190631
O O12 0.409841 0.500000 0.391453
O O13 0.286616 0.760757 0.497695
O O14 0.437892 0.792328 0.430344
O O15 0.496628 0.763678 0.211139
O O16 0.371731 0.000000 0.005348
O O17 0.088680 0.716370 0.670419
O O18 0.202341 0.000000 0.509623
O O19 0.965394 0.000000 0.810733
O O20 0.500000 0.712634 0.500000
O O21 0.567027 0.000000 0.351849
#
# Coordination Sequence:
#
# PCOD9144199 Si02
#       8
#     4   4   4   4   4   4   4   4
#     4  10  19  27  37  59  93 129 164 206 252 293
#     4   8  14  27  50  78 101 121 153 199 247 293
#     4   9  18  31  48  67  88 125 174 218 253 286
#     4  11  22  34  50  72 100 133 165 198 240 294
#     4   9  17  31  50  71  97 128 166 213 258 295
#     4   9  18  32  48  68  95 130 173 212 245 281
#     4   9  17  30  49  69  91 125 167 206 240 283
#     4   9  18  35  60  85 105 124 149 190 245 298
#
# _framework density 20.704386
#
# number of rings (size 3 to 8) (size 9 to 14) (size 15 to 20)
#    0.000    2.750    0.000    3.750    0.000    5.250 
#    0.000    6.250    0.000    0.750    0.000    5.250 
#    0.000    0.000    0.000    0.000    0.000    0.000 
#
# Total GULP energy -178322.427631 kJ/mol
# GULP energy per Si atom -5572.575863 kJ/mol
# Density = 2.065726 g / cm^3
# Si number density = 20.704386 Si / 1000 Ang^3
#
#
#
# Elastic Constant Matrix: (Units=GPa)
#
#
# Indices 1 2 3 4 5 6 
#
# 1 103.2164 -7.8816 44.2223 0.0000 -20.9782 0.0000
# 2 -7.8816 63.4527 -0.7126 0.0000 3.1492 0.0000
# 3 44.2223 -0.7126 55.5328 0.0000 -3.1894 0.0000
# 4 0.0000 0.0000 0.0000 -472.9366 0.0000 239.6962
# 5 -20.9782 3.1492 -3.1894 0.0000 28.6283 0.0000
# 6 0.0000 0.0000 0.0000 239.6962 0.0000 -34.4074
#
#
#
# Elastic Compliance Matrix: (Units=1/GPa)
#
#
# Indices 1 2 3 4 5 6 
#
# 1 0.017984 0.001510 -0.013642 0.000000 0.011493 0.000000
# 2 0.001510 0.015974 -0.001042 0.000000 -0.000766 0.000000
# 3 -0.013642 -0.001042 0.028472 0.000000 -0.006710 0.000000
# 4 0.000000 0.000000 0.000000 0.000836 0.000000 0.005820
# 5 0.011493 -0.000766 -0.006710 0.000000 0.042689 0.000000
# 6 0.000000 0.000000 0.000000 0.005820 0.000000 0.011484
#
#
# Mechanical properties :
#
#
# Convention : Reuss Voigt Hill
#
# Bulk Modulus (GPa) = 27.71362 32.60643 30.16002
# Shear Modulus (GPa) = 32.08969 -83.30490 -25.60760
#
# Velocity S-wave (km/s) = 3.94115 -6.35002 -3.52066
# Velocity P-wave (km/s) = 5.84163 6.16286 1.38857
#
# Compressibility (1/GPa) = 0.03608335
#
# Stress axis : x y z
#
# Youngs Moduli (GPa) = 55.60396 62.60283 35.12207
#
# Poissons Ratio (x) = -0.09455 0.47913
# Poissons Ratio (y) = -0.08398 0.03659
# Poissons Ratio (z) = 0.75855 0.06522
#
# Static dielectric constant tensor:
#      x y z
#    x 1.769410 0.000000 -0.028380 
#    y 0.000000 1.783300 0.000000 
#    z -0.028380 0.000000 1.774070 
# 
# From -- ./inp_files/69975.got.cif
#   From: 2010.05.17/outbox.cif.g08.bks.cpg/sg10_35_cif.got.tgz:69975.got - 2010.06.03 11:33:40.
