data_PCOD9144004
_publ_section_title
;
Structure prediction by ZEFSAII (Michael W. Deem and Ramdas Pophale) SiO2 
 PCOD9144004
Probable space group: P 2/M
;
_chemical_formula_sum "Si O2"
_cell_formula_units_Z 28
_cell_length_a 14.920634
_cell_length_b 14.775494
_cell_length_c 8.991749
_cell_angle_alpha 90.000000
_cell_angle_beta 47.230025
_cell_angle_gamma 90.000000
_cell_volume 1455.191987
_symmetry_space_group_name_H-M "P 2/M"
_symmetry_group_IT_number 10
_symmetry_cell_setting 'monoclinic'
loop_
_space_group_symop_operation_xyz
x,y,z
-x,y,-z
-x,-y,-z
x,-y,z
loop_
_atom_site_type_symbol
_atom_site_label
_atom_site_fract_x
_atom_site_fract_y
_atom_site_fract_z
Si Si1 0.119540 0.402908 0.262177
Si Si2 0.628848 0.653332 0.925245
Si Si3 0.247442 0.103618 0.884047
Si Si4 0.952624 0.792652 0.722662
Si Si5 0.154887 0.899768 0.649655
Si Si6 0.549045 0.252492 0.292975
Si Si7 0.389994 0.840113 0.222663
O O1 0.125058 0.500000 0.174299
O O2 0.242137 0.396257 0.224758
O O3 0.101799 0.308368 0.194718
O O4 0.000000 0.405007 0.500000
O O5 0.648824 0.753071 0.831680
O O6 0.500000 0.618954 0.000000
O O7 0.604848 0.670972 0.125638
O O8 0.190637 0.109479 0.782326
O O9 0.357308 0.173600 0.771040
O O10 0.285725 0.000000 0.864992
O O11 0.151556 0.136018 0.116126
O O12 0.000000 0.800737 0.500000
O O13 0.065385 0.820136 0.700179
O O14 0.274416 0.895236 0.409335
O O15 0.097494 0.000000 0.696214
O O16 0.500000 0.292085 0.500000
O O17 0.448048 0.203462 0.305241
O O18 0.500000 0.883436 0.000000
#
# Coordination Sequence:
#
# PCOD9144004 Si02
#       7
#     4   4   4   4   4   4   4
#     4  10  20  36  63  92 117 145 186 240 302 357
#     4   9  19  36  59  89 119 150 194 239 287 351
#     4  11  23  37  55  81 114 157 201 237 277 339
#     4  11  23  40  59  81 113 146 190 242 294 344
#     4  11  23  37  54  80 115 158 200 238 279 337
#     4  10  18  34  56  81 112 158 193 231 286 333
#     4   9  19  33  53  79 116 153 190 239 282 334
#
# _framework density 19.241447999999998
#
# number of rings (size 3 to 8) (size 9 to 14) (size 15 to 20)
#    0.000    2.143    2.857    2.571    2.000    3.714 
#    0.000    0.000    0.000    2.571    0.000    2.000 
#    0.000    0.000    0.000    0.000    0.000    0.000 
#
# Total GULP energy -156033.318540 kJ/mol
# GULP energy per Si atom -5572.618519 kJ/mol
# Density = 1.919765 g / cm^3
# Si number density = 19.241448 Si / 1000 Ang^3
#
#
#
# Elastic Constant Matrix: (Units=GPa)
#
#
# Indices 1 2 3 4 5 6 
#
# 1 69.2979 35.4861 30.8930 0.0000 -6.1250 0.0000
# 2 35.4861 70.1730 21.7695 0.0000 -5.4550 0.0000
# 3 30.8930 21.7695 88.9330 0.0000 6.7046 0.0000
# 4 0.0000 0.0000 0.0000 -133.4516 0.0000 120.2450
# 5 -6.1250 -5.4550 6.7046 0.0000 34.4855 0.0000
# 6 0.0000 0.0000 0.0000 120.2450 0.0000 -93.3038
#
#
#
# Elastic Compliance Matrix: (Units=1/GPa)
#
#
# Indices 1 2 3 4 5 6 
#
# 1 0.021899 -0.009041 -0.005663 0.000000 0.003560 0.000000
# 2 -0.009041 0.019515 -0.001774 0.000000 0.001826 0.000000
# 3 -0.005663 -0.001774 0.013947 0.000000 -0.003998 0.000000
# 4 0.000000 0.000000 0.000000 0.046482 0.000000 0.059904
# 5 0.003560 0.001826 -0.003998 0.000000 0.030696 0.000000
# 6 0.000000 0.000000 0.000000 0.059904 0.000000 0.066483
#
#
# Mechanical properties :
#
#
# Convention : Reuss Voigt Hill
#
# Bulk Modulus (GPa) = 44.63066 44.96680 44.79873
# Shear Modulus (GPa) = 20.88157 -29.10363 -4.11103
#
# Velocity S-wave (km/s) = 3.29787 -3.89337 -1.46328
# Velocity P-wave (km/s) = 6.14383 1.79148 4.52527
#
# Compressibility (1/GPa) = 0.02240612
#
# Stress axis : x y z
#
# Youngs Moduli (GPa) = 45.66389 51.24344 71.69956
#
# Poissons Ratio (x) = 0.46328 0.40600
# Poissons Ratio (y) = 0.41284 0.12720
# Poissons Ratio (z) = 0.25857 0.09091
#
# Static dielectric constant tensor:
#      x y z
#    x 1.696000 0.000000 -0.037670 
#    y 0.000000 1.672290 0.000000 
#    z -0.037670 0.000000 1.703720 
# 
# From -- ./inp_files/29427.got.cif
#   From: 2010.05.17/outbox.cif.g08.bks.cpg/sg10_15_cif.got.tgz:29427.got - 2010.06.03 11:33:40.
