data_PCOD9144790
_publ_section_title
;
Structure prediction by ZEFSAII (Michael W. Deem and Ramdas Pophale) SiO2 
 PCOD9144790
Probable space group: P 2/M
;
_chemical_formula_sum "Si O2"
_cell_formula_units_Z 32
_cell_length_a 15.343844
_cell_length_b 7.609741
_cell_length_c 21.875271
_cell_angle_alpha 90.000000
_cell_angle_beta 41.491947
_cell_angle_gamma 90.000000
_cell_volume 1692.205336
_symmetry_space_group_name_H-M "P 2/M"
_symmetry_group_IT_number 10
_symmetry_cell_setting 'monoclinic'
loop_
_space_group_symop_operation_xyz
x,y,z
-x,y,-z
-x,-y,-z
x,-y,z
loop_
_atom_site_type_symbol
_atom_site_label
_atom_site_fract_x
_atom_site_fract_y
_atom_site_fract_z
Si Si1 0.041701 0.785293 0.672059
Si Si2 0.730435 0.714686 0.302276
Si Si3 0.375140 0.797775 0.378993
Si Si4 0.077196 0.214674 0.519233
Si Si5 0.034356 0.797254 0.162087
Si Si6 0.346949 0.701779 0.529997
Si Si7 0.656164 0.297466 0.206367
Si Si8 0.897723 0.203884 0.003474
O O1 0.009120 0.737413 0.619491
O O2 0.187955 0.711176 0.606300
O O3 0.951990 0.725132 0.775997
O O4 0.051665 0.000000 0.669802
O O5 0.734685 0.500000 0.302180
O O6 0.639272 0.769426 0.407609
O O7 0.684436 0.771870 0.259774
O O8 0.877144 0.786767 0.233803
O O9 0.229553 0.725072 0.441569
O O10 0.394665 0.787870 0.442325
O O11 0.499948 0.713465 0.280659
O O12 0.374819 0.000000 0.361001
O O13 0.000000 0.274313 0.500000
O O14 0.080993 0.000000 0.516132
O O15 0.078507 0.000000 0.142324
O O16 0.093973 0.716549 0.068920
O O17 0.392185 0.500000 0.503379
O O18 0.696471 0.500000 0.184763
O O19 0.752175 0.208874 0.107614
O O20 0.938987 0.000000 0.974171
O O21 0.000000 0.279831 0.000000
#
# Coordination Sequence:
#
# PCOD9144790 Si02
#       8
#     4   4   4   4   4   4   4   4
#     4   8  14  25  43  68  93 117 145 178 219 266
#     4   9  18  29  42  61  85 118 155 189 223 258
#     4  10  20  33  47  65  90 118 148 183 224 271
#     4   8  14  27  49  74  95 114 139 174 220 274
#     4   9  16  27  44  64  89 118 151 191 227 259
#     4   9  16  28  44  61  86 118 151 184 218 258
#     4  11  22  33  45  62  88 121 157 194 228 263
#     4  10  19  31  46  65  88 119 157 197 233 263
#
# _framework density 18.910235
#
# number of rings (size 3 to 8) (size 9 to 14) (size 15 to 20)
#    0.000    2.750    1.250    1.875    0.000    2.250 
#    0.000    2.500    0.000    9.375    0.000    0.875 
#    0.000    7.000    0.000    0.000    0.000    0.000 
#
# Total GULP energy -178276.789543 kJ/mol
# GULP energy per Si atom -5571.149673 kJ/mol
# Density = 1.886719 g / cm^3
# Si number density = 18.910235 Si / 1000 Ang^3
#
#
#
# Elastic Constant Matrix: (Units=GPa)
#
#
# Indices 1 2 3 4 5 6 
#
# 1 96.4882 0.5752 53.7541 0.0000 26.4844 0.0000
# 2 0.5752 40.4303 -0.4005 0.0000 2.5342 0.0000
# 3 53.7541 -0.4005 137.6197 0.0000 25.5973 0.0000
# 4 0.0000 0.0000 0.0000 19.0851 0.0000 -6.5358
# 5 26.4844 2.5342 25.5973 0.0000 26.6581 0.0000
# 6 0.0000 0.0000 0.0000 -6.5358 0.0000 14.8379
#
#
#
# Elastic Compliance Matrix: (Units=1/GPa)
#
#
# Indices 1 2 3 4 5 6 
#
# 1 0.015862 0.000487 -0.003962 0.000000 -0.012001 0.000000
# 2 0.000487 0.024941 0.000503 0.000000 -0.003338 0.000000
# 3 -0.003962 0.000503 0.009852 0.000000 -0.005571 0.000000
# 4 0.000000 0.000000 0.000000 0.061705 0.000000 0.027180
# 5 -0.012001 -0.003338 -0.005571 0.000000 0.055101 0.000000
# 6 0.000000 0.000000 0.000000 0.027180 0.000000 0.079367
#
#
# Mechanical properties :
#
#
# Convention : Reuss Voigt Hill
#
# Bulk Modulus (GPa) = 22.36548 42.48842 32.42695
# Shear Modulus (GPa) = 18.67929 26.82351 22.75140
#
# Velocity S-wave (km/s) = 3.14632 3.77034 3.47237
# Velocity P-wave (km/s) = 5.00519 6.43981 5.76728
#
# Compressibility (1/GPa) = 0.04471176
#
# Stress axis : x y z
#
# Youngs Moduli (GPa) = 63.04178 40.09426 101.50480
#
# Poissons Ratio (x) = -0.01954 0.40219
# Poissons Ratio (y) = -0.03072 -0.05107
# Poissons Ratio (z) = 0.24979 -0.02017
#
# Static dielectric constant tensor:
#      x y z
#    x 1.671500 0.000000 0.036710 
#    y 0.000000 1.718780 0.000000 
#    z 0.036710 0.000000 1.689550 
# 
# From -- ./inp_files/69958.got.cif
#   From: 2010.05.17/outbox.cif.g08.bks.cpg/sg10_35_cif.got.tgz:69958.got - 2010.06.03 11:33:40.
