data_PCOD9144985
_publ_section_title
;
Structure prediction by ZEFSAII (Michael W. Deem and Ramdas Pophale) SiO2 
 PCOD9144985
Probable space group: P 2/M
;
_chemical_formula_sum "Si O2"
_cell_formula_units_Z 32
_cell_length_a 12.497126
_cell_length_b 8.465866
_cell_length_c 34.070243
_cell_angle_alpha 90.000000
_cell_angle_beta 151.231000
_cell_angle_gamma 90.000000
_cell_volume 1734.818766
_symmetry_space_group_name_H-M "P 2/M"
_symmetry_group_IT_number 10
_symmetry_cell_setting 'monoclinic'
loop_
_space_group_symop_operation_xyz
x,y,z
-x,y,-z
-x,-y,-z
x,-y,z
loop_
_atom_site_type_symbol
_atom_site_label
_atom_site_fract_x
_atom_site_fract_y
_atom_site_fract_z
Si Si1 0.880878 0.821112 0.003453
Si Si2 0.713834 0.314468 0.825288
Si Si3 0.072740 0.187001 0.584251
Si Si4 0.721782 0.689424 0.271314
Si Si5 0.373470 0.190282 0.841681
Si Si6 0.197141 0.691537 0.231669
Si Si7 0.334783 0.688898 0.593159
Si Si8 0.293095 0.809224 0.905485
O O1 0.039935 0.712882 0.079865
O O2 0.873763 0.000000 0.017950
O O3 0.631353 0.762637 0.919214
O O4 0.000000 0.829475 0.000000
O O5 0.668267 0.500000 0.807510
O O6 0.522544 0.250554 0.792362
O O7 0.717367 0.247275 0.782950
O O8 0.118930 0.250281 0.642770
O O9 0.235817 0.267603 0.604453
O O10 0.826552 0.227945 0.489689
O O11 0.108992 0.000000 0.594624
O O12 0.725709 0.500000 0.272014
O O13 0.757468 0.747088 0.238336
O O14 0.314184 0.242586 0.866710
O O15 0.361039 0.000000 0.836598
O O16 0.183040 0.500000 0.226264
O O17 0.404846 0.732465 0.326535
O O18 0.951056 0.755438 0.159603
O O19 0.314987 0.500000 0.582658
O O20 0.300894 0.000000 0.908518
O O21 0.500000 0.755605 0.000000
#
# Coordination Sequence:
#
# PCOD9144985 Si02
#       8
#     4   4   4   4   4   4   4   4
#     4  10  19  31  49  73 102 139 177 220 273 328
#     4  10  20  33  49  75 108 142 180 224 273 326
#     4  11  21  33  53  85 119 150 186 227 278 341
#     4  11  21  35  54  78 112 150 183 221 280 340
#     4  10  21  37  54  78 110 143 187 234 281 335
#     4  10  21  37  57  81 110 145 190 236 276 326
#     4  10  19  35  56  81 117 154 186 229 282 335
#     4  10  22  40  60  81 111 151 192 237 284 331
#
# _framework density 18.445732
#
# number of rings (size 3 to 8) (size 9 to 14) (size 15 to 20)
#    0.000    1.750    2.500    3.375    0.000    4.500 
#    0.000    0.000    0.000    0.750    0.000    5.250 
#    0.000    0.000    0.000    0.000    0.000    0.000 
#
# Total GULP energy -178416.876696 kJ/mol
# GULP energy per Si atom -5575.527397 kJ/mol
# Density = 1.840375 g / cm^3
# Si number density = 18.445732 Si / 1000 Ang^3
#
#
#
# Elastic Constant Matrix: (Units=GPa)
#
#
# Indices 1 2 3 4 5 6 
#
# 1 71.5031 12.7007 53.3167 0.0000 -13.4598 0.0000
# 2 12.7007 22.9710 10.9876 0.0000 -5.7606 0.0000
# 3 53.3167 10.9876 130.1480 0.0000 -11.0738 0.0000
# 4 0.0000 0.0000 0.0000 32.3105 0.0000 1.4132
# 5 -13.4598 -5.7606 -11.0738 0.0000 32.0632 0.0000
# 6 0.0000 0.0000 0.0000 1.4132 0.0000 24.7435
#
#
#
# Elastic Compliance Matrix: (Units=1/GPa)
#
#
# Indices 1 2 3 4 5 6 
#
# 1 0.022261 -0.007125 -0.008069 0.000000 0.005278 0.000000
# 2 -0.007125 0.049240 -0.000762 0.000000 0.005592 0.000000
# 3 -0.008069 -0.000762 0.011079 0.000000 0.000302 0.000000
# 4 0.000000 0.000000 0.000000 0.031027 0.000000 -0.001772
# 5 0.005278 0.005592 0.000302 0.000000 0.034513 0.000000
# 6 0.000000 0.000000 0.000000 -0.001772 0.000000 0.040516
#
#
# Mechanical properties :
#
#
# Convention : Reuss Voigt Hill
#
# Bulk Modulus (GPa) = 19.73653 42.07022 30.90337
# Shear Modulus (GPa) = 21.05810 27.66456 24.36133
#
# Velocity S-wave (km/s) = 3.38246 3.87690 3.63809
# Velocity P-wave (km/s) = 5.09683 6.54962 5.86836
#
# Compressibility (1/GPa) = 0.05066748
#
# Stress axis : x y z
#
# Youngs Moduli (GPa) = 44.92119 20.30881 90.25941
#
# Poissons Ratio (x) = 0.14470 0.72830
# Poissons Ratio (y) = 0.32007 0.06880
# Poissons Ratio (z) = 0.36247 0.01548
#
# Static dielectric constant tensor:
#      x y z
#    x 1.643750 0.000000 -0.017930 
#    y 0.000000 1.642060 0.000000 
#    z -0.017930 0.000000 1.667420 
# 
# From -- ./inp_files/95049.got.cif
#   From: 2010.05.17/outbox.cif.g08.bks.cpg/sg10_48_cif.got.tgz:95049.got - 2010.06.03 11:33:40.
