data_PCOD9144588
_publ_section_title
;
Structure prediction by ZEFSAII (Michael W. Deem and Ramdas Pophale) SiO2 
 PCOD9144588
Probable space group: P 2/M
;
_chemical_formula_sum "Si O2"
_cell_formula_units_Z 32
_cell_length_a 10.502902
_cell_length_b 14.112257
_cell_length_c 16.161451
_cell_angle_alpha 90.000000
_cell_angle_beta 117.775275
_cell_angle_gamma 90.000000
_cell_volume 2119.446675
_symmetry_space_group_name_H-M "P 2/M"
_symmetry_group_IT_number 10
_symmetry_cell_setting 'monoclinic'
loop_
_space_group_symop_operation_xyz
x,y,z
-x,y,-z
-x,-y,-z
x,-y,z
loop_
_atom_site_type_symbol
_atom_site_label
_atom_site_fract_x
_atom_site_fract_y
_atom_site_fract_z
Si Si1 0.685093 0.887473 0.271700
Si Si2 0.438094 0.115347 0.069903
Si Si3 0.161073 0.277288 0.377563
Si Si4 0.889297 0.115105 0.036918
Si Si5 0.322496 0.271279 0.602889
Si Si6 0.084280 0.607105 0.613373
Si Si7 0.421448 0.609710 0.386349
Si Si8 0.974937 0.113046 0.251680
O O1 0.550983 0.856622 0.174134
O O2 0.674201 0.830264 0.353011
O O3 0.834290 0.870734 0.267024
O O4 0.675970 0.000000 0.282344
O O5 0.436527 0.000000 0.069065
O O6 0.500000 0.145245 0.000000
O O7 0.273840 0.147267 0.029951
O O8 0.243397 0.263263 0.490097
O O9 0.270185 0.337552 0.354216
O O10 0.104422 0.178960 0.322595
O O11 0.020043 0.339181 0.355527
O O12 0.935507 0.138198 0.144800
O O13 0.887512 0.000000 0.033285
O O14 0.000000 0.148041 0.000000
O O15 0.226600 0.335458 0.634917
O O16 0.473109 0.324735 0.635585
O O17 0.113431 0.500000 0.648517
O O18 0.000000 0.603238 0.500000
O O19 0.500000 0.605450 0.500000
O O20 0.407850 0.500000 0.354399
O O21 0.006936 0.000000 0.264646
#
# Coordination Sequence:
#
# PCOD9144588 Si02
#       8
#     4   4   4   4   4   4   4   4
#     4  10  19  30  47  70  99 134 167 195 227 277
#     4   9  15  27  46  64  86 122 162 200 242 275
#     4  10  19  31  47  69  98 130 162 194 231 285
#     4   9  17  29  46  68  92 119 157 205 247 277
#     4  10  19  31  46  70  98 128 164 197 229 277
#     4   9  16  27  45  67  90 117 155 203 244 271
#     4   9  18  33  51  68  92 126 159 201 256 291
#     4  10  19  31  47  69 100 135 163 192 233 280
#
# _framework density 15.098281
#
# number of rings (size 3 to 8) (size 9 to 14) (size 15 to 20)
#    0.000    2.500    2.500    0.750    0.000    4.500 
#    0.000    3.125    0.000    2.250    0.000    0.000 
#    0.000   20.000    0.000    0.000    0.000    0.000 
#
# Total GULP energy -178187.478820 kJ/mol
# GULP energy per Si atom -5568.358713 kJ/mol
# Density = 1.506392 g / cm^3
# Si number density = 15.098281 Si / 1000 Ang^3
#
#
#
# Elastic Constant Matrix: (Units=GPa)
#
#
# Indices 1 2 3 4 5 6 
#
# 1 126.6294 43.9132 31.0665 0.0000 4.4185 0.0000
# 2 43.9132 70.9270 33.0353 0.0000 2.4783 0.0000
# 3 31.0665 33.0353 44.1693 0.0000 3.4256 0.0000
# 4 0.0000 0.0000 0.0000 -1.3143 0.0000 1.5845
# 5 4.4185 2.4783 3.4256 0.0000 16.7295 0.0000
# 6 0.0000 0.0000 0.0000 1.5845 0.0000 18.5976
#
#
#
# Elastic Compliance Matrix: (Units=1/GPa)
#
#
# Indices 1 2 3 4 5 6 
#
# 1 0.010496 -0.004698 -0.003767 0.000000 -0.001305 0.000000
# 2 -0.004698 0.023739 -0.014504 0.000000 0.000694 0.000000
# 3 -0.003767 -0.014504 0.036474 0.000000 -0.004325 0.000000
# 4 0.000000 0.000000 0.000000 -0.690007 0.000000 0.058789
# 5 -0.001305 0.000694 -0.004325 0.000000 0.060902 0.000000
# 6 0.000000 0.000000 0.000000 0.058789 0.000000 0.048762
#
#
# Mechanical properties :
#
#
# Convention : Reuss Voigt Hill
#
# Bulk Modulus (GPa) = 40.37331 50.86175 45.61753
# Shear Modulus (GPa) = -10.97844 15.71662 2.36909
#
# Velocity S-wave (km/s) = -2.69946 3.22988 1.25400
# Velocity P-wave (km/s) = 4.13307 6.90433 5.68999
#
# Compressibility (1/GPa) = 0.02476884
#
# Stress axis : x y z
#
# Youngs Moduli (GPa) = 95.27334 42.12437 27.41710
#
# Poissons Ratio (x) = 0.19791 0.10329
# Poissons Ratio (y) = 0.44761 0.39767
# Poissons Ratio (z) = 0.35893 0.61099
#
# Static dielectric constant tensor:
#      x y z
#    x 1.509700 0.000000 0.003980 
#    y 0.000000 1.494890 0.000000 
#    z 0.003980 0.000000 1.490010 
# 
# From -- ./inp_files/61889.got.cif
#   From: 2010.05.17/outbox.cif.g08.bks.cpg/sg10_31_cif.got.tgz:61889.got - 2010.06.03 11:33:40.
