data_PCOD9144137
_publ_section_title
;
Structure prediction by ZEFSAII (Michael W. Deem and Ramdas Pophale) SiO2 
 PCOD9144137
Probable space group: P 2/M
;
_chemical_formula_sum "Si O2"
_cell_formula_units_Z 32
_cell_length_a 13.198706
_cell_length_b 25.376361
_cell_length_c 7.141294
_cell_angle_alpha 90.000000
_cell_angle_beta 31.549324
_cell_angle_gamma 90.000000
_cell_volume 1251.503949
_symmetry_space_group_name_H-M "P 2/M"
_symmetry_group_IT_number 10
_symmetry_cell_setting 'monoclinic'
loop_
_space_group_symop_operation_xyz
x,y,z
-x,y,-z
-x,-y,-z
x,-y,z
loop_
_atom_site_type_symbol
_atom_site_label
_atom_site_fract_x
_atom_site_fract_y
_atom_site_fract_z
Si Si1 0.044248 0.884601 0.223181
Si Si2 0.279811 0.224253 0.918822
Si Si3 0.317049 0.561058 0.164819
Si Si4 0.365646 0.055982 0.532997
Si Si5 0.718087 0.262561 0.654949
Si Si6 0.676120 0.159392 0.597383
Si Si7 0.934678 0.330933 0.823192
Si Si8 0.147146 0.561196 0.020736
O O1 0.000000 0.902422 0.500000
O O2 0.851595 0.869676 0.419514
O O3 0.170944 0.830549 0.038290
O O4 0.153580 0.930329 0.942150
O O5 0.500000 0.217326 0.500000
O O6 0.249484 0.233855 0.191981
O O7 0.200297 0.279786 0.971721
O O8 0.364022 0.500000 0.087826
O O9 0.275919 0.570505 0.007452
O O10 0.091401 0.563057 0.592098
O O11 0.500000 0.584462 0.000000
O O12 0.500000 0.051126 0.500000
O O13 0.424618 0.111713 0.352987
O O14 0.373216 0.000000 0.415875
O O15 0.754868 0.218249 0.436406
O O16 0.866803 0.309779 0.402612
O O17 0.500000 0.283221 0.000000
O O18 0.500000 0.177326 0.000000
O O19 0.832134 0.379573 0.090640
O O20 0.000000 0.343018 0.500000
O O21 0.189679 0.500000 0.890935
#
# Coordination Sequence:
#
# PCOD9144137 Si02
#       8
#     4   4   4   4   4   4   4   4
#     4  12  22  42  70  97 131 171 215 264 319 383
#     4  11  23  40  63  89 124 169 211 261 328 389
#     4   8  13  22  38  68 105 144 193 241 298 365
#     4  11  27  47  69 100 134 174 219 262 315 380
#     4  10  22  39  61  94 126 163 213 266 326 382
#     4  11  23  42  68  98 132 170 215 266 321 383
#     4  10  18  36  55  82 123 160 203 266 318 379
#     4   9  16  27  47  77 114 158 202 254 320 383
#
# _framework density 25.569234999999999
#
# number of rings (size 3 to 8) (size 9 to 14) (size 15 to 20)
#    0.000    1.750    3.750    2.625    5.250    2.000 
#    0.000    0.625    0.000    0.375    0.000    0.000 
#    0.000    1.000    0.000    0.000    0.000    0.875 
#
# Total GULP energy -178195.560896 kJ/mol
# GULP energy per Si atom -5568.611278 kJ/mol
# Density = 2.551104 g / cm^3
# Si number density = 25.569235 Si / 1000 Ang^3
#
#
#
# Elastic Constant Matrix: (Units=GPa)
#
#
# Indices 1 2 3 4 5 6 
#
# 1 101.7421 47.8055 18.1986 0.0000 -33.7327 0.0000
# 2 47.8055 162.6971 -2.7211 0.0000 -1.0904 0.0000
# 3 18.1986 -2.7211 51.6292 0.0000 -16.5864 0.0000
# 4 0.0000 0.0000 0.0000 1.2698 0.0000 -14.3662
# 5 -33.7327 -1.0904 -16.5864 0.0000 48.7624 0.0000
# 6 0.0000 0.0000 0.0000 -14.3662 0.0000 37.9708
#
#
#
# Elastic Compliance Matrix: (Units=1/GPa)
#
#
# Indices 1 2 3 4 5 6 
#
# 1 0.015740 -0.004602 -0.002611 0.000000 0.009897 0.000000
# 2 -0.004602 0.007501 0.001177 0.000000 -0.002615 0.000000
# 3 -0.002611 0.001177 0.022206 0.000000 0.005773 0.000000
# 4 0.000000 0.000000 0.000000 -0.240057 0.000000 -0.090826
# 5 0.009897 -0.002615 0.005773 0.000000 0.029260 0.000000
# 6 0.000000 0.000000 0.000000 -0.090826 0.000000 -0.008028
#
#
# Mechanical properties :
#
#
# Convention : Reuss Voigt Hill
#
# Bulk Modulus (GPa) = 29.96271 49.18160 39.57216
# Shear Modulus (GPa) = -33.29288 34.45296 0.58004
#
# Velocity S-wave (km/s) = -3.61233 3.67473 0.47680
# Velocity P-wave (km/s) = 2.37800 6.10584 3.97658
#
# Compressibility (1/GPa) = 0.03337481
#
# Stress axis : x y z
#
# Youngs Moduli (GPa) = 63.53372 133.31897 45.03285
#
# Poissons Ratio (x) = 0.61355 0.11758
# Poissons Ratio (y) = 0.29239 -0.05302
# Poissons Ratio (z) = 0.16588 -0.15695
#
# Static dielectric constant tensor:
#      x y z
#    x 2.279470 0.000000 0.099620 
#    y 0.000000 2.097200 0.000000 
#    z 0.099620 0.000000 2.094870 
# 
# From -- ./inp_files/30570.got.cif
#   From: 2010.05.17/outbox.cif.g08.bks.cpg/sg10_16_cif.got.tgz:30570.got - 2010.06.03 11:33:40.
