data_PCOD9144785
_publ_section_title
;
Structure prediction by ZEFSAII (Michael W. Deem and Ramdas Pophale) SiO2 
 PCOD9144785
Probable space group: P 2/M
;
_chemical_formula_sum "Si O2"
_cell_formula_units_Z 32
_cell_length_a 17.463317
_cell_length_b 7.520259
_cell_length_c 12.331828
_cell_angle_alpha 90.000000
_cell_angle_beta 96.533209
_cell_angle_gamma 90.000000
_cell_volume 1609.005474
_symmetry_space_group_name_H-M "P 2/M"
_symmetry_group_IT_number 10
_symmetry_cell_setting 'monoclinic'
loop_
_space_group_symop_operation_xyz
x,y,z
-x,y,-z
-x,-y,-z
x,-y,z
loop_
_atom_site_type_symbol
_atom_site_label
_atom_site_fract_x
_atom_site_fract_y
_atom_site_fract_z
Si Si1 0.817967 0.715665 0.202065
Si Si2 0.580584 0.788792 0.227634
Si Si3 0.718902 0.290946 0.630137
Si Si4 0.539980 0.784262 0.619310
Si Si5 0.917220 0.282520 0.027769
Si Si6 0.228629 0.709516 0.135044
Si Si7 0.333942 0.796146 0.961333
Si Si8 0.733846 0.714985 0.391846
O O1 0.813652 0.500000 0.197389
O O2 0.744046 0.784294 0.123350
O O3 0.803003 0.770736 0.322966
O O4 0.892890 0.769058 0.146187
O O5 0.508036 0.720042 0.283913
O O6 0.602960 0.716077 0.111786
O O7 0.654191 0.766018 0.319243
O O8 0.569735 0.000000 0.210976
O O9 0.738848 0.500000 0.629091
O O10 0.627560 0.275646 0.632526
O O11 0.758296 0.213401 0.743757
O O12 0.737560 0.215408 0.514511
O O13 0.500000 0.727716 0.500000
O O14 0.538577 0.000000 0.620395
O O15 0.918131 0.500000 0.025542
O O16 0.846425 0.221020 0.940318
O O17 0.000000 0.221382 0.000000
O O18 0.214939 0.500000 0.144525
O O19 0.304850 0.724429 0.071761
O O20 0.355228 0.000000 0.984573
O O21 0.733397 0.500000 0.396010
#
# Coordination Sequence:
#
# PCOD9144785 Si02
#       8
#     4   4   4   4   4   4   4   4
#     4   8  14  25  42  65  90 113 140 176 214 255
#     4   9  17  29  44  64  87 110 142 186 227 258
#     4  10  20  31  44  63  88 119 150 182 219 260
#     4  10  19  31  46  64  88 116 147 185 225 261
#     4   8  13  24  46  70  87 110 145 179 212 255
#     4   9  18  32  46  63  90 118 146 179 217 261
#     4   9  16  27  45  65  85 111 145 182 218 260
#     4   9  16  26  42  63  86 114 147 180 215 255
#
# _framework density 19.888062000000001
#
# number of rings (size 3 to 8) (size 9 to 14) (size 15 to 20)
#    0.000    3.000    1.250    1.125    0.000    1.750 
#    0.000    0.625    0.000   10.500    0.000    5.250 
#    0.000    0.000    0.000   26.000    0.000   26.500 
#
# Total GULP energy -178242.209224 kJ/mol
# GULP energy per Si atom -5570.069038 kJ/mol
# Density = 1.984280 g / cm^3
# Si number density = 19.888062 Si / 1000 Ang^3
#
#
#
# Elastic Constant Matrix: (Units=GPa)
#
#
# Indices 1 2 3 4 5 6 
#
# 1 61.1892 -0.7224 55.3019 0.0000 -30.9935 0.0000
# 2 -0.7224 47.9860 -4.5134 0.0000 -0.6762 0.0000
# 3 55.3019 -4.5134 127.4071 0.0000 -29.2588 0.0000
# 4 0.0000 0.0000 0.0000 8.0404 0.0000 -1.4725
# 5 -30.9935 -0.6762 -29.2588 0.0000 32.1980 0.0000
# 6 0.0000 0.0000 0.0000 -1.4725 0.0000 24.7579
#
#
#
# Elastic Compliance Matrix: (Units=1/GPa)
#
#
# Indices 1 2 3 4 5 6 
#
# 1 0.041579 -0.000006 -0.011192 0.000000 0.029853 0.000000
# 2 -0.000006 0.020960 0.001068 0.000000 0.001405 0.000000
# 3 -0.011192 0.001068 0.012986 0.000000 0.001049 0.000000
# 4 0.000000 0.000000 0.000000 0.125741 0.000000 0.007478
# 5 0.029853 0.001405 0.001049 0.000000 0.060777 0.000000
# 6 0.000000 0.000000 0.000000 0.007478 0.000000 0.040836
#
#
# Mechanical properties :
#
#
# Convention : Reuss Voigt Hill
#
# Bulk Modulus (GPa) = 18.09519 37.41272 27.75395
# Shear Modulus (GPa) = 14.63866 25.43368 20.03617
#
# Velocity S-wave (km/s) = 2.71597 3.57997 3.17747
# Velocity P-wave (km/s) = 4.35357 5.99506 5.23900
#
# Compressibility (1/GPa) = 0.05526329
#
# Stress axis : x y z
#
# Youngs Moduli (GPa) = 24.05044 47.71094 77.00795
#
# Poissons Ratio (x) = 0.00029 0.86189
# Poissons Ratio (y) = 0.00015 -0.08222
# Poissons Ratio (z) = 0.26918 -0.05094
#
# Static dielectric constant tensor:
#      x y z
#    x 1.676560 0.000000 -0.039150 
#    y 0.000000 1.777930 0.000000 
#    z -0.039150 0.000000 1.755780 
# 
# From -- ./inp_files/52715.got.cif
#   From: 2010.05.17/outbox.cif.g08.bks.cpg/sg10_27_cif.got.tgz:52715.got - 2010.06.03 11:33:40.
