data_PCOD9144811
_publ_section_title
;
Structure prediction by ZEFSAII (Michael W. Deem and Ramdas Pophale) SiO2 
 PCOD9144811
Probable space group: P 2/M
;
_chemical_formula_sum "Si O2"
_cell_formula_units_Z 24
_cell_length_a 5.363763
_cell_length_b 16.511316
_cell_length_c 20.203019
_cell_angle_alpha 90.000000
_cell_angle_beta 120.695797
_cell_angle_gamma 90.000000
_cell_volume 1538.545339
_symmetry_space_group_name_H-M "P 2/M"
_symmetry_group_IT_number 10
_symmetry_cell_setting 'monoclinic'
loop_
_space_group_symop_operation_xyz
x,y,z
-x,y,-z
-x,-y,-z
x,-y,z
loop_
_atom_site_type_symbol
_atom_site_label
_atom_site_fract_x
_atom_site_fract_y
_atom_site_fract_z
Si Si1 0.113414 0.905724 0.923394
Si Si2 0.764837 0.595400 0.080300
Si Si3 0.578283 0.839614 0.904233
Si Si4 0.412479 0.340683 0.151046
Si Si5 0.312470 0.597934 0.412259
Si Si6 0.632396 0.401655 0.319449
O O1 0.264301 0.875237 0.877521
O O2 0.773214 0.890661 0.880360
O O3 0.175140 0.000000 0.944110
O O4 0.254721 0.853737 0.002783
O O5 0.796812 0.500000 0.071863
O O6 0.640284 0.608366 0.137190
O O7 0.073073 0.633865 0.103404
O O8 0.500000 0.628320 0.000000
O O9 0.567279 0.749177 0.876010
O O10 0.505522 0.355510 0.239018
O O11 0.500000 0.628006 0.500000
O O12 0.325715 0.500000 0.415827
O O13 0.457684 0.620724 0.362157
O O14 0.973318 0.617991 0.371976
O O15 0.603751 0.500000 0.305713
#
# Coordination Sequence:
#
# PCOD9144811 Si02
#       6
#     4   4   4   4   4   4
#     4  10  19  34  52  70  89 114 155 195 241 294
#     4  11  24  37  48  60  83 125 174 217 245 270
#     4  10  20  30  48  71  89 115 147 195 242 280
#     4  12  23  34  50  68  95 122 162 202 253 293
#     4   9  17  30  49  70  88 112 154 199 234 276
#     4  10  19  31  47  66  93 125 154 193 240 285
#
# _framework density 15.59915
#
# number of rings (size 3 to 8) (size 9 to 14) (size 15 to 20)
#    0.000    1.667    0.000    7.000    7.000    4.667 
#    0.000    0.000    0.000    0.000    0.000    0.000 
#    0.000    0.000    0.000    0.000    0.000   96.667 
#
# Total GULP energy -133776.004409 kJ/mol
# GULP energy per Si atom -5574.000184 kJ/mol
# Density = 1.556365 g / cm^3
# Si number density = 15.599150 Si / 1000 Ang^3
#
#
#
# Elastic Constant Matrix: (Units=GPa)
#
#
# Indices 1 2 3 4 5 6 
#
# 1 134.4356 26.3411 11.4799 0.0000 2.1917 0.0000
# 2 26.3411 62.8462 27.8070 0.0000 1.9958 0.0000
# 3 11.4799 27.8070 49.8181 0.0000 -4.2134 0.0000
# 4 0.0000 0.0000 0.0000 15.8169 0.0000 -10.7956
# 5 2.1917 1.9958 -4.2134 0.0000 21.7139 0.0000
# 6 0.0000 0.0000 0.0000 -10.7956 0.0000 23.3029
#
#
#
# Elastic Compliance Matrix: (Units=1/GPa)
#
#
# Indices 1 2 3 4 5 6 
#
# 1 0.008110 -0.003368 -0.000032 0.000000 -0.000515 0.000000
# 2 -0.003368 0.022932 -0.012376 0.000000 -0.004169 0.000000
# 3 -0.000032 -0.012376 0.027537 0.000000 0.006484 0.000000
# 4 0.000000 0.000000 0.000000 0.092459 0.000000 0.042834
# 5 -0.000515 -0.004169 0.006484 0.000000 0.047747 0.000000
# 6 0.000000 0.000000 0.000000 0.042834 0.000000 0.062757
#
#
# Mechanical properties :
#
#
# Convention : Reuss Voigt Hill
#
# Bulk Modulus (GPa) = 37.00318 42.03953 39.52136
# Shear Modulus (GPa) = 16.55060 24.26487 20.40774
#
# Velocity S-wave (km/s) = 3.26082 3.94829 3.62091
# Velocity P-wave (km/s) = 6.16036 6.91330 6.54766
#
# Compressibility (1/GPa) = 0.02702470
#
# Stress axis : x y z
#
# Youngs Moduli (GPa) = 123.30967 43.60677 36.31472
#
# Poissons Ratio (x) = 0.14689 0.00117
# Poissons Ratio (y) = 0.41537 0.44945
# Poissons Ratio (z) = 0.00396 0.53970
#
# Static dielectric constant tensor:
#      x y z
#    x 1.609480 0.000000 -0.007990 
#    y 0.000000 1.515780 0.000000 
#    z -0.007990 0.000000 1.531320 
# 
# From -- ./inp_files/59089.got.cif
#   From: 2010.05.17/outbox.cif.g08.bks.cpg/sg10_30_cif.got.tgz:59089.got - 2010.06.03 11:33:40.
