data_PCOD9144261
_publ_section_title
;
Structure prediction by ZEFSAII (Michael W. Deem and Ramdas Pophale) SiO2 
 PCOD9144261
Probable space group: P 2/M
;
_chemical_formula_sum "Si O2"
_cell_formula_units_Z 32
_cell_length_a 15.411513
_cell_length_b 7.610238
_cell_length_c 21.705840
_cell_angle_alpha 90.000000
_cell_angle_beta 137.306952
_cell_angle_gamma 90.000000
_cell_volume 1726.215293
_symmetry_space_group_name_H-M "P 2/M"
_symmetry_group_IT_number 10
_symmetry_cell_setting 'monoclinic'
loop_
_space_group_symop_operation_xyz
x,y,z
-x,y,-z
-x,-y,-z
x,-y,z
loop_
_atom_site_type_symbol
_atom_site_label
_atom_site_fract_x
_atom_site_fract_y
_atom_site_fract_z
Si Si1 0.365185 0.210356 0.211781
Si Si2 0.077751 0.284870 0.481133
Si Si3 0.001707 0.790133 0.175154
Si Si4 0.342795 0.710898 0.465594
Si Si5 0.952433 0.710208 0.669669
Si Si6 0.630721 0.710679 0.385696
Si Si7 0.886207 0.784942 0.988051
Si Si8 0.290705 0.210225 0.306729
O O1 0.514657 0.246325 0.279687
O O2 0.252439 0.274554 0.108470
O O3 0.337221 0.281409 0.265862
O O4 0.351921 0.000000 0.206198
O O5 0.077295 0.500000 0.481924
O O6 0.016975 0.229743 0.383636
O O7 0.227050 0.229617 0.558772
O O8 0.000000 0.224461 0.500000
O O9 0.965696 0.756349 0.227398
O O10 0.146443 0.720823 0.241624
O O11 0.007603 0.000000 0.171860
O O12 0.918052 0.725945 0.074085
O O13 0.349748 0.500000 0.471539
O O14 0.193594 0.770234 0.393854
O O15 0.399031 0.778267 0.559912
O O16 0.374136 0.754840 0.411141
O O17 0.947690 0.500000 0.665076
O O18 0.637800 0.500000 0.393141
O O19 0.886362 0.000000 0.987819
O O20 0.000000 0.733577 0.000000
O O21 0.283383 0.000000 0.297713
#
# Coordination Sequence:
#
# PCOD9144261 Si02
#       8
#     4   4   4   4   4   4   4   4
#     4  10  19  29  42  60  83 112 147 184 217 246
#     4   8  14  28  51  72  87 110 143 171 203 259
#     4   9  15  25  43  62  82 111 147 184 216 247
#     4   8  15  27  40  54  79 114 142 165 204 254
#     4   8  14  25  42  65  89 108 132 172 216 255
#     4   9  18  31  44  61  86 112 138 172 212 256
#     4   9  15  27  45  61  79 111 156 194 216 242
#     4   9  16  25  39  59  79 106 146 185 211 234
#
# _framework density 18.537665000000001
#
# number of rings (size 3 to 8) (size 9 to 14) (size 15 to 20)
#    0.000    3.250    1.250    1.500    0.000    1.500 
#    0.000    5.000    0.000    2.250    0.000    0.875 
#    0.000    7.000    0.000    0.000    0.000    0.000 
#
# Total GULP energy -178173.148417 kJ/mol
# GULP energy per Si atom -5567.910888 kJ/mol
# Density = 1.849547 g / cm^3
# Si number density = 18.537665 Si / 1000 Ang^3
#
#
#
# Elastic Constant Matrix: (Units=GPa)
#
#
# Indices 1 2 3 4 5 6 
#
# 1 91.5867 0.6617 72.1836 0.0000 -17.4577 0.0000
# 2 0.6617 34.9866 4.6935 0.0000 -0.1006 0.0000
# 3 72.1836 4.6935 184.3401 0.0000 -18.4087 0.0000
# 4 0.0000 0.0000 0.0000 13.9008 0.0000 -0.3955
# 5 -17.4577 -0.1006 -18.4087 0.0000 21.8885 0.0000
# 6 0.0000 0.0000 0.0000 -0.3955 0.0000 8.6950
#
#
#
# Elastic Compliance Matrix: (Units=1/GPa)
#
#
# Indices 1 2 3 4 5 6 
#
# 1 0.017225 0.000488 -0.005879 0.000000 0.008796 0.000000
# 2 0.000488 0.028700 -0.000950 0.000000 -0.000277 0.000000
# 3 -0.005879 -0.000950 0.007950 0.000000 0.001993 0.000000
# 4 0.000000 0.000000 0.000000 0.072032 0.000000 0.003276
# 5 0.008796 -0.000277 0.001993 0.000000 0.054376 0.000000
# 6 0.000000 0.000000 0.000000 0.003276 0.000000 0.115157
#
#
# Mechanical properties :
#
#
# Convention : Reuss Voigt Hill
#
# Bulk Modulus (GPa) = 24.27531 51.77679 38.02605
# Shear Modulus (GPa) = 15.53504 24.45516 19.99510
#
# Velocity S-wave (km/s) = 2.89801 3.63604 3.28780
# Velocity P-wave (km/s) = 4.93168 6.75418 5.91356
#
# Compressibility (1/GPa) = 0.04119411
#
# Stress axis : x y z
#
# Youngs Moduli (GPa) = 58.05397 34.84356 125.78513
#
# Poissons Ratio (x) = -0.01701 0.73950
# Poissons Ratio (y) = -0.02834 0.11945
# Poissons Ratio (z) = 0.34130 0.03309
#
# Static dielectric constant tensor:
#      x y z
#    x 1.653150 0.000000 -0.010910 
#    y 0.000000 1.692420 0.000000 
#    z -0.010910 0.000000 1.692790 
# 
# From -- ./inp_files/66140.got.cif
#   From: 2010.05.17/outbox.cif.g08.bks.cpg/sg10_34_cif.got.tgz:66140.got - 2010.06.03 11:33:40.
