data_PCOD9144750
_publ_section_title
;
Structure prediction by ZEFSAII (Michael W. Deem and Ramdas Pophale) SiO2 
 PCOD9144750
Probable space group: P 2/M
;
_chemical_formula_sum "Si O2"
_cell_formula_units_Z 24
_cell_length_a 14.496302
_cell_length_b 7.470683
_cell_length_c 10.568693
_cell_angle_alpha 90.000000
_cell_angle_beta 90.376707
_cell_angle_gamma 90.000000
_cell_volume 1144.535934
_symmetry_space_group_name_H-M "P 2/M"
_symmetry_group_IT_number 10
_symmetry_cell_setting 'monoclinic'
loop_
_space_group_symop_operation_xyz
x,y,z
-x,y,-z
-x,-y,-z
x,-y,z
loop_
_atom_site_type_symbol
_atom_site_label
_atom_site_fract_x
_atom_site_fract_y
_atom_site_fract_z
Si Si1 0.751506 0.714103 0.275333
Si Si2 0.061308 0.718152 0.120086
Si Si3 0.550072 0.214953 0.374315
Si Si4 0.255389 0.715925 0.017227
Si Si5 0.548120 0.788510 0.876648
Si Si6 0.047443 0.281031 0.631317
O O1 0.760215 0.500000 0.266032
O O2 0.658536 0.750040 0.353278
O O3 0.846946 0.777462 0.340652
O O4 0.741226 0.780243 0.129345
O O5 0.061498 0.500000 0.123165
O O6 0.164156 0.777573 0.088933
O O7 0.015113 0.775719 0.250237
O O8 0.000000 0.771833 0.000000
O O9 0.500000 0.283436 0.500000
O O10 0.494884 0.285437 0.251706
O O11 0.541024 0.000000 0.377248
O O12 0.252378 0.500000 0.010924
O O13 0.344260 0.767387 0.098378
O O14 0.526934 0.000000 0.874017
O O15 0.500000 0.709330 0.000000
O O16 0.048723 0.500000 0.629365
O O17 0.000000 0.223377 0.500000
#
# Coordination Sequence:
#
# PCOD9144750 Si02
#       6
#     4   4   4   4   4   4
#     4  10  19  32  53  80 106 134 171 216 261 299
#     4   9  15  27  46  69  99 133 167 201 244 300
#     4  10  22  39  56  74 101 139 175 208 258 319
#     4  10  19  30  52  82 106 134 173 216 257 296
#     4  10  20  35  54  75  99 133 175 213 253 306
#     4   9  17  29  47  73 105 137 168 205 251 305
#
# _framework density 20.969197000000001
#
# number of rings (size 3 to 8) (size 9 to 14) (size 15 to 20)
#    0.000    2.333    3.333    0.000    0.000    2.667 
#    0.000    1.667    0.000    2.000    0.000    0.000 
#    0.000    0.000    0.000    0.000    0.000    0.000 
#
# Total GULP energy -133981.794631 kJ/mol
# GULP energy per Si atom -5582.574776 kJ/mol
# Density = 2.092147 g / cm^3
# Si number density = 20.969197 Si / 1000 Ang^3
#
#
#
# Elastic Constant Matrix: (Units=GPa)
#
#
# Indices 1 2 3 4 5 6 
#
# 1 184.9920 -13.0158 116.1608 0.0000 -10.9832 0.0000
# 2 -13.0158 59.6984 9.7185 0.0000 0.5878 0.0000
# 3 116.1608 9.7185 201.1759 0.0000 -10.5052 0.0000
# 4 0.0000 0.0000 0.0000 -16.3895 0.0000 1.1615
# 5 -10.9832 0.5878 -10.5052 0.0000 34.6976 0.0000
# 6 0.0000 0.0000 0.0000 1.1615 0.0000 -90.6155
#
#
#
# Elastic Compliance Matrix: (Units=1/GPa)
#
#
# Indices 1 2 3 4 5 6 
#
# 1 0.008973 0.002800 -0.005253 0.000000 0.001202 0.000000
# 2 0.002800 0.017767 -0.002484 0.000000 -0.000167 0.000000
# 3 -0.005253 -0.002484 0.008169 0.000000 0.000852 0.000000
# 4 0.000000 0.000000 0.000000 -0.061070 0.000000 -0.000783
# 5 0.001202 -0.000167 0.000852 0.000000 0.029462 0.000000
# 6 0.000000 0.000000 0.000000 -0.000783 0.000000 -0.011046
#
#
# Mechanical properties :
#
#
# Convention : Reuss Voigt Hill
#
# Bulk Modulus (GPa) = 39.94572 74.62148 57.28360
# Shear Modulus (GPa) = 477.37212 7.73870 242.55541
#
# Velocity S-wave (km/s) = 15.10458 1.92315 10.76677
# Velocity P-wave (km/s) = 17.98023 6.37141 13.48858
#
# Compressibility (1/GPa) = 0.02503397
#
# Stress axis : x y z
#
# Youngs Moduli (GPa) = 111.44882 56.28339 122.41964
#
# Poissons Ratio (x) = -0.15757 0.64312
# Poissons Ratio (y) = -0.31202 0.30404
# Poissons Ratio (z) = 0.58549 0.13978
#
# Static dielectric constant tensor:
#      x y z
#    x 1.299940 0.000000 -0.139280 
#    y 0.000000 1.799970 0.000000 
#    z -0.139280 0.000000 1.690420 
# 
# From -- ./inp_files/24046.got.cif
#   From: 2010.05.17/outbox.cif.g08.bks.cpg/sg10_13_cif.got.tgz:24046.got - 2010.06.03 11:33:40.
