data_PCOD9144430
_publ_section_title
;
Structure prediction by ZEFSAII (Michael W. Deem and Ramdas Pophale) SiO2 
 PCOD9144430
Probable space group: P 2/M
;
_chemical_formula_sum "Si O2"
_cell_formula_units_Z 22
_cell_length_a 14.102293
_cell_length_b 19.516897
_cell_length_c 15.954454
_cell_angle_alpha 90.000000
_cell_angle_beta 18.439422
_cell_angle_gamma 90.000000
_cell_volume 1388.942142
_symmetry_space_group_name_H-M "P 2/M"
_symmetry_group_IT_number 10
_symmetry_cell_setting 'monoclinic'
loop_
_space_group_symop_operation_xyz
x,y,z
-x,y,-z
-x,-y,-z
x,-y,z
loop_
_atom_site_type_symbol
_atom_site_label
_atom_site_fract_x
_atom_site_fract_y
_atom_site_fract_z
Si Si1 0.858813 0.277588 0.211040
Si Si2 0.141204 0.426371 0.788937
Si Si3 0.860052 0.000000 0.208536
Si Si4 0.389040 0.918159 0.344965
Si Si5 0.322200 0.081506 0.068607
Si Si6 0.739475 0.138679 0.375068
O O1 0.500000 0.282025 0.500000
O O2 0.950976 0.352124 0.169915
O O3 0.911128 0.210409 0.223394
O O4 0.000000 0.267885 0.000000
O O5 0.500000 0.426595 0.500000
O O6 0.059123 0.500000 0.817260
O O7 0.000000 0.426437 0.000000
O O8 0.500000 0.000000 0.500000
O O9 0.932338 0.930129 0.196437
O O10 0.000000 0.000000 0.000000
O O11 0.560380 0.892389 0.119151
O O12 0.428729 0.875418 0.397004
O O13 0.445383 0.000000 0.314123
O O14 0.033007 0.911532 0.624575
O O15 0.389010 0.000000 0.008725
O O16 0.500000 0.109184 0.000000
O O17 0.500000 0.140640 0.500000
#
# Coordination Sequence:
#
# PCOD9144430 Si02
#       6
#     4   4   2   4   4   4
#     4   9  17  27  38  52  73 103 134 164 197 227
#     4   8  13  22  36  52  68  89 124 166 198 225
#     4  10  20  30  40  50  69 106 141 168 192 212
#     4  10  19  30  44  62  77 101 132 163 203 243
#     4   9  18  32  48  62  76  92 123 171 215 249
#     4  10  20  32  41  58  83 113 140 169 193 231
#
# _framework density 15.839392
#
# number of rings (size 3 to 8) (size 9 to 14) (size 15 to 20)
#    0.000    2.727    0.909    1.091    0.000    8.000 
#    0.000    0.000    0.000    0.000    0.000    0.000 
#    0.000    0.000    0.000    0.000    0.000    5.455 
#
# Total GULP energy -122553.934381 kJ/mol
# GULP energy per Si atom -5570.633381 kJ/mol
# Density = 1.580334 g / cm^3
# Si number density = 15.839392 Si / 1000 Ang^3
#
#
#
# Elastic Constant Matrix: (Units=GPa)
#
#
# Indices 1 2 3 4 5 6 
#
# 1 67.4329 9.1870 16.4562 0.0000 9.5254 0.0000
# 2 9.1870 140.4928 12.6736 0.0000 8.3863 0.0000
# 3 16.4562 12.6736 98.6623 0.0000 12.0707 0.0000
# 4 0.0000 0.0000 0.0000 15.9611 0.0000 0.8654
# 5 9.5254 8.3863 12.0707 0.0000 15.9408 0.0000
# 6 0.0000 0.0000 0.0000 0.8654 0.0000 1.4160
#
#
#
# Elastic Compliance Matrix: (Units=1/GPa)
#
#
# Indices 1 2 3 4 5 6 
#
# 1 0.016476 -0.000428 -0.001671 0.000000 -0.008355 0.000000
# 2 -0.000428 0.007384 -0.000477 0.000000 -0.003267 0.000000
# 3 -0.001671 -0.000477 0.011377 0.000000 -0.007365 0.000000
# 4 0.000000 0.000000 0.000000 0.064800 0.000000 -0.039604
# 5 -0.008355 -0.003267 -0.007365 0.000000 0.075021 0.000000
# 6 0.000000 0.000000 0.000000 -0.039604 0.000000 0.730422
#
#
# Mechanical properties :
#
#
# Convention : Reuss Voigt Hill
#
# Bulk Modulus (GPa) = 33.24035 42.58017 37.91026
# Shear Modulus (GPa) = 5.43089 24.54833 14.98961
#
# Velocity S-wave (km/s) = 1.85369 3.94106 3.07962
# Velocity P-wave (km/s) = 5.06093 6.90290 6.05240
#
# Compressibility (1/GPa) = 0.03008392
#
# Stress axis : x y z
#
# Youngs Moduli (GPa) = 60.69510 135.43000 87.89919
#
# Poissons Ratio (x) = 0.05795 0.14687
# Poissons Ratio (y) = 0.02597 0.04196
# Poissons Ratio (z) = 0.10142 0.06465
#
# Static dielectric constant tensor:
#      x y z
#    x 1.501920 0.000000 0.013910 
#    y 0.000000 1.622810 0.000000 
#    z 0.013910 0.000000 1.566740 
# 
# From -- ./inp_files/9883.got.cif
#   From: 2010.05.17/outbox.cif.g08.bks.cpg/sg10_5_cif.got.tgz:9883.got - 2010.06.03 11:33:40.
