data_PCOD9144265
_publ_section_title
;
Structure prediction by ZEFSAII (Michael W. Deem and Ramdas Pophale) SiO2 
 PCOD9144265
Probable space group: P 2/M
;
_chemical_formula_sum "Si O2"
_cell_formula_units_Z 32
_cell_length_a 16.220824
_cell_length_b 9.064855
_cell_length_c 30.868666
_cell_angle_alpha 90.000000
_cell_angle_beta 29.771901
_cell_angle_gamma 90.000000
_cell_volume 2253.788520
_symmetry_space_group_name_H-M "P 2/M"
_symmetry_group_IT_number 10
_symmetry_cell_setting 'monoclinic'
loop_
_space_group_symop_operation_xyz
x,y,z
-x,y,-z
-x,-y,-z
x,-y,z
loop_
_atom_site_type_symbol
_atom_site_label
_atom_site_fract_x
_atom_site_fract_y
_atom_site_fract_z
Si Si1 0.892894 0.674675 0.316639
Si Si2 0.392980 0.169832 0.504225
Si Si3 0.143618 0.822433 0.836315
Si Si4 0.590243 0.176241 0.026494
Si Si5 0.317129 0.324718 0.675475
Si Si6 0.201315 0.831348 0.905491
Si Si7 0.783932 0.675276 0.013959
Si Si8 0.240693 0.823940 0.141744
O O1 0.892547 0.500000 0.324444
O O2 0.779982 0.755128 0.403957
O O3 0.804251 0.700469 0.310440
O O4 0.077432 0.738073 0.230004
O O5 0.500000 0.170726 0.500000
O O6 0.504185 0.260321 0.419698
O O7 0.372218 0.000000 0.500360
O O8 0.242457 0.758526 0.750718
O O9 0.233869 0.787987 0.840979
O O10 0.960749 0.750504 0.921540
O O11 0.126520 0.000000 0.841606
O O12 0.652260 0.265281 0.039392
O O13 0.705171 0.211069 0.932316
O O14 0.604005 0.000000 0.027975
O O15 0.401772 0.207516 0.097773
O O16 0.325669 0.500000 0.679010
O O17 0.256645 0.000000 0.887767
O O18 0.260484 0.727895 0.917181
O O19 0.000000 0.831996 0.000000
O O20 0.800285 0.500000 0.004607
O O21 0.210385 0.000000 0.157382
#
# Coordination Sequence:
#
# PCOD9144265 Si02
#       8
#     4   4   4   4   4   4   4   4
#     4  10  19  29  42  61  86 114 141 174 215 253
#     4   9  17  29  44  60  80 110 145 176 205 244
#     4  10  19  30  44  61  83 113 146 175 206 248
#     4   9  18  32  46  60  82 111 144 180 213 247
#     4  10  19  29  42  63  89 113 139 173 213 252
#     4   8  16  30  44  58  79 109 142 174 207 245
#     4  11  20  28  42  63  85 111 142 175 214 254
#     4   9  18  31  46  62  80 109 147 181 211 246
#
# _framework density 14.198314999999999
#
# number of rings (size 3 to 8) (size 9 to 14) (size 15 to 20)
#    0.000    2.500    0.000    4.875    0.000    8.750 
#    0.000    1.250    0.000    0.000    0.000    0.000 
#    0.000    1.000    0.000   10.500    0.000    5.000 
#
# Total GULP energy -178393.991421 kJ/mol
# GULP energy per Si atom -5574.812232 kJ/mol
# Density = 1.416600 g / cm^3
# Si number density = 14.198315 Si / 1000 Ang^3
#
#
#
# Elastic Constant Matrix: (Units=GPa)
#
#
# Indices 1 2 3 4 5 6 
#
# 1 71.3482 53.9402 28.4343 0.0000 7.6432 0.0000
# 2 53.9402 82.8674 48.2295 0.0000 4.6182 0.0000
# 3 28.4343 48.2295 84.8889 0.0000 1.6320 0.0000
# 4 0.0000 0.0000 0.0000 20.9261 0.0000 2.4226
# 5 7.6432 4.6182 1.6320 0.0000 17.8680 0.0000
# 6 0.0000 0.0000 0.0000 2.4226 0.0000 13.4902
#
#
#
# Elastic Compliance Matrix: (Units=1/GPa)
#
#
# Indices 1 2 3 4 5 6 
#
# 1 0.028662 -0.019028 0.001354 0.000000 -0.007466 0.000000
# 2 -0.019028 0.030914 -0.011212 0.000000 0.001174 0.000000
# 3 0.001354 -0.011212 0.017683 0.000000 0.000704 0.000000
# 4 0.000000 0.000000 0.000000 0.048802 0.000000 -0.008764
# 5 -0.007466 0.001174 0.000704 0.000000 0.058792 0.000000
# 6 0.000000 0.000000 0.000000 -0.008764 0.000000 0.075702
#
#
# Mechanical properties :
#
#
# Convention : Reuss Voigt Hill
#
# Bulk Modulus (GPa) = 51.32125 55.59028 53.45576
# Shear Modulus (GPa) = 15.39298 17.69022 16.54160
#
# Velocity S-wave (km/s) = 3.29620 3.53361 3.41697
# Velocity P-wave (km/s) = 7.12117 7.47571 7.30060
#
# Compressibility (1/GPa) = 0.01948511
#
# Stress axis : x y z
#
# Youngs Moduli (GPa) = 34.88979 32.34796 56.55037
#
# Poissons Ratio (x) = 0.61553 -0.07657
# Poissons Ratio (y) = 0.66390 0.63407
# Poissons Ratio (z) = -0.04724 0.36270
#
# Static dielectric constant tensor:
#      x y z
#    x 1.462020 0.000000 0.011020 
#    y 0.000000 1.469830 0.000000 
#    z 0.011020 0.000000 1.449760 
# 
# From -- ./inp_files/66064.got.cif
#   From: 2010.05.17/outbox.cif.g08.bks.cpg/sg10_34_cif.got.tgz:66064.got - 2010.06.03 11:33:40.
