data_PCOD9144959
_publ_section_title
;
Structure prediction by ZEFSAII (Michael W. Deem and Ramdas Pophale) SiO2 
 PCOD9144959
Probable space group: P 2/M
;
_chemical_formula_sum "Si O2"
_cell_formula_units_Z 32
_cell_length_a 20.726337
_cell_length_b 7.686789
_cell_length_c 21.441369
_cell_angle_alpha 90.000000
_cell_angle_beta 153.958746
_cell_angle_gamma 90.000000
_cell_volume 1499.693580
_symmetry_space_group_name_H-M "P 2/M"
_symmetry_group_IT_number 10
_symmetry_cell_setting 'monoclinic'
loop_
_space_group_symop_operation_xyz
x,y,z
-x,y,-z
-x,-y,-z
x,-y,z
loop_
_atom_site_type_symbol
_atom_site_label
_atom_site_fract_x
_atom_site_fract_y
_atom_site_fract_z
Si Si1 0.958253 0.289963 0.065225
Si Si2 0.537265 0.710235 0.103444
Si Si3 0.354710 0.290349 0.255216
Si Si4 0.153254 0.205424 0.661354
Si Si5 0.341581 0.698404 0.516923
Si Si6 0.770810 0.297435 0.132613
Si Si7 0.972702 0.712627 0.731980
Si Si8 0.721875 0.198922 0.675784
O O1 0.961981 0.500000 0.061733
O O2 0.802101 0.226124 0.905097
O O3 0.975569 0.246418 0.153171
O O4 0.104431 0.220396 0.159267
O O5 0.536221 0.500000 0.104195
O O6 0.704556 0.766784 0.259348
O O7 0.500000 0.765291 0.000000
O O8 0.395497 0.773907 0.019028
O O9 0.355910 0.500000 0.249962
O O10 0.496175 0.221454 0.340690
O O11 0.363582 0.250716 0.336343
O O12 0.188869 0.289006 0.759207
O O13 0.000000 0.270887 0.500000
O O14 0.138189 0.000000 0.659338
O O15 0.353289 0.500000 0.550135
O O16 0.306877 0.694814 0.412259
O O17 0.195388 0.777165 0.420731
O O18 0.761561 0.500000 0.106130
O O19 0.905383 0.221752 0.210208
O O20 0.964566 0.500000 0.720767
O O21 0.689788 0.000000 0.632395
#
# Coordination Sequence:
#
# PCOD9144959 Si02
#       8
#     4   4   4   4   4   4   4   4
#     4   9  18  33  51  69  92 122 155 194 238 282
#     4   8  15  28  47  72  98 123 153 189 229 271
#     4  10  19  31  49  71  93 120 155 195 240 287
#     4  10  20  32  47  71 102 131 159 192 229 270
#     4   9  18  33  51  70  94 124 158 194 232 281
#     4   9  17  31  52  75  97 123 157 194 232 277
#     4   8  15  31  52  71  93 122 156 193 231 276
#     4  11  21  31  46  69  95 124 158 195 239 288
#
# _framework density 21.337692000000001
#
# number of rings (size 3 to 8) (size 9 to 14) (size 15 to 20)
#    0.000    2.750    0.000    3.750    0.000    7.250 
#    0.000    3.750    0.000    4.500    0.000    0.000 
#    0.000    0.000    0.000    0.000    0.000    0.000 
#
# Total GULP energy -178401.358879 kJ/mol
# GULP energy per Si atom -5575.042465 kJ/mol
# Density = 2.128913 g / cm^3
# Si number density = 21.337692 Si / 1000 Ang^3
#
#
#
# Elastic Constant Matrix: (Units=GPa)
#
#
# Indices 1 2 3 4 5 6 
#
# 1 72.4224 -3.2861 38.2598 0.0000 48.5237 0.0000
# 2 -3.2861 43.1603 -2.5245 0.0000 5.2961 0.0000
# 3 38.2598 -2.5245 142.8223 0.0000 45.8872 0.0000
# 4 0.0000 0.0000 0.0000 4.5527 0.0000 -11.4622
# 5 48.5237 5.2961 45.8872 0.0000 42.2605 0.0000
# 6 0.0000 0.0000 0.0000 -11.4622 0.0000 -34.4780
#
#
#
# Elastic Compliance Matrix: (Units=1/GPa)
#
#
# Indices 1 2 3 4 5 6 
#
# 1 0.085089 0.021702 0.015132 0.000000 -0.116850 0.000000
# 2 0.021702 0.029481 0.005990 0.000000 -0.035117 0.000000
# 3 0.015132 0.005990 0.013634 0.000000 -0.032929 0.000000
# 4 0.000000 0.000000 0.000000 0.119569 0.000000 -0.039751
# 5 -0.116850 -0.035117 -0.032929 0.000000 0.197986 0.000000
# 6 0.000000 0.000000 0.000000 -0.039751 0.000000 -0.015789
#
#
# Mechanical properties :
#
#
# Convention : Reuss Voigt Hill
#
# Bulk Modulus (GPa) = 4.67611 35.92261 20.29936
# Shear Modulus (GPa) = 12.03062 17.53076 14.78069
#
# Velocity S-wave (km/s) = 2.37707 2.86944 2.63478
# Velocity P-wave (km/s) = 3.11932 5.27732 4.33476
#
# Compressibility (1/GPa) = 0.21385287
#
# Stress axis : x y z
#
# Youngs Moduli (GPa) = 11.75240 33.91975 73.34762
#
# Poissons Ratio (x) = -0.73613 -1.10991
# Poissons Ratio (y) = -0.25505 -0.43937
# Poissons Ratio (z) = -0.17784 -0.20319
#
# Static dielectric constant tensor:
#      x y z
#    x 1.752550 0.000000 0.047630 
#    y 0.000000 1.775730 0.000000 
#    z 0.047630 0.000000 1.841590 
# 
# From -- ./inp_files/93871.got.cif
#   From: 2010.05.17/outbox.cif.g08.bks.cpg/sg10_47_cif.got.tgz:93871.got - 2010.06.03 11:33:40.
