data_PCOD9144034
_publ_section_title
;
Structure prediction by ZEFSAII (Michael W. Deem and Ramdas Pophale) SiO2 
 PCOD9144034
Probable space group: P 2/M
;
_chemical_formula_sum "Si O2"
_cell_formula_units_Z 30
_cell_length_a 5.326130
_cell_length_b 12.226422
_cell_length_c 21.357181
_cell_angle_alpha 90.000000
_cell_angle_beta 90.664551
_cell_angle_gamma 90.000000
_cell_volume 1390.675679
_symmetry_space_group_name_H-M "P 2/M"
_symmetry_group_IT_number 10
_symmetry_cell_setting 'monoclinic'
loop_
_space_group_symop_operation_xyz
x,y,z
-x,y,-z
-x,-y,-z
x,-y,z
loop_
_atom_site_type_symbol
_atom_site_label
_atom_site_fract_x
_atom_site_fract_y
_atom_site_fract_z
Si Si1 0.296142 0.260576 0.102898
Si Si2 0.026380 0.128818 0.363777
Si Si3 0.748200 0.500000 0.959482
Si Si4 0.780647 0.872596 0.110564
Si Si5 0.161930 0.377516 0.216752
Si Si6 0.214442 0.780396 0.757143
Si Si7 0.471114 0.777587 0.573826
Si Si8 0.482503 0.620934 0.327702
O O1 0.257627 0.381027 0.074206
O O2 0.545332 0.196391 0.082792
O O3 0.324194 0.292399 0.176952
O O4 0.046988 0.185596 0.095391
O O5 0.987506 0.165896 0.291372
O O6 0.803660 0.181933 0.404961
O O7 0.299356 0.158363 0.391885
O O8 0.990735 0.000000 0.366134
O O9 0.500000 0.500000 0.000000
O O10 0.000000 0.500000 0.000000
O O11 0.741296 0.863855 0.186304
O O12 0.779449 0.000000 0.092233
O O13 0.193951 0.500000 0.193542
O O14 0.218079 0.382578 0.290803
O O15 0.889061 0.328121 0.207864
O O16 0.398518 0.723730 0.708287
O O17 0.500000 0.786264 0.500000
O O18 0.510439 0.654741 0.600662
O O19 0.595430 0.500000 0.317316
#
# Coordination Sequence:
#
# PCOD9144034 Si02
#       8
#     4   4   2   4   4   4   4   4
#     4  11  23  42  67 103 137 176 227 272 326 388
#     4  11  23  39  60  82 111 150 204 261 319 383
#     4  12  26  48  76 108 146 184 227 282 333 376
#     4  11  23  39  65  99 143 183 221 271 331 398
#     4  10  18  34  58  89 125 159 199 259 321 383
#     4  10  20  35  56  90 126 167 202 260 321 401
#     4  11  24  41  58  81 111 152 207 260 317 391
#     4  10  20  36  57  85 121 157 204 257 325 388
#
# _framework density 21.572244999999999
#
# number of rings (size 3 to 8) (size 9 to 14) (size 15 to 20)
#    0.000    1.333    3.333    2.800    0.000    1.867 
#    1.200    4.000    0.000   10.400    0.000    0.000 
#    0.000    0.000    0.000    0.000    0.000    0.000 
#
# Total GULP energy -167068.664700 kJ/mol
# GULP energy per Si atom -5568.955490 kJ/mol
# Density = 2.152315 g / cm^3
# Si number density = 21.572245 Si / 1000 Ang^3
#
#
#
# Elastic Constant Matrix: (Units=GPa)
#
#
# Indices 1 2 3 4 5 6 
#
# 1 104.4198 44.5759 11.7417 0.0000 5.3982 0.0000
# 2 44.5759 147.8805 24.9482 0.0000 6.7631 0.0000
# 3 11.7417 24.9482 43.6656 0.0000 10.6436 0.0000
# 4 0.0000 0.0000 0.0000 17.6597 0.0000 -0.0278
# 5 5.3982 6.7631 10.6436 0.0000 24.1840 0.0000
# 6 0.0000 0.0000 0.0000 -0.0278 0.0000 25.7919
#
#
#
# Elastic Compliance Matrix: (Units=1/GPa)
#
#
# Indices 1 2 3 4 5 6 
#
# 1 0.011077 -0.003133 -0.000896 0.000000 -0.001202 0.000000
# 2 -0.003133 0.008371 -0.003965 0.000000 0.000104 0.000000
# 3 -0.000896 -0.003965 0.028104 0.000000 -0.011060 0.000000
# 4 0.000000 0.000000 0.000000 0.056626 0.000000 0.000061
# 5 -0.001202 0.000104 -0.011060 0.000000 0.046456 0.000000
# 6 0.000000 0.000000 0.000000 0.000061 0.000000 0.038772
#
#
# Mechanical properties :
#
#
# Convention : Reuss Voigt Hill
#
# Bulk Modulus (GPa) = 31.68207 50.94416 41.31311
# Shear Modulus (GPa) = 23.15725 27.84048 25.49886
#
# Velocity S-wave (km/s) = 3.27995 3.59635 3.44178
# Velocity P-wave (km/s) = 5.39096 6.39623 5.91499
#
# Compressibility (1/GPa) = 0.03156359
#
# Stress axis : x y z
#
# Youngs Moduli (GPa) = 90.27728 119.46252 35.58257
#
# Poissons Ratio (x) = 0.37426 0.03187
# Poissons Ratio (y) = 0.28283 0.14110
# Poissons Ratio (z) = 0.08085 0.47372
#
# Static dielectric constant tensor:
#      x y z
#    x 1.854990 0.000000 -0.003380 
#    y 0.000000 1.811410 0.000000 
#    z -0.003380 0.000000 1.857040 
# 
# From -- ./inp_files/13162.got.cif
#   From: 2010.05.17/outbox.cif.g08.bks.cpg/sg10_7_cif.got.tgz:13162.got - 2010.06.03 11:33:40.
