data_PCOD9144033
_publ_section_title
;
Structure prediction by ZEFSAII (Michael W. Deem and Ramdas Pophale) SiO2 
 PCOD9144033
Probable space group: P 2/M
;
_chemical_formula_sum "Si O2"
_cell_formula_units_Z 28
_cell_length_a 8.564837
_cell_length_b 11.981227
_cell_length_c 15.186274
_cell_angle_alpha 90.000000
_cell_angle_beta 111.256936
_cell_angle_gamma 90.000000
_cell_volume 1452.348234
_symmetry_space_group_name_H-M "P 2/M"
_symmetry_group_IT_number 10
_symmetry_cell_setting 'monoclinic'
loop_
_space_group_symop_operation_xyz
x,y,z
-x,y,-z
-x,-y,-z
x,-y,z
loop_
_atom_site_type_symbol
_atom_site_label
_atom_site_fract_x
_atom_site_fract_y
_atom_site_fract_z
Si Si1 0.973195 0.698465 0.132999
Si Si2 0.498143 0.283484 0.249336
Si Si3 0.888197 0.778963 0.553348
Si Si4 0.854122 0.628819 0.294485
Si Si5 0.745371 0.372023 0.941808
Si Si6 0.785721 0.132017 0.725775
Si Si7 0.387278 0.381315 0.561986
O O1 0.110027 0.633213 0.103092
O O2 0.066115 0.809821 0.186599
O O3 0.922272 0.634665 0.209913
O O4 0.813374 0.703441 0.035772
O O5 0.696747 0.286068 0.270085
O O6 0.412842 0.324008 0.142174
O O7 0.387519 0.183581 0.269280
O O8 0.495455 0.371971 0.328879
O O9 0.822722 0.838768 0.629686
O O10 0.732517 0.724102 0.471189
O O11 0.000000 0.838908 0.500000
O O12 0.002421 0.677133 0.613077
O O13 0.808253 0.500000 0.302724
O O14 0.720819 0.500000 0.965594
O O15 0.785042 0.000000 0.735317
O O16 0.500000 0.378270 0.500000
O O17 0.295577 0.500000 0.542166
#
# Coordination Sequence:
#
# PCOD9144033 Si02
#       7
#     4   4   4   4   4   4   4
#     4   9  20  36  57  85 113 148 192 238 285 350
#     4  11  22  36  54  84 118 156 198 234 278 349
#     4  11  22  37  59  86 120 147 197 238 290 350
#     4  11  21  34  56  88 126 157 184 230 292 355
#     4  10  18  34  58  87 123 155 187 230 290 356
#     4  10  23  44  62  80 109 152 203 254 291 328
#     4  11  21  35  56  84 123 161 189 227 284 352
#
# _framework density 19.279121
#
# number of rings (size 3 to 8) (size 9 to 14) (size 15 to 20)
#    0.000    1.571    2.857    3.429    0.000    1.429 
#    0.000   11.429    0.000    0.000    0.000   13.000 
#    0.000    0.000    0.000    0.000    0.000    0.000 
#
# Total GULP energy -155888.764670 kJ/mol
# GULP energy per Si atom -5567.455881 kJ/mol
# Density = 1.923524 g / cm^3
# Si number density = 19.279121 Si / 1000 Ang^3
#
#
#
# Elastic Constant Matrix: (Units=GPa)
#
#
# Indices 1 2 3 4 5 6 
#
# 1 53.5702 31.1536 10.8333 0.0000 -4.5503 0.0000
# 2 31.1536 114.6943 20.6126 0.0000 7.7358 0.0000
# 3 10.8333 20.6126 94.6487 0.0000 8.1647 0.0000
# 4 0.0000 0.0000 0.0000 18.1821 0.0000 -17.5613
# 5 -4.5503 7.7358 8.1647 0.0000 39.1602 0.0000
# 6 0.0000 0.0000 0.0000 -17.5613 0.0000 48.2622
#
#
#
# Elastic Compliance Matrix: (Units=1/GPa)
#
#
# Indices 1 2 3 4 5 6 
#
# 1 0.022985 -0.006235 -0.001639 0.000000 0.004244 0.000000
# 2 -0.006235 0.010842 -0.001426 0.000000 -0.002569 0.000000
# 3 -0.001639 -0.001426 0.011258 0.000000 -0.002256 0.000000
# 4 0.000000 0.000000 0.000000 0.084803 0.000000 0.030857
# 5 0.004244 -0.002569 -0.002256 0.000000 0.027007 0.000000
# 6 0.000000 0.000000 0.000000 0.030857 0.000000 0.031948
#
#
# Mechanical properties :
#
#
# Convention : Reuss Voigt Hill
#
# Bulk Modulus (GPa) = 37.75697 43.12356 40.44027
# Shear Modulus (GPa) = 23.11907 34.47516 28.79711
#
# Velocity S-wave (km/s) = 3.46667 4.23331 3.86903
# Velocity P-wave (km/s) = 5.97081 6.80523 6.40163
#
# Compressibility (1/GPa) = 0.02648518
#
# Stress axis : x y z
#
# Youngs Moduli (GPa) = 43.50668 92.23478 88.82463
#
# Poissons Ratio (x) = 0.57508 0.14559
# Poissons Ratio (y) = 0.27126 0.12666
# Poissons Ratio (z) = 0.07131 0.13152
#
# Static dielectric constant tensor:
#      x y z
#    x 1.732770 0.000000 -0.002810 
#    y 0.000000 1.628490 0.000000 
#    z -0.002810 0.000000 1.704800 
# 
# From -- ./inp_files/61008.got.cif
#   From: 2010.05.17/outbox.cif.g08.bks.cpg/sg10_31_cif.got.tgz:61008.got - 2010.06.03 11:33:40.
