data_PCOD9144737
_publ_section_title
;
Structure prediction by ZEFSAII (Michael W. Deem and Ramdas Pophale) SiO2 
 PCOD9144737
Probable space group: P 2/M
;
_chemical_formula_sum "Si O2"
_cell_formula_units_Z 28
_cell_length_a 14.787380
_cell_length_b 8.047615
_cell_length_c 10.937043
_cell_angle_alpha 90.000000
_cell_angle_beta 100.488708
_cell_angle_gamma 90.000000
_cell_volume 1279.794743
_symmetry_space_group_name_H-M "P 2/M"
_symmetry_group_IT_number 10
_symmetry_cell_setting 'monoclinic'
loop_
_space_group_symop_operation_xyz
x,y,z
-x,y,-z
-x,-y,-z
x,-y,z
loop_
_atom_site_type_symbol
_atom_site_label
_atom_site_fract_x
_atom_site_fract_y
_atom_site_fract_z
Si Si1 0.890580 0.804061 0.236004
Si Si2 0.614515 0.700828 0.781149
Si Si3 0.100392 0.305949 0.505782
Si Si4 0.935916 0.807397 0.862542
Si Si5 0.444805 0.197889 0.607205
Si Si6 0.276681 0.698597 0.430857
Si Si7 0.225153 0.306076 0.020880
O O1 0.858067 0.709933 0.347961
O O2 0.992908 0.741226 0.221238
O O3 0.898165 0.000000 0.262622
O O4 0.822462 0.782133 0.104915
O O5 0.616917 0.500000 0.780250
O O6 0.509266 0.753327 0.736358
O O7 0.670943 0.764632 0.675745
O O8 0.674910 0.755669 0.911760
O O9 0.088144 0.500000 0.471555
O O10 0.174906 0.232809 0.431060
O O11 0.000000 0.227187 0.500000
O O12 0.844255 0.713124 0.880019
O O13 0.913714 0.000000 0.832302
O O14 0.000000 0.805614 0.000000
O O15 0.500000 0.261259 0.500000
O O16 0.343106 0.267039 0.562665
O O17 0.439576 0.000000 0.600214
O O18 0.269158 0.500000 0.415257
O O19 0.230676 0.500000 0.992158
#
# Coordination Sequence:
#
# PCOD9144737 Si02
#       7
#     4   4   4   4   4   4   4
#     4  10  21  36  51  69 102 142 177 213 259 311
#     4   9  18  31  51  80 109 135 166 209 264 317
#     4  10  22  37  56  78 103 137 180 223 254 296
#     4   8  16  30  45  65  96 133 169 206 254 304
#     4   9  17  30  50  77 105 135 171 210 254 308
#     4   9  18  34  53  75 106 140 170 210 263 307
#     4  10  19  30  51  79 103 132 172 216 262 310
#
# _framework density 21.878506000000002
#
# number of rings (size 3 to 8) (size 9 to 14) (size 15 to 20)
#    0.000    2.714    0.000    2.143    2.000    6.857 
#    0.000    0.000    0.000    0.857    0.000    6.000 
#    0.000    0.000    0.000    0.000    0.000    0.000 
#
# Total GULP energy -156168.252261 kJ/mol
# GULP energy per Si atom -5577.437581 kJ/mol
# Density = 2.182871 g / cm^3
# Si number density = 21.878506 Si / 1000 Ang^3
#
#
#
# Elastic Constant Matrix: (Units=GPa)
#
#
# Indices 1 2 3 4 5 6 
#
# 1 66.2692 1.7415 13.1976 0.0000 22.1123 0.0000
# 2 1.7415 31.2149 -0.6832 0.0000 3.0565 0.0000
# 3 13.1976 -0.6832 51.4084 0.0000 20.3403 0.0000
# 4 0.0000 0.0000 0.0000 2.1050 0.0000 -9.7723
# 5 22.1123 3.0565 20.3403 0.0000 35.4175 0.0000
# 6 0.0000 0.0000 0.0000 -9.7723 0.0000 2.4898
#
#
#
# Elastic Compliance Matrix: (Units=1/GPa)
#
#
# Indices 1 2 3 4 5 6 
#
# 1 0.019063 0.000084 -0.000234 0.000000 -0.011775 0.000000
# 2 0.000084 0.032466 0.001992 0.000000 -0.003998 0.000000
# 3 -0.000234 0.001992 0.025297 0.000000 -0.014554 0.000000
# 4 0.000000 0.000000 0.000000 -0.027586 0.000000 -0.108272
# 5 -0.011775 -0.003998 -0.014554 0.000000 0.044289 0.000000
# 6 0.000000 0.000000 0.000000 -0.108272 0.000000 -0.023322
#
#
# Mechanical properties :
#
#
# Convention : Reuss Voigt Hill
#
# Bulk Modulus (GPa) = 12.42071 19.71160 16.06615
# Shear Modulus (GPa) = 53.55594 16.97824 35.26709
#
# Velocity S-wave (km/s) = 4.95297 2.78874 4.01927
# Velocity P-wave (km/s) = 6.19667 4.40438 5.37575
#
# Compressibility (1/GPa) = 0.08051070
#
# Stress axis : x y z
#
# Youngs Moduli (GPa) = 52.45695 30.80111 39.53033
#
# Poissons Ratio (x) = -0.00259 0.00925
# Poissons Ratio (y) = -0.00442 -0.07874
# Poissons Ratio (z) = 0.01228 -0.06135
#
# Static dielectric constant tensor:
#      x y z
#    x 1.842510 0.000000 0.017930 
#    y 0.000000 1.749510 0.000000 
#    z 0.017930 0.000000 1.881590 
# 
# From -- ./inp_files/49205.got.cif
#   From: 2010.05.17/outbox.cif.g08.bks.cpg/sg10_25_cif.got.tgz:49205.got - 2010.06.03 11:33:40.
