data_PCOD9144884
_publ_section_title
;
Structure prediction by ZEFSAII (Michael W. Deem and Ramdas Pophale) SiO2 
 PCOD9144884
Probable space group: P 2/M
;
_chemical_formula_sum "Si O2"
_cell_formula_units_Z 28
_cell_length_a 18.948801
_cell_length_b 7.299886
_cell_length_c 14.260718
_cell_angle_alpha 90.000000
_cell_angle_beta 147.351043
_cell_angle_gamma 90.000000
_cell_volume 1064.199255
_symmetry_space_group_name_H-M "P 2/M"
_symmetry_group_IT_number 10
_symmetry_cell_setting 'monoclinic'
loop_
_space_group_symop_operation_xyz
x,y,z
-x,y,-z
-x,-y,-z
x,-y,z
loop_
_atom_site_type_symbol
_atom_site_label
_atom_site_fract_x
_atom_site_fract_y
_atom_site_fract_z
Si Si1 0.594081 0.776444 0.020522
Si Si2 0.555550 0.796035 0.469486
Si Si3 0.136981 0.210067 0.741812
Si Si4 0.103819 0.214005 0.418165
Si Si5 0.280079 0.279822 0.095779
Si Si6 0.961430 0.719802 0.060051
Si Si7 0.369506 0.224825 0.635394
O O1 0.506615 0.717535 0.834045
O O2 0.601335 0.000000 0.028046
O O3 0.500000 0.724815 0.000000
O O4 0.744407 0.711316 0.187862
O O5 0.500000 0.699842 0.500000
O O6 0.419313 0.809386 0.261740
O O7 0.647747 0.714824 0.492364
O O8 0.602869 0.000000 0.547759
O O9 0.995058 0.290032 0.612488
O O10 0.117929 0.000000 0.691068
O O11 0.206766 0.211540 0.921772
O O12 0.249567 0.286223 0.566160
O O13 0.041288 0.223549 0.242932
O O14 0.115883 0.000000 0.455068
O O15 0.291103 0.500000 0.102327
O O16 0.188654 0.235695 0.082580
O O17 0.972899 0.500000 0.071038
O O18 0.000000 0.788406 0.000000
O O19 0.366694 0.000000 0.630373
#
# Coordination Sequence:
#
# PCOD9144884 Si02
#       7
#     4   4   4   4   4   4   4
#     4   9  16  28  51  77  99 128 160 195 248 304
#     4  10  20  32  48  68  96 134 167 199 247 294
#     4   9  16  31  51  71  96 125 162 199 238 292
#     4   9  18  30  48  71  94 126 163 204 243 280
#     4  10  19  31  48  69  94 127 166 204 245 285
#     4   9  19  33  46  64  95 130 163 203 246 289
#     4   9  17  31  47  70 103 128 158 205 246 288
#
# _framework density 26.310862
#
# number of rings (size 3 to 8) (size 9 to 14) (size 15 to 20)
#    0.000    2.714    1.429    0.429    2.000    1.143 
#    0.000    1.429    0.000    4.714    0.000    0.000 
#    0.000    4.571    0.000    0.000    0.000    0.000 
#
# Total GULP energy -156299.793806 kJ/mol
# GULP energy per Si atom -5582.135493 kJ/mol
# Density = 2.625098 g / cm^3
# Si number density = 26.310862 Si / 1000 Ang^3
#
#
#
# Elastic Constant Matrix: (Units=GPa)
#
#
# Indices 1 2 3 4 5 6 
#
# 1 237.8100 11.2155 41.8366 0.0000 24.5952 0.0000
# 2 11.2155 125.8634 5.3742 0.0000 1.9735 0.0000
# 3 41.8366 5.3742 73.0568 0.0000 22.8092 0.0000
# 4 0.0000 0.0000 0.0000 -13.6168 0.0000 19.7343
# 5 24.5952 1.9735 22.8092 0.0000 51.3457 0.0000
# 6 0.0000 0.0000 0.0000 19.7343 0.0000 -24.1060
#
#
#
# Elastic Compliance Matrix: (Units=1/GPa)
#
#
# Indices 1 2 3 4 5 6 
#
# 1 0.004755 -0.000305 -0.002314 0.000000 -0.001238 0.000000
# 2 -0.000305 0.007990 -0.000421 0.000000 0.000026 0.000000
# 3 -0.002314 -0.000421 0.017059 0.000000 -0.006453 0.000000
# 4 0.000000 0.000000 0.000000 0.393916 0.000000 0.322478
# 5 -0.001238 0.000026 -0.006453 0.000000 0.022935 0.000000
# 6 0.000000 0.000000 0.000000 0.322478 0.000000 0.222512
#
#
# Mechanical properties :
#
#
# Convention : Reuss Voigt Hill
#
# Bulk Modulus (GPa) = 42.15370 61.50922 51.83146
# Shear Modulus (GPa) = 7.31900 27.94485 17.63192
#
# Velocity S-wave (km/s) = 1.66966 3.26253 2.59151
# Velocity P-wave (km/s) = 4.44671 6.13358 5.35696
#
# Compressibility (1/GPa) = 0.02372271
#
# Stress axis : x y z
#
# Youngs Moduli (GPa) = 210.32622 125.15788 58.62079
#
# Poissons Ratio (x) = 0.03823 0.13563
# Poissons Ratio (y) = 0.06425 0.02468
# Poissons Ratio (z) = 0.48665 0.05269
#
# Static dielectric constant tensor:
#      x y z
#    x 2.185090 0.000000 -0.019150 
#    y 0.000000 1.978050 0.000000 
#    z -0.019150 0.000000 2.057200 
# 
# From -- ./inp_files/34557.got.cif
#   From: 2010.05.17/outbox.cif.g08.bks.cpg/sg10_18_cif.got.tgz:34557.got - 2010.06.03 11:33:40.
