data_PCOD9144266
_publ_section_title
;
Structure prediction by ZEFSAII (Michael W. Deem and Ramdas Pophale) SiO2 
 PCOD9144266
Probable space group: P 2/M
;
_chemical_formula_sum "Si O2"
_cell_formula_units_Z 32
_cell_length_a 16.312647
_cell_length_b 8.882789
_cell_length_c 31.155096
_cell_angle_alpha 90.000000
_cell_angle_beta 29.684646
_cell_angle_gamma 90.000000
_cell_volume 2235.662322
_symmetry_space_group_name_H-M "P 2/M"
_symmetry_group_IT_number 10
_symmetry_cell_setting 'monoclinic'
loop_
_space_group_symop_operation_xyz
x,y,z
-x,y,-z
-x,-y,-z
x,-y,z
loop_
_atom_site_type_symbol
_atom_site_label
_atom_site_fract_x
_atom_site_fract_y
_atom_site_fract_z
Si Si1 0.192057 0.318762 0.320345
Si Si2 0.088624 0.319775 0.021975
Si Si3 0.231992 0.180743 0.870757
Si Si4 0.665869 0.820732 0.830648
Si Si5 0.880889 0.326601 0.512163
Si Si6 0.614200 0.821424 0.687769
Si Si7 0.700220 0.673502 0.904600
Si Si8 0.272237 0.179054 0.018354
O O1 0.197704 0.500000 0.317777
O O2 0.251587 0.253515 0.248296
O O3 0.310838 0.259005 0.304244
O O4 0.003808 0.273638 0.418696
O O5 0.089934 0.500000 0.018007
O O6 0.164770 0.264623 0.031926
O O7 0.904404 0.255939 0.097821
O O8 0.195610 0.247922 0.934483
O O9 0.420240 0.213122 0.772091
O O10 0.208302 0.000000 0.882643
O O11 0.735204 0.752076 0.843353
O O12 0.688701 0.000000 0.819769
O O13 0.467446 0.791890 0.920326
O O14 0.832752 0.500000 0.526455
O O15 0.722429 0.231414 0.597916
O O16 0.000000 0.325247 0.500000
O O17 0.632757 0.000000 0.685194
O O18 0.754638 0.500000 0.880146
O O19 0.763627 0.761832 0.917421
O O20 0.500000 0.674473 0.000000
O O21 0.245824 0.000000 0.027559
#
# Coordination Sequence:
#
# PCOD9144266 Si02
#       8
#     4   4   4   4   4   4   4   4
#     4  10  19  29  42  61  86 115 144 175 211 250
#     4  11  21  31  45  64  83 109 146 181 213 249
#     4  10  20  33  45  60  85 113 141 177 219 254
#     4  10  19  29  43  63  86 114 145 175 210 251
#     4   8  16  29  42  58  82 111 140 172 211 250
#     4  10  19  29  44  63  82 110 145 177 212 254
#     4   9  17  29  44  62  84 110 141 176 210 247
#     4  10  19  31  45  61  85 115 144 175 213 253
#
# _framework density 14.313431
#
# number of rings (size 3 to 8) (size 9 to 14) (size 15 to 20)
#    0.000    2.250    0.000    5.625    0.000   10.750 
#    0.000    0.000    0.000    0.000    0.000    0.000 
#    0.000    1.000    0.000   10.500    0.000    5.750 
#
# Total GULP energy -178436.433519 kJ/mol
# GULP energy per Si atom -5576.138547 kJ/mol
# Density = 1.428085 g / cm^3
# Si number density = 14.313431 Si / 1000 Ang^3
#
#
#
# Elastic Constant Matrix: (Units=GPa)
#
#
# Indices 1 2 3 4 5 6 
#
# 1 87.6069 48.0387 46.8987 0.0000 9.7376 0.0000
# 2 48.0387 84.8743 56.8646 0.0000 2.0090 0.0000
# 3 46.8987 56.8646 105.7301 0.0000 8.3870 0.0000
# 4 0.0000 0.0000 0.0000 22.0322 0.0000 6.8052
# 5 9.7376 2.0090 8.3870 0.0000 20.9082 0.0000
# 6 0.0000 0.0000 0.0000 6.8052 0.0000 16.7420
#
#
#
# Elastic Compliance Matrix: (Units=1/GPa)
#
#
# Indices 1 2 3 4 5 6 
#
# 1 0.018270 -0.007974 -0.003307 0.000000 -0.006416 0.000000
# 2 -0.007974 0.022005 -0.008702 0.000000 0.005090 0.000000
# 3 -0.003307 -0.008702 0.015923 0.000000 -0.004011 0.000000
# 4 0.000000 0.000000 0.000000 0.051905 0.000000 -0.021098
# 5 -0.006416 0.005090 -0.004011 0.000000 0.051936 0.000000
# 6 0.000000 0.000000 0.000000 -0.021098 0.000000 0.068306
#
#
# Mechanical properties :
#
#
# Convention : Reuss Voigt Hill
#
# Bulk Modulus (GPa) = 61.59909 64.64613 63.12261
# Shear Modulus (GPa) = 18.26684 20.36377 19.31530
#
# Velocity S-wave (km/s) = 3.57627 3.77597 3.67748
# Velocity P-wave (km/s) = 7.75772 8.01706 7.88846
#
# Compressibility (1/GPa) = 0.01623401
#
# Stress axis : x y z
#
# Youngs Moduli (GPa) = 54.73368 45.44502 62.80246
#
# Poissons Ratio (x) = 0.36236 0.20767
# Poissons Ratio (y) = 0.43642 0.54648
# Poissons Ratio (z) = 0.18099 0.39544
#
# Static dielectric constant tensor:
#      x y z
#    x 1.449300 0.000000 0.004790 
#    y 0.000000 1.478380 0.000000 
#    z 0.004790 0.000000 1.473040 
# 
# From -- ./inp_files/95257.got.cif
#   From: 2010.05.17/outbox.cif.g08.bks.cpg/sg10_48_cif.got.tgz:95257.got - 2010.06.03 11:33:40.
