data_PCOD9144215
_publ_section_title
;
Structure prediction by ZEFSAII (Michael W. Deem and Ramdas Pophale) SiO2 
 PCOD9144215
Probable space group: P 2/M
;
_chemical_formula_sum "Si O2"
_cell_formula_units_Z 32
_cell_length_a 31.313587
_cell_length_b 8.725757
_cell_length_c 16.356696
_cell_angle_alpha 90.000000
_cell_angle_beta 150.075010
_cell_angle_gamma 90.000000
_cell_volume 2229.539875
_symmetry_space_group_name_H-M "P 2/M"
_symmetry_group_IT_number 10
_symmetry_cell_setting 'monoclinic'
loop_
_space_group_symop_operation_xyz
x,y,z
-x,y,-z
-x,-y,-z
x,-y,z
loop_
_atom_site_type_symbol
_atom_site_label
_atom_site_fract_x
_atom_site_fract_y
_atom_site_fract_z
Si Si1 0.631468 0.183305 0.238493
Si Si2 0.993363 0.321868 0.889971
Si Si3 0.180641 0.685666 0.192643
Si Si4 0.405933 0.676759 0.301877
Si Si5 0.521550 0.317080 0.911722
Si Si6 0.665726 0.183109 0.658288
Si Si7 0.482835 0.182674 0.273552
Si Si8 0.805922 0.313828 0.593173
O O1 0.567561 0.248075 0.202101
O O2 0.726381 0.241204 0.414915
O O3 0.626919 0.000000 0.230415
O O4 0.593967 0.249522 0.091763
O O5 0.991670 0.500000 0.861563
O O6 0.899027 0.258682 0.715331
O O7 0.000000 0.321635 0.000000
O O8 0.084314 0.257153 0.011686
O O9 0.180428 0.500000 0.187539
O O10 0.253152 0.751640 0.254864
O O11 0.199042 0.724348 0.318259
O O12 0.500000 0.681370 0.500000
O O13 0.383899 0.500000 0.250283
O O14 0.344291 0.750260 0.267159
O O15 0.417882 0.766365 0.237120
O O16 0.519131 0.500000 0.915122
O O17 0.534185 0.266061 0.839779
O O18 0.578567 0.223863 0.464233
O O19 0.669563 0.000000 0.668712
O O20 0.479657 0.000000 0.257254
O O21 0.803137 0.500000 0.582770
#
# Coordination Sequence:
#
# PCOD9144215 Si02
#       8
#     4   4   4   4   4   4   4   4
#     4  11  21  32  44  61  86 112 140 177 219 252
#     4   7  12  24  41  60  81 107 140 176 210 244
#     4   9  16  26  42  62  84 112 145 178 209 246
#     4   9  17  29  44  61  81 108 143 177 206 243
#     4  11  21  33  47  62  81 109 146 180 210 246
#     4  10  19  28  40  60  87 116 142 172 211 252
#     4  10  19  31  45  62  86 113 140 172 214 255
#     4   9  16  28  45  62  82 111 146 178 210 251
#
# _framework density 14.352738
#
# number of rings (size 3 to 8) (size 9 to 14) (size 15 to 20)
#    0.000    2.500    0.000    6.375    0.000    5.500 
#    0.000    0.625    0.000    2.250    0.000    0.000 
#    0.000    1.000    0.000   10.750    0.000    4.750 
#
# Total GULP energy -178314.259957 kJ/mol
# GULP energy per Si atom -5572.320624 kJ/mol
# Density = 1.432007 g / cm^3
# Si number density = 14.352738 Si / 1000 Ang^3
#
#
#
# Elastic Constant Matrix: (Units=GPa)
#
#
# Indices 1 2 3 4 5 6 
#
# 1 99.6497 36.4199 43.2287 0.0000 8.8681 0.0000
# 2 36.4199 63.3328 34.1592 0.0000 0.9200 0.0000
# 3 43.2287 34.1592 82.8134 0.0000 12.9944 0.0000
# 4 0.0000 0.0000 0.0000 -3.1456 0.0000 -32.9998
# 5 8.8681 0.9200 12.9944 0.0000 23.0101 0.0000
# 6 0.0000 0.0000 0.0000 -32.9998 0.0000 -31.4923
#
#
#
# Elastic Compliance Matrix: (Units=1/GPa)
#
#
# Indices 1 2 3 4 5 6 
#
# 1 0.014413 -0.005679 -0.004768 0.000000 -0.002635 0.000000
# 2 -0.005679 0.022940 -0.007349 0.000000 0.005421 0.000000
# 3 -0.004768 -0.007349 0.018939 0.000000 -0.008564 0.000000
# 4 0.000000 0.000000 0.000000 0.031813 0.000000 -0.033336
# 5 -0.002635 0.005421 -0.008564 0.000000 0.049094 0.000000
# 6 0.000000 0.000000 0.000000 -0.033336 0.000000 0.003178
#
#
# Mechanical properties :
#
#
# Convention : Reuss Voigt Hill
#
# Bulk Modulus (GPa) = 48.30466 52.60129 50.45298
# Shear Modulus (GPa) = 27.34191 6.47364 16.90778
#
# Velocity S-wave (km/s) = 4.36936 2.12607 3.43595
# Velocity P-wave (km/s) = 7.69308 6.53876 7.13929
#
# Compressibility (1/GPa) = 0.02070194
#
# Stress axis : x y z
#
# Youngs Moduli (GPa) = 69.37945 43.59188 52.80012
#
# Poissons Ratio (x) = 0.24754 0.25175
# Poissons Ratio (y) = 0.39398 0.38802
# Poissons Ratio (z) = 0.33080 0.32035
#
# Static dielectric constant tensor:
#      x y z
#    x 1.464380 0.000000 0.015380 
#    y 0.000000 1.479910 0.000000 
#    z 0.015380 0.000000 1.470670 
# 
# From -- ./inp_files/72566.got.cif
#   From: 2010.05.17/outbox.cif.g08.bks.cpg/sg10_37_cif.got.tgz:72566.got - 2010.06.03 11:33:40.
