data_PCOD9144353
_publ_section_title
;
Structure prediction by ZEFSAII (Michael W. Deem and Ramdas Pophale) SiO2 
 PCOD9144353
Probable space group: P 2/M
;
_chemical_formula_sum "Si O2"
_cell_formula_units_Z 32
_cell_length_a 11.909014
_cell_length_b 7.961944
_cell_length_c 18.415748
_cell_angle_alpha 90.000000
_cell_angle_beta 94.795662
_cell_angle_gamma 90.000000
_cell_volume 1740.048041
_symmetry_space_group_name_H-M "P 2/M"
_symmetry_group_IT_number 10
_symmetry_cell_setting 'monoclinic'
loop_
_space_group_symop_operation_xyz
x,y,z
-x,y,-z
-x,-y,-z
x,-y,z
loop_
_atom_site_type_symbol
_atom_site_label
_atom_site_fract_x
_atom_site_fract_y
_atom_site_fract_z
Si Si1 0.650442 0.797453 0.444071
Si Si2 0.745033 0.302684 0.875402
Si Si3 0.778600 0.696855 0.145420
Si Si4 0.372882 0.803652 0.988758
Si Si5 0.570015 0.303040 0.749324
Si Si6 0.384059 0.201505 0.402698
Si Si7 0.314076 0.802408 0.710460
Si Si8 0.009309 0.705514 0.084875
O O1 0.677854 0.737540 0.527134
O O2 0.517041 0.768382 0.424742
O O3 0.705933 0.734325 0.372527
O O4 0.664691 0.000000 0.446248
O O5 0.751398 0.500000 0.857391
O O6 0.648347 0.231911 0.817585
O O7 0.871455 0.233525 0.877034
O O8 0.705241 0.284875 0.956147
O O9 0.771961 0.500000 0.127771
O O10 0.680584 0.782981 0.093248
O O11 0.756565 0.721412 0.229003
O O12 0.899606 0.759394 0.123649
O O13 0.375658 0.000000 0.008202
O O14 0.500000 0.736790 0.000000
O O15 0.547483 0.500000 0.761152
O O16 0.635907 0.281807 0.676552
O O17 0.447413 0.219435 0.735225
O O18 0.369064 0.000000 0.395563
O O19 0.289777 0.000000 0.708829
O O20 0.011876 0.500000 0.085700
O O21 0.000000 0.756249 0.000000
#
# Coordination Sequence:
#
# PCOD9144353 Si02
#       8
#     4   4   4   4   4   4   4   4
#     4   7  12  24  43  64  88 127 164 187 219 275
#     4  10  20  35  52  69  91 123 159 195 234 280
#     4  11  21  34  53  72  92 119 157 198 238 282
#     4  11  23  35  48  69  97 126 154 186 230 281
#     4  10  19  29  45  72 102 127 156 192 235 279
#     4   8  13  25  44  64  91 127 163 189 224 275
#     4  10  19  32  48  68 100 131 158 191 233 280
#     4   9  17  34  56  71  85 116 159 199 239 281
#
# _framework density 18.390297
#
# number of rings (size 3 to 8) (size 9 to 14) (size 15 to 20)
#    0.000    2.500    1.250    3.750    0.000    4.000 
#    0.000    7.500    0.000    0.000    0.000    0.875 
#    0.000    7.000    0.000    0.000    0.000    0.000 
#
# Total GULP energy -178321.170983 kJ/mol
# GULP energy per Si atom -5572.536593 kJ/mol
# Density = 1.834844 g / cm^3
# Si number density = 18.390297 Si / 1000 Ang^3
#
#
#
# Elastic Constant Matrix: (Units=GPa)
#
#
# Indices 1 2 3 4 5 6 
#
# 1 64.1161 -0.3712 11.2628 0.0000 -22.7594 0.0000
# 2 -0.3712 14.4864 -7.6786 0.0000 3.0046 0.0000
# 3 11.2628 -7.6786 86.2969 0.0000 -31.0081 0.0000
# 4 0.0000 0.0000 0.0000 24.0167 0.0000 0.9864
# 5 -22.7594 3.0046 -31.0081 0.0000 19.5572 0.0000
# 6 0.0000 0.0000 0.0000 0.9864 0.0000 63.5506
#
#
#
# Elastic Compliance Matrix: (Units=1/GPa)
#
#
# Indices 1 2 3 4 5 6 
#
# 1 0.047763 -0.004075 0.031608 0.000000 0.106324 0.000000
# 2 -0.004075 0.072832 0.002993 0.000000 -0.011186 0.000000
# 3 0.031608 0.002993 0.048294 0.000000 0.112894 0.000000
# 4 0.000000 0.000000 0.000000 0.041664 0.000000 -0.000647
# 5 0.106324 -0.011186 0.112894 0.000000 0.355578 0.000000
# 6 0.000000 0.000000 0.000000 -0.000647 0.000000 0.015746
#
#
# Mechanical properties :
#
#
# Convention : Reuss Voigt Hill
#
# Bulk Modulus (GPa) = 4.34894 19.03617 11.69256
# Shear Modulus (GPa) = 8.36860 32.20400 20.28630
#
# Velocity S-wave (km/s) = 2.13552 4.18920 3.32490
# Velocity P-wave (km/s) = 2.90698 5.81145 4.59475
#
# Compressibility (1/GPa) = 0.22994090
#
# Stress axis : x y z
#
# Youngs Moduli (GPa) = 20.93685 13.73018 20.70655
#
# Poissons Ratio (x) = 0.05595 -0.65449
# Poissons Ratio (y) = 0.08532 -0.06197
# Poissons Ratio (z) = -0.66177 -0.04109
#
# Static dielectric constant tensor:
#      x y z
#    x 1.627700 0.000000 0.012910 
#    y 0.000000 1.655070 0.000000 
#    z 0.012910 0.000000 1.874270 
# 
# From -- ./inp_files/56453.got.cif
#   From: 2010.05.17/outbox.cif.g08.bks.cpg/sg10_29_cif.got.tgz:56453.got - 2010.06.03 11:33:40.
