data_PCOD9144866
_publ_section_title
;
Structure prediction by ZEFSAII (Michael W. Deem and Ramdas Pophale) SiO2 
 PCOD9144866
Probable space group: P 2/M
;
_chemical_formula_sum "Si O2"
_cell_formula_units_Z 32
_cell_length_a 17.604135
_cell_length_b 7.561145
_cell_length_c 22.376732
_cell_angle_alpha 90.000000
_cell_angle_beta 145.002868
_cell_angle_gamma 90.000000
_cell_volume 1708.280449
_symmetry_space_group_name_H-M "P 2/M"
_symmetry_group_IT_number 10
_symmetry_cell_setting 'monoclinic'
loop_
_space_group_symop_operation_xyz
x,y,z
-x,y,-z
-x,-y,-z
x,-y,z
loop_
_atom_site_type_symbol
_atom_site_label
_atom_site_fract_x
_atom_site_fract_y
_atom_site_fract_z
Si Si1 0.782775 0.786726 0.111033
Si Si2 0.287084 0.213693 0.353791
Si Si3 0.576039 0.216983 0.767800
Si Si4 0.017092 0.300976 0.855762
Si Si5 0.473691 0.216621 0.130549
Si Si6 0.634978 0.792267 0.126593
Si Si7 0.526396 0.215318 0.422207
Si Si8 0.125599 0.800407 0.047173
O O1 0.918607 0.735880 0.167096
O O2 0.747154 0.719293 0.154491
O O3 0.777542 0.000000 0.110189
O O4 0.664072 0.730304 0.990000
O O5 0.392944 0.267898 0.371632
O O6 0.349820 0.272116 0.457538
O O7 0.139640 0.276057 0.246868
O O8 0.283542 0.000000 0.351236
O O9 0.527230 0.273864 0.801556
O O10 0.485971 0.271999 0.654067
O O11 0.727542 0.277012 0.854088
O O12 0.579887 0.000000 0.771648
O O13 0.049026 0.500000 0.893487
O O14 0.086132 0.189306 0.952204
O O15 0.592316 0.279402 0.163649
O O16 0.475844 0.000000 0.131059
O O17 0.664841 0.000000 0.154746
O O18 0.500000 0.783513 0.000000
O O19 0.528273 0.000000 0.423765
O O20 0.137305 0.000000 0.080362
O O21 0.000000 0.716028 0.000000
#
# Coordination Sequence:
#
# PCOD9144866 Si02
#       8
#     4   4   4   4   4   4   4   4
#     4   9  15  27  44  62  86 118 152 179 213 264
#     4   9  17  32  50  65  85 114 153 192 226 261
#     4   9  14  22  41  70  94 109 136 181 229 267
#     4  12  23  31  42  64  95 124 152 185 223 259
#     4   8  12  20  38  66  93 112 137 179 225 268
#     4   7  11  19  36  61  86 112 142 176 215 264
#     4   8  15  28  48  70  86 107 145 194 231 261
#     4  10  19  31  48  67  89 121 155 180 212 267
#
# _framework density 18.732285999999998
#
# number of rings (size 3 to 8) (size 9 to 14) (size 15 to 20)
#    0.000    3.000    1.250    4.125    0.000    2.250 
#    0.000    1.250    0.000    4.125    0.000    0.875 
#    0.000    7.000    0.000    0.000    0.000    0.000 
#
# Total GULP energy -178322.514596 kJ/mol
# GULP energy per Si atom -5572.578581 kJ/mol
# Density = 1.868965 g / cm^3
# Si number density = 18.732286 Si / 1000 Ang^3
#
#
#
# Elastic Constant Matrix: (Units=GPa)
#
#
# Indices 1 2 3 4 5 6 
#
# 1 80.3665 1.4593 -2.1673 0.0000 -20.7359 0.0000
# 2 1.4593 48.3041 -3.0170 0.0000 -1.4370 0.0000
# 3 -2.1673 -3.0170 35.6886 0.0000 -15.6034 0.0000
# 4 0.0000 0.0000 0.0000 0.0470 0.0000 25.2831
# 5 -20.7359 -1.4370 -15.6034 0.0000 25.3336 0.0000
# 6 0.0000 0.0000 0.0000 25.2831 0.0000 7.4198
#
#
#
# Elastic Compliance Matrix: (Units=1/GPa)
#
#
# Indices 1 2 3 4 5 6 
#
# 1 0.018263 0.000748 0.010574 0.000000 0.021503 0.000000
# 2 0.000748 0.021022 0.003574 0.000000 0.004006 0.000000
# 3 0.010574 0.003574 0.044938 0.000000 0.036536 0.000000
# 4 0.000000 0.000000 0.000000 -0.011614 0.000000 0.039574
# 5 0.021503 0.004006 0.036536 0.000000 0.079804 0.000000
# 6 0.000000 0.000000 0.000000 0.039574 0.000000 -0.000074
#
#
# Mechanical properties :
#
#
# Convention : Reuss Voigt Hill
#
# Bulk Modulus (GPa) = 8.77071 17.43433 13.10252
# Shear Modulus (GPa) = 31.14253 17.76571 24.45412
#
# Velocity S-wave (km/s) = 4.08181 3.08295 3.61703
# Velocity P-wave (km/s) = 5.18721 4.69043 4.94506
#
# Compressibility (1/GPa) = 0.11401582
#
# Stress axis : x y z
#
# Youngs Moduli (GPa) = 54.75610 47.56925 22.25281
#
# Poissons Ratio (x) = -0.03560 -0.23530
# Poissons Ratio (y) = -0.04098 -0.07954
# Poissons Ratio (z) = -0.57898 -0.17002
#
# Static dielectric constant tensor:
#      x y z
#    x 1.697600 0.000000 -0.009120 
#    y 0.000000 1.731450 0.000000 
#    z -0.009120 0.000000 1.605950 
# 
# From -- ./inp_files/89969.got.cif
#   From: 2010.05.17/outbox.cif.g08.bks.cpg/sg10_45_cif.got.tgz:89969.got - 2010.06.03 11:33:40.
