data_PCOD9144264
_publ_section_title
;
Structure prediction by ZEFSAII (Michael W. Deem and Ramdas Pophale) SiO2 
 PCOD9144264
Probable space group: P 2/M
;
_chemical_formula_sum "Si O2"
_cell_formula_units_Z 26
_cell_length_a 5.102290
_cell_length_b 25.848915
_cell_length_c 14.897343
_cell_angle_alpha 90.000000
_cell_angle_beta 58.375441
_cell_angle_gamma 90.000000
_cell_volume 1673.023642
_symmetry_space_group_name_H-M "P 2/M"
_symmetry_group_IT_number 10
_symmetry_cell_setting 'monoclinic'
loop_
_space_group_symop_operation_xyz
x,y,z
-x,y,-z
-x,-y,-z
x,-y,z
loop_
_atom_site_type_symbol
_atom_site_label
_atom_site_fract_x
_atom_site_fract_y
_atom_site_fract_z
Si Si1 0.215244 0.938294 0.115744
Si Si2 0.865621 0.612366 0.922902
Si Si3 0.785588 0.223957 0.128256
Si Si4 0.633296 0.059519 0.573724
Si Si5 0.566276 0.110573 0.211111
Si Si6 0.717219 0.283808 0.872497
Si Si7 0.130521 0.500000 0.076596
O O1 0.302875 0.913168 0.195072
O O2 0.893815 0.917586 0.135890
O O3 0.201165 0.000000 0.126592
O O4 0.500000 0.924497 0.000000
O O5 0.888025 0.660930 0.851650
O O6 0.973036 0.556091 0.867792
O O7 0.500000 0.606799 0.000000
O O8 0.000000 0.622648 0.000000
O O9 0.621311 0.170245 0.178388
O O10 0.526530 0.268207 0.159532
O O11 0.022851 0.240551 0.162662
O O12 0.000000 0.219382 0.000000
O O13 0.500000 0.071362 0.500000
O O14 0.518412 0.097552 0.671493
O O15 0.000000 0.060859 0.500000
O O16 0.540729 0.000000 0.614041
O O17 0.500000 0.282169 0.000000
O O18 0.500000 0.500000 0.000000
O O19 0.000000 0.500000 0.000000
#
# Coordination Sequence:
#
# PCOD9144264 Si02
#       7
#     4   4   4   4   4   4   2
#     4  11  22  34  49  70  94 118 141 166 207 263
#     4   9  14  22  34  49  70 100 137 179 219 244
#     4  10  19  29  42  61  84 111 141 169 201 247
#     4  10  21  37  55  72  87 106 137 177 221 267
#     4  12  22  35  52  69  91 116 142 178 216 257
#     4   9  16  26  38  53  77 109 141 172 205 241
#     4   8  14  20  30  48  68  92 132 182 222 246
#
# _framework density 15.540727
#
# number of rings (size 3 to 8) (size 9 to 14) (size 15 to 20)
#    0.000    2.000    0.000    6.923    0.000    3.692 
#    0.000    0.000    0.000    0.000    0.000    0.000 
#    0.000    0.000    0.000    0.000    0.000    0.000 
#
# Total GULP energy -144810.362418 kJ/mol
# GULP energy per Si atom -5569.629324 kJ/mol
# Density = 1.550536 g / cm^3
# Si number density = 15.540727 Si / 1000 Ang^3
#
#
#
# Elastic Constant Matrix: (Units=GPa)
#
#
# Indices 1 2 3 4 5 6 
#
# 1 84.0588 9.8163 5.6420 0.0000 6.0758 0.0000
# 2 9.8163 79.0349 17.2989 0.0000 6.3538 0.0000
# 3 5.6420 17.2989 29.7982 0.0000 3.4113 0.0000
# 4 0.0000 0.0000 0.0000 -30.3005 0.0000 44.5117
# 5 6.0758 6.3538 3.4113 0.0000 12.1300 0.0000
# 6 0.0000 0.0000 0.0000 44.5117 0.0000 -25.7194
#
#
#
# Elastic Compliance Matrix: (Units=1/GPa)
#
#
# Indices 1 2 3 4 5 6 
#
# 1 0.012473 -0.000837 -0.001251 0.000000 -0.005457 0.000000
# 2 -0.000837 0.014901 -0.007901 0.000000 -0.005164 0.000000
# 3 -0.001251 -0.007901 0.039096 0.000000 -0.006230 0.000000
# 4 0.000000 0.000000 0.000000 0.021398 0.000000 0.037032
# 5 -0.005457 -0.005164 -0.006230 0.000000 0.089630 0.000000
# 6 0.000000 0.000000 0.000000 0.037032 0.000000 0.025209
#
#
# Mechanical properties :
#
#
# Convention : Reuss Voigt Hill
#
# Bulk Modulus (GPa) = 21.50902 28.71180 25.11041
# Shear Modulus (GPa) = 20.99243 1.89767 11.44505
#
# Velocity S-wave (km/s) = 3.67931 1.10623 2.71671
# Velocity P-wave (km/s) = 5.64980 4.48854 5.10231
#
# Compressibility (1/GPa) = 0.04649213
#
# Stress axis : x y z
#
# Youngs Moduli (GPa) = 80.17595 67.10939 25.57816
#
# Poissons Ratio (x) = 0.05614 0.03200
# Poissons Ratio (y) = 0.06707 0.20209
# Poissons Ratio (z) = 0.10031 0.53023
#
# Static dielectric constant tensor:
#      x y z
#    x 1.533760 0.000000 0.003840 
#    y 0.000000 1.596950 0.000000 
#    z 0.003840 0.000000 1.494950 
# 
# From -- ./inp_files/59708.got.cif
#   From: 2010.05.17/outbox.cif.g08.bks.cpg/sg10_30_cif.got.tgz:59708.got - 2010.06.03 11:33:40.
