data_PCOD9144377
_publ_section_title
;
Structure prediction by ZEFSAII (Michael W. Deem and Ramdas Pophale) SiO2 
 PCOD9144377
Probable space group: P 2/M
;
_chemical_formula_sum "Si O2"
_cell_formula_units_Z 32
_cell_length_a 13.613760
_cell_length_b 7.721216
_cell_length_c 16.322523
_cell_angle_alpha 90.000000
_cell_angle_beta 114.197130
_cell_angle_gamma 90.000000
_cell_volume 1564.994773
_symmetry_space_group_name_H-M "P 2/M"
_symmetry_group_IT_number 10
_symmetry_cell_setting 'monoclinic'
loop_
_space_group_symop_operation_xyz
x,y,z
-x,y,-z
-x,-y,-z
x,-y,z
loop_
_atom_site_type_symbol
_atom_site_label
_atom_site_fract_x
_atom_site_fract_y
_atom_site_fract_z
Si Si1 0.671497 0.787916 0.766909
Si Si2 0.100683 0.296478 0.759475
Si Si3 0.340070 0.791226 0.895297
Si Si4 0.135497 0.207247 0.277209
Si Si5 0.477587 0.803599 0.588192
Si Si6 0.251696 0.199054 0.481768
Si Si7 0.114926 0.302264 0.581813
Si Si8 0.440481 0.211186 0.103750
O O1 0.787245 0.730388 0.770423
O O2 0.579904 0.731877 0.670662
O O3 0.626788 0.730826 0.840043
O O4 0.675695 0.000000 0.770179
O O5 0.086406 0.500000 0.744649
O O6 0.217816 0.264028 0.837813
O O7 0.104204 0.222836 0.668256
O O8 0.992231 0.240565 0.769079
O O9 0.433787 0.734178 0.863119
O O10 0.340543 0.000000 0.893782
O O11 0.381432 0.737279 0.999361
O O12 0.186354 0.272236 0.381498
O O13 0.145054 0.000000 0.281804
O O14 0.500000 0.815828 0.500000
O O15 0.362506 0.712806 0.547753
O O16 0.465003 0.000000 0.618754
O O17 0.183372 0.198093 0.540313
O O18 0.278643 0.000000 0.466919
O O19 0.158266 0.500000 0.602904
O O20 0.000000 0.313905 0.500000
O O21 0.441644 0.000000 0.106423
#
# Coordination Sequence:
#
# PCOD9144377 Si02
#       8
#     4   4   4   4   4   4   4   4
#     4   9  16  28  49  77 108 139 169 204 255 311
#     4  11  23  37  53  73 101 140 178 210 256 309
#     4   9  18  35  58  83 107 129 164 213 260 307
#     4  10  19  32  51  76 105 137 176 216 249 295
#     4   9  15  25  42  72 109 135 160 202 253 299
#     4  10  19  29  47  75 102 131 170 214 254 292
#     4  10  21  36  49  65  97 140 175 205 249 304
#     4   8  16  32  55  82 109 134 160 204 265 315
#
# _framework density 20.447353
#
# number of rings (size 3 to 8) (size 9 to 14) (size 15 to 20)
#    0.000    2.500    2.500    1.125    1.750    1.250 
#    0.000    1.875    0.000    6.375    0.000    0.000 
#    0.000    0.000    0.000    0.000    0.000    0.000 
#
# Total GULP energy -178220.247943 kJ/mol
# GULP energy per Si atom -5569.382748 kJ/mol
# Density = 2.040081 g / cm^3
# Si number density = 20.447353 Si / 1000 Ang^3
#
#
#
# Elastic Constant Matrix: (Units=GPa)
#
#
# Indices 1 2 3 4 5 6 
#
# 1 207.5464 8.7092 77.9942 0.0000 -3.5334 0.0000
# 2 8.7092 31.5105 -0.7268 0.0000 -4.0962 0.0000
# 3 77.9942 -0.7268 82.1363 0.0000 -5.3521 0.0000
# 4 0.0000 0.0000 0.0000 11.6256 0.0000 0.9161
# 5 -3.5334 -4.0962 -5.3521 0.0000 34.3979 0.0000
# 6 0.0000 0.0000 0.0000 0.9161 0.0000 -22.5410
#
#
#
# Elastic Compliance Matrix: (Units=1/GPa)
#
#
# Indices 1 2 3 4 5 6 
#
# 1 0.007666 -0.002371 -0.007342 0.000000 -0.000637 0.000000
# 2 -0.002371 0.032992 0.002812 0.000000 0.004123 0.000000
# 3 -0.007342 0.002812 0.019340 0.000000 0.002590 0.000000
# 4 0.000000 0.000000 0.000000 0.085742 0.000000 0.003485
# 5 -0.000637 0.004123 0.002590 0.000000 0.029900 0.000000
# 6 0.000000 0.000000 0.000000 0.003485 0.000000 -0.044222
#
#
# Mechanical properties :
#
#
# Convention : Reuss Voigt Hill
#
# Bulk Modulus (GPa) = 21.64695 54.79404 38.22049
# Shear Modulus (GPa) = 31.12979 20.37761 25.75370
#
# Velocity S-wave (km/s) = 3.90607 3.16030 3.55281
# Velocity P-wave (km/s) = 5.56353 6.33818 5.96345
#
# Compressibility (1/GPa) = 0.04619589
#
# Stress axis : x y z
#
# Youngs Moduli (GPa) = 130.44953 30.31083 51.70626
#
# Poissons Ratio (x) = 0.07186 0.37961
# Poissons Ratio (y) = 0.30929 -0.14539
# Poissons Ratio (z) = 0.95772 -0.08523
#
# Static dielectric constant tensor:
#      x y z
#    x 1.612230 0.000000 0.000100 
#    y 0.000000 1.784300 0.000000 
#    z 0.000100 0.000000 1.714540 
# 
# From -- ./inp_files/66601.got.cif
#   From: 2010.05.17/outbox.cif.g08.bks.cpg/sg10_34_cif.got.tgz:66601.got - 2010.06.03 11:33:40.
