data_PCOD9144149
_publ_section_title
;
Structure prediction by ZEFSAII (Michael W. Deem and Ramdas Pophale) SiO2 
 PCOD9144149
Probable space group: P 2/M
;
_chemical_formula_sum "Si O2"
_cell_formula_units_Z 18
_cell_length_a 10.373812
_cell_length_b 10.195098
_cell_length_c 22.525464
_cell_angle_alpha 90.000000
_cell_angle_beta 23.978342
_cell_angle_gamma 90.000000
_cell_volume 968.161739
_symmetry_space_group_name_H-M "P 2/M"
_symmetry_group_IT_number 10
_symmetry_cell_setting 'monoclinic'
loop_
_space_group_symop_operation_xyz
x,y,z
-x,y,-z
-x,-y,-z
x,-y,z
loop_
_atom_site_type_symbol
_atom_site_label
_atom_site_fract_x
_atom_site_fract_y
_atom_site_fract_z
Si Si1 0.191896 0.000000 0.980284
Si Si2 0.613556 0.500000 0.883696
Si Si3 0.711742 0.000000 0.575075
Si Si4 0.839361 0.234513 0.823362
Si Si5 0.192226 0.223291 0.795720
Si Si6 0.041817 0.500000 0.912042
Si Si7 0.088557 0.000000 0.297051
O O1 0.085216 0.131162 0.059881
O O2 0.000000 0.000000 0.000000
O O3 0.567293 0.000000 0.816126
O O4 0.806228 0.366694 0.799117
O O5 0.500000 0.500000 0.000000
O O6 0.305332 0.500000 0.972548
O O7 0.496873 0.870027 0.674200
O O8 0.000000 0.000000 0.500000
O O9 0.833560 0.000000 0.456252
O O10 0.094522 0.246074 0.768560
O O11 0.924028 0.121743 0.742179
O O12 0.500000 0.209923 0.000000
O O13 0.205380 0.364440 0.821922
O O14 0.000000 0.500000 0.000000
#
# Coordination Sequence:
#
# PCOD9144149 Si02
#       7
#     2   2   2   4   4   2   2
#     4  11  20  33  58  88 116 153 204 256 314 368
#     4  10  18  36  59  95 131 155 182 266 333 365
#     4  11  28  46  58  81 135 179 209 257 318 374
#     4  11  19  35  64  96 127 151 202 269 325 359
#     4  11  22  40  62  89 125 162 200 268 318 366
#     4  12  22  36  66 101 128 160 215 257 321 388
#     4  12  21  36  62  89 115 166 221 253 297 383
#
# _framework density 18.591936
#
# number of rings (size 3 to 8) (size 9 to 14) (size 15 to 20)
#    0.000    0.889    6.667    3.667    0.000    3.556 
#    0.000    1.667    0.000    2.667    0.000    0.000 
#    0.000    0.000    0.000    0.000    0.000    0.000 
#
# Total GULP energy -100519.398132 kJ/mol
# GULP energy per Si atom -5584.411007 kJ/mol
# Density = 1.854962 g / cm^3
# Si number density = 18.591936 Si / 1000 Ang^3
#
#
#
# Elastic Constant Matrix: (Units=GPa)
#
#
# Indices 1 2 3 4 5 6 
#
# 1 141.4685 55.4915 40.7066 0.0000 2.5987 0.0000
# 2 55.4915 204.5161 63.4772 0.0000 10.3531 0.0000
# 3 40.7066 63.4772 59.1883 0.0000 -0.6849 0.0000
# 4 0.0000 0.0000 0.0000 61.8916 0.0000 23.7174
# 5 2.5987 10.3531 -0.6849 0.0000 28.5818 0.0000
# 6 0.0000 0.0000 0.0000 23.7174 0.0000 31.4824
#
#
#
# Elastic Compliance Matrix: (Units=1/GPa)
#
#
# Indices 1 2 3 4 5 6 
#
# 1 0.008906 -0.000717 -0.005363 0.000000 -0.000678 0.000000
# 2 -0.000717 0.007626 -0.007718 0.000000 -0.002882 0.000000
# 3 -0.005363 -0.007718 0.028907 0.000000 0.003976 0.000000
# 4 0.000000 0.000000 0.000000 0.022715 0.000000 -0.017112
# 5 -0.000678 -0.002882 0.003976 0.000000 0.036188 0.000000
# 6 0.000000 0.000000 0.000000 -0.017112 0.000000 0.044655
#
#
# Mechanical properties :
#
#
# Convention : Reuss Voigt Hill
#
# Bulk Modulus (GPa) = 56.05116 80.50262 68.27689
# Shear Modulus (GPa) = 27.39088 40.75767 34.07428
#
# Velocity S-wave (km/s) = 3.84248 4.68720 4.28570
# Velocity P-wave (km/s) = 7.06398 8.52566 7.82900
#
# Compressibility (1/GPa) = 0.01784085
#
# Stress axis : x y z
#
# Youngs Moduli (GPa) = 112.28550 131.13556 34.59320
#
# Poissons Ratio (x) = 0.09408 0.18554
# Poissons Ratio (y) = 0.08055 0.26700
# Poissons Ratio (z) = 0.60224 1.01213
#
# Static dielectric constant tensor:
#      x y z
#    x 1.637130 0.000000 -0.012970 
#    y 0.000000 1.627330 0.000000 
#    z -0.012970 0.000000 1.616430 
# 
# From -- ./inp_files/74974.got.cif
#   From: 2010.05.17/outbox.cif.g08.bks.cpg/sg10_38_cif.got.tgz:74974.got - 2010.06.03 11:33:40.
