data_PCOD9144639
_publ_section_title
;
Structure prediction by ZEFSAII (Michael W. Deem and Ramdas Pophale) SiO2 
 PCOD9144639
Probable space group: P 2/M
;
_chemical_formula_sum "Si O2"
_cell_formula_units_Z 28
_cell_length_a 12.419515
_cell_length_b 13.215723
_cell_length_c 10.335342
_cell_angle_alpha 90.000000
_cell_angle_beta 57.116998
_cell_angle_gamma 90.000000
_cell_volume 1424.578697
_symmetry_space_group_name_H-M "P 2/M"
_symmetry_group_IT_number 10
_symmetry_cell_setting 'monoclinic'
loop_
_space_group_symop_operation_xyz
x,y,z
-x,y,-z
-x,-y,-z
x,-y,z
loop_
_atom_site_type_symbol
_atom_site_label
_atom_site_fract_x
_atom_site_fract_y
_atom_site_fract_z
Si Si1 0.934050 0.719257 0.917904
Si Si2 0.132297 0.111249 0.705057
Si Si3 0.472040 0.172179 0.171246
Si Si4 0.814464 0.110066 0.632099
Si Si5 0.270677 0.113937 0.864042
Si Si6 0.883743 0.668974 0.674034
Si Si7 0.589522 0.609633 0.812130
O O1 0.912932 0.650672 0.805868
O O2 0.038819 0.802422 0.811182
O O3 0.810068 0.789804 0.029770
O O4 0.000000 0.667995 0.000000
O O5 0.154019 0.120063 0.539449
O O6 0.255900 0.118937 0.718007
O O7 0.077244 0.000000 0.766806
O O8 0.338379 0.115131 0.265235
O O9 0.587450 0.123852 0.173595
O O10 0.451997 0.287857 0.231612
O O11 0.500000 0.175972 0.000000
O O12 0.867262 0.208621 0.669834
O O13 0.859080 0.000000 0.651815
O O14 0.223559 0.000000 0.932305
O O15 0.742446 0.623792 0.737857
O O16 0.000000 0.639482 0.500000
O O17 0.570479 0.500000 0.760964
O O18 0.500000 0.607878 0.000000
#
# Coordination Sequence:
#
# PCOD9144639 Si02
#       7
#     4   4   4   4   4   4   4
#     4  10  19  32  49  72 107 145 181 214 254 302
#     4   9  18  31  45  68 101 144 186 215 250 298
#     4  10  20  33  49  73 101 130 174 221 265 316
#     4  10  20  32  48  72 108 144 176 217 259 304
#     4  10  19  30  48  72 104 144 183 217 252 301
#     4  11  21  34  55  84 111 138 181 219 266 316
#     4   9  19  37  59  81 105 133 172 224 276 328
#
# _framework density 19.654934000000001
#
# number of rings (size 3 to 8) (size 9 to 14) (size 15 to 20)
#    0.000    2.143    1.429    3.429    0.000    6.286 
#    0.000    2.143    0.000    0.429    0.000   11.000 
#    0.000    0.000    0.000    0.000    0.000    0.000 
#
# Total GULP energy -156038.682539 kJ/mol
# GULP energy per Si atom -5572.810091 kJ/mol
# Density = 1.961020 g / cm^3
# Si number density = 19.654934 Si / 1000 Ang^3
#
#
#
# Elastic Constant Matrix: (Units=GPa)
#
#
# Indices 1 2 3 4 5 6 
#
# 1 97.5946 -0.5664 28.0175 0.0000 -5.0789 0.0000
# 2 -0.5664 61.6022 5.9672 0.0000 1.4080 0.0000
# 3 28.0175 5.9672 51.9718 0.0000 -7.2241 0.0000
# 4 0.0000 0.0000 0.0000 30.5965 0.0000 -4.5737
# 5 -5.0789 1.4080 -7.2241 0.0000 36.1003 0.0000
# 6 0.0000 0.0000 0.0000 -4.5737 0.0000 7.1269
#
#
#
# Elastic Compliance Matrix: (Units=1/GPa)
#
#
# Indices 1 2 3 4 5 6 
#
# 1 0.012162 0.000742 -0.006591 0.000000 0.000363 0.000000
# 2 0.000742 0.016500 -0.002437 0.000000 -0.001027 0.000000
# 3 -0.006591 -0.002437 0.023615 0.000000 0.003894 0.000000
# 4 0.000000 0.000000 0.000000 0.036152 0.000000 0.023200
# 5 0.000363 -0.001027 0.003894 0.000000 0.028571 0.000000
# 6 0.000000 0.000000 0.000000 0.023200 0.000000 0.155202
#
#
# Mechanical properties :
#
#
# Convention : Reuss Voigt Hill
#
# Bulk Modulus (GPa) = 28.00776 30.88946 29.44861
# Shear Modulus (GPa) = 16.62926 26.61477 21.62201
#
# Velocity S-wave (km/s) = 2.91187 3.68380 3.32034
# Velocity P-wave (km/s) = 5.05826 5.81755 5.45114
#
# Compressibility (1/GPa) = 0.03570439
#
# Stress axis : x y z
#
# Youngs Moduli (GPa) = 82.22446 60.60773 42.34524
#
# Poissons Ratio (x) = -0.04497 0.27910
# Poissons Ratio (y) = -0.06101 0.10320
# Poissons Ratio (z) = 0.54194 0.14771
#
# Static dielectric constant tensor:
#      x y z
#    x 1.703680 0.000000 -0.010380 
#    y 0.000000 1.712220 0.000000 
#    z -0.010380 0.000000 1.809300 
# 
# From -- ./inp_files/25192.got.cif
#   From: 2010.05.17/outbox.cif.g08.bks.cpg/sg10_13_cif.got.tgz:25192.got - 2010.06.03 11:33:40.
