data_PCOD9144883
_publ_section_title
;
Structure prediction by ZEFSAII (Michael W. Deem and Ramdas Pophale) SiO2 
 PCOD9144883
Probable space group: P 2/M
;
_chemical_formula_sum "Si O2"
_cell_formula_units_Z 32
_cell_length_a 18.442062
_cell_length_b 14.609073
_cell_length_c 16.973404
_cell_angle_alpha 90.000000
_cell_angle_beta 153.528362
_cell_angle_gamma 90.000000
_cell_volume 2038.435958
_symmetry_space_group_name_H-M "P 2/M"
_symmetry_group_IT_number 10
_symmetry_cell_setting 'monoclinic'
loop_
_space_group_symop_operation_xyz
x,y,z
-x,y,-z
-x,-y,-z
x,-y,z
loop_
_atom_site_type_symbol
_atom_site_label
_atom_site_fract_x
_atom_site_fract_y
_atom_site_fract_z
Si Si1 0.519922 0.388649 0.109622
Si Si2 0.327004 0.706782 0.165104
Si Si3 0.331394 0.609057 0.491392
Si Si4 0.242129 0.100942 0.288191
Si Si5 0.194680 0.610838 0.890817
Si Si6 0.826934 0.700328 0.812135
Si Si7 0.575833 0.100127 0.703946
Si Si8 0.838423 0.389531 0.512847
O O1 0.524935 0.500000 0.114962
O O2 0.690351 0.356223 0.313657
O O3 0.500000 0.359066 0.000000
O O4 0.358992 0.364537 0.003186
O O5 0.494079 0.651401 0.319965
O O6 0.270173 0.701005 0.200450
O O7 0.363993 0.813993 0.187922
O O8 0.204270 0.661950 0.983909
O O9 0.344804 0.500000 0.501469
O O10 0.269242 0.647690 0.348531
O O11 0.210628 0.633501 0.445229
O O12 0.144849 0.195678 0.192887
O O13 0.388884 0.111147 0.493703
O O14 0.325442 0.098703 0.282792
O O15 0.164255 0.000000 0.224580
O O16 0.194395 0.500000 0.901964
O O17 0.026524 0.636693 0.683280
O O18 0.000000 0.657289 0.000000
O O19 0.595079 0.000000 0.759623
O O20 0.835370 0.500000 0.503316
#
# Coordination Sequence:
#
# PCOD9144883 Si02
#       8
#     4   4   4   4   4   4   4   4
#     4   9  17  30  48  70  95 123 154 186 222 267
#     4  11  19  31  48  64  84 119 159 191 231 274
#     4  11  21  33  46  60  85 122 160 197 231 264
#     4   8  14  27  44  60  79 105 140 188 242 284
#     4  10  19  31  48  69  94 126 157 185 223 269
#     4  11  22  31  41  63  88 115 158 200 234 270
#     4   8  14  26  45  64  80 103 143 190 232 278
#     4   9  18  32  47  65  92 124 157 190 226 266
#
# _framework density 15.698311
#
# number of rings (size 3 to 8) (size 9 to 14) (size 15 to 20)
#    0.000    2.375    2.500    2.250    0.000    2.500 
#    0.000    2.500    0.000    0.000    0.000    0.000 
#    0.000    0.500    0.000    1.250    0.000    0.250 
#
# Total GULP energy -178199.332626 kJ/mol
# GULP energy per Si atom -5568.729145 kJ/mol
# Density = 1.566258 g / cm^3
# Si number density = 15.698311 Si / 1000 Ang^3
#
#
#
# Elastic Constant Matrix: (Units=GPa)
#
#
# Indices 1 2 3 4 5 6 
#
# 1 35.5853 18.3223 36.2522 0.0000 -8.0030 0.0000
# 2 18.3223 54.5925 22.2879 0.0000 -2.9450 0.0000
# 3 36.2522 22.2879 110.0463 0.0000 3.8808 0.0000
# 4 0.0000 0.0000 0.0000 4.5691 0.0000 -7.0190
# 5 -8.0030 -2.9450 3.8808 0.0000 20.0792 0.0000
# 6 0.0000 0.0000 0.0000 -7.0190 0.0000 -11.8108
#
#
#
# Elastic Compliance Matrix: (Units=1/GPa)
#
#
# Indices 1 2 3 4 5 6 
#
# 1 0.056841 -0.010640 -0.017433 0.000000 0.024464 0.000000
# 2 -0.010640 0.022243 -0.000972 0.000000 -0.000791 0.000000
# 3 -0.017433 -0.000972 0.015382 0.000000 -0.010064 0.000000
# 4 0.000000 0.000000 0.000000 0.114411 0.000000 -0.067993
# 5 0.024464 -0.000791 -0.010064 0.000000 0.061382 0.000000
# 6 0.000000 0.000000 0.000000 -0.067993 0.000000 -0.044261
#
#
# Mechanical properties :
#
#
# Convention : Reuss Voigt Hill
#
# Bulk Modulus (GPa) = 27.49066 39.32766 33.40916
# Shear Modulus (GPa) = 16.87976 10.79163 13.83570
#
# Velocity S-wave (km/s) = 3.28267 2.62475 2.97197
# Velocity P-wave (km/s) = 5.64958 5.85596 5.75370
#
# Compressibility (1/GPa) = 0.03637599
#
# Stress axis : x y z
#
# Youngs Moduli (GPa) = 17.59282 44.95860 65.01267
#
# Poissons Ratio (x) = 0.47837 1.13335
# Poissons Ratio (y) = 0.18719 0.06318
# Poissons Ratio (z) = 0.30669 0.04369
#
# Static dielectric constant tensor:
#      x y z
#    x 1.540940 0.000000 0.018800 
#    y 0.000000 1.528920 0.000000 
#    z 0.018800 0.000000 1.552950 
# 
# From -- ./inp_files/69316.got.cif
#   From: 2010.05.17/outbox.cif.g08.bks.cpg/sg10_35_cif.got.tgz:69316.got - 2010.06.03 11:33:40.
