data_PCOD9144287
_publ_section_title
;
Structure prediction by ZEFSAII (Michael W. Deem and Ramdas Pophale) SiO2 
 PCOD9144287
Probable space group: P 2/M
;
_chemical_formula_sum "Si O2"
_cell_formula_units_Z 24
_cell_length_a 17.140498
_cell_length_b 7.879970
_cell_length_c 23.435516
_cell_angle_alpha 90.000000
_cell_angle_beta 155.522951
_cell_angle_gamma 90.000000
_cell_volume 1311.497731
_symmetry_space_group_name_H-M "P 2/M"
_symmetry_group_IT_number 10
_symmetry_cell_setting 'monoclinic'
loop_
_space_group_symop_operation_xyz
x,y,z
-x,y,-z
-x,-y,-z
x,-y,z
loop_
_atom_site_type_symbol
_atom_site_label
_atom_site_fract_x
_atom_site_fract_y
_atom_site_fract_z
Si Si1 0.980061 0.708043 0.420577
Si Si2 0.360838 0.202927 0.083049
Si Si3 0.281523 0.700469 0.197206
Si Si4 0.431213 0.294795 0.892644
Si Si5 0.369342 0.699954 0.633457
Si Si6 0.986260 0.805262 0.083306
O O1 0.981927 0.500000 0.421239
O O2 0.779921 0.763852 0.262807
O O3 0.000000 0.758570 0.500000
O O4 0.162064 0.771103 0.506840
O O5 0.149747 0.266336 0.957848
O O6 0.360162 0.000000 0.091132
O O7 0.431169 0.243230 0.066936
O O8 0.509100 0.277385 0.227541
O O9 0.272754 0.500000 0.177880
O O10 0.493827 0.761803 0.326316
O O11 0.179904 0.724016 0.190144
O O12 0.153493 0.792132 0.064484
O O13 0.427023 0.500000 0.890968
O O14 0.500000 0.234146 0.000000
O O15 0.343182 0.500000 0.606194
O O16 0.028568 0.000000 0.124198
#
# Coordination Sequence:
#
# PCOD9144287 Si02
#       6
#     4   4   4   4   4   4
#     4   9  15  27  48  68  88 118 149 181 224 267
#     4  10  19  29  43  64  90 120 151 184 224 265
#     4   9  15  22  36  60  86 112 143 181 218 256
#     4  10  20  33  49  68  89 117 154 189 221 264
#     4   9  16  27  44  65  90 119 150 182 221 268
#     4   9  16  25  37  55  84 119 146 173 217 268
#
# _framework density 18.299689000000001
#
# number of rings (size 3 to 8) (size 9 to 14) (size 15 to 20)
#    0.000    2.667    1.667    2.500    0.000    3.000 
#    0.000    1.667    0.000    0.000    0.000    1.167 
#    0.000    9.333    0.000    0.000    0.000    0.000 
#
# Total GULP energy -133618.160543 kJ/mol
# GULP energy per Si atom -5567.423356 kJ/mol
# Density = 1.825804 g / cm^3
# Si number density = 18.299689 Si / 1000 Ang^3
#
#
#
# Elastic Constant Matrix: (Units=GPa)
#
#
# Indices 1 2 3 4 5 6 
#
# 1 157.4010 0.1201 84.9418 0.0000 52.7417 0.0000
# 2 0.1201 18.8834 5.1359 0.0000 5.0675 0.0000
# 3 84.9418 5.1359 88.8862 0.0000 25.7728 0.0000
# 4 0.0000 0.0000 0.0000 7.7828 0.0000 -0.6019
# 5 52.7417 5.0675 25.7728 0.0000 36.6950 0.0000
# 6 0.0000 0.0000 0.0000 -0.6019 0.0000 18.0786
#
#
#
# Elastic Compliance Matrix: (Units=1/GPa)
#
#
# Indices 1 2 3 4 5 6 
#
# 1 0.022002 0.009978 -0.015110 0.000000 -0.022388 0.000000
# 2 0.009978 0.059626 -0.008080 0.000000 -0.016900 0.000000
# 3 -0.015110 -0.008080 0.024532 0.000000 0.005604 0.000000
# 4 0.000000 0.000000 0.000000 0.128820 0.000000 0.004289
# 5 -0.022388 -0.016900 0.005604 0.000000 0.057828 0.000000
# 6 0.000000 0.000000 0.000000 0.004289 0.000000 0.055457
#
#
# Mechanical properties :
#
#
# Convention : Reuss Voigt Hill
#
# Bulk Modulus (GPa) = 12.54153 49.50737 31.02445
# Shear Modulus (GPa) = 12.46048 24.17613 18.31831
#
# Velocity S-wave (km/s) = 2.61226 3.63867 3.16732
# Velocity P-wave (km/s) = 3.99585 6.69071 5.51056
#
# Compressibility (1/GPa) = 0.07973510
#
# Stress axis : x y z
#
# Youngs Moduli (GPa) = 45.45088 16.77115 40.76261
#
# Poissons Ratio (x) = -0.16734 0.61594
# Poissons Ratio (y) = -0.45350 0.32936
# Poissons Ratio (z) = 0.68678 0.13551
#
# Static dielectric constant tensor:
#      x y z
#    x 1.678620 0.000000 0.067700 
#    y 0.000000 1.659140 0.000000 
#    z 0.067700 0.000000 1.615840 
# 
# From -- ./inp_files/89983.got.cif
#   From: 2010.05.17/outbox.cif.g08.bks.cpg/sg10_45_cif.got.tgz:89983.got - 2010.06.03 11:33:40.
