data_PCOD9144387
_publ_section_title
;
Structure prediction by ZEFSAII (Michael W. Deem and Ramdas Pophale) SiO2 
 PCOD9144387
Probable space group: P 2/M
;
_chemical_formula_sum "Si O2"
_cell_formula_units_Z 30
_cell_length_a 11.201732
_cell_length_b 13.670760
_cell_length_c 27.779464
_cell_angle_alpha 90.000000
_cell_angle_beta 20.574005
_cell_angle_gamma 90.000000
_cell_volume 1494.942096
_symmetry_space_group_name_H-M "P 2/M"
_symmetry_group_IT_number 10
_symmetry_cell_setting 'monoclinic'
loop_
_space_group_symop_operation_xyz
x,y,z
-x,y,-z
-x,-y,-z
x,-y,z
loop_
_atom_site_type_symbol
_atom_site_label
_atom_site_fract_x
_atom_site_fract_y
_atom_site_fract_z
Si Si1 0.120167 0.118925 0.133242
Si Si2 0.030868 0.110799 0.707320
Si Si3 0.500000 0.268777 0.500000
Si Si4 0.230158 0.110145 0.988414
Si Si5 0.252057 0.617531 0.325185
Si Si6 0.714453 0.314189 0.072370
Si Si7 0.152862 0.617804 0.826383
Si Si8 0.520231 0.382021 0.393149
O O1 0.896869 0.140682 0.264359
O O2 0.145648 0.000000 0.123861
O O3 0.500000 0.158870 0.000000
O O4 0.024066 0.140780 0.114530
O O5 0.188145 0.192265 0.613900
O O6 0.625272 0.106054 0.855044
O O7 0.152491 0.000000 0.653070
O O8 0.554332 0.333766 0.432346
O O9 0.230041 0.198260 0.951472
O O10 0.131727 0.000000 0.010502
O O11 0.274310 0.500000 0.315375
O O12 0.368283 0.657209 0.229066
O O13 0.526259 0.651622 0.261600
O O14 0.860236 0.641732 0.482464
O O15 0.000000 0.359203 0.000000
O O16 0.808141 0.351981 0.983935
O O17 0.164329 0.500000 0.821713
O O18 0.212844 0.649770 0.748806
O O19 0.541244 0.500000 0.390100
#
# Coordination Sequence:
#
# PCOD9144387 Si02
#       8
#     4   4   2   4   4   4   4   4
#     4   7  12  25  44  62  80 108 150 193 225 261
#     4   9  18  32  48  69  92 122 165 205 236 274
#     4  12  22  30  48  72 102 130 156 200 248 290
#     4   9  17  30  48  67  95 130 160 191 235 289
#     4   9  17  33  55  74  94 126 166 205 241 281
#     4  10  19  29  48  78 103 121 154 204 251 287
#     4   9  18  33  53  75  97 124 163 208 244 278
#     4  10  21  35  50  70 100 135 165 192 237 303
#
# _framework density 20.067665999999999
#
# number of rings (size 3 to 8) (size 9 to 14) (size 15 to 20)
#    0.000    2.800    0.000    3.600    1.867    3.467 
#    0.000    0.000    0.000    0.000    0.000    5.600 
#    0.000   10.667    0.000    0.000    0.000    0.000 
#
# Total GULP energy -167041.166590 kJ/mol
# GULP energy per Si atom -5568.038886 kJ/mol
# Density = 2.002199 g / cm^3
# Si number density = 20.067666 Si / 1000 Ang^3
#
#
#
# Elastic Constant Matrix: (Units=GPa)
#
#
# Indices 1 2 3 4 5 6 
#
# 1 38.6289 10.9580 14.3454 0.0000 17.9145 0.0000
# 2 10.9580 44.2303 15.4456 0.0000 12.0045 0.0000
# 3 14.3454 15.4456 74.6277 0.0000 32.7295 0.0000
# 4 0.0000 0.0000 0.0000 24.3785 0.0000 8.0569
# 5 17.9145 12.0045 32.7295 0.0000 26.4201 0.0000
# 6 0.0000 0.0000 0.0000 8.0569 0.0000 22.0167
#
#
#
# Elastic Compliance Matrix: (Units=1/GPa)
#
#
# Indices 1 2 3 4 5 6 
#
# 1 0.040899 -0.003113 0.009469 0.000000 -0.038049 0.000000
# 2 -0.003113 0.026033 -0.001155 0.000000 -0.008287 0.000000
# 3 0.009469 -0.001155 0.031541 0.000000 -0.044969 0.000000
# 4 0.000000 0.000000 0.000000 0.046663 0.000000 -0.017076
# 5 -0.038049 -0.008287 -0.044969 0.000000 0.123122 0.000000
# 6 0.000000 0.000000 0.000000 -0.017076 0.000000 0.051669
#
#
# Mechanical properties :
#
#
# Convention : Reuss Voigt Hill
#
# Bulk Modulus (GPa) = 9.18482 26.55388 17.86935
# Shear Modulus (GPa) = 14.45855 22.34560 18.40207
#
# Velocity S-wave (km/s) = 2.68711 3.34055 3.03149
# Velocity P-wave (km/s) = 3.77018 5.30471 4.60186
#
# Compressibility (1/GPa) = 0.10887526
#
# Stress axis : x y z
#
# Youngs Moduli (GPa) = 24.45036 38.41332 31.70510
#
# Poissons Ratio (x) = 0.11957 -0.30023
# Poissons Ratio (y) = 0.07611 0.03663
# Poissons Ratio (z) = -0.23153 0.04438
#
# Static dielectric constant tensor:
#      x y z
#    x 1.747850 0.000000 0.035350 
#    y 0.000000 1.722840 0.000000 
#    z 0.035350 0.000000 1.758080 
# 
# From -- ./inp_files/57784.got.cif
#   From: 2010.05.17/outbox.cif.g08.bks.cpg/sg10_29_cif.got.tgz:57784.got - 2010.06.03 11:33:40.
