data_PCOD9144921
_publ_section_title
;
Structure prediction by ZEFSAII (Michael W. Deem and Ramdas Pophale) SiO2 
 PCOD9144921
Probable space group: P 2/M
;
_chemical_formula_sum "Si O2"
_cell_formula_units_Z 28
_cell_length_a 13.063216
_cell_length_b 14.344104
_cell_length_c 9.142592
_cell_angle_alpha 90.000000
_cell_angle_beta 67.159189
_cell_angle_gamma 90.000000
_cell_volume 1578.807436
_symmetry_space_group_name_H-M "P 2/M"
_symmetry_group_IT_number 10
_symmetry_cell_setting 'monoclinic'
loop_
_space_group_symop_operation_xyz
x,y,z
-x,y,-z
-x,-y,-z
x,-y,z
loop_
_atom_site_type_symbol
_atom_site_label
_atom_site_fract_x
_atom_site_fract_y
_atom_site_fract_z
Si Si1 0.189444 0.109031 0.527128
Si Si2 0.634557 0.898161 0.308952
Si Si3 0.979781 0.113060 0.844624
Si Si4 0.484535 0.705268 0.668540
Si Si5 0.376610 0.392023 0.994161
Si Si6 0.308742 0.751885 0.248358
Si Si7 0.733424 0.106025 0.937666
O O1 0.289353 0.107917 0.590020
O O2 0.078650 0.134928 0.678415
O O3 0.220259 0.187424 0.390861
O O4 0.177354 0.000000 0.481756
O O5 0.556775 0.810217 0.335609
O O6 0.578861 0.000000 0.334957
O O7 0.710567 0.894366 0.122424
O O8 0.859263 0.142785 0.854664
O O9 0.975277 0.000000 0.854613
O O10 0.000000 0.145972 0.000000
O O11 0.500000 0.660477 0.500000
O O12 0.397548 0.654200 0.824003
O O13 0.600825 0.715288 0.687581
O O14 0.345811 0.500000 0.999149
O O15 0.500000 0.387238 0.000000
O O16 0.292719 0.334807 0.145735
O O17 0.349270 0.830207 0.109176
O O18 0.725228 0.000000 0.890554
#
# Coordination Sequence:
#
# PCOD9144921 Si02
#       7
#     4   4   4   4   4   4   4
#     4  10  19  31  49  75 107 142 177 211 246 288
#     4  10  19  31  48  72 107 144 176 205 239 292
#     4   9  16  29  49  71  99 139 180 216 249 282
#     4  11  21  35  53  75 102 134 172 209 244 302
#     4   9  20  38  56  74  98 128 162 212 271 309
#     4  11  21  33  51  73 107 135 165 209 252 307
#     4  10  19  31  49  73 103 140 177 210 247 292
#
# _framework density 17.734905999999999
#
# number of rings (size 3 to 8) (size 9 to 14) (size 15 to 20)
#    0.000    2.000    4.286    0.429    0.000    2.286 
#    0.000    3.571    0.000    0.000    0.000    2.000 
#    0.000    2.286    0.000    0.000    0.000    0.000 
#
# Total GULP energy -155927.950797 kJ/mol
# GULP energy per Si atom -5568.855386 kJ/mol
# Density = 1.769454 g / cm^3
# Si number density = 17.734906 Si / 1000 Ang^3
#
#
#
# Elastic Constant Matrix: (Units=GPa)
#
#
# Indices 1 2 3 4 5 6 
#
# 1 16.6284 3.6103 32.2977 0.0000 3.1169 0.0000
# 2 3.6103 89.4332 62.3197 0.0000 -3.1914 0.0000
# 3 32.2977 62.3197 149.1084 0.0000 -2.4393 0.0000
# 4 0.0000 0.0000 0.0000 1.7418 0.0000 -13.1835
# 5 3.1169 -3.1914 -2.4393 0.0000 28.2956 0.0000
# 6 0.0000 0.0000 0.0000 -13.1835 0.0000 -3.0520
#
#
#
# Elastic Compliance Matrix: (Units=1/GPa)
#
#
# Indices 1 2 3 4 5 6 
#
# 1 0.129836 0.019733 -0.036620 0.000000 -0.015233 0.000000
# 2 0.019733 0.018817 -0.012157 0.000000 -0.001099 0.000000
# 3 -0.036620 -0.012157 0.019791 0.000000 0.004369 0.000000
# 4 0.000000 0.000000 0.000000 0.017039 0.000000 -0.073601
# 5 -0.015233 -0.001099 0.004369 0.000000 0.037272 0.000000
# 6 0.000000 0.000000 0.000000 -0.073601 0.000000 -0.009724
#
#
# Mechanical properties :
#
#
# Convention : Reuss Voigt Hill
#
# Bulk Modulus (GPa) = 9.06153 50.18060 29.62107
# Shear Modulus (GPa) = 16.23885 15.85989 16.04937
#
# Velocity S-wave (km/s) = 3.02924 2.99369 3.01152
# Velocity P-wave (km/s) = 4.16601 6.34869 5.36942
#
# Compressibility (1/GPa) = 0.11035667
#
# Stress axis : x y z
#
# Youngs Moduli (GPa) = 7.70202 53.14377 50.52815
#
# Poissons Ratio (x) = -1.04868 1.85033
# Poissons Ratio (y) = -0.15198 0.61426
# Poissons Ratio (z) = 0.28205 0.64605
#
# Static dielectric constant tensor:
#      x y z
#    x 1.637090 0.000000 -0.004550 
#    y 0.000000 1.595210 0.000000 
#    z -0.004550 0.000000 1.686050 
# 
# From -- ./inp_files/25049.got.cif
#   From: 2010.05.17/outbox.cif.g08.bks.cpg/sg10_13_cif.got.tgz:25049.got - 2010.06.03 11:33:40.
