data_PCOD9144090
_publ_section_title
;
Structure prediction by ZEFSAII (Michael W. Deem and Ramdas Pophale) SiO2 
 PCOD9144090
Probable space group: P 2/M
;
_chemical_formula_sum "Si O2"
_cell_formula_units_Z 24
_cell_length_a 5.420496
_cell_length_b 28.155968
_cell_length_c 9.525999
_cell_angle_alpha 90.000000
_cell_angle_beta 44.599847
_cell_angle_gamma 90.000000
_cell_volume 1020.823444
_symmetry_space_group_name_H-M "P 2/M"
_symmetry_group_IT_number 10
_symmetry_cell_setting 'monoclinic'
loop_
_space_group_symop_operation_xyz
x,y,z
-x,y,-z
-x,-y,-z
x,-y,z
loop_
_atom_site_type_symbol
_atom_site_label
_atom_site_fract_x
_atom_site_fract_y
_atom_site_fract_z
Si Si1 0.452439 0.689321 0.248635
Si Si2 0.307741 0.103392 0.262965
Si Si3 0.993276 0.650927 0.791068
Si Si4 0.916282 0.553467 0.368163
Si Si5 0.182488 0.054415 0.744141
Si Si6 0.409014 0.208722 0.873893
O O1 0.089425 0.676336 0.322029
O O2 0.468601 0.745620 0.264067
O O3 0.619670 0.659770 0.306666
O O4 0.733835 0.674426 0.010736
O O5 0.630757 0.072409 0.190272
O O6 0.409454 0.158464 0.225986
O O7 0.000000 0.095622 0.500000
O O8 0.125541 0.087688 0.191832
O O9 0.925404 0.595577 0.789625
O O10 0.500000 0.554104 0.500000
O O11 0.044620 0.500000 0.284860
O O12 0.000000 0.562158 0.500000
O O13 0.500000 0.055561 0.500000
O O14 0.063101 0.000000 0.801399
O O15 0.500000 0.220192 0.000000
O O16 0.000000 0.203334 0.000000
#
# Coordination Sequence:
#
# PCOD9144090 Si02
#       6
#     4   4   4   4   4   4
#     4  10  19  35  57  79 104 141 187 238 272 322
#     4  10  21  35  56  87 114 143 191 242 282 337
#     4  10  18  35  57  80 105 140 187 233 262 326
#     4  10  21  37  56  81 116 153 182 220 283 347
#     4   9  17  33  57  83 112 147 188 236 287 337
#     4  12  21  38  60  81 114 158 193 226 293 357
#
# _framework density 23.510431000000001
#
# number of rings (size 3 to 8) (size 9 to 14) (size 15 to 20)
#    0.000    1.833    3.333    2.500    0.000    2.000 
#    0.000    5.833    0.000   10.000    0.000    0.000 
#    0.000    0.000    0.000    0.000    0.000    0.000 
#
# Total GULP energy -134174.488047 kJ/mol
# GULP energy per Si atom -5590.603669 kJ/mol
# Density = 2.345692 g / cm^3
# Si number density = 23.510431 Si / 1000 Ang^3
#
#
#
# Elastic Constant Matrix: (Units=GPa)
#
#
# Indices 1 2 3 4 5 6 
#
# 1 223.3791 58.2396 32.4312 0.0000 -2.4993 0.0000
# 2 58.2396 178.4143 -1.0363 0.0000 -11.2097 0.0000
# 3 32.4312 -1.0363 47.7243 0.0000 -2.5001 0.0000
# 4 0.0000 0.0000 0.0000 16.4173 0.0000 2.6188
# 5 -2.4993 -11.2097 -2.5001 0.0000 44.7304 0.0000
# 6 0.0000 0.0000 0.0000 2.6188 0.0000 45.7717
#
#
#
# Elastic Compliance Matrix: (Units=1/GPa)
#
#
# Indices 1 2 3 4 5 6 
#
# 1 0.005504 -0.001842 -0.003800 0.000000 -0.000366 0.000000
# 2 -0.001842 0.006313 0.001471 0.000000 0.001561 0.000000
# 3 -0.003800 0.001471 0.023645 0.000000 0.001478 0.000000
# 4 0.000000 0.000000 0.000000 0.061473 0.000000 -0.003517
# 5 -0.000366 0.001561 0.001478 0.000000 0.022810 0.000000
# 6 0.000000 0.000000 0.000000 -0.003517 0.000000 0.022049
#
#
# Mechanical properties :
#
#
# Convention : Reuss Voigt Hill
#
# Bulk Modulus (GPa) = 36.87284 69.86517 53.36900
# Shear Modulus (GPa) = 31.41180 45.37608 38.39394
#
# Velocity S-wave (km/s) = 3.65921 4.39799 4.04550
# Velocity P-wave (km/s) = 5.79402 7.45459 6.67614
#
# Compressibility (1/GPa) = 0.02712023
#
# Stress axis : x y z
#
# Youngs Moduli (GPa) = 181.66982 158.40766 42.29184
#
# Poissons Ratio (x) = 0.29177 0.16070
# Poissons Ratio (y) = 0.33462 -0.06219
# Poissons Ratio (z) = 0.69031 -0.23295
#
# Static dielectric constant tensor:
#      x y z
#    x 1.801120 0.000000 0.104530 
#    y 0.000000 1.831430 0.000000 
#    z 0.104530 0.000000 1.876280 
# 
# From -- ./inp_files/39929.got.cif
#   From: 2010.05.17/outbox.cif.g08.bks.cpg/sg10_20_cif.got.tgz:39929.got - 2010.06.03 11:33:40.
