data_PCOD9144415
_publ_section_title
;
Structure prediction by ZEFSAII (Michael W. Deem and Ramdas Pophale) SiO2 
 PCOD9144415
Probable space group: P 2/M
;
_chemical_formula_sum "Si O2"
_cell_formula_units_Z 32
_cell_length_a 18.678974
_cell_length_b 16.974073
_cell_length_c 14.232251
_cell_angle_alpha 90.000000
_cell_angle_beta 25.110967
_cell_angle_gamma 90.000000
_cell_volume 1914.962028
_symmetry_space_group_name_H-M "P 2/M"
_symmetry_group_IT_number 10
_symmetry_cell_setting 'monoclinic'
loop_
_space_group_symop_operation_xyz
x,y,z
-x,y,-z
-x,-y,-z
x,-y,z
loop_
_atom_site_type_symbol
_atom_site_label
_atom_site_fract_x
_atom_site_fract_y
_atom_site_fract_z
Si Si1 0.820507 0.907987 0.663196
Si Si2 0.614779 0.907283 0.279796
Si Si3 0.889385 0.408621 0.492045
Si Si4 0.246431 0.407531 0.131917
Si Si5 0.258642 0.845535 0.442064
Si Si6 0.001799 0.091811 0.107938
Si Si7 0.411304 0.089209 0.897507
Si Si8 0.431295 0.685365 0.189393
O O1 0.817045 0.860720 0.570853
O O2 0.000000 0.905743 0.500000
O O3 0.779221 0.000000 0.691383
O O4 0.690330 0.874578 0.894699
O O5 0.500000 0.873516 0.500000
O O6 0.599332 0.873486 0.193137
O O7 0.563094 0.000000 0.332171
O O8 0.807773 0.904077 0.081489
O O9 0.895225 0.500000 0.456768
O O10 0.823569 0.406277 0.677948
O O11 0.742403 0.364705 0.610572
O O12 0.084478 0.379343 0.262810
O O13 0.280373 0.500000 0.069443
O O14 0.418086 0.357178 0.932168
O O15 0.116484 0.852760 0.689570
O O16 0.395668 0.912097 0.302150
O O17 0.370053 0.767004 0.306295
O O18 0.946326 0.000000 0.184079
O O19 0.000000 0.110699 0.000000
O O20 0.340078 0.000000 0.973791
O O21 0.500000 0.695907 0.000000
#
# Coordination Sequence:
#
# PCOD9144415 Si02
#       8
#     4   4   4   4   4   4   4   4
#     4  10  20  34  48  62  85 125 172 207 237 285
#     4   9  17  31  51  73  89 107 150 210 261 294
#     4   8  14  27  47  68  91 128 172 206 235 270
#     4   8  14  27  47  68  92 128 171 206 233 272
#     4  12  22  33  45  69  98 127 159 198 254 307
#     4  10  20  35  55  73  89 117 162 215 261 302
#     4  10  19  31  47  64  88 124 163 201 238 287
#     4  10  19  30  42  68 103 136 165 198 240 293
#
# _framework density 16.710514
#
# number of rings (size 3 to 8) (size 9 to 14) (size 15 to 20)
#    0.000    2.375    0.000    4.875    0.000    6.500 
#    9.000    0.000    0.000    0.000    0.000    0.000 
#    0.000    2.000    0.000    2.750    0.000    0.250 
#
# Total GULP energy -178228.271274 kJ/mol
# GULP energy per Si atom -5569.633477 kJ/mol
# Density = 1.667248 g / cm^3
# Si number density = 16.710514 Si / 1000 Ang^3
#
#
#
# Elastic Constant Matrix: (Units=GPa)
#
#
# Indices 1 2 3 4 5 6 
#
# 1 89.4305 25.2080 46.8352 0.0000 -2.7026 0.0000
# 2 25.2080 55.0188 41.1042 0.0000 -8.7687 0.0000
# 3 46.8352 41.1042 105.3997 0.0000 -3.6969 0.0000
# 4 0.0000 0.0000 0.0000 22.7800 0.0000 -3.2389
# 5 -2.7026 -8.7687 -3.6969 0.0000 26.9266 0.0000
# 6 0.0000 0.0000 0.0000 -3.2389 0.0000 2.5724
#
#
#
# Elastic Compliance Matrix: (Units=1/GPa)
#
#
# Indices 1 2 3 4 5 6 
#
# 1 0.014841 -0.002670 -0.005559 0.000000 -0.000143 0.000000
# 2 -0.002670 0.027518 -0.009285 0.000000 0.007418 0.000000
# 3 -0.005559 -0.009285 0.015528 0.000000 -0.001450 0.000000
# 4 0.000000 0.000000 0.000000 0.053470 0.000000 0.067322
# 5 -0.000143 0.007418 -0.001450 0.000000 0.039340 0.000000
# 6 0.000000 0.000000 0.000000 0.067322 0.000000 0.473497
#
#
# Mechanical properties :
#
#
# Convention : Reuss Voigt Hill
#
# Bulk Modulus (GPa) = 43.74429 52.90485 48.32457
# Shear Modulus (GPa) = 7.49803 19.56925 13.53364
#
# Velocity S-wave (km/s) = 2.12056 3.42581 2.84894
# Velocity P-wave (km/s) = 5.67717 6.88306 6.30899
#
# Compressibility (1/GPa) = 0.02286013
#
# Stress axis : x y z
#
# Youngs Moduli (GPa) = 67.38018 36.34001 64.40033
#
# Poissons Ratio (x) = 0.09702 0.35798
# Poissons Ratio (y) = 0.17989 0.59796
# Poissons Ratio (z) = 0.37454 0.33742
#
# Static dielectric constant tensor:
#      x y z
#    x 1.577440 0.000000 -0.013800 
#    y 0.000000 1.592850 0.000000 
#    z -0.013800 0.000000 1.584980 
# 
# From -- ./inp_files/51965.got.cif
#   From: 2010.05.17/outbox.cif.g08.bks.cpg/sg10_26_cif.got.tgz:51965.got - 2010.06.03 11:33:40.
