data_PCOD9144592
_publ_section_title
;
Structure prediction by ZEFSAII (Michael W. Deem and Ramdas Pophale) SiO2 
 PCOD9144592
Probable space group: P 2/M
;
_chemical_formula_sum "Si O2"
_cell_formula_units_Z 28
_cell_length_a 9.708692
_cell_length_b 7.613725
_cell_length_c 33.316657
_cell_angle_alpha 90.000000
_cell_angle_beta 31.480058
_cell_angle_gamma 90.000000
_cell_volume 1286.049445
_symmetry_space_group_name_H-M "P 2/M"
_symmetry_group_IT_number 10
_symmetry_cell_setting 'monoclinic'
loop_
_space_group_symop_operation_xyz
x,y,z
-x,y,-z
-x,-y,-z
x,-y,z
loop_
_atom_site_type_symbol
_atom_site_label
_atom_site_fract_x
_atom_site_fract_y
_atom_site_fract_z
Si Si1 0.309426 0.793369 0.256849
Si Si2 0.678392 0.714246 0.326518
Si Si3 0.794341 0.795895 0.424067
Si Si4 0.693766 0.284983 0.916952
Si Si5 0.723151 0.291009 0.821334
Si Si6 0.301197 0.710516 0.767694
Si Si7 0.170851 0.712727 0.496299
O O1 0.412843 0.742001 0.187253
O O2 0.512539 0.755176 0.241834
O O3 0.020321 0.714490 0.339581
O O4 0.272219 0.000000 0.265224
O O5 0.676549 0.500000 0.328062
O O6 0.598255 0.768531 0.301222
O O7 0.468641 0.770404 0.411592
O O8 0.976630 0.776481 0.258059
O O9 0.500000 0.715311 0.500000
O O10 0.907630 0.785921 0.441190
O O11 0.759107 0.000000 0.421522
O O12 0.689667 0.500000 0.919050
O O13 0.616422 0.228362 0.890847
O O14 0.997820 0.229899 0.847925
O O15 0.500000 0.223271 0.000000
O O16 0.743064 0.500000 0.820612
O O17 0.290612 0.500000 0.768193
O O18 0.157623 0.500000 0.502490
O O19 0.000000 0.763256 0.500000
#
# Coordination Sequence:
#
# PCOD9144592 Si02
#       7
#     4   4   4   4   4   4   4
#     4  11  22  34  48  70 102 134 167 208 246 288
#     4   8  15  29  48  71  95 121 161 207 247 291
#     4  10  22  37  49  65  94 133 173 211 252 293
#     4   8  15  31  57  86 107 123 155 203 246 287
#     4   9  17  31  53  75  96 127 163 198 240 292
#     4   9  17  32  55  77 100 132 164 199 245 295
#     4  10  19  30  47  71  96 122 158 207 255 297
#
# _framework density 21.772102
#
# number of rings (size 3 to 8) (size 9 to 14) (size 15 to 20)
#    0.000    2.714    0.000    3.857    0.000    2.857 
#    0.000    4.286    0.000    6.000    0.000    0.000 
#    0.000    0.000    0.000    0.000    0.000    0.000 
#
# Total GULP energy -156250.469624 kJ/mol
# GULP energy per Si atom -5580.373915 kJ/mol
# Density = 2.172255 g / cm^3
# Si number density = 21.772102 Si / 1000 Ang^3
#
#
#
# Elastic Constant Matrix: (Units=GPa)
#
#
# Indices 1 2 3 4 5 6 
#
# 1 92.0361 -4.7163 30.2516 0.0000 32.7549 0.0000
# 2 -4.7163 43.3860 3.3491 0.0000 -3.3614 0.0000
# 3 30.2516 3.3491 122.6836 0.0000 29.4042 -0.0001
# 4 0.0000 0.0000 0.0000 10.5045 0.0000 10.4566
# 5 32.7549 -3.3614 29.4042 0.0000 28.6653 0.0000
# 6 0.0000 0.0000 -0.0001 10.4566 0.0000 28.3886
#
#
#
# Elastic Compliance Matrix: (Units=1/GPa)
#
#
# Indices 1 2 3 4 5 6 
#
# 1 0.018356 0.000272 0.000644 0.000000 -0.021604 0.000000
# 2 0.000272 0.023538 -0.001719 0.000000 0.004213 0.000000
# 3 0.000644 -0.001719 0.010958 0.000000 -0.012178 0.000000
# 4 0.000000 0.000000 0.000000 0.150310 0.000000 -0.055365
# 5 -0.021604 0.004213 -0.012178 0.000000 0.072557 0.000000
# 6 0.000000 0.000000 0.000000 -0.055365 0.000000 0.055618
#
#
# Mechanical properties :
#
#
# Convention : Reuss Voigt Hill
#
# Bulk Modulus (GPa) = 19.51406 35.09716 27.30561
# Shear Modulus (GPa) = 14.28467 28.79311 21.53889
#
# Velocity S-wave (km/s) = 2.56422 3.64053 3.14871
# Velocity P-wave (km/s) = 4.21299 5.81606 5.07818
#
# Compressibility (1/GPa) = 0.05124511
#
# Stress axis : x y z
#
# Youngs Moduli (GPa) = 54.47781 42.48526 91.25823
#
# Poissons Ratio (x) = -0.01155 -0.05879
# Poissons Ratio (y) = -0.01481 0.15690
# Poissons Ratio (z) = -0.03509 0.07305
#
# Static dielectric constant tensor:
#      x y z
#    x 1.855120 0.000000 0.027790 
#    y 0.000000 1.816210 0.000000 
#    z 0.027790 0.000000 1.817710 
# 
# From -- ./inp_files/91950.got.cif
#   From: 2010.05.17/outbox.cif.g08.bks.cpg/sg10_46_cif.got.tgz:91950.got - 2010.06.03 11:33:40.
