data_PCOD9144206
_publ_section_title
;
Structure prediction by ZEFSAII (Michael W. Deem and Ramdas Pophale) SiO2 
 PCOD9144206
Probable space group: P 2/M
;
_chemical_formula_sum "Si O2"
_cell_formula_units_Z 22
_cell_length_a 12.393838
_cell_length_b 14.318037
_cell_length_c 7.694527
_cell_angle_alpha 90.000000
_cell_angle_beta 125.958208
_cell_angle_gamma 90.000000
_cell_volume 1105.245726
_symmetry_space_group_name_H-M "P 2/M"
_symmetry_group_IT_number 10
_symmetry_cell_setting 'monoclinic'
loop_
_space_group_symop_operation_xyz
x,y,z
-x,y,-z
-x,-y,-z
x,-y,z
loop_
_atom_site_type_symbol
_atom_site_label
_atom_site_fract_x
_atom_site_fract_y
_atom_site_fract_z
Si Si1 0.500000 0.334663 0.000000
Si Si2 0.215164 0.500000 0.143289
Si Si3 0.000000 0.160008 0.500000
Si Si4 0.158169 0.298458 0.117394
Si Si5 0.226796 0.701846 0.581893
Si Si6 0.797650 0.500000 0.483163
Si Si7 0.478775 0.500000 0.231221
Si Si8 0.882138 0.899564 0.032879
O O1 0.373423 0.282205 0.799527
O O2 0.554902 0.405814 0.905989
O O3 0.180684 0.396876 0.040729
O O4 0.145263 0.500000 0.267499
O O5 0.377065 0.500000 0.294413
O O6 0.120326 0.224060 0.544444
O O7 0.052560 0.104387 0.715459
O O8 0.229944 0.300734 0.373726
O O9 0.193522 0.199591 0.061616
O O10 0.000000 0.295193 0.000000
O O11 0.175964 0.597483 0.583473
O O12 0.638446 0.500000 0.369324
O O13 0.810552 0.000000 0.944418
O O14 0.000000 0.899073 0.000000
#
# Coordination Sequence:
#
# PCOD9144206 Si02
#       8
#     2   2   2   4   4   2   2   4
#     4   9  20  34  48  74 121 158 197 234 280 337
#     4  10  19  27  54  76 116 151 189 232 282 351
#     4  12  21  35  62  90 112 139 204 240 297 342
#     4  10  19  37  51  83 121 149 186 236 301 335
#     4  10  20  35  54  80 118 156 192 237 279 349
#     4   8  18  35  47  71 120 156 190 230 280 336
#     4   9  17  31  47  71 103 161 207 228 260 339
#     4  10  21  39  59  85 118 148 191 247 292 339
#
# _framework density 19.905075
#
# number of rings (size 3 to 8) (size 9 to 14) (size 15 to 20)
#    0.000    2.182    3.636    1.364    2.545    0.364 
#    0.000    0.000    0.000    0.000    0.000    7.000 
#    0.000    0.000    0.000    0.000    0.000    0.000 
#
# Total GULP energy -122473.065693 kJ/mol
# GULP energy per Si atom -5566.957531 kJ/mol
# Density = 1.985977 g / cm^3
# Si number density = 19.905075 Si / 1000 Ang^3
#
#
#
# Elastic Constant Matrix: (Units=GPa)
#
#
# Indices 1 2 3 4 5 6 
#
# 1 37.6892 17.9801 1.2813 0.0000 -1.1122 0.0000
# 2 17.9801 172.4144 25.7804 0.0000 6.0274 0.0000
# 3 1.2813 25.7804 82.5054 0.0000 2.1881 0.0000
# 4 0.0000 0.0000 0.0000 22.0924 0.0000 -24.5506
# 5 -1.1122 6.0274 2.1881 0.0000 31.9092 0.0000
# 6 0.0000 0.0000 0.0000 -24.5506 0.0000 12.1620
#
#
#
# Elastic Compliance Matrix: (Units=1/GPa)
#
#
# Indices 1 2 3 4 5 6 
#
# 1 0.028014 -0.003046 0.000476 0.000000 0.001519 0.000000
# 2 -0.003046 0.006449 -0.001936 0.000000 -0.001192 0.000000
# 3 0.000476 -0.001936 0.012731 0.000000 -0.000491 0.000000
# 4 0.000000 0.000000 0.000000 -0.036408 0.000000 -0.073495
# 5 0.001519 -0.001192 -0.000491 0.000000 0.031651 0.000000
# 6 0.000000 0.000000 0.000000 -0.073495 0.000000 -0.066136
#
#
# Mechanical properties :
#
#
# Convention : Reuss Voigt Hill
#
# Bulk Modulus (GPa) = 26.18959 42.52141 34.35550
# Shear Modulus (GPa) = -2549.91276 29.73719 -1260.08779
#
# Velocity S-wave (km/s) = -35.83040 3.86936 -25.18775
# Velocity P-wave (km/s) = 41.21372 6.43203 28.78541
#
# Compressibility (1/GPa) = 0.03818311
#
# Stress axis : x y z
#
# Youngs Moduli (GPa) = 35.69581 155.06846 78.54833
#
# Poissons Ratio (x) = 0.47231 -0.03742
# Poissons Ratio (y) = 0.10872 0.15208
# Poissons Ratio (z) = -0.01700 0.30023
#
# Static dielectric constant tensor:
#      x y z
#    x 1.703020 0.000000 -0.033210 
#    y 0.000000 1.764810 0.000000 
#    z -0.033210 0.000000 1.785500 
# 
# From -- ./inp_files/28904.got.cif
#   From: 2010.05.17/outbox.cif.g08.bks.cpg/sg10_15_cif.got.tgz:28904.got - 2010.06.03 11:33:40.
