data_PCOD9144263
_publ_section_title
;
Structure prediction by ZEFSAII (Michael W. Deem and Ramdas Pophale) SiO2 
 PCOD9144263
Probable space group: P 2/M
;
_chemical_formula_sum "Si O2"
_cell_formula_units_Z 32
_cell_length_a 11.271615
_cell_length_b 9.749636
_cell_length_c 23.679659
_cell_angle_alpha 90.000000
_cell_angle_beta 143.926873
_cell_angle_gamma 90.000000
_cell_volume 1532.253329
_symmetry_space_group_name_H-M "P 2/M"
_symmetry_group_IT_number 10
_symmetry_cell_setting 'monoclinic'
loop_
_space_group_symop_operation_xyz
x,y,z
-x,y,-z
-x,-y,-z
x,-y,z
loop_
_atom_site_type_symbol
_atom_site_label
_atom_site_fract_x
_atom_site_fract_y
_atom_site_fract_z
Si Si1 0.818653 0.332739 0.608140
Si Si2 0.260002 0.333268 0.821433
Si Si3 0.589711 0.655225 0.235529
Si Si4 0.590143 0.153434 0.738576
Si Si5 0.954309 0.656224 0.543676
Si Si6 0.151690 0.657503 0.898190
Si Si7 0.318262 0.342120 0.325449
Si Si8 0.954708 0.154075 0.045171
O O1 0.814231 0.500000 0.604416
O O2 0.677085 0.297592 0.607062
O O3 0.038956 0.288846 0.715407
O O4 0.814442 0.287177 0.540915
O O5 0.256816 0.500000 0.821366
O O6 0.412388 0.296942 0.830244
O O7 0.278273 0.289854 0.893136
O O8 0.505625 0.500000 0.208425
O O9 0.493194 0.760951 0.241083
O O10 0.824817 0.646088 0.343269
O O11 0.568531 0.243132 0.673957
O O12 0.827708 0.141228 0.841822
O O13 0.505027 0.000000 0.701620
O O14 0.881042 0.500000 0.503422
O O15 0.000000 0.722971 0.500000
O O16 0.208144 0.500000 0.932197
O O17 0.917655 0.655446 0.785886
O O18 0.164650 0.748637 0.958615
O O19 0.388651 0.500000 0.348789
O O20 0.868298 0.000000 0.005384
O O21 0.000000 0.210271 0.000000
#
# Coordination Sequence:
#
# PCOD9144263 Si02
#       8
#     4   4   4   4   4   4   4   4
#     4   7  10  18  35  59  83 105 131 166 205 240
#     4   7  11  21  38  60  83 105 130 164 204 240
#     4   9  16  27  44  64  87 114 139 164 202 249
#     4  10  19  29  42  61  84 108 137 173 207 241
#     4   8  13  22  40  67  92 110 133 169 208 242
#     4   8  13  23  41  63  82 100 130 171 206 237
#     4   8  13  23  40  60  81 105 134 168 206 244
#     4   9  18  31  44  59  82 110 136 166 208 251
#
# _framework density 20.884274000000001
#
# number of rings (size 3 to 8) (size 9 to 14) (size 15 to 20)
#    0.000    3.750    0.000    3.375    0.000    0.750 
#    0.000    0.625    0.000    6.375    0.000   10.500 
#    0.000    0.000    0.000    0.000    0.000    0.000 
#
# Total GULP energy -178151.310336 kJ/mol
# GULP energy per Si atom -5567.228448 kJ/mol
# Density = 2.083674 g / cm^3
# Si number density = 20.884274 Si / 1000 Ang^3
#
#
#
# Elastic Constant Matrix: (Units=GPa)
#
#
# Indices 1 2 3 4 5 6 
#
# 1 181.0240 84.3350 40.1123 0.0000 -77.8724 0.0000
# 2 84.3350 75.0094 19.7574 0.0000 -29.6997 0.0000
# 3 40.1123 19.7574 75.9510 0.0000 -21.9774 0.0000
# 4 0.0000 0.0000 0.0000 -89.1667 0.0000 154.2568
# 5 -77.8724 -29.6997 -21.9774 0.0000 54.3391 0.0000
# 6 0.0000 0.0000 0.0000 154.2568 0.0000 -260.9286
#
#
#
# Elastic Compliance Matrix: (Units=1/GPa)
#
#
# Indices 1 2 3 4 5 6 
#
# 1 0.025258 -0.017794 -0.001190 0.000000 0.025990 0.000000
# 2 -0.017794 0.029812 -0.001157 0.000000 -0.009674 0.000000
# 3 -0.001190 -0.001157 0.015198 0.000000 0.003809 0.000000
# 4 0.000000 0.000000 0.000000 0.493238 0.000000 0.291594
# 5 0.025990 -0.009674 0.003809 0.000000 0.051901 0.000000
# 6 0.000000 0.000000 0.000000 0.291594 0.000000 0.168553
#
#
# Mechanical properties :
#
#
# Convention : Reuss Voigt Hill
#
# Bulk Modulus (GPa) = 33.34892 68.93263 51.14077
# Shear Modulus (GPa) = 5.99349 -46.63259 -20.31955
#
# Velocity S-wave (km/s) = 1.69590 -4.73049 -3.12261
# Velocity P-wave (km/s) = 4.45397 1.80053 3.39704
#
# Compressibility (1/GPa) = 0.02998598
#
# Stress axis : x y z
#
# Youngs Moduli (GPa) = 39.59163 33.54325 65.79789
#
# Poissons Ratio (x) = 0.59687 0.07832
# Poissons Ratio (y) = 0.70449 0.07611
# Poissons Ratio (z) = 0.04713 0.03880
#
# Static dielectric constant tensor:
#      x y z
#    x 1.832100 0.000000 0.025130 
#    y 0.000000 1.712210 0.000000 
#    z 0.025130 0.000000 1.837110 
# 
# From -- ./inp_files/88559.got.cif
#   From: 2010.05.17/outbox.cif.g08.bks.cpg/sg10_45_cif.got.tgz:88559.got - 2010.06.03 11:33:40.
