data_PCOD9144371
_publ_section_title
;
Structure prediction by ZEFSAII (Michael W. Deem and Ramdas Pophale) SiO2 
 PCOD9144371
Probable space group: P 2/M
;
_chemical_formula_sum "Si O2"
_cell_formula_units_Z 24
_cell_length_a 15.210077
_cell_length_b 10.796642
_cell_length_c 15.016295
_cell_angle_alpha 90.000000
_cell_angle_beta 150.609207
_cell_angle_gamma 90.000000
_cell_volume 1210.195076
_symmetry_space_group_name_H-M "P 2/M"
_symmetry_group_IT_number 10
_symmetry_cell_setting 'monoclinic'
loop_
_space_group_symop_operation_xyz
x,y,z
-x,y,-z
-x,-y,-z
x,-y,z
loop_
_atom_site_type_symbol
_atom_site_label
_atom_site_fract_x
_atom_site_fract_y
_atom_site_fract_z
Si Si1 0.238598 0.857731 0.559098
Si Si2 0.798348 0.137491 0.783816
Si Si3 0.642681 0.366031 0.546207
Si Si4 0.700279 0.850583 0.192870
Si Si5 0.888986 0.851551 0.170966
Si Si6 0.591781 0.788166 0.776645
O O1 0.230841 0.801891 0.651355
O O2 0.439908 0.857585 0.699860
O O3 0.093334 0.807423 0.361538
O O4 0.179052 0.000000 0.516028
O O5 0.759423 0.249637 0.682668
O O6 0.660992 0.149589 0.746010
O O7 0.776980 0.000000 0.724114
O O8 0.000000 0.146063 0.000000
O O9 0.500000 0.376992 0.500000
O O10 0.733882 0.500000 0.616426
O O11 0.519705 0.331766 0.353007
O O12 0.811970 0.831716 0.202318
O O13 0.689064 0.000000 0.193698
O O14 0.500000 0.803763 0.000000
O O15 0.874732 0.000000 0.135385
O O16 0.766578 0.780056 0.992379
#
# Coordination Sequence:
#
# PCOD9144371 Si02
#       6
#     4   4   4   4   4   4
#     4  10  19  29  47  74 111 150 183 224 276 330
#     4  10  22  37  57  86 117 148 185 231 284 338
#     4   9  21  41  60  77 106 148 190 230 280 339
#     4   9  15  27  43  66 106 153 185 215 269 331
#     4  10  19  29  46  75 111 147 185 224 273 333
#     4  11  21  34  54  77 109 140 188 232 279 321
#
# _framework density 19.831513999999999
#
# number of rings (size 3 to 8) (size 9 to 14) (size 15 to 20)
#    0.000    2.167    1.667    2.000    2.333    6.667 
#    0.000    0.000    0.000    0.000    0.000    2.333 
#    0.000    2.667    0.000    0.000    0.000    0.000 
#
# Total GULP energy -133726.239804 kJ/mol
# GULP energy per Si atom -5571.926658 kJ/mol
# Density = 1.978638 g / cm^3
# Si number density = 19.831514 Si / 1000 Ang^3
#
#
#
# Elastic Constant Matrix: (Units=GPa)
#
#
# Indices 1 2 3 4 5 6 
#
# 1 78.8806 11.9733 19.0826 0.0000 -13.9739 0.0000
# 2 11.9733 89.8912 38.9810 0.0000 -18.6865 0.0000
# 3 19.0826 38.9810 130.7270 0.0000 -23.3089 0.0000
# 4 0.0000 0.0000 0.0000 0.9827 0.0000 3.7051
# 5 -13.9739 -18.6865 -23.3089 0.0000 32.2181 0.0000
# 6 0.0000 0.0000 0.0000 3.7051 0.0000 13.2615
#
#
#
# Elastic Compliance Matrix: (Units=1/GPa)
#
#
# Indices 1 2 3 4 5 6 
#
# 1 0.013876 -0.000352 -0.001015 0.000000 0.005080 0.000000
# 2 -0.000352 0.013640 -0.003022 0.000000 0.005572 0.000000
# 3 -0.001015 -0.003022 0.009538 0.000000 0.004708 0.000000
# 4 0.000000 0.000000 0.000000-19.060940 0.000000 5.325345
# 5 0.005080 0.005572 0.004708 0.000000 0.039879 0.000000
# 6 0.000000 0.000000 0.000000 5.325345 0.000000 -1.412417
#
#
# Mechanical properties :
#
#
# Convention : Reuss Voigt Hill
#
# Bulk Modulus (GPa) = 35.36543 48.84140 42.10341
# Shear Modulus (GPa) = -0.24536 24.58993 12.17228
#
# Velocity S-wave (km/s) = -0.35212 3.52510 2.48016
# Velocity P-wave (km/s) = 4.20789 6.42262 5.42938
#
# Compressibility (1/GPa) = 0.02827620
#
# Stress axis : x y z
#
# Youngs Moduli (GPa) = 72.06535 73.31123 104.84079
#
# Poissons Ratio (x) = 0.02582 0.10639
# Poissons Ratio (y) = 0.02538 0.31688
# Poissons Ratio (z) = 0.07313 0.22158
#
# Static dielectric constant tensor:
#      x y z
#    x 1.736870 0.000000 -0.014820 
#    y 0.000000 1.713330 0.000000 
#    z -0.014820 0.000000 1.747000 
# 
# From -- ./inp_files/67239.got.cif
#   From: 2010.05.17/outbox.cif.g08.bks.cpg/sg10_34_cif.got.tgz:67239.got - 2010.06.03 11:33:40.
