data_PCOD9144062
_publ_section_title
;
Structure prediction by ZEFSAII (Michael W. Deem and Ramdas Pophale) SiO2 
 PCOD9144062
Probable space group: P 2/M
;
_chemical_formula_sum "Si O2"
_cell_formula_units_Z 24
_cell_length_a 23.593213
_cell_length_b 7.905690
_cell_length_c 11.395973
_cell_angle_alpha 90.000000
_cell_angle_beta 148.419018
_cell_angle_gamma 90.000000
_cell_volume 1113.175093
_symmetry_space_group_name_H-M "P 2/M"
_symmetry_group_IT_number 10
_symmetry_cell_setting 'monoclinic'
loop_
_space_group_symop_operation_xyz
x,y,z
-x,y,-z
-x,-y,-z
x,-y,z
loop_
_atom_site_type_symbol
_atom_site_label
_atom_site_fract_x
_atom_site_fract_y
_atom_site_fract_z
Si Si1 0.782246 0.187583 0.366214
Si Si2 0.998056 0.693597 0.135400
Si Si3 0.780851 0.295607 0.867918
Si Si4 0.553505 0.693576 0.976753
Si Si5 0.535536 0.292723 0.430237
Si Si6 0.874099 0.703158 0.285900
O O1 0.682452 0.305983 0.221621
O O2 0.814181 0.212615 0.287746
O O3 0.894394 0.217495 0.630650
O O4 0.741962 0.000000 0.317951
O O5 0.004166 0.500000 0.193642
O O6 0.883322 0.767510 0.974334
O O7 0.000000 0.688172 0.000000
O O8 0.777816 0.500000 0.847103
O O9 0.659874 0.237719 0.629344
O O10 0.812517 0.259955 0.057515
O O11 0.512274 0.500000 0.899195
O O12 0.500000 0.771522 0.000000
O O13 0.528891 0.762602 0.801410
O O14 0.500000 0.238096 0.500000
O O15 0.529369 0.500000 0.423526
O O16 0.872664 0.500000 0.301348
O O17 0.000000 0.754631 0.500000
#
# Coordination Sequence:
#
# PCOD9144062 Si02
#       6
#     4   4   4   4   4   4
#     4  12  25  39  58  84 124 163 196 237 297 373
#     4  10  21  37  61  88 115 150 199 251 295 347
#     4   9  17  31  56  89 117 144 184 245 307 349
#     4  10  22  39  63  90 114 149 205 260 301 350
#     4   9  17  31  55  87 118 146 184 243 306 354
#     4  10  18  34  60  88 117 149 194 246 296 348
#
# _framework density 21.559951000000002
#
# number of rings (size 3 to 8) (size 9 to 14) (size 15 to 20)
#    0.000    2.000    1.667    2.500    2.333    3.667 
#    0.000    0.000    0.000    4.500    0.000    0.000 
#    0.000    0.000    0.000    0.000    0.000    0.000 
#
# Total GULP energy -133924.815632 kJ/mol
# GULP energy per Si atom -5580.200651 kJ/mol
# Density = 2.151088 g / cm^3
# Si number density = 21.559951 Si / 1000 Ang^3
#
#
#
# Elastic Constant Matrix: (Units=GPa)
#
#
# Indices 1 2 3 4 5 6 
#
# 1 129.1481 8.4029 61.2822 0.0000 4.6546 0.0000
# 2 8.4029 24.4403 1.4233 0.0000 -7.1083 0.0000
# 3 61.2822 1.4233 103.4486 0.0000 14.2849 0.0000
# 4 0.0000 0.0000 0.0000 -10.8051 0.0000 6.8831
# 5 4.6546 -7.1083 14.2849 0.0000 28.1808 0.0000
# 6 0.0000 0.0000 0.0000 6.8831 0.0000 6.9027
#
#
#
# Elastic Compliance Matrix: (Units=1/GPa)
#
#
# Indices 1 2 3 4 5 6 
#
# 1 0.011061 -0.003211 -0.006607 0.000000 0.000712 0.000000
# 2 -0.003211 0.045606 -0.000416 0.000000 0.012245 0.000000
# 3 -0.006607 -0.000416 0.014462 0.000000 -0.006345 0.000000
# 4 0.000000 0.000000 0.000000 -0.056597 0.000000 0.056437
# 5 0.000712 0.012245 -0.006345 0.000000 0.041672 0.000000
# 6 0.000000 0.000000 0.000000 0.056437 0.000000 0.088595
#
#
# Mechanical properties :
#
#
# Convention : Reuss Voigt Hill
#
# Bulk Modulus (GPa) = 19.73898 44.36155 32.05027
# Shear Modulus (GPa) = 27.44931 17.25091 22.35011
#
# Velocity S-wave (km/s) = 3.57201 2.83174 3.22320
# Velocity P-wave (km/s) = 5.11738 5.59573 5.36190
#
# Compressibility (1/GPa) = 0.05066117
#
# Stress axis : x y z
#
# Youngs Moduli (GPa) = 90.40520 21.92713 69.14533
#
# Poissons Ratio (x) = 0.07041 0.45683
# Poissons Ratio (y) = 0.29031 0.02877
# Poissons Ratio (z) = 0.59729 0.00912
#
# Static dielectric constant tensor:
#      x y z
#    x 1.764920 0.000000 0.006540 
#    y 0.000000 1.817340 0.000000 
#    z 0.006540 0.000000 1.774230 
# 
# From -- ./inp_files/56694.got.cif
#   From: 2010.05.17/outbox.cif.g08.bks.cpg/sg10_29_cif.got.tgz:56694.got - 2010.06.03 11:33:40.
