data_PCOD9144122
_publ_section_title
;
Structure prediction by ZEFSAII (Michael W. Deem and Ramdas Pophale) SiO2 
 PCOD9144122
Probable space group: P 2/M
;
_chemical_formula_sum "Si O2"
_cell_formula_units_Z 32
_cell_length_a 9.444750
_cell_length_b 19.339414
_cell_length_c 12.683756
_cell_angle_alpha 90.000000
_cell_angle_beta 132.034998
_cell_angle_gamma 90.000000
_cell_volume 1720.743382
_symmetry_space_group_name_H-M "P 2/M"
_symmetry_group_IT_number 10
_symmetry_cell_setting 'monoclinic'
loop_
_space_group_symop_operation_xyz
x,y,z
-x,y,-z
-x,-y,-z
x,-y,z
loop_
_atom_site_type_symbol
_atom_site_label
_atom_site_fract_x
_atom_site_fract_y
_atom_site_fract_z
Si Si1 0.067200 0.077359 0.413184
Si Si2 0.632347 0.200014 0.467357
Si Si3 0.938215 0.421566 0.582292
Si Si4 0.934467 0.294811 0.723732
Si Si5 0.506383 0.577158 0.624525
Si Si6 0.321120 0.288530 0.199317
Si Si7 0.301637 0.772925 0.965657
Si Si8 0.278714 0.075975 0.926932
O O1 0.228306 0.135851 0.484121
O O2 0.000000 0.078953 0.500000
O O3 0.879524 0.084933 0.244797
O O4 0.144257 0.000000 0.428821
O O5 0.500000 0.181056 0.500000
O O6 0.769509 0.263092 0.568546
O O7 0.484623 0.232013 0.310026
O O8 0.983303 0.500000 0.365542
O O9 0.973464 0.371855 0.699692
O O10 0.712767 0.428233 0.456491
O O11 0.000000 0.391579 0.500000
O O12 0.850513 0.284438 0.800416
O O13 0.125618 0.250577 0.805885
O O14 0.500000 0.601711 0.500000
O O15 0.593916 0.500000 0.670204
O O16 0.604532 0.634154 0.743867
O O17 0.285265 0.275247 0.059460
O O18 0.269087 0.852456 0.985296
O O19 0.500000 0.767792 0.000000
O O20 0.240965 0.000000 0.957065
O O21 0.500000 0.073792 0.000000
#
# Coordination Sequence:
#
# PCOD9144122 Si02
#       8
#     4   4   4   4   4   4   4   4
#     4  10  21  36  59  88 115 148 193 245 300 351
#     4  10  21  36  58  85 115 151 191 236 292 347
#     4  10  21  35  59  92 120 150 193 245 296 345
#     4  11  21  40  59  83 121 155 190 241 294 346
#     4  10  18  35  62  90 116 148 197 243 286 348
#     4  11  22  38  58  87 119 156 195 238 291 348
#     4  11  25  38  58  88 115 156 199 242 295 348
#     4   9  19  38  59  81 115 152 193 243 293 350
#
# _framework density 18.596612
#
# number of rings (size 3 to 8) (size 9 to 14) (size 15 to 20)
#    0.000    1.750    3.750    0.750    5.250    0.750 
#    0.000    0.625    0.000    4.500    0.000    0.000 
#    0.000    0.000    0.000    0.000    0.000    0.000 
#
# Total GULP energy -178158.955133 kJ/mol
# GULP energy per Si atom -5567.467348 kJ/mol
# Density = 1.855429 g / cm^3
# Si number density = 18.596612 Si / 1000 Ang^3
#
#
#
# Elastic Constant Matrix: (Units=GPa)
#
#
# Indices 1 2 3 4 5 6 
#
# 1 67.5238 20.5776 25.4558 0.0000 8.2160 0.0000
# 2 20.5776 129.7115 23.7153 0.0000 0.1589 0.0000
# 3 25.4558 23.7153 45.2870 0.0000 6.2410 0.0000
# 4 0.0000 0.0000 0.0000 15.9255 0.0000 -2.6869
# 5 8.2160 0.1589 6.2410 0.0000 28.6535 0.0000
# 6 0.0000 0.0000 0.0000 -2.6869 0.0000 22.4407
#
#
#
# Elastic Compliance Matrix: (Units=1/GPa)
#
#
# Indices 1 2 3 4 5 6 
#
# 1 0.019268 -0.001281 -0.009690 0.000000 -0.003407 0.000000
# 2 -0.001281 0.008636 -0.003966 0.000000 0.001183 0.000000
# 3 -0.009690 -0.003966 0.030123 0.000000 -0.003761 0.000000
# 4 0.000000 0.000000 0.000000 0.064087 0.000000 0.007673
# 5 -0.003407 0.001183 -0.003761 0.000000 0.036689 0.000000
# 6 0.000000 0.000000 0.000000 0.007673 0.000000 0.045481
#
#
# Mechanical properties :
#
#
# Convention : Reuss Voigt Hill
#
# Bulk Modulus (GPa) = 35.51907 42.44664 38.98285
# Shear Modulus (GPa) = 20.53043 24.92217 22.72630
#
# Velocity S-wave (km/s) = 3.32624 3.66477 3.49960
# Velocity P-wave (km/s) = 5.82177 6.38607 6.11044
#
# Compressibility (1/GPa) = 0.02815389
#
# Stress axis : x y z
#
# Youngs Moduli (GPa) = 51.90087 115.79178 33.19719
#
# Poissons Ratio (x) = 0.14831 0.32168
# Poissons Ratio (y) = 0.06648 0.13165
# Poissons Ratio (z) = 0.50292 0.45918
#
# Static dielectric constant tensor:
#      x y z
#    x 1.795640 0.000000 0.023900 
#    y 0.000000 1.703030 0.000000 
#    z 0.023900 0.000000 1.640680 
# 
# From -- ./inp_files/43652.got.cif
#   From: 2010.05.17/outbox.cif.g08.bks.cpg/sg10_22_cif.got.tgz:43652.got - 2010.06.03 11:33:40.
