data_PCOD9144877
_publ_section_title
;
Structure prediction by ZEFSAII (Michael W. Deem and Ramdas Pophale) SiO2 
 PCOD9144877
Probable space group: P 2/M
;
_chemical_formula_sum "Si O2"
_cell_formula_units_Z 28
_cell_length_a 19.719393
_cell_length_b 14.025262
_cell_length_c 8.363073
_cell_angle_alpha 90.000000
_cell_angle_beta 139.485174
_cell_angle_gamma 90.000000
_cell_volume 1502.610342
_symmetry_space_group_name_H-M "P 2/M"
_symmetry_group_IT_number 10
_symmetry_cell_setting 'monoclinic'
loop_
_space_group_symop_operation_xyz
x,y,z
-x,y,-z
-x,-y,-z
x,-y,z
loop_
_atom_site_type_symbol
_atom_site_label
_atom_site_fract_x
_atom_site_fract_y
_atom_site_fract_z
Si Si1 0.877304 0.886717 0.442635
Si Si2 0.111972 0.802277 0.863373
Si Si3 0.392344 0.614662 0.734817
Si Si4 0.611244 0.615378 0.633467
Si Si5 0.163184 0.389848 0.827699
Si Si6 0.832782 0.609475 0.539645
Si Si7 0.880645 0.802682 0.773752
O O1 0.833585 0.842977 0.198922
O O2 0.830329 0.850733 0.526839
O O3 0.997294 0.849376 0.661846
O O4 0.875648 0.000000 0.431374
O O5 0.101693 0.689020 0.817039
O O6 0.164146 0.819110 0.129414
O O7 0.404294 0.500000 0.744233
O O8 0.372755 0.649221 0.519590
O O9 0.291182 0.628654 0.661900
O O10 0.500000 0.652722 0.000000
O O11 0.500000 0.650330 0.500000
O O12 0.604157 0.500000 0.617444
O O13 0.714608 0.633794 0.921718
O O14 0.144446 0.500000 0.842404
O O15 0.140246 0.381535 0.598563
O O16 0.852649 0.500000 0.625979
O O17 0.884302 0.690573 0.738700
O O18 0.000000 0.838473 0.000000
#
# Coordination Sequence:
#
# PCOD9144877 Si02
#       7
#     4   4   4   4   4   4   4
#     4  10  21  38  56  75  98 122 158 211 268 310
#     4  10  19  33  53  74  98 129 164 203 251 299
#     4   9  16  26  42  64  91 128 170 207 244 283
#     4   9  16  26  41  64  93 130 172 205 239 283
#     4  10  19  31  48  69 101 141 173 206 244 286
#     4  10  19  32  47  67 101 141 174 206 245 288
#     4  10  21  34  52  74 100 131 166 209 249 301
#
# _framework density 18.634239000000001
#
# number of rings (size 3 to 8) (size 9 to 14) (size 15 to 20)
#    0.000    2.286    1.429    2.571    0.000    8.571 
#    0.000    3.571    0.000    0.000    0.000    0.000 
#    0.000    2.857    1.714    0.000    0.000    0.000 
#
# Total GULP energy -156024.173546 kJ/mol
# GULP energy per Si atom -5572.291912 kJ/mol
# Density = 1.859183 g / cm^3
# Si number density = 18.634239 Si / 1000 Ang^3
#
#
#
# Elastic Constant Matrix: (Units=GPa)
#
#
# Indices 1 2 3 4 5 6 
#
# 1 53.6892 30.6322 34.7512 0.0000 -28.6991 0.0000
# 2 30.6322 86.8039 25.7269 0.0000 -17.3361 0.0000
# 3 34.7512 25.7269 73.1147 0.0000 -28.0475 0.0000
# 4 0.0000 0.0000 0.0000 -35.4850 0.0000 -1.9427
# 5 -28.6991 -17.3361 -28.0475 0.0000 42.5817 0.0000
# 6 0.0000 0.0000 0.0000 -1.9427 0.0000 4.9148
#
#
#
# Elastic Compliance Matrix: (Units=1/GPa)
#
#
# Indices 1 2 3 4 5 6 
#
# 1 0.037218 -0.007247 -0.008897 0.000000 0.016273 0.000000
# 2 -0.007247 0.014569 -0.001713 0.000000 -0.000081 0.000000
# 3 -0.008897 -0.001713 0.021331 0.000000 0.007356 0.000000
# 4 0.000000 0.000000 0.000000 -0.027584 0.000000 -0.010903
# 5 0.016273 -0.000081 0.007356 0.000000 0.039264 0.000000
# 6 0.000000 0.000000 0.000000 -0.010903 0.000000 0.199156
#
#
# Mechanical properties :
#
#
# Convention : Reuss Voigt Hill
#
# Bulk Modulus (GPa) = 26.73545 43.98093 35.35819
# Shear Modulus (GPa) = 15.05410 10.56880 12.81145
#
# Velocity S-wave (km/s) = 2.84539 2.38412 2.62491
# Velocity P-wave (km/s) = 5.01734 5.58857 5.31064
#
# Compressibility (1/GPa) = 0.03740352
#
# Stress axis : x y z
#
# Youngs Moduli (GPa) = 26.86879 68.63845 46.88117
#
# Poissons Ratio (x) = 0.49741 0.41710
# Poissons Ratio (y) = 0.19471 0.08031
# Poissons Ratio (z) = 0.23905 0.11759
#
# Static dielectric constant tensor:
#      x y z
#    x 1.703030 0.000000 -0.030590 
#    y 0.000000 1.645800 0.000000 
#    z -0.030590 0.000000 1.693860 
# 
# From -- ./inp_files/34672.got.cif
#   From: 2010.05.17/outbox.cif.g08.bks.cpg/sg10_18_cif.got.tgz:34672.got - 2010.06.03 11:33:40.
