data_PCOD9144501
_publ_section_title
;
Structure prediction by ZEFSAII (Michael W. Deem and Ramdas Pophale) SiO2 
 PCOD9144501
Probable space group: P 2/M
;
_chemical_formula_sum "Si O2"
_cell_formula_units_Z 30
_cell_length_a 12.030893
_cell_length_b 14.784646
_cell_length_c 17.189901
_cell_angle_alpha 90.000000
_cell_angle_beta 146.979409
_cell_angle_gamma 90.000000
_cell_volume 1666.215529
_symmetry_space_group_name_H-M "P 2/M"
_symmetry_group_IT_number 10
_symmetry_cell_setting 'monoclinic'
loop_
_space_group_symop_operation_xyz
x,y,z
-x,y,-z
-x,-y,-z
x,-y,z
loop_
_atom_site_type_symbol
_atom_site_label
_atom_site_fract_x
_atom_site_fract_y
_atom_site_fract_z
Si Si1 0.330324 0.105561 0.334437
Si Si2 0.000000 0.693330 0.500000
Si Si3 0.727010 0.609034 0.033607
Si Si4 0.915068 0.787418 0.097954
Si Si5 0.744044 0.895099 0.145656
Si Si6 0.635217 0.900208 0.824736
Si Si7 0.789072 0.138949 0.349793
Si Si8 0.269033 0.606820 0.780294
O O1 0.500000 0.122193 0.500000
O O2 0.411738 0.112762 0.293795
O O3 0.144572 0.175654 0.230376
O O4 0.261808 0.000000 0.304314
O O5 0.185627 0.762902 0.595109
O O6 0.076806 0.638373 0.618172
O O7 0.750943 0.500000 0.032760
O O8 0.876562 0.679826 0.079847
O O9 0.753035 0.624769 0.141416
O O10 0.491204 0.639337 0.880681
O O11 0.822380 0.834446 0.121152
O O12 0.788595 0.828188 0.951360
O O13 0.799528 0.855685 0.262759
O O14 0.815387 0.000000 0.181749
O O15 0.500000 0.896605 0.000000
O O16 0.424224 0.899939 0.748649
O O17 0.731043 0.000000 0.890124
O O18 0.000000 0.093100 0.500000
O O19 0.284755 0.500000 0.782010
#
# Coordination Sequence:
#
# PCOD9144501 Si02
#       8
#     4   2   4   4   4   4   4   4
#     4  10  24  42  60  84 113 151 196 240 280 324
#     4  10  19  30  45  80 110 154 192 224 272 340
#     4   9  20  35  57  83 109 143 184 238 290 341
#     4  12  22  36  63  83 112 149 194 241 280 344
#     4  11  22  35  53  83 120 156 194 231 281 342
#     4  11  22  39  58  81 114 153 198 235 274 330
#     4  10  23  34  50  81 122 159 185 227 281 339
#     4   9  17  32  51  76 112 147 185 232 286 338
#
# _framework density 18.004874000000001
#
# number of rings (size 3 to 8) (size 9 to 14) (size 15 to 20)
#    0.400    1.333    1.333    4.600    3.733    2.133 
#    0.000    0.000    0.000    2.000    0.000    0.000 
#    0.000    0.000    0.000    0.000    0.000    0.000 
#
# Total GULP energy -167170.460408 kJ/mol
# GULP energy per Si atom -5572.348680 kJ/mol
# Density = 1.796389 g / cm^3
# Si number density = 18.004874 Si / 1000 Ang^3
#
#
#
# Elastic Constant Matrix: (Units=GPa)
#
#
# Indices 1 2 3 4 5 6 
#
# 1 51.0568 19.2622 15.7632 0.0000 -14.2081 0.0000
# 2 19.2622 56.5577 30.5656 0.0000 -2.1667 0.0000
# 3 15.7632 30.5656 103.5520 0.0000 -26.2770 0.0000
# 4 0.0000 0.0000 0.0000 30.4225 0.0000 -2.2012
# 5 -14.2081 -2.1667 -26.2770 0.0000 26.0268 0.0000
# 6 0.0000 0.0000 0.0000 -2.2012 0.0000 24.1107
#
#
#
# Elastic Compliance Matrix: (Units=1/GPa)
#
#
# Indices 1 2 3 4 5 6 
#
# 1 0.027351 -0.010457 0.003349 0.000000 0.017441 0.000000
# 2 -0.010457 0.025774 -0.009304 0.000000 -0.012956 0.000000
# 3 0.003349 -0.009304 0.016349 0.000000 0.017560 0.000000
# 4 0.000000 0.000000 0.000000 0.033089 0.000000 0.003021
# 5 0.017441 -0.012956 0.017560 0.000000 0.064594 0.000000
# 6 0.000000 0.000000 0.000000 0.003021 0.000000 0.041751
#
#
# Mechanical properties :
#
#
# Convention : Reuss Voigt Hill
#
# Bulk Modulus (GPa) = 27.28410 38.03874 32.66142
# Shear Modulus (GPa) = 19.68911 25.81704 22.75307
#
# Velocity S-wave (km/s) = 3.31046 3.79078 3.55874
# Velocity P-wave (km/s) = 5.45883 6.35081 5.92164
#
# Compressibility (1/GPa) = 0.03665138
#
# Stress axis : x y z
#
# Youngs Moduli (GPa) = 36.56213 38.79883 61.16458
#
# Poissons Ratio (x) = 0.40571 -0.20484
# Poissons Ratio (y) = 0.38232 0.56905
# Poissons Ratio (z) = -0.12244 0.36097
#
# Static dielectric constant tensor:
#      x y z
#    x 1.606470 0.000000 0.015460 
#    y 0.000000 1.674540 0.000000 
#    z 0.015460 0.000000 1.581230 
# 
# From -- ./inp_files/76924.got.cif
#   From: 2010.05.17/outbox.cif.g08.bks.cpg/sg10_39_cif.got.tgz:76924.got - 2010.06.03 11:33:40.
