data_PCOD9144711
_publ_section_title
;
Structure prediction by ZEFSAII (Michael W. Deem and Ramdas Pophale) SiO2 
 PCOD9144711
Probable space group: P 2/M
;
_chemical_formula_sum "Si O2"
_cell_formula_units_Z 28
_cell_length_a 19.126372
_cell_length_b 13.833033
_cell_length_c 23.134349
_cell_angle_alpha 90.000000
_cell_angle_beta 17.378009
_cell_angle_gamma 90.000000
_cell_volume 1828.123225
_symmetry_space_group_name_H-M "P 2/M"
_symmetry_group_IT_number 10
_symmetry_cell_setting 'monoclinic'
loop_
_space_group_symop_operation_xyz
x,y,z
-x,y,-z
-x,-y,-z
x,-y,z
loop_
_atom_site_type_symbol
_atom_site_label
_atom_site_fract_x
_atom_site_fract_y
_atom_site_fract_z
Si Si1 0.574891 0.239375 0.067807
Si Si2 0.004066 0.760633 0.353232
Si Si3 0.791557 0.113173 0.999502
Si Si4 0.183205 0.385386 0.408394
Si Si5 0.372722 0.886827 0.418343
Si Si6 0.328250 0.883353 0.585864
Si Si7 0.284153 0.891185 0.215846
O O1 0.696310 0.183049 0.024714
O O2 0.429361 0.333790 0.199926
O O3 0.383523 0.166734 0.191552
O O4 0.771686 0.259468 0.864151
O O5 0.083200 0.833275 0.341721
O O6 0.912184 0.666217 0.458527
O O7 0.812180 0.816951 0.466789
O O8 0.614729 0.118305 0.192626
O O9 0.795284 0.000000 0.976526
O O10 0.055160 0.141445 0.808451
O O11 0.207052 0.500000 0.396479
O O12 0.000000 0.368342 0.500000
O O13 0.399357 0.858549 0.464265
O O14 0.292002 0.000000 0.479821
O O15 0.500000 0.844712 0.500000
O O16 0.339366 0.000000 0.580303
O O17 0.216413 0.000000 0.283593
O O18 0.500000 0.895232 0.000000
#
# Coordination Sequence:
#
# PCOD9144711 Si02
#       7
#     4   4   4   4   4   4   4
#     4  11  20  34  53  74 101 135 174 212 258 304
#     4  11  20  34  53  74 101 135 174 212 258 304
#     4  10  19  30  49  77 108 142 174 210 249 295
#     4  11  24  40  54  72  99 132 177 225 270 309
#     4  10  19  30  49  77 108 142 174 210 249 295
#     4   9  18  32  48  71 108 149 178 203 244 299
#     4   9  18  29  45  72 103 135 170 206 240 292
#
# _framework density 15.316255
#
# number of rings (size 3 to 8) (size 9 to 14) (size 15 to 20)
#    0.000    1.857    4.286    0.857    0.000    2.286 
#    0.000    5.000    0.000    0.000    0.000    0.000 
#    0.000    3.429    0.000    0.000    0.000    0.000 
#
# Total GULP energy -156188.721620 kJ/mol
# GULP energy per Si atom -5578.168629 kJ/mol
# Density = 1.528139 g / cm^3
# Si number density = 15.316255 Si / 1000 Ang^3
#
#
#
# Elastic Constant Matrix: (Units=GPa)
#
#
# Indices 1 2 3 4 5 6 
#
# 1 126.1498 53.6431 62.0346 0.0000 -17.4562 0.0000
# 2 53.6431 96.3847 51.8834 0.0000 -0.6576 0.0000
# 3 62.0346 51.8834 105.4171 0.0000 9.5439 0.0000
# 4 0.0000 0.0000 0.0000 17.1541 0.0000 4.0748
# 5 -17.4562 -0.6576 9.5439 0.0000 19.6682 0.0000
# 6 0.0000 0.0000 0.0000 4.0748 0.0000 6.5499
#
#
#
# Elastic Compliance Matrix: (Units=1/GPa)
#
#
# Indices 1 2 3 4 5 6 
#
# 1 0.017425 -0.004158 -0.010036 0.000000 0.020197 0.000000
# 2 -0.004158 0.015417 -0.005077 0.000000 -0.000711 0.000000
# 3 -0.010036 -0.005077 0.019572 0.000000 -0.018575 0.000000
# 4 0.000000 0.000000 0.000000 0.068403 0.000000 -0.042555
# 5 0.020197 -0.000711 -0.018575 0.000000 0.077758 0.000000
# 6 0.000000 0.000000 0.000000 -0.042555 0.000000 0.179149
#
#
# Mechanical properties :
#
#
# Convention : Reuss Voigt Hill
#
# Bulk Modulus (GPa) = 72.08209 73.67486 72.87848
# Shear Modulus (GPa) = 11.87955 19.36714 15.62334
#
# Velocity S-wave (km/s) = 2.78801 3.55981 3.19729
# Velocity P-wave (km/s) = 7.58476 8.06866 7.83045
#
# Compressibility (1/GPa) = 0.01387307
#
# Stress axis : x y z
#
# Youngs Moduli (GPa) = 57.38799 64.86341 51.09217
#
# Poissons Ratio (x) = 0.26969 0.51278
# Poissons Ratio (y) = 0.23861 0.25938
# Poissons Ratio (z) = 0.57597 0.32929
#
# Static dielectric constant tensor:
#      x y z
#    x 1.499320 0.000000 0.012430 
#    y 0.000000 1.482210 0.000000 
#    z 0.012430 0.000000 1.531640 
# 
# From -- ./inp_files/67538.got.cif
#   From: 2010.05.17/outbox.cif.g08.bks.cpg/sg10_34_cif.got.tgz:67538.got - 2010.06.03 11:33:40.
