data_PCOD9144391
_publ_section_title
;
Structure prediction by ZEFSAII (Michael W. Deem and Ramdas Pophale) SiO2 
 PCOD9144391
Probable space group: P 2/M
;
_chemical_formula_sum "Si O2"
_cell_formula_units_Z 32
_cell_length_a 24.419153
_cell_length_b 7.564027
_cell_length_c 15.847169
_cell_angle_alpha 90.000000
_cell_angle_beta 151.848077
_cell_angle_gamma 90.000000
_cell_volume 1381.031248
_symmetry_space_group_name_H-M "P 2/M"
_symmetry_group_IT_number 10
_symmetry_cell_setting 'monoclinic'
loop_
_space_group_symop_operation_xyz
x,y,z
-x,y,-z
-x,-y,-z
x,-y,z
loop_
_atom_site_type_symbol
_atom_site_label
_atom_site_fract_x
_atom_site_fract_y
_atom_site_fract_z
Si Si1 0.430763 0.215962 0.782171
Si Si2 0.188173 0.290179 0.917420
Si Si3 0.015463 0.299136 0.241639
Si Si4 0.784160 0.793935 0.600862
Si Si5 0.331592 0.783955 0.829430
Si Si6 0.369437 0.212022 0.309543
Si Si7 0.840934 0.214167 0.858542
Si Si8 0.875069 0.203935 0.349033
O O1 0.342521 0.281093 0.591480
O O2 0.373271 0.267315 0.793392
O O3 0.430892 0.000000 0.780133
O O4 0.564287 0.271163 0.966290
O O5 0.174560 0.500000 0.889520
O O6 0.070247 0.221006 0.803685
O O7 0.194739 0.208918 0.833873
O O8 0.297847 0.261604 0.127893
O O9 0.041574 0.500000 0.300301
O O10 0.134449 0.214984 0.371006
O O11 0.934612 0.294425 0.048507
O O12 0.843757 0.722655 0.766167
O O13 0.767048 0.000000 0.597056
O O14 0.207449 0.717728 0.691507
O O15 0.327947 0.000000 0.825441
O O16 0.500000 0.281170 0.500000
O O17 0.284387 0.257090 0.271607
O O18 0.376751 0.000000 0.317519
O O19 0.859634 0.000000 0.888102
O O20 0.000000 0.287196 0.500000
O O21 0.896508 0.000000 0.402567
#
# Coordination Sequence:
#
# PCOD9144391 Si02
#       8
#     4   4   4   4   4   4   4   4
#     4   8  15  28  49  75 103 136 167 203 254 309
#     4  10  22  38  53  74 106 144 182 216 263 324
#     4  10  21  35  50  69  99 138 174 209 254 307
#     4  10  19  29  49  77 100 128 168 212 256 304
#     4   8  15  30  49  74 107 135 165 207 258 312
#     4   9  18  34  57  81 107 139 175 219 266 311
#     4   9  18  32  48  74 106 133 167 209 257 308
#     4  10  21  34  55  85 111 136 175 227 275 317
#
# _framework density 23.17109
#
# number of rings (size 3 to 8) (size 9 to 14) (size 15 to 20)
#    0.000    2.750    0.000    1.875    1.750    5.000 
#    0.000    3.750    0.000    2.250    0.000    1.750 
#    0.000    0.000    0.000    0.000    0.000    0.000 
#
# Total GULP energy -178611.214110 kJ/mol
# GULP energy per Si atom -5581.600441 kJ/mol
# Density = 2.311835 g / cm^3
# Si number density = 23.171090 Si / 1000 Ang^3
#
#
#
# Elastic Constant Matrix: (Units=GPa)
#
#
# Indices 1 2 3 4 5 6 
#
# 1 63.0749 2.5944 9.9725 0.0000 16.5908 0.0000
# 2 2.5944 51.8865 2.8584 0.0000 5.2351 0.0000
# 3 9.9725 2.8584 61.4530 0.0000 16.7390 0.0000
# 4 0.0000 0.0000 0.0000 47.5276 0.0000 -16.5197
# 5 16.5908 5.2351 16.7390 0.0000 34.9928 0.0000
# 6 0.0000 0.0000 0.0000 -16.5197 0.0000 0.0281
#
#
#
# Elastic Compliance Matrix: (Units=1/GPa)
#
#
# Indices 1 2 3 4 5 6 
#
# 1 0.018139 -0.000035 -0.000691 0.000000 -0.008264 0.000000
# 2 -0.000035 0.019569 -0.000128 0.000000 -0.002850 0.000000
# 3 -0.000691 -0.000128 0.018738 0.000000 -0.008617 0.000000
# 4 0.000000 0.000000 0.000000 -0.000103 0.000000 -0.060831
# 5 -0.008264 -0.002850 -0.008617 0.000000 0.037044 0.000000
# 6 0.000000 0.000000 0.000000 -0.060831 0.000000 -0.175012
#
#
# Mechanical properties :
#
#
# Convention : Reuss Voigt Hill
#
# Bulk Modulus (GPa) = 18.26919 23.02945 20.64932
# Shear Modulus (GPa) = -81.07334 27.24230 -26.91552
#
# Velocity S-wave (km/s) = -5.92157 3.43257 -3.41192
# Velocity P-wave (km/s) = 6.23311 5.06661 2.56721
#
# Compressibility (1/GPa) = 0.05473695
#
# Stress axis : x y z
#
# Youngs Moduli (GPa) = 55.13117 51.10073 53.36828
#
# Poissons Ratio (x) = 0.00179 0.03687
# Poissons Ratio (y) = 0.00194 0.00685
# Poissons Ratio (z) = 0.03809 0.00656
#
# Static dielectric constant tensor:
#      x y z
#    x 1.885550 0.000000 0.010430 
#    y 0.000000 1.876060 0.000000 
#    z 0.010430 0.000000 1.894390 
# 
# From -- ./inp_files/71694.got.cif
#   From: 2010.05.17/outbox.cif.g08.bks.cpg/sg10_36_cif.got.tgz:71694.got - 2010.06.03 11:33:40.
