data_PCOD9144479
_publ_section_title
;
Structure prediction by ZEFSAII (Michael W. Deem and Ramdas Pophale) SiO2 
 PCOD9144479
Probable space group: P 2/M
;
_chemical_formula_sum "Si O2"
_cell_formula_units_Z 32
_cell_length_a 16.135168
_cell_length_b 13.723744
_cell_length_c 8.990504
_cell_angle_alpha 90.000000
_cell_angle_beta 90.451466
_cell_angle_gamma 90.000000
_cell_volume 1990.749687
_symmetry_space_group_name_H-M "P 2/M"
_symmetry_group_IT_number 10
_symmetry_cell_setting 'monoclinic'
loop_
_space_group_symop_operation_xyz
x,y,z
-x,y,-z
-x,-y,-z
x,-y,z
loop_
_atom_site_type_symbol
_atom_site_label
_atom_site_fract_x
_atom_site_fract_y
_atom_site_fract_z
Si Si1 0.425885 0.247731 0.392947
Si Si2 0.810086 0.117361 0.323073
Si Si3 0.347335 0.744751 0.692035
Si Si4 0.144848 0.883371 0.330594
Si Si5 0.685912 0.117285 0.814119
Si Si6 0.474162 0.615777 0.829670
Si Si7 0.981445 0.118170 0.167180
Si Si8 0.415871 0.886582 0.907720
O O1 0.500000 0.212177 0.500000
O O2 0.360716 0.281232 0.519430
O O3 0.380567 0.166703 0.294995
O O4 0.463777 0.330671 0.285796
O O5 0.737969 0.195683 0.291789
O O6 0.836217 0.130283 0.495777
O O7 0.889923 0.140495 0.223990
O O8 0.787968 0.000000 0.303093
O O9 0.381062 0.653412 0.788577
O O10 0.410991 0.825260 0.759701
O O11 0.222653 0.849240 0.232579
O O12 0.055732 0.846351 0.274935
O O13 0.142523 0.000000 0.308680
O O14 0.680908 0.000000 0.799109
O O15 0.658828 0.140530 0.981651
O O16 0.479403 0.500000 0.812164
O O17 0.500000 0.640316 0.000000
O O18 0.984154 0.000000 0.167401
O O19 0.000000 0.150900 0.000000
O O20 0.410434 0.000000 0.873251
O O21 0.500000 0.870491 0.000000
#
# Coordination Sequence:
#
# PCOD9144479 Si02
#       8
#     4   4   4   4   4   4   4   4
#     4  10  20  32  50  74  99 128 165 209 249 297
#     4  10  19  31  47  70 105 141 171 206 249 297
#     4  11  20  31  50  76 101 127 166 209 251 299
#     4   9  17  30  45  63  93 135 177 211 246 286
#     4  10  19  30  45  67  99 140 178 208 244 286
#     4  10  22  41  60  74  95 129 165 207 259 308
#     4   9  18  30  46  68  94 134 181 216 247 285
#     4  10  20  31  43  63  98 140 173 204 242 284
#
# _framework density 16.074346999999999
#
# number of rings (size 3 to 8) (size 9 to 14) (size 15 to 20)
#    0.000    2.125    1.250    3.375    1.750    4.500 
#    0.000    1.875    0.000    0.000    0.000    0.000 
#    0.000    3.500    0.000    0.000    0.000    0.125 
#
# Total GULP energy -178145.655612 kJ/mol
# GULP energy per Si atom -5567.051738 kJ/mol
# Density = 1.603776 g / cm^3
# Si number density = 16.074347 Si / 1000 Ang^3
#
#
#
# Elastic Constant Matrix: (Units=GPa)
#
#
# Indices 1 2 3 4 5 6 
#
# 1 65.8696 21.6744 46.4525 0.0000 -8.0321 0.0000
# 2 21.6744 42.2384 39.7512 0.0000 -2.9750 0.0000
# 3 46.4525 39.7512 100.4018 0.0000 -10.7022 0.0000
# 4 0.0000 0.0000 0.0000 7.7174 0.0000 7.0330
# 5 -8.0321 -2.9750 -10.7022 0.0000 28.2045 0.0000
# 6 0.0000 0.0000 0.0000 7.0330 0.0000 8.8580
#
#
#
# Elastic Compliance Matrix: (Units=1/GPa)
#
#
# Indices 1 2 3 4 5 6 
#
# 1 0.022945 -0.002973 -0.009145 0.000000 0.002750 0.000000
# 2 -0.002973 0.038205 -0.013977 0.000000 -0.002120 0.000000
# 3 -0.009145 -0.013977 0.020103 0.000000 0.003549 0.000000
# 4 0.000000 0.000000 0.000000 0.468713 0.000000 -0.372143
# 5 0.002750 -0.002120 0.003549 0.000000 0.037362 0.000000
# 6 0.000000 0.000000 0.000000 -0.372143 0.000000 0.408362
#
#
# Mechanical properties :
#
#
# Convention : Reuss Voigt Hill
#
# Bulk Modulus (GPa) = 34.40865 47.14067 40.77466
# Shear Modulus (GPa) = 4.72783 15.66477 10.19630
#
# Velocity S-wave (km/s) = 1.71686 3.12512 2.52131
# Velocity P-wave (km/s) = 5.03811 6.51246 5.82214
#
# Compressibility (1/GPa) = 0.02906246
#
# Stress axis : x y z
#
# Youngs Moduli (GPa) = 43.58288 26.17453 49.74337
#
# Poissons Ratio (x) = 0.07783 0.45492
# Poissons Ratio (y) = 0.12959 0.69524
# Poissons Ratio (z) = 0.39858 0.36583
#
# Static dielectric constant tensor:
#      x y z
#    x 1.593900 0.000000 -0.015420 
#    y 0.000000 1.514740 0.000000 
#    z -0.015420 0.000000 1.567150 
# 
# From -- ./inp_files/29098.got.cif
#   From: 2010.05.17/outbox.cif.g08.bks.cpg/sg10_15_cif.got.tgz:29098.got - 2010.06.03 11:33:40.
