data_PCOD9144686
_publ_section_title
;
Structure prediction by ZEFSAII (Michael W. Deem and Ramdas Pophale) SiO2 
 PCOD9144686
Probable space group: P 2/M
;
_chemical_formula_sum "Si O2"
_cell_formula_units_Z 28
_cell_length_a 21.851363
_cell_length_b 7.401465
_cell_length_c 19.119601
_cell_angle_alpha 90.000000
_cell_angle_beta 20.030893
_cell_angle_gamma 90.000000
_cell_volume 1059.179471
_symmetry_space_group_name_H-M "P 2/M"
_symmetry_group_IT_number 10
_symmetry_cell_setting 'monoclinic'
loop_
_space_group_symop_operation_xyz
x,y,z
-x,y,-z
-x,-y,-z
x,-y,z
loop_
_atom_site_type_symbol
_atom_site_label
_atom_site_fract_x
_atom_site_fract_y
_atom_site_fract_z
Si Si1 0.166099 0.718792 0.227578
Si Si2 0.172024 0.288982 0.857543
Si Si3 0.120807 0.785608 0.657482
Si Si4 0.744994 0.795414 0.074040
Si Si5 0.456797 0.716613 0.198341
Si Si6 0.219585 0.720086 0.332574
Si Si7 0.364107 0.781220 0.516074
O O1 0.158353 0.500000 0.231299
O O2 0.205342 0.767336 0.266742
O O3 0.964065 0.781824 0.432122
O O4 0.344265 0.781703 0.996430
O O5 0.142956 0.500000 0.902966
O O6 0.211072 0.200051 0.889752
O O7 0.332370 0.271016 0.629821
O O8 0.000000 0.215470 0.000000
O O9 0.290002 0.759302 0.426249
O O10 0.195650 0.717367 0.651317
O O11 0.092934 0.000000 0.693587
O O12 0.925293 0.710505 0.848016
O O13 0.548064 0.711103 0.284453
O O14 0.726627 0.000000 0.067923
O O15 0.470047 0.500000 0.181696
O O16 0.389707 0.779641 0.194034
O O17 0.221863 0.500000 0.330862
O O18 0.370092 0.000000 0.506749
#
# Coordination Sequence:
#
# PCOD9144686 Si02
#       7
#     4   4   4   4   4   4   4
#     4   8  14  26  46  73 102 129 161 205 253 298
#     4  11  22  35  56  85 113 134 159 206 267 315
#     4  10  22  38  52  71 103 139 172 211 252 297
#     4  10  21  38  59  78  98 134 180 215 250 303
#     4  10  19  30  49  75 100 129 169 209 248 298
#     4   8  14  26  46  73 102 129 161 205 253 298
#     4  10  21  38  59  78  98 134 180 215 250 303
#
# _framework density 26.435559000000001
#
# number of rings (size 3 to 8) (size 9 to 14) (size 15 to 20)
#    0.000    2.429    1.429    2.143    0.000    6.857 
#    0.000    0.000    0.000    1.714    0.000    2.000 
#    0.000    0.000    0.000    0.000    0.000    0.000 
#
# Total GULP energy -156563.885233 kJ/mol
# GULP energy per Si atom -5591.567330 kJ/mol
# Density = 2.637539 g / cm^3
# Si number density = 26.435559 Si / 1000 Ang^3
#
#
#
# Elastic Constant Matrix: (Units=GPa)
#
#
# Indices 1 2 3 4 5 6 
#
# 1 54.0603 5.1454 9.3028 0.0000 -6.4985 0.0000
# 2 5.1454 106.7038 6.2542 0.0000 -7.1814 0.0000
# 3 9.3028 6.2542 202.5947 0.0000 -18.9997 0.0000
# 4 0.0000 0.0000 0.0000 17.7515 0.0000 4.7049
# 5 -6.4985 -7.1814 -18.9997 0.0000 49.3496 0.0000
# 6 0.0000 0.0000 0.0000 4.7049 0.0000 -6.0126
#
#
#
# Elastic Compliance Matrix: (Units=1/GPa)
#
#
# Indices 1 2 3 4 5 6 
#
# 1 0.018936 -0.000731 -0.000646 0.000000 0.002138 0.000000
# 2 -0.000731 0.009498 -0.000144 0.000000 0.001230 0.000000
# 3 -0.000646 -0.000144 0.005146 0.000000 0.001875 0.000000
# 4 0.000000 0.000000 0.000000 0.046657 0.000000 0.036509
# 5 0.002138 0.001230 0.001875 0.000000 0.021446 0.000000
# 6 0.000000 0.000000 0.000000 0.036509 0.000000 -0.137749
#
#
# Mechanical properties :
#
#
# Convention : Reuss Voigt Hill
#
# Bulk Modulus (GPa) = 32.74818 44.97373 38.86095
# Shear Modulus (GPa) = -218.88411 35.06146 -91.91132
#
# Velocity S-wave (km/s) = -9.10927 3.64579 -5.90284
# Velocity P-wave (km/s) = 9.91079 5.89677 5.63257
#
# Compressibility (1/GPa) = 0.03053605
#
# Stress axis : x y z
#
# Youngs Moduli (GPa) = 52.81019 105.28237 194.32772
#
# Poissons Ratio (x) = 0.07699 0.12561
# Poissons Ratio (y) = 0.03862 0.02803
# Poissons Ratio (z) = 0.03414 0.01519
#
# Static dielectric constant tensor:
#      x y z
#    x 2.070100 0.000000 0.013080 
#    y 0.000000 2.004690 0.000000 
#    z 0.013080 0.000000 2.163430 
# 
# From -- ./inp_files/86472.got.cif
#   From: 2010.05.17/outbox.cif.g08.bks.cpg/sg10_44_cif.got.tgz:86472.got - 2010.06.03 11:33:40.
