data_PCOD9144072
_publ_section_title
;
Structure prediction by ZEFSAII (Michael W. Deem and Ramdas Pophale) SiO2 
 PCOD9144072
Probable space group: P 2/M
;
_chemical_formula_sum "Si O2"
_cell_formula_units_Z 28
_cell_length_a 8.919270
_cell_length_b 18.353528
_cell_length_c 14.780492
_cell_angle_alpha 90.000000
_cell_angle_beta 36.923242
_cell_angle_gamma 90.000000
_cell_volume 1453.542091
_symmetry_space_group_name_H-M "P 2/M"
_symmetry_group_IT_number 10
_symmetry_cell_setting 'monoclinic'
loop_
_space_group_symop_operation_xyz
x,y,z
-x,y,-z
-x,-y,-z
x,-y,z
loop_
_atom_site_type_symbol
_atom_site_label
_atom_site_fract_x
_atom_site_fract_y
_atom_site_fract_z
Si Si1 0.201716 0.419051 0.323926
Si Si2 0.135911 0.913876 0.532098
Si Si3 0.201417 0.416554 0.124005
Si Si4 0.730928 0.828704 0.833478
Si Si5 0.935443 0.269932 0.893383
Si Si6 0.535930 0.728604 0.767859
Si Si7 0.476257 0.206910 0.618039
O O1 0.317586 0.500000 0.272280
O O2 0.084175 0.412576 0.281005
O O3 0.390163 0.353003 0.243662
O O4 0.000000 0.413773 0.500000
O O5 0.396110 0.870411 0.419832
O O6 0.000000 0.901231 0.500000
O O7 0.950841 0.883005 0.698997
O O8 0.173055 0.000000 0.522769
O O9 0.181920 0.500000 0.100667
O O10 0.067367 0.356150 0.127546
O O11 0.500000 0.402343 0.000000
O O12 0.809312 0.765784 0.865421
O O13 0.662798 0.786925 0.773615
O O14 0.500000 0.864781 0.000000
O O15 0.189276 0.224772 0.777065
O O16 0.752650 0.261364 0.066277
O O17 0.609231 0.741989 0.628538
O O18 0.500000 0.221555 0.500000
#
# Coordination Sequence:
#
# PCOD9144072 Si02
#       7
#     4   4   4   4   4   4   4
#     4  10  21  33  55  92 126 163 215 271 316 352
#     4  11  24  45  70  96 122 157 204 255 312 379
#     4  10  18  34  61  93 126 164 217 269 311 363
#     4  10  20  38  66  94 125 162 209 256 305 366
#     4  11  21  39  59  96 125 168 209 257 314 371
#     4  11  22  38  63  87 129 167 215 260 301 367
#     4  12  26  40  63  92 125 168 204 252 313 374
#
# _framework density 19.263287999999999
#
# number of rings (size 3 to 8) (size 9 to 14) (size 15 to 20)
#    0.000    1.286    5.714    0.857    4.000    0.571 
#    0.000    0.714    0.000    4.286    0.000    0.000 
#    0.000    0.000    0.000    0.000    0.000    0.000 
#
# Total GULP energy -155955.232430 kJ/mol
# GULP energy per Si atom -5569.829730 kJ/mol
# Density = 1.921944 g / cm^3
# Si number density = 19.263288 Si / 1000 Ang^3
#
#
#
# Elastic Constant Matrix: (Units=GPa)
#
#
# Indices 1 2 3 4 5 6 
#
# 1 72.4640 40.1549 34.2066 0.0000 15.1433 0.0000
# 2 40.1549 123.3467 60.2643 0.0000 -7.8233 0.0000
# 3 34.2066 60.2643 93.7815 0.0000 7.1722 0.0000
# 4 0.0000 0.0000 0.0000 20.3407 0.0000 4.1884
# 5 15.1433 -7.8233 7.1722 0.0000 43.4752 0.0000
# 6 0.0000 0.0000 0.0000 4.1884 0.0000 93.0782
#
#
#
# Elastic Compliance Matrix: (Units=1/GPa)
#
#
# Indices 1 2 3 4 5 6 
#
# 1 0.019816 -0.005332 -0.003241 0.000000 -0.007327 0.000000
# 2 -0.005332 0.013777 -0.007333 0.000000 0.005546 0.000000
# 3 -0.003241 -0.007333 0.016784 0.000000 -0.002959 0.000000
# 4 0.000000 0.000000 0.000000 0.049622 0.000000 -0.002233
# 5 -0.007327 0.005546 -0.002959 0.000000 0.027040 0.000000
# 6 0.000000 0.000000 0.000000 -0.002233 0.000000 0.010844
#
#
# Mechanical properties :
#
#
# Convention : Reuss Voigt Hill
#
# Bulk Modulus (GPa) = 53.86431 62.09375 57.97903
# Shear Modulus (GPa) = 28.42792 41.70991 35.06892
#
# Velocity S-wave (km/s) = 3.84573 4.65828 4.27137
# Velocity P-wave (km/s) = 6.90958 7.82540 7.38171
#
# Compressibility (1/GPa) = 0.01856517
#
# Stress axis : x y z
#
# Youngs Moduli (GPa) = 50.46479 72.58228 59.58222
#
# Poissons Ratio (x) = 0.38703 0.19310
# Poissons Ratio (y) = 0.26909 0.43690
# Poissons Ratio (z) = 0.16355 0.53222
#
# Static dielectric constant tensor:
#      x y z
#    x 1.181560 0.000000 -0.087330 
#    y 0.000000 1.653840 0.000000 
#    z -0.087330 0.000000 1.709320 
# 
# From -- ./inp_files/62322.got.cif
#   From: 2010.05.17/outbox.cif.g08.bks.cpg/sg10_32_cif.got.tgz:62322.got - 2010.06.03 11:33:40.
