data_PCOD9144086
_publ_section_title
;
Structure prediction by ZEFSAII (Michael W. Deem and Ramdas Pophale) SiO2 
 PCOD9144086
Probable space group: P 2/M
;
_chemical_formula_sum "Si O2"
_cell_formula_units_Z 32
_cell_length_a 10.729478
_cell_length_b 18.173395
_cell_length_c 17.087965
_cell_angle_alpha 90.000000
_cell_angle_beta 25.759705
_cell_angle_gamma 90.000000
_cell_volume 1448.079963
_symmetry_space_group_name_H-M "P 2/M"
_symmetry_group_IT_number 10
_symmetry_cell_setting 'monoclinic'
loop_
_space_group_symop_operation_xyz
x,y,z
-x,y,-z
-x,-y,-z
x,-y,z
loop_
_atom_site_type_symbol
_atom_site_label
_atom_site_fract_x
_atom_site_fract_y
_atom_site_fract_z
Si Si1 0.300799 0.763658 0.374640
Si Si2 0.780484 0.880950 0.797248
Si Si3 0.720087 0.416789 0.449402
Si Si4 0.250243 0.233008 0.703488
Si Si5 0.539177 0.919305 0.778586
Si Si6 0.027883 0.731782 0.287025
Si Si7 0.698245 0.351258 0.193034
Si Si8 0.923946 0.918505 0.215363
O O1 0.422148 0.844548 0.291214
O O2 0.229770 0.753994 0.507231
O O3 0.518506 0.696965 0.231967
O O4 0.000000 0.753708 0.500000
O O5 0.779016 0.913960 0.711918
O O6 0.027778 0.902137 0.718930
O O7 0.749433 0.791927 0.804998
O O8 0.500000 0.909502 0.000000
O O9 0.500000 0.406333 0.500000
O O10 0.828460 0.500000 0.383772
O O11 0.974570 0.356030 0.311641
O O12 0.520090 0.404424 0.638544
O O13 0.500000 0.251617 0.500000
O O14 0.980276 0.243803 0.798450
O O15 0.213755 0.287768 0.794717
O O16 0.261383 0.147158 0.715376
O O17 0.556006 0.000000 0.730911
O O18 0.231159 0.915419 0.997089
O O19 0.000000 0.386883 0.000000
O O20 0.806901 0.000000 0.271514
#
# Coordination Sequence:
#
# PCOD9144086 Si02
#       8
#     4   4   4   4   4   4   4   4
#     4  11  21  35  53  82 113 150 193 238 282 337
#     4   9  17  30  51  75 101 146 193 236 281 333
#     4  10  19  36  62  89 115 145 182 227 282 337
#     4  11  18  35  57  78 105 149 195 233 283 337
#     4  10  19  33  48  73 111 150 193 241 288 330
#     4  10  18  35  55  80 113 139 186 235 278 340
#     4  11  22  38  61  87 118 151 188 237 282 337
#     4   9  19  31  48  74 108 145 190 243 292 337
#
# _framework density 22.098227999999999
#
# number of rings (size 3 to 8) (size 9 to 14) (size 15 to 20)
#    0.000    1.875    5.000    1.125    0.000    2.250 
#    0.000    1.250    0.000    8.625    0.000    0.000 
#    0.000    0.000    0.000    0.000    0.000    0.000 
#
# Total GULP energy -178153.928250 kJ/mol
# GULP energy per Si atom -5567.310258 kJ/mol
# Density = 2.204793 g / cm^3
# Si number density = 22.098228 Si / 1000 Ang^3
#
#
#
# Elastic Constant Matrix: (Units=GPa)
#
#
# Indices 1 2 3 4 5 6 
#
# 1 49.4070 10.8804 -3.8112 0.0000 7.0132 0.0000
# 2 10.8804 162.2815 1.1450 0.0000 3.9574 0.0000
# 3 -3.8112 1.1450 39.2221 0.0000 -5.4916 0.0000
# 4 0.0000 0.0000 0.0000 23.1457 0.0000 -3.5376
# 5 7.0132 3.9574 -5.4916 0.0000 17.5740 0.0000
# 6 0.0000 0.0000 0.0000 -3.5376 0.0000 15.9141
#
#
#
# Elastic Compliance Matrix: (Units=1/GPa)
#
#
# Indices 1 2 3 4 5 6 
#
# 1 0.021744 -0.001268 0.001020 0.000000 -0.008073 0.000000
# 2 -0.001268 0.006276 -0.000453 0.000000 -0.001049 0.000000
# 3 0.001020 -0.000453 0.026735 0.000000 0.008050 0.000000
# 4 0.000000 0.000000 0.000000 0.044724 0.000000 0.009942
# 5 -0.008073 -0.001049 0.008050 0.000000 0.062875 0.000000
# 6 0.000000 0.000000 0.000000 0.009942 0.000000 0.065047
#
#
# Mechanical properties :
#
#
# Convention : Reuss Voigt Hill
#
# Bulk Modulus (GPa) = 18.74373 29.70433 24.22403
# Shear Modulus (GPa) = 20.27661 27.50653 23.89157
#
# Velocity S-wave (km/s) = 3.03242 3.53191 3.29166
# Velocity P-wave (km/s) = 4.55645 5.48668 5.04306
#
# Compressibility (1/GPa) = 0.05335118
#
# Stress axis : x y z
#
# Youngs Moduli (GPa) = 45.98985 159.33890 37.40389
#
# Poissons Ratio (x) = 0.20207 -0.03813
# Poissons Ratio (y) = 0.05832 0.01695
# Poissons Ratio (z) = -0.04689 0.07223
#
# Static dielectric constant tensor:
#      x y z
#    x 1.977510 0.000000 -0.076200 
#    y 0.000000 1.825680 0.000000 
#    z -0.076200 0.000000 1.905350 
# 
# From -- ./inp_files/77128.got.cif
#   From: 2010.05.17/outbox.cif.g08.bks.cpg/sg10_39_cif.got.tgz:77128.got - 2010.06.03 11:33:40.
