data_PCOD9144673
_publ_section_title
;
Structure prediction by ZEFSAII (Michael W. Deem and Ramdas Pophale) SiO2 
 PCOD9144673
Probable space group: P 2/M
;
_chemical_formula_sum "Si O2"
_cell_formula_units_Z 32
_cell_length_a 18.433191
_cell_length_b 9.615612
_cell_length_c 10.286776
_cell_angle_alpha 90.000000
_cell_angle_beta 59.089330
_cell_angle_gamma 90.000000
_cell_volume 1564.330319
_symmetry_space_group_name_H-M "P 2/M"
_symmetry_group_IT_number 10
_symmetry_cell_setting 'monoclinic'
loop_
_space_group_symop_operation_xyz
x,y,z
-x,y,-z
-x,-y,-z
x,-y,z
loop_
_atom_site_type_symbol
_atom_site_label
_atom_site_fract_x
_atom_site_fract_y
_atom_site_fract_z
Si Si1 0.310478 0.656782 0.721135
Si Si2 0.599787 0.156529 0.936814
Si Si3 0.453297 0.347547 0.803023
Si Si4 0.774261 0.839552 0.700111
Si Si5 0.996257 0.160785 0.852567
Si Si6 0.797021 0.843436 0.988413
Si Si7 0.070744 0.666683 0.547732
Si Si8 0.426351 0.841471 0.454779
O O1 0.285098 0.500000 0.704109
O O2 0.395134 0.641172 0.729889
O O3 0.243707 0.732516 0.876301
O O4 0.343246 0.760594 0.579703
O O5 0.674141 0.178183 0.763846
O O6 0.615805 0.000000 0.974972
O O7 0.500000 0.158355 0.000000
O O8 0.605533 0.278092 0.035932
O O9 0.483175 0.500000 0.814500
O O10 0.529347 0.245946 0.698774
O O11 0.840299 0.734525 0.576604
O O12 0.798134 0.000000 0.648145
O O13 0.778746 0.822360 0.852817
O O14 0.042682 0.259821 0.707537
O O15 0.027690 0.000000 0.814433
O O16 0.897652 0.160372 0.907863
O O17 0.000000 0.203988 0.000000
O O18 0.767276 0.000000 0.052192
O O19 0.076455 0.500000 0.555796
O O20 0.000000 0.696043 0.500000
O O21 0.500000 0.847038 0.500000
O O22 0.408624 0.000000 0.434545
#
# Coordination Sequence:
#
# PCOD9144673 Si02
#       8
#     4   4   4   4   4   4   4   4
#     4  10  19  30  48  77 110 141 180 233 288 344
#     4  10  21  37  56  80 111 149 195 245 299 354
#     4  10  19  31  49  73 104 140 181 234 293 349
#     4  10  20  36  61  89 117 153 202 255 301 357
#     4  10  22  41  64  91 125 163 202 247 304 368
#     4  10  19  33  57  86 114 150 196 244 297 359
#     4  11  23  38  62  96 130 163 204 255 311 370
#     4   9  17  29  47  70  99 136 179 227 276 331
#
# _framework density 20.456040000000002
#
# number of rings (size 3 to 8) (size 9 to 14) (size 15 to 20)
#    0.000    2.000    2.500    1.500    0.000    5.000 
#    0.000    1.250    0.000    3.000    0.000    0.000 
#    0.000    0.000    0.000    0.000    0.000    0.000 
#
# Total GULP energy -178459.436933 kJ/mol
# GULP energy per Si atom -5576.857404 kJ/mol
# Density = 2.040948 g / cm^3
# Si number density = 20.456040 Si / 1000 Ang^3
#
#
#
# Elastic Constant Matrix: (Units=GPa)
#
#
# Indices 1 2 3 4 5 6 
#
# 1 61.6682 20.9157 25.9165 0.0000 -11.1590 0.0000
# 2 20.9157 170.0223 101.5669 0.0000 -12.5110 0.0000
# 3 25.9165 101.5669 133.5437 0.0000 -16.6435 0.0000
# 4 0.0000 0.0000 0.0000 79.8651 0.0000 -18.2420
# 5 -11.1590 -12.5110 -16.6435 0.0000 25.1792 0.0000
# 6 0.0000 0.0000 0.0000 -18.2420 0.0000 16.6449
#
#
#
# Elastic Compliance Matrix: (Units=1/GPa)
#
#
# Indices 1 2 3 4 5 6 
#
# 1 0.018553 -0.000251 -0.002616 0.000000 0.006368 0.000000
# 2 -0.000251 0.010782 -0.008171 0.000000 -0.000155 0.000000
# 3 -0.002616 -0.008171 0.014777 0.000000 0.004548 0.000000
# 4 0.000000 0.000000 0.000000 0.016702 0.000000 0.018305
# 5 0.006368 -0.000155 0.004548 0.000000 0.045467 0.000000
# 6 0.000000 0.000000 0.000000 0.018305 0.000000 0.080139
#
#
# Mechanical properties :
#
#
# Convention : Reuss Voigt Hill
#
# Bulk Modulus (GPa) = 45.37974 73.55915 59.46945
# Shear Modulus (GPa) = 23.16511 38.79352 30.97931
#
# Velocity S-wave (km/s) = 3.36882 4.35953 3.89579
# Velocity P-wave (km/s) = 6.11262 7.83443 7.02647
#
# Compressibility (1/GPa) = 0.02203626
#
# Stress axis : x y z
#
# Youngs Moduli (GPa) = 53.90062 92.74513 67.67175
#
# Poissons Ratio (x) = 0.02328 0.17702
# Poissons Ratio (y) = 0.01353 0.55295
# Poissons Ratio (z) = 0.14100 0.75782
#
# Static dielectric constant tensor:
#      x y z
#    x 1.824180 0.000000 0.035270 
#    y 0.000000 1.730340 0.000000 
#    z 0.035270 0.000000 1.715230 
# 
# From -- ./inp_files/55199.got.cif
#   From: 2010.05.17/outbox.cif.g08.bks.cpg/sg10_28_cif.got.tgz:55199.got - 2010.06.03 11:33:40.
