data_PCOD9144042
_publ_section_title
;
Structure prediction by ZEFSAII (Michael W. Deem and Ramdas Pophale) SiO2 
 PCOD9144042
Probable space group: P 2/M
;
_chemical_formula_sum "Si O2"
_cell_formula_units_Z 24
_cell_length_a 25.149500
_cell_length_b 7.728276
_cell_length_c 12.206721
_cell_angle_alpha 90.000000
_cell_angle_beta 25.819948
_cell_angle_gamma 90.000000
_cell_volume 1033.340753
_symmetry_space_group_name_H-M "P 2/M"
_symmetry_group_IT_number 10
_symmetry_cell_setting 'monoclinic'
loop_
_space_group_symop_operation_xyz
x,y,z
-x,y,-z
-x,-y,-z
x,-y,z
loop_
_atom_site_type_symbol
_atom_site_label
_atom_site_fract_x
_atom_site_fract_y
_atom_site_fract_z
Si Si1 0.281386 0.210659 0.618347
Si Si2 0.008827 0.791643 0.111106
Si Si3 0.863256 0.805159 0.764531
Si Si4 0.792699 0.309545 0.670168
Si Si5 0.377578 0.212295 0.664313
Si Si6 0.642761 0.802297 0.756552
O O1 0.371636 0.264366 0.547672
O O2 0.302644 0.276398 0.455884
O O3 0.290972 0.000000 0.592896
O O4 0.142726 0.252873 0.906285
O O5 0.904517 0.712749 0.378904
O O6 0.996092 0.000000 0.138242
O O7 0.000000 0.740512 0.000000
O O8 0.810465 0.813632 0.739542
O O9 0.000000 0.725923 0.500000
O O10 0.884157 0.000000 0.770975
O O11 0.750771 0.729808 0.043114
O O12 0.792705 0.500000 0.718573
O O13 0.676748 0.283594 0.807500
O O14 0.500000 0.269237 0.500000
O O15 0.377084 0.000000 0.669733
O O16 0.689819 0.000000 0.679310
O O17 0.500000 0.806914 0.000000
#
# Coordination Sequence:
#
# PCOD9144042 Si02
#       6
#     4   4   4   4   4   4
#     4   9  17  32  55  86 117 144 181 241 302 346
#     4  10  18  34  59  84 113 147 192 243 290 345
#     4  10  21  39  63  88 116 154 204 254 301 352
#     4  12  25  38  57  86 125 160 195 240 297 368
#     4   9  18  31  54  88 117 142 184 248 305 348
#     4  10  21  37  61  89 116 153 201 247 295 351
#
# _framework density 23.225641
#
# number of rings (size 3 to 8) (size 9 to 14) (size 15 to 20)
#    0.000    2.000    1.667    2.500    2.333    3.667 
#    0.000    0.000    0.000    1.500    0.000    0.000 
#    0.000    0.000    0.000    0.000    0.000    0.000 
#
# Total GULP energy -134039.894488 kJ/mol
# GULP energy per Si atom -5584.995604 kJ/mol
# Density = 2.317278 g / cm^3
# Si number density = 23.225641 Si / 1000 Ang^3
#
#
#
# Elastic Constant Matrix: (Units=GPa)
#
#
# Indices 1 2 3 4 5 6 
#
# 1 131.9551 1.7618 14.1392 0.0000 -14.3430 0.0000
# 2 1.7618 47.9977 -1.5793 0.0000 -1.6867 0.0000
# 3 14.1392 -1.5793 64.5938 0.0000 -10.6429 0.0000
# 4 0.0000 0.0000 0.0000 0.0572 0.0000 -13.3434
# 5 -14.3430 -1.6867 -10.6429 0.0000 39.0567 0.0000
# 6 0.0000 0.0000 0.0000 -13.3434 0.0000 -9.4932
#
#
#
# Elastic Compliance Matrix: (Units=1/GPa)
#
#
# Indices 1 2 3 4 5 6 
#
# 1 0.008003 -0.000248 -0.001335 0.000000 0.002565 0.000000
# 2 -0.000248 0.020903 0.000732 0.000000 0.001011 0.000000
# 3 -0.001335 0.000732 0.016455 0.000000 0.004025 0.000000
# 4 0.000000 0.000000 0.000000 0.053156 0.000000 -0.074716
# 5 0.002565 0.001011 0.004025 0.000000 0.027686 0.000000
# 6 0.000000 0.000000 0.000000 -0.074716 0.000000 -0.000320
#
#
# Mechanical properties :
#
#
# Convention : Reuss Voigt Hill
#
# Bulk Modulus (GPa) = 22.90476 30.35445 26.62960
# Shear Modulus (GPa) = 35.17693 21.27249 28.22471
#
# Velocity S-wave (km/s) = 3.89597 3.02968 3.48981
# Velocity P-wave (km/s) = 5.48830 5.03352 5.26582
#
# Compressibility (1/GPa) = 0.04365904
#
# Stress axis : x y z
#
# Youngs Moduli (GPa) = 124.94549 47.83998 60.77265
#
# Poissons Ratio (x) = 0.01185 0.08116
# Poissons Ratio (y) = 0.03094 -0.04448
# Poissons Ratio (z) = 0.16685 -0.03501
#
# Static dielectric constant tensor:
#      x y z
#    x 1.852970 0.000000 -0.006630 
#    y 0.000000 1.941410 0.000000 
#    z -0.006630 0.000000 1.872230 
# 
# From -- ./inp_files/56545.got.cif
#   From: 2010.05.17/outbox.cif.g08.bks.cpg/sg10_29_cif.got.tgz:56545.got - 2010.06.03 11:33:40.
