data_PCOD9144745
_publ_section_title
;
Structure prediction by ZEFSAII (Michael W. Deem and Ramdas Pophale) SiO2 
 PCOD9144745
Probable space group: P 2/M
;
_chemical_formula_sum "Si O2"
_cell_formula_units_Z 32
_cell_length_a 24.427359
_cell_length_b 9.184619
_cell_length_c 17.725338
_cell_angle_alpha 90.000000
_cell_angle_beta 27.441482
_cell_angle_gamma 90.000000
_cell_volume 1832.671616
_symmetry_space_group_name_H-M "P 2/M"
_symmetry_group_IT_number 10
_symmetry_cell_setting 'monoclinic'
loop_
_space_group_symop_operation_xyz
x,y,z
-x,y,-z
-x,-y,-z
x,-y,z
loop_
_atom_site_type_symbol
_atom_site_label
_atom_site_fract_x
_atom_site_fract_y
_atom_site_fract_z
Si Si1 0.869864 0.673240 0.787819
Si Si2 0.392849 0.172649 0.469964
Si Si3 0.356809 0.666815 0.663097
Si Si4 0.314458 0.173809 0.400767
Si Si5 0.470416 0.669498 0.947200
Si Si6 0.899273 0.172586 0.445575
Si Si7 0.646715 0.674779 0.166239
Si Si8 0.780512 0.827315 0.753971
O O1 0.879275 0.500000 0.766570
O O2 0.862414 0.752974 0.716645
O O3 0.981330 0.734963 0.697298
O O4 0.747944 0.705393 0.981703
O O5 0.334759 0.237123 0.616713
O O6 0.319271 0.202027 0.484032
O O7 0.522836 0.245542 0.301642
O O8 0.408090 0.000000 0.459439
O O9 0.500000 0.667778 0.500000
O O10 0.320771 0.500000 0.693156
O O11 0.310119 0.715733 0.801923
O O12 0.421635 0.259653 0.230392
O O13 0.191373 0.211608 0.510377
O O14 0.333358 0.000000 0.365793
O O15 0.455107 0.500000 0.944964
O O16 0.500000 0.677419 0.000000
O O17 0.349176 0.755912 0.081347
O O18 0.830768 0.196817 0.608592
O O19 0.926569 0.000000 0.407408
O O20 0.625029 0.500000 0.194294
O O21 0.774396 0.000000 0.774527
#
# Coordination Sequence:
#
# PCOD9144745 Si02
#       8
#     4   4   4   4   4   4   4   4
#     4  11  23  37  55  78 104 131 172 227 267 299
#     4  10  19  30  51  83 109 130 166 211 252 298
#     4   8  15  30  51  73 103 139 166 195 249 314
#     4  10  21  37  54  74 105 144 177 209 255 315
#     4  11  22  34  52  79 107 133 169 218 263 300
#     4  10  22  39  55  71  98 140 183 215 253 311
#     4   9  19  35  52  74 106 140 167 199 255 317
#     4  11  22  37  57  76 101 139 179 213 258 318
#
# _framework density 17.460847000000001
#
# number of rings (size 3 to 8) (size 9 to 14) (size 15 to 20)
#    0.000    2.000    1.250    3.375    0.000    9.750 
#    0.000    0.000    0.000    0.750    0.000    5.250 
#    0.000    0.000    0.000    0.000    0.000    0.000 
#
# Total GULP energy -178650.577445 kJ/mol
# GULP energy per Si atom -5582.830545 kJ/mol
# Density = 1.742111 g / cm^3
# Si number density = 17.460847 Si / 1000 Ang^3
#
#
#
# Elastic Constant Matrix: (Units=GPa)
#
#
# Indices 1 2 3 4 5 6 
#
# 1 131.3610 59.0527 38.9253 0.0000 6.2758 0.0000
# 2 59.0527 55.8554 28.2166 0.0000 2.0690 0.0000
# 3 38.9253 28.2166 31.3397 0.0000 -5.4072 0.0000
# 4 0.0000 0.0000 0.0000 23.2797 0.0000 7.8918
# 5 6.2758 2.0690 -5.4072 0.0000 22.5640 0.0000
# 6 0.0000 0.0000 0.0000 7.8918 0.0000 -1.0220
#
#
#
# Elastic Compliance Matrix: (Units=1/GPa)
#
#
# Indices 1 2 3 4 5 6 
#
# 1 0.016322 -0.011473 -0.011000 0.000000 -0.006124 0.000000
# 2 -0.011473 0.043493 -0.026126 0.000000 -0.007058 0.000000
# 3 -0.011000 -0.026126 0.073055 0.000000 0.022962 0.000000
# 4 0.000000 0.000000 0.000000 0.011874 0.000000 0.091687
# 5 -0.006124 -0.007058 0.022962 0.000000 0.052171 0.000000
# 6 0.000000 0.000000 0.000000 0.091687 0.000000 -0.270464
#
#
# Mechanical properties :
#
#
# Convention : Reuss Voigt Hill
#
# Bulk Modulus (GPa) = 28.03330 52.32723 40.18026
# Shear Modulus (GPa) = 140.68142 15.12177 77.90159
#
# Velocity S-wave (km/s) = 8.98580 2.94605 6.68669
# Velocity P-wave (km/s) = 11.12426 6.45024 9.09271
#
# Compressibility (1/GPa) = 0.03567186
#
# Stress axis : x y z
#
# Youngs Moduli (GPa) = 61.26571 22.99229 13.68825
#
# Poissons Ratio (x) = 0.26379 0.15057
# Poissons Ratio (y) = 0.70290 0.35762
# Poissons Ratio (z) = 0.67392 0.60071
#
# Static dielectric constant tensor:
#      x y z
#    x 1.611760 0.000000 0.017980 
#    y 0.000000 1.582660 0.000000 
#    z 0.017980 0.000000 1.570280 
# 
# From -- ./inp_files/79936.got.cif
#   From: 2010.05.17/outbox.cif.g08.bks.cpg/sg10_40_cif.got.tgz:79936.got - 2010.06.03 11:33:40.
