data_PCOD9144157
_publ_section_title
;
Structure prediction by ZEFSAII (Michael W. Deem and Ramdas Pophale) SiO2 
 PCOD9144157
Probable space group: P 2/M
;
_chemical_formula_sum "Si O2"
_cell_formula_units_Z 32
_cell_length_a 9.368417
_cell_length_b 23.612898
_cell_length_c 15.661984
_cell_angle_alpha 90.000000
_cell_angle_beta 29.659994
_cell_angle_gamma 90.000000
_cell_volume 1714.500608
_symmetry_space_group_name_H-M "P 2/M"
_symmetry_group_IT_number 10
_symmetry_cell_setting 'monoclinic'
loop_
_space_group_symop_operation_xyz
x,y,z
-x,y,-z
-x,-y,-z
x,-y,z
loop_
_atom_site_type_symbol
_atom_site_label
_atom_site_fract_x
_atom_site_fract_y
_atom_site_fract_z
Si Si1 0.151955 0.640984 0.673868
Si Si2 0.832330 0.565177 0.174716
Si Si3 0.748485 0.061961 0.815625
Si Si4 0.797925 0.161442 0.682860
Si Si5 0.840564 0.760257 0.824807
Si Si6 0.103733 0.835713 0.037081
Si Si7 0.242315 0.064193 0.696610
Si Si8 0.855057 0.433560 0.485623
O O1 0.500000 0.644041 0.500000
O O2 0.067488 0.607987 0.804141
O O3 0.059927 0.604041 0.639645
O O4 0.020451 0.702861 0.732510
O O5 0.874831 0.500000 0.181926
O O6 0.492386 0.571399 0.331291
O O7 0.000000 0.573775 0.000000
O O8 0.863940 0.097654 0.678006
O O9 0.992064 0.056370 0.758237
O O10 0.638534 0.000000 0.846310
O O11 0.500000 0.093214 0.000000
O O12 0.876341 0.201239 0.722141
O O13 0.000000 0.178119 0.500000
O O14 0.452360 0.158243 0.847060
O O15 0.925658 0.795987 0.864648
O O16 0.500000 0.746422 0.000000
O O17 0.901438 0.891359 0.162012
O O18 0.000000 0.811984 0.000000
O O19 0.500000 0.085295 0.500000
O O20 0.315971 0.000000 0.691754
O O21 0.925205 0.500000 0.435318
O O22 0.000000 0.416358 0.500000
#
# Coordination Sequence:
#
# PCOD9144157 Si02
#       8
#     4   4   4   4   4   4   4   4
#     4  10  21  36  59  84 110 149 194 231 279 339
#     4   9  18  34  56  84 118 151 185 229 278 332
#     4  10  18  36  63  84 113 153 187 228 282 342
#     4  11  23  40  61  86 111 147 194 236 286 344
#     4  10  23  44  59  78 114 150 190 242 288 330
#     4  11  24  40  61  85 113 149 190 237 288 342
#     4  10  21  37  60  88 120 152 182 228 288 343
#     4   9  18  34  56  84 118 151 186 230 278 331
#
# _framework density 18.664325000000002
#
# number of rings (size 3 to 8) (size 9 to 14) (size 15 to 20)
#    0.000    2.000    2.500    0.750    1.750    5.500 
#    0.000    5.000    0.000    3.750    0.000    0.000 
#    0.000    0.000    0.000    0.000    0.000    0.000 
#
# Total GULP energy -178228.718168 kJ/mol
# GULP energy per Si atom -5569.647443 kJ/mol
# Density = 1.862184 g / cm^3
# Si number density = 18.664325 Si / 1000 Ang^3
#
#
#
# Elastic Constant Matrix: (Units=GPa)
#
#
# Indices 1 2 3 4 5 6 
#
# 1 109.7528 48.1243 25.1171 0.0000 16.8121 0.0000
# 2 48.1243 87.5863 34.0759 0.0000 11.9607 0.0000
# 3 25.1171 34.0759 79.4775 0.0000 17.0435 0.0000
# 4 0.0000 0.0000 0.0000 18.7183 0.0000 -13.7890
# 5 16.8121 11.9607 17.0435 0.0000 16.8560 0.0000
# 6 0.0000 0.0000 0.0000 -13.7890 0.0000 13.9303
#
#
#
# Elastic Compliance Matrix: (Units=1/GPa)
#
#
# Indices 1 2 3 4 5 6 
#
# 1 0.013097 -0.006119 0.000453 0.000000 -0.009179 0.000000
# 2 -0.006119 0.016877 -0.005162 0.000000 -0.000653 0.000000
# 3 0.000453 -0.005162 0.017830 0.000000 -0.014817 0.000000
# 4 0.000000 0.000000 0.000000 0.197274 0.000000 0.195273
# 5 -0.009179 -0.000653 -0.014817 0.000000 0.083926 0.000000
# 6 0.000000 0.000000 0.000000 0.195273 0.000000 0.265079
#
#
# Mechanical properties :
#
#
# Convention : Reuss Voigt Hill
#
# Bulk Modulus (GPa) = 38.24524 54.60569 46.42546
# Shear Modulus (GPa) = 8.00700 21.20087 14.60394
#
# Velocity S-wave (km/s) = 2.07348 3.37397 2.80027
# Velocity P-wave (km/s) = 5.12523 6.67072 5.94838
#
# Compressibility (1/GPa) = 0.02614704
#
# Stress axis : x y z
#
# Youngs Moduli (GPa) = 76.35519 59.25304 56.08605
#
# Poissons Ratio (x) = 0.36255 -0.02540
# Poissons Ratio (y) = 0.46719 0.28953
# Poissons Ratio (z) = -0.03457 0.30587
#
# Static dielectric constant tensor:
#      x y z
#    x 2.221700 0.000000 -1.757080 
#    y 0.000000 1.672370 0.000000 
#    z -1.757080 0.000000 6.867590 
# 
# From -- ./inp_files/62687.got.cif
#   From: 2010.05.17/outbox.cif.g08.bks.cpg/sg10_32_cif.got.tgz:62687.got - 2010.06.03 11:33:40.
