data_PCOD9144393
_publ_section_title
;
Structure prediction by ZEFSAII (Michael W. Deem and Ramdas Pophale) SiO2 
 PCOD9144393
Probable space group: P 2/M
;
_chemical_formula_sum "Si O2"
_cell_formula_units_Z 28
_cell_length_a 15.064572
_cell_length_b 7.322300
_cell_length_c 18.807175
_cell_angle_alpha 90.000000
_cell_angle_beta 32.849707
_cell_angle_gamma 90.000000
_cell_volume 1125.323477
_symmetry_space_group_name_H-M "P 2/M"
_symmetry_group_IT_number 10
_symmetry_cell_setting 'monoclinic'
loop_
_space_group_symop_operation_xyz
x,y,z
-x,y,-z
-x,-y,-z
x,-y,z
loop_
_atom_site_type_symbol
_atom_site_label
_atom_site_fract_x
_atom_site_fract_y
_atom_site_fract_z
Si Si1 0.379470 0.222478 0.760844
Si Si2 0.954382 0.280721 0.418199
Si Si3 0.295965 0.787898 0.527567
Si Si4 0.186287 0.222901 0.750204
Si Si5 0.415755 0.792094 0.987975
Si Si6 0.742002 0.279306 0.697141
Si Si7 0.184332 0.223623 0.029602
O O1 0.561896 0.287056 0.618737
O O2 0.265672 0.276884 0.771007
O O3 0.302689 0.284094 0.886254
O O4 0.378951 0.000000 0.764949
O O5 0.955655 0.500000 0.417723
O O6 0.877519 0.221701 0.395728
O O7 0.830035 0.221757 0.564958
O O8 0.134661 0.223060 0.321991
O O9 0.284352 0.712663 0.614672
O O10 0.337871 0.000000 0.508695
O O11 0.187755 0.000000 0.748899
O O12 0.999102 0.279036 0.865207
O O13 0.562082 0.793859 0.831693
O O14 0.258593 0.712043 0.054577
O O15 0.374035 0.000000 0.036010
O O16 0.500000 0.703692 0.000000
O O17 0.733650 0.500000 0.702205
O O18 0.186254 0.000000 0.030618
#
# Coordination Sequence:
#
# PCOD9144393 Si02
#       7
#     4   4   4   4   4   4   4
#     4   9  16  28  46  70  99 131 169 210 246 290
#     4   9  19  35  53  73  99 133 170 210 252 299
#     4  10  19  29  49  78 104 126 160 209 259 304
#     4   9  17  28  45  70 101 133 166 206 250 296
#     4  10  21  33  49  75 109 137 162 206 259 303
#     4   9  19  36  54  71  96 133 177 213 244 294
#     4   9  17  29  45  67  99 138 170 197 246 308
#
# _framework density 24.881733000000001
#
# number of rings (size 3 to 8) (size 9 to 14) (size 15 to 20)
#    0.000    2.714    0.000    2.571    2.000    6.000 
#    0.000    1.429    0.000    1.714    0.000    0.000 
#    0.000    5.714    0.000    0.000    0.000    0.000 
#
# Total GULP energy -156594.104257 kJ/mol
# GULP energy per Si atom -5592.646581 kJ/mol
# Density = 2.482510 g / cm^3
# Si number density = 24.881733 Si / 1000 Ang^3
#
#
#
# Elastic Constant Matrix: (Units=GPa)
#
#
# Indices 1 2 3 4 5 6 
#
# 1 135.5129 -2.2318 9.1382 0.0000 -20.0227 0.0000
# 2 -2.2318 102.8332 1.0145 0.0000 5.4308 0.0000
# 3 9.1382 1.0145 71.9704 0.0000 -13.6537 0.0000
# 4 0.0000 0.0000 0.0000 79.7128 0.0000 -122.7502
# 5 -20.0227 5.4308 -13.6537 0.0000 36.0988 0.0000
# 6 0.0000 0.0000 0.0000 -122.7502 0.0000 176.2703
#
#
#
# Elastic Compliance Matrix: (Units=1/GPa)
#
#
# Indices 1 2 3 4 5 6 
#
# 1 0.008041 -0.000056 -0.000186 0.000000 0.004398 0.000000
# 2 -0.000056 0.009816 -0.000450 0.000000 -0.001678 0.000000
# 3 -0.000186 -0.000450 0.014994 0.000000 0.005636 0.000000
# 4 0.000000 0.000000 0.000000 -0.173388 0.000000 -0.120743
# 5 0.004398 -0.001678 0.005636 0.000000 0.032525 0.000000
# 6 0.000000 0.000000 0.000000 -0.120743 0.000000 -0.078409
#
#
# Mechanical properties :
#
#
# Convention : Reuss Voigt Hill
#
# Bulk Modulus (GPa) = 31.77812 36.23984 34.00898
# Shear Modulus (GPa) = -28.64525 78.57607 24.96541
#
# Velocity S-wave (km/s) = -3.39670 5.62569 3.17103
# Velocity P-wave (km/s) = 1.60749 7.53620 5.20626
#
# Compressibility (1/GPa) = 0.03146820
#
# Stress axis : x y z
#
# Youngs Moduli (GPa) = 124.36544 101.87123 66.69472
#
# Poissons Ratio (x) = 0.00570 0.01239
# Poissons Ratio (y) = 0.00696 0.02999
# Poissons Ratio (z) = 0.02311 0.04580
#
# Static dielectric constant tensor:
#      x y z
#    x 1.933400 0.000000 0.011850 
#    y 0.000000 1.952380 0.000000 
#    z 0.011850 0.000000 1.934430 
# 
# From -- ./inp_files/28215.got.cif
#   From: 2010.05.17/outbox.cif.g08.bks.cpg/sg10_15_cif.got.tgz:28215.got - 2010.06.03 11:33:40.
