data_PCOD9144533
_publ_section_title
;
Structure prediction by ZEFSAII (Michael W. Deem and Ramdas Pophale) SiO2 
 PCOD9144533
Probable space group: P 2/M
;
_chemical_formula_sum "Si O2"
_cell_formula_units_Z 28
_cell_length_a 23.942454
_cell_length_b 7.420198
_cell_length_c 20.332749
_cell_angle_alpha 90.000000
_cell_angle_beta 19.943407
_cell_angle_gamma 90.000000
_cell_volume 1232.115858
_symmetry_space_group_name_H-M "P 2/M"
_symmetry_group_IT_number 10
_symmetry_cell_setting 'monoclinic'
loop_
_space_group_symop_operation_xyz
x,y,z
-x,y,-z
-x,-y,-z
x,-y,z
loop_
_atom_site_type_symbol
_atom_site_label
_atom_site_fract_x
_atom_site_fract_y
_atom_site_fract_z
Si Si1 0.402835 0.294386 0.169133
Si Si2 0.222869 0.790117 0.073605
Si Si3 0.042014 0.218733 0.527704
Si Si4 0.306421 0.282299 0.700470
Si Si5 0.589423 0.703648 0.694460
Si Si6 0.634256 0.279765 0.504972
Si Si7 0.745102 0.716771 0.102918
O O1 0.468380 0.500000 0.103919
O O2 0.215699 0.295070 0.355390
O O3 0.407152 0.210229 0.237177
O O4 0.500000 0.211011 0.000000
O O5 0.094482 0.723470 0.269046
O O6 0.254020 0.000000 0.052436
O O7 0.397402 0.695566 0.888365
O O8 0.161949 0.774215 0.065762
O O9 0.000000 0.269926 0.500000
O O10 0.052116 0.000000 0.519231
O O11 0.500000 0.246541 0.500000
O O12 0.290418 0.500000 0.716635
O O13 0.269279 0.220208 0.667329
O O14 0.213452 0.219216 0.869174
O O15 0.655694 0.500000 0.628786
O O16 0.673181 0.782908 0.535918
O O17 0.640259 0.500000 0.500370
O O18 0.444619 0.229800 0.700412
O O19 0.750398 0.500000 0.098294
#
# Coordination Sequence:
#
# PCOD9144533 Si02
#       7
#     4   4   4   4   4   4   4
#     4  10  21  35  52  76 100 120 148 189 236 281
#     4  10  19  30  46  69  95 123 157 194 229 269
#     4  10  22  38  53  70  93 124 160 191 223 270
#     4   7   9  15  31  56  83 113 150 186 221 264
#     4   9  17  30  48  70  96 125 155 188 231 280
#     4   7  10  18  35  59  86 116 150 186 222 264
#     4   8  13  22  38  60  87 119 152 187 230 274
#
# _framework density 22.725135999999999
#
# number of rings (size 3 to 8) (size 9 to 14) (size 15 to 20)
#    0.000    3.286    0.000    3.857    0.000    2.286 
#    0.000    0.000    0.000   10.714    0.000    1.000 
#    0.000    8.000    0.000    0.000    0.000    0.000 
#
# Total GULP energy -155971.995532 kJ/mol
# GULP energy per Si atom -5570.428412 kJ/mol
# Density = 2.267341 g / cm^3
# Si number density = 22.725136 Si / 1000 Ang^3
#
#
#
# Elastic Constant Matrix: (Units=GPa)
#
#
# Indices 1 2 3 4 5 6 
#
# 1 232.5403 5.6191 60.4861 0.0000 73.3173 0.0000
# 2 5.6191 73.5137 -3.9967 0.0000 3.7272 0.0000
# 3 60.4861 -3.9967 42.5376 0.0000 30.6262 0.0000
# 4 0.0000 0.0000 0.0000 10.0951 0.0000 -1.8436
# 5 73.3173 3.7272 30.6262 0.0000 43.7622 0.0000
# 6 0.0000 0.0000 0.0000 -1.8436 0.0000 4.0868
#
#
#
# Elastic Compliance Matrix: (Units=1/GPa)
#
#
# Indices 1 2 3 4 5 6 
#
# 1 0.009466 -0.000299 -0.004209 0.000000 -0.012887 0.000000
# 2 -0.000299 0.014068 0.004533 0.000000 -0.003870 0.000000
# 3 -0.004209 0.004533 0.050633 0.000000 -0.028769 0.000000
# 4 0.000000 0.000000 0.000000 0.107952 0.000000 0.048699
# 5 -0.012887 -0.003870 -0.028769 0.000000 0.064904 0.000000
# 6 0.000000 0.000000 0.000000 0.048699 0.000000 0.266658
#
#
# Mechanical properties :
#
#
# Convention : Reuss Voigt Hill
#
# Bulk Modulus (GPa) = 13.47413 52.53429 33.00421
# Shear Modulus (GPa) = 9.28731 30.68768 19.98749
#
# Velocity S-wave (km/s) = 2.02378 3.67874 2.96891
# Velocity P-wave (km/s) = 3.37682 6.41963 5.12906
#
# Compressibility (1/GPa) = 0.07421629
#
# Stress axis : x y z
#
# Youngs Moduli (GPa) = 105.64674 71.08123 19.75012
#
# Poissons Ratio (x) = 0.02125 0.08313
# Poissons Ratio (y) = 0.03159 -0.08953
# Poissons Ratio (z) = 0.44469 -0.32222
#
# Static dielectric constant tensor:
#      x y z
#    x 1.916130 0.000000 0.077930 
#    y 0.000000 1.875560 0.000000 
#    z 0.077930 0.000000 1.839120 
# 
# From -- ./inp_files/86450.got.cif
#   From: 2010.05.17/outbox.cif.g08.bks.cpg/sg10_44_cif.got.tgz:86450.got - 2010.06.03 11:33:40.
