data_PCOD9144138
_publ_section_title
;
Structure prediction by ZEFSAII (Michael W. Deem and Ramdas Pophale) SiO2 
 PCOD9144138
Probable space group: P 2/M
;
_chemical_formula_sum "Si O2"
_cell_formula_units_Z 30
_cell_length_a 11.328561
_cell_length_b 12.500189
_cell_length_c 19.252275
_cell_angle_alpha 90.000000
_cell_angle_beta 142.760168
_cell_angle_gamma 90.000000
_cell_volume 1649.826862
_symmetry_space_group_name_H-M "P 2/M"
_symmetry_group_IT_number 10
_symmetry_cell_setting 'monoclinic'
loop_
_space_group_symop_operation_xyz
x,y,z
-x,y,-z
-x,-y,-z
x,-y,z
loop_
_atom_site_type_symbol
_atom_site_label
_atom_site_fract_x
_atom_site_fract_y
_atom_site_fract_z
Si Si1 0.822564 0.256695 0.365110
Si Si2 0.488730 0.122545 0.570468
Si Si3 0.466862 0.621778 0.859493
Si Si4 0.900701 0.876016 0.135496
Si Si5 0.835758 0.736564 0.975225
Si Si6 0.034707 0.120861 0.348388
Si Si7 0.500000 0.215501 0.000000
Si Si8 0.458118 0.128864 0.254236
O O1 0.693941 0.353650 0.274781
O O2 0.915435 0.197039 0.342452
O O3 0.665287 0.177460 0.327091
O O4 0.000000 0.283371 0.500000
O O5 0.500000 0.175683 0.500000
O O6 0.581524 0.164861 0.684655
O O7 0.257912 0.118221 0.476797
O O8 0.564198 0.000000 0.597543
O O9 0.455320 0.500000 0.877860
O O10 0.680609 0.649411 0.929068
O O11 0.436902 0.706465 0.907709
O O12 0.026391 0.850527 0.262983
O O13 0.678235 0.855847 0.056566
O O14 0.930738 0.000000 0.130328
O O15 0.929620 0.796971 0.084945
O O16 0.705034 0.824470 0.873168
O O17 0.000000 0.695509 0.000000
O O18 0.953916 0.000000 0.315307
O O19 0.463693 0.000000 0.255261
#
# Coordination Sequence:
#
# PCOD9144138 Si02
#       8
#     4   4   4   4   4   4   2   4
#     4  11  20  34  54  79 110 136 175 221 272 327
#     4   9  18  30  45  68 100 143 187 213 240 289
#     4  10  22  39  59  80 101 132 179 237 290 328
#     4  10  20  32  51  79 113 145 173 206 251 314
#     4  10  23  38  53  77 107 144 188 224 271 318
#     4  10  19  31  50  75 107 147 179 209 250 311
#     4  10  18  36  56  78 106 136 170 216 266 324
#     4  10  20  32  49  75 110 147 178 214 257 312
#
# _framework density 18.183724999999999
#
# number of rings (size 3 to 8) (size 9 to 14) (size 15 to 20)
#    0.000    2.000    2.667    1.200    1.867    2.133 
#    0.000    0.000    0.000    0.000    0.000    0.000 
#    0.000    4.267    0.000    0.000    0.000    0.000 
#
# Total GULP energy -167337.668809 kJ/mol
# GULP energy per Si atom -5577.922294 kJ/mol
# Density = 1.814234 g / cm^3
# Si number density = 18.183725 Si / 1000 Ang^3
#
#
#
# Elastic Constant Matrix: (Units=GPa)
#
#
# Indices 1 2 3 4 5 6 
#
# 1 60.8804 -2.1319 2.5355 0.0000 -4.9142 0.0000
# 2 -2.1319 32.2995 12.3683 0.0000 -1.0398 0.0000
# 3 2.5355 12.3683 99.7806 0.0000 -10.0084 0.0000
# 4 0.0000 0.0000 0.0000 8.9458 0.0000 -1.3532
# 5 -4.9142 -1.0398 -10.0084 0.0000 29.9319 0.0000
# 6 0.0000 0.0000 0.0000 -1.3532 0.0000 6.0356
#
#
#
# Elastic Compliance Matrix: (Units=1/GPa)
#
#
# Indices 1 2 3 4 5 6 
#
# 1 0.016701 0.001310 -0.000318 0.000000 0.002681 0.000000
# 2 0.001310 0.032607 -0.004077 0.000000 -0.000015 0.000000
# 3 -0.000318 -0.004077 0.010881 0.000000 0.003444 0.000000
# 4 0.000000 0.000000 0.000000 0.115709 0.000000 0.025942
# 5 0.002681 -0.000015 0.003444 0.000000 0.035001 0.000000
# 6 0.000000 0.000000 0.000000 0.025942 0.000000 0.171500
#
#
# Mechanical properties :
#
#
# Convention : Reuss Voigt Hill
#
# Bulk Modulus (GPa) = 18.51133 24.27827 21.39480
# Shear Modulus (GPa) = 12.29789 20.99523 16.64656
#
# Velocity S-wave (km/s) = 2.60342 3.40165 3.02895
# Velocity P-wave (km/s) = 4.38627 5.36740 4.90144
#
# Compressibility (1/GPa) = 0.05402097
#
# Stress axis : x y z
#
# Youngs Moduli (GPa) = 59.87593 30.66804 91.90431
#
# Poissons Ratio (x) = -0.04019 0.02921
# Poissons Ratio (y) = -0.07846 0.37466
# Poissons Ratio (z) = 0.01903 0.12502
#
# Static dielectric constant tensor:
#      x y z
#    x 1.655070 0.000000 -0.005490 
#    y 0.000000 1.565370 0.000000 
#    z -0.005490 0.000000 1.657040 
# 
# From -- ./inp_files/46757.got.cif
#   From: 2010.05.17/outbox.cif.g08.bks.cpg/sg10_24_cif.got.tgz:46757.got - 2010.06.03 11:33:40.
