data_PCOD9144802
_publ_section_title
;
Structure prediction by ZEFSAII (Michael W. Deem and Ramdas Pophale) SiO2 
 PCOD9144802
Probable space group: P 2/M
;
_chemical_formula_sum "Si O2"
_cell_formula_units_Z 30
_cell_length_a 12.507631
_cell_length_b 29.313132
_cell_length_c 14.554908
_cell_angle_alpha 90.000000
_cell_angle_beta 20.377536
_cell_angle_gamma 90.000000
_cell_volume 1858.151745
_symmetry_space_group_name_H-M "P 2/M"
_symmetry_group_IT_number 10
_symmetry_cell_setting 'monoclinic'
loop_
_space_group_symop_operation_xyz
x,y,z
-x,y,-z
-x,-y,-z
x,-y,z
loop_
_atom_site_type_symbol
_atom_site_label
_atom_site_fract_x
_atom_site_fract_y
_atom_site_fract_z
Si Si1 0.135535 0.132961 0.788912
Si Si2 0.868167 0.194523 0.505385
Si Si3 0.129893 0.500000 0.791465
Si Si4 0.131595 0.598099 0.790782
Si Si5 0.869317 0.698864 0.208882
Si Si6 0.138183 0.084567 0.488657
Si Si7 0.837569 0.217374 0.920148
Si Si8 0.162085 0.053000 0.083547
O O1 0.500000 0.137727 0.500000
O O2 0.992176 0.173855 0.845054
O O3 0.039417 0.085872 0.818110
O O4 0.000000 0.134965 0.000000
O O5 0.851914 0.139458 0.509236
O O6 0.000000 0.204490 0.500000
O O7 0.080800 0.213272 0.252908
O O8 0.525964 0.214094 0.771706
O O9 0.500000 0.500000 0.500000
O O10 0.037484 0.549141 0.823509
O O11 0.000000 0.500000 0.000000
O O12 0.500000 0.597769 0.500000
O O13 0.051091 0.648012 0.817369
O O14 0.000000 0.597960 0.000000
O O15 0.500000 0.703623 0.500000
O O16 0.016392 0.737835 0.152505
O O17 0.000000 0.702736 0.000000
O O18 0.000000 0.073908 0.500000
O O19 0.931829 0.064300 0.736072
O O20 0.482087 0.065509 0.218160
O O21 0.109948 0.000000 0.106460
#
# Coordination Sequence:
#
# PCOD9144802 Si02
#       8
#     4   4   2   4   4   4   4   4
#     4  12  24  39  57  76 100 132 167 196 226 275
#     4  11  22  38  60  80 100 126 158 198 248 302
#     4   8  12  20  34  54  80 126 169 206 239 276
#     4   8  14  23  37  57  90 126 170 206 239 279
#     4  10  19  31  46  73 103 137 171 207 242 283
#     4  11  22  41  62  83 106 126 154 197 248 300
#     4  12  21  37  57  78 101 130 164 203 244 289
#     4  12  25  41  59  82 106 130 161 197 239 287
#
# _framework density 16.145074999999999
#
# number of rings (size 3 to 8) (size 9 to 14) (size 15 to 20)
#    0.000    1.333    2.667    4.400    0.000    4.267 
#    0.000    0.000    0.000    0.000    0.000    0.000 
#    0.000    0.000    0.000    3.600    0.000    1.333 
#
# Total GULP energy -167440.985907 kJ/mol
# GULP energy per Si atom -5581.366197 kJ/mol
# Density = 1.610833 g / cm^3
# Si number density = 16.145075 Si / 1000 Ang^3
#
#
#
# Elastic Constant Matrix: (Units=GPa)
#
#
# Indices 1 2 3 4 5 6 
#
# 1 48.9632 19.7801 -8.0233 0.0000 12.5344 0.0000
# 2 19.7801 115.6249 -11.6096 0.0000 -3.2399 0.0000
# 3 -8.0233 -11.6096 57.6059 0.0000 12.2423 0.0000
# 4 0.0000 0.0000 0.0000 22.0000 0.0000 0.4222
# 5 12.5344 -3.2399 12.2423 0.0000 31.1282 0.0000
# 6 0.0000 0.0000 0.0000 0.4222 0.0000 -1.7723
#
#
#
# Elastic Compliance Matrix: (Units=1/GPa)
#
#
# Indices 1 2 3 4 5 6 
#
# 1 0.026525 -0.004344 0.005658 0.000000 -0.013358 0.000000
# 2 -0.004344 0.009540 0.000802 0.000000 0.002427 0.000000
# 3 0.005658 0.000802 0.020488 0.000000 -0.010252 0.000000
# 4 0.000000 0.000000 0.000000 0.045248 0.000000 0.010780
# 5 -0.013358 0.002427 -0.010252 0.000000 0.041789 0.000000
# 6 0.000000 0.000000 0.000000 0.010780 0.000000 -0.561680
#
#
# Mechanical properties :
#
#
# Convention : Reuss Voigt Hill
#
# Bulk Modulus (GPa) = 16.45147 24.72094 20.58620
# Shear Modulus (GPa) = -12.43593 25.07431 6.31919
#
# Velocity S-wave (km/s) = -2.77837 3.94517 1.98053
# Velocity P-wave (km/s) = 0.28382 6.00812 4.24364
#
# Compressibility (1/GPa) = 0.06078486
#
# Stress axis : x y z
#
# Youngs Moduli (GPa) = 37.70016 104.81856 48.80959
#
# Poissons Ratio (x) = 0.45532 -0.27616
# Poissons Ratio (y) = 0.16377 -0.03914
# Poissons Ratio (z) = -0.21330 -0.08406
#
# Static dielectric constant tensor:
#      x y z
#    x 1.512170 0.000000 0.014600 
#    y 0.000000 1.579840 0.000000 
#    z 0.014600 0.000000 1.531100 
# 
# From -- ./inp_files/65541.got.cif
#   From: 2010.05.17/outbox.cif.g08.bks.cpg/sg10_33_cif.got.tgz:65541.got - 2010.06.03 11:33:40.
