data_PCOD9144779
_publ_section_title
;
Structure prediction by ZEFSAII (Michael W. Deem and Ramdas Pophale) SiO2 
 PCOD9144779
Probable space group: P 2/M
;
_chemical_formula_sum "Si O2"
_cell_formula_units_Z 24
_cell_length_a 24.362104
_cell_length_b 10.876591
_cell_length_c 5.221874
_cell_angle_alpha 90.000000
_cell_angle_beta 108.491716
_cell_angle_gamma 90.000000
_cell_volume 1312.234850
_symmetry_space_group_name_H-M "P 2/M"
_symmetry_group_IT_number 10
_symmetry_cell_setting 'monoclinic'
loop_
_space_group_symop_operation_xyz
x,y,z
-x,y,-z
-x,-y,-z
x,-y,z
loop_
_atom_site_type_symbol
_atom_site_label
_atom_site_fract_x
_atom_site_fract_y
_atom_site_fract_z
Si Si1 0.233279 0.147462 0.581775
Si Si2 0.565824 0.149799 0.551284
Si Si3 0.160778 0.148294 0.962013
Si Si4 0.932132 0.248046 0.827094
Si Si5 0.041235 0.500000 0.311749
Si Si6 0.959934 0.000000 0.686542
Si Si7 0.635254 0.150045 0.154929
O O1 0.206001 0.167473 0.263189
O O2 0.298973 0.192795 0.706907
O O3 0.235751 0.000000 0.620239
O O4 0.191820 0.190808 0.749370
O O5 0.500000 0.190567 0.500000
O O6 0.593519 0.188770 0.324271
O O7 0.564613 0.000000 0.547773
O O8 0.607538 0.187183 0.844963
O O9 0.105089 0.224341 0.974079
O O10 0.147329 0.000000 0.933127
O O11 0.922340 0.374735 0.663560
O O12 0.923411 0.124481 0.647332
O O13 0.000000 0.249086 0.000000
O O14 0.000000 0.500000 0.500000
O O15 0.000000 0.500000 0.000000
O O16 0.000000 0.000000 0.500000
O O17 0.000000 0.000000 0.000000
O O18 0.636468 0.000000 0.159787
#
# Coordination Sequence:
#
# PCOD9144779 Si02
#       7
#     4   4   4   4   2   2   4
#     4   9  18  29  42  59  83 112 146 184 232 274
#     4   9  15  21  32  50  71  99 140 184 222 258
#     4  10  19  31  45  66  87 111 146 190 228 277
#     4  10  21  37  53  74  96 123 151 193 242 291
#     4  10  22  38  54  72  96 124 152 182 231 298
#     4  10  20  32  50  72  94 118 148 182 229 284
#     4   9  15  24  35  48  72 105 136 178 226 264
#
# _framework density 18.289411000000001
#
# number of rings (size 3 to 8) (size 9 to 14) (size 15 to 20)
#    0.000    2.500    0.833    2.000    0.000   11.333 
#    0.000    0.000    0.000    0.000    0.000    0.000 
#    0.000    0.000    0.000    0.000    0.000    0.000 
#
# Total GULP energy -133894.560106 kJ/mol
# GULP energy per Si atom -5578.940004 kJ/mol
# Density = 1.824778 g / cm^3
# Si number density = 18.289411 Si / 1000 Ang^3
#
#
#
# Elastic Constant Matrix: (Units=GPa)
#
#
# Indices 1 2 3 4 5 6 
#
# 1 66.3345 7.2457 -3.2605 0.0000 1.3283 0.0000
# 2 7.2457 75.9913 5.4063 0.0000 -8.2769 0.0000
# 3 -3.2605 5.4063 59.9282 0.0000 -10.8191 0.0000
# 4 0.0000 0.0000 0.0000 7.1131 0.0000 -3.1696
# 5 1.3283 -8.2769 -10.8191 0.0000 37.1013 0.0000
# 6 0.0000 0.0000 0.0000 -3.1696 0.0000 0.7374
#
#
#
# Elastic Compliance Matrix: (Units=1/GPa)
#
#
# Indices 1 2 3 4 5 6 
#
# 1 0.015304 -0.001591 0.000858 0.000000 -0.000653 0.000000
# 2 -0.001591 0.013681 -0.000802 0.000000 0.002875 0.000000
# 3 0.000858 -0.000802 0.017700 0.000000 0.004952 0.000000
# 4 0.000000 0.000000 0.000000 -0.153587 0.000000 -0.660167
# 5 -0.000653 0.002875 0.004952 0.000000 0.029062 0.000000
# 6 0.000000 0.000000 0.000000 -0.660167 0.000000 -1.481514
#
#
# Mechanical properties :
#
#
# Convention : Reuss Voigt Hill
#
# Bulk Modulus (GPa) = 22.92750 24.55967 23.74359
# Shear Modulus (GPa) = -3.24308 21.84786 9.30239
#
# Velocity S-wave (km/s) = -1.33306 3.45999 2.25771
# Velocity P-wave (km/s) = 3.19277 5.42398 4.45047
#
# Compressibility (1/GPa) = 0.04361574
#
# Stress axis : x y z
#
# Youngs Moduli (GPa) = 65.34152 73.09215 56.49835
#
# Poissons Ratio (x) = 0.11632 -0.04850
# Poissons Ratio (y) = 0.10398 0.04530
# Poissons Ratio (z) = -0.05609 0.05860
#
# Static dielectric constant tensor:
#      x y z
#    x 1.634880 0.000000 -0.008870 
#    y 0.000000 1.656050 0.000000 
#    z -0.008870 0.000000 1.630440 
# 
# From -- ./inp_files/12166.got.cif
#   From: 2010.05.17/outbox.cif.g08.bks.cpg/sg10_7_cif.got.tgz:12166.got - 2010.06.03 11:33:40.
