data_PCOD9144674
_publ_section_title
;
Structure prediction by ZEFSAII (Michael W. Deem and Ramdas Pophale) SiO2 
 PCOD9144674
Probable space group: P 2/M
;
_chemical_formula_sum "Si O2"
_cell_formula_units_Z 30
_cell_length_a 14.789013
_cell_length_b 25.966106
_cell_length_c 12.725400
_cell_angle_alpha 90.000000
_cell_angle_beta 19.466163
_cell_angle_gamma 90.000000
_cell_volume 1628.499981
_symmetry_space_group_name_H-M "P 2/M"
_symmetry_group_IT_number 10
_symmetry_cell_setting 'monoclinic'
loop_
_space_group_symop_operation_xyz
x,y,z
-x,y,-z
-x,-y,-z
x,-y,z
loop_
_atom_site_type_symbol
_atom_site_label
_atom_site_fract_x
_atom_site_fract_y
_atom_site_fract_z
Si Si1 0.614639 0.060243 0.764271
Si Si2 0.264022 0.298723 0.844972
Si Si3 0.659980 0.742660 0.714483
Si Si4 0.301704 0.440710 0.621936
Si Si5 0.220798 0.208934 0.039510
Si Si6 0.817984 0.089891 0.934342
Si Si7 0.795434 0.000000 0.127792
Si Si8 0.299931 0.655136 0.489557
O O1 0.883290 0.089862 0.441043
O O2 0.687324 0.000000 0.696201
O O3 0.500000 0.079138 0.000000
O O4 0.392509 0.066095 0.917725
O O5 0.500000 0.300783 0.500000
O O6 0.411753 0.326891 0.780059
O O7 0.216797 0.240917 0.935693
O O8 0.966807 0.323234 0.156174
O O9 0.716933 0.685160 0.603516
O O10 0.944452 0.773811 0.402658
O O11 0.500000 0.740485 0.000000
O O12 0.469204 0.772296 0.839738
O O13 0.500000 0.422118 0.500000
O O14 0.377126 0.500000 0.516364
O O15 0.302549 0.405094 0.517349
O O16 0.000000 0.439872 0.000000
O O17 0.252827 0.149450 0.975192
O O18 0.828557 0.051256 0.021104
O O19 0.500000 0.000000 0.500000
O O20 0.000000 0.000000 0.000000
#
# Coordination Sequence:
#
# PCOD9144674 Si02
#       8
#     4   4   4   4   4   4   2   4
#     4  11  22  38  61  87 110 137 169 214 276 330
#     4  10  19  33  52  75 105 136 175 221 266 320
#     4  10  21  38  56  80 112 144 182 222 270 329
#     4  10  19  30  48  77 112 146 183 229 277 320
#     4  10  23  36  56  83 107 137 177 221 275 321
#     4  12  23  42  61  84 115 142 179 229 267 332
#     4  12  26  44  63  80 105 150 188 216 260 318
#     4  10  19  32  52  77 104 146 183 218 266 323
#
# _framework density 18.421859999999999
#
# number of rings (size 3 to 8) (size 9 to 14) (size 15 to 20)
#    0.000    1.467    1.333    4.800    0.000    4.800 
#    0.000    2.667    0.000    0.400    0.000    0.000 
#    0.000    9.600    0.000    0.000    0.000    2.667 
#
# Total GULP energy -167280.707419 kJ/mol
# GULP energy per Si atom -5576.023581 kJ/mol
# Density = 1.837993 g / cm^3
# Si number density = 18.421860 Si / 1000 Ang^3
#
#
#
# Elastic Constant Matrix: (Units=GPa)
#
#
# Indices 1 2 3 4 5 6 
#
# 1 89.9171 20.6193 23.5822 0.0000 -2.8816 0.0000
# 2 20.6193 119.7561 18.0925 0.0000 20.4018 0.0000
# 3 23.5822 18.0925 77.7783 0.0000 -9.2960 0.0000
# 4 0.0000 0.0000 0.0000 9.5283 0.0000 -7.1305
# 5 -2.8816 20.4018 -9.2960 0.0000 37.7497 0.0000
# 6 0.0000 0.0000 0.0000 -7.1305 0.0000 3.1895
#
#
#
# Elastic Compliance Matrix: (Units=1/GPa)
#
#
# Indices 1 2 3 4 5 6 
#
# 1 0.012422 -0.001854 -0.003196 0.000000 0.001163 0.000000
# 2 -0.001854 0.010114 -0.002535 0.000000 -0.006232 0.000000
# 3 -0.003196 -0.002535 0.014992 0.000000 0.004818 0.000000
# 4 0.000000 0.000000 0.000000 -0.155941 0.000000 -0.348621
# 5 0.001163 -0.006232 0.004818 0.000000 0.031134 0.000000
# 6 0.000000 0.000000 0.000000 -0.348621 0.000000 -0.465851
#
#
# Mechanical properties :
#
#
# Convention : Reuss Voigt Hill
#
# Bulk Modulus (GPa) = 44.72890 45.78216 45.25553
# Shear Modulus (GPa) = -9.42495 25.10402 7.83954
#
# Velocity S-wave (km/s) = -2.26435 3.69552 2.06514
# Velocity P-wave (km/s) = 4.18290 6.56622 5.50508
#
# Compressibility (1/GPa) = 0.02235691
#
# Stress axis : x y z
#
# Youngs Moduli (GPa) = 80.50226 98.86982 66.70350
#
# Poissons Ratio (x) = 0.18332 0.21318
# Poissons Ratio (y) = 0.14926 0.16912
# Poissons Ratio (z) = 0.25728 0.25068
#
# Static dielectric constant tensor:
#      x y z
#    x 1.640730 0.000000 0.008760 
#    y 0.000000 1.680580 0.000000 
#    z 0.008760 0.000000 1.633530 
# 
# From -- ./inp_files/52131.got.cif
#   From: 2010.05.17/outbox.cif.g08.bks.cpg/sg10_27_cif.got.tgz:52131.got - 2010.06.03 11:33:40.
