data_PCOD9144322
_publ_section_title
;
Structure prediction by ZEFSAII (Michael W. Deem and Ramdas Pophale) SiO2 
 PCOD9144322
Probable space group: P 2/M
;
_chemical_formula_sum "Si O2"
_cell_formula_units_Z 24
_cell_length_a 27.616177
_cell_length_b 8.578875
_cell_length_c 18.287452
_cell_angle_alpha 90.000000
_cell_angle_beta 18.699784
_cell_angle_gamma 90.000000
_cell_volume 1389.067578
_symmetry_space_group_name_H-M "P 2/M"
_symmetry_group_IT_number 10
_symmetry_cell_setting 'monoclinic'
loop_
_space_group_symop_operation_xyz
x,y,z
-x,y,-z
-x,-y,-z
x,-y,z
loop_
_atom_site_type_symbol
_atom_site_label
_atom_site_fract_x
_atom_site_fract_y
_atom_site_fract_z
Si Si1 0.438800 0.678524 0.805181
Si Si2 0.018329 0.685977 0.084245
Si Si3 0.088335 0.314340 0.148274
Si Si4 0.899386 0.186805 0.714152
Si Si5 0.590950 0.826022 0.296493
Si Si6 0.239965 0.815088 0.651347
O O1 0.430362 0.500000 0.840410
O O2 0.459270 0.696648 0.688634
O O3 0.594026 0.756333 0.609869
O O4 0.274396 0.758292 0.050984
O O5 0.012102 0.500000 0.082376
O O6 0.005969 0.716247 0.188951
O O7 0.882050 0.764404 0.234863
O O8 0.172323 0.745305 0.824321
O O9 0.120595 0.500000 0.103810
O O10 0.033811 0.266031 0.307555
O O11 0.238003 0.210798 0.929184
O O12 0.000000 0.226380 0.500000
O O13 0.899985 0.000000 0.723014
O O14 0.500000 0.821260 0.500000
O O15 0.575030 0.000000 0.286297
O O16 0.242834 0.000000 0.655158
#
# Coordination Sequence:
#
# PCOD9144322 Si02
#       6
#     4   4   4   4   4   4
#     4  11  21  33  51  73 100 133 168 209 254 301
#     4  10  20  34  51  75 107 141 177 211 247 294
#     4  10  20  32  50  74 100 132 167 206 251 301
#     4  10  21  37  57  79 102 129 164 210 262 312
#     4  10  19  29  44  68  99 132 165 203 246 296
#     4  11  21  33  51  75 105 142 179 211 248 294
#
# _framework density 17.277778000000001
#
# number of rings (size 3 to 8) (size 9 to 14) (size 15 to 20)
#    0.000    1.667    0.000    9.000    0.000    8.000 
#    0.000    0.000    0.000    1.000    0.000    7.000 
#    0.000    0.000    0.000    0.000    0.000    0.000 
#
# Total GULP energy -133714.437908 kJ/mol
# GULP energy per Si atom -5571.434913 kJ/mol
# Density = 1.723845 g / cm^3
# Si number density = 17.277778 Si / 1000 Ang^3
#
#
#
# Elastic Constant Matrix: (Units=GPa)
#
#
# Indices 1 2 3 4 5 6 
#
# 1 89.4989 22.4075 45.9664 0.0000 12.2715 0.0000
# 2 22.4075 80.5939 27.0684 0.0000 3.0811 0.0000
# 3 45.9664 27.0684 84.9160 0.0000 7.9896 0.0000
# 4 0.0000 0.0000 0.0000 28.9188 0.0000 -10.1925
# 5 12.2715 3.0811 7.9896 0.0000 29.1924 0.0000
# 6 0.0000 0.0000 0.0000 -10.1925 0.0000 52.9285
#
#
#
# Elastic Compliance Matrix: (Units=1/GPa)
#
#
# Indices 1 2 3 4 5 6 
#
# 1 0.016236 -0.001716 -0.007818 0.000000 -0.004504 0.000000
# 2 -0.001716 0.014079 -0.003579 0.000000 0.000215 0.000000
# 3 -0.007818 -0.003579 0.017249 0.000000 -0.001057 0.000000
# 4 0.000000 0.000000 0.000000 0.037097 0.000000 0.007144
# 5 -0.004504 0.000215 -0.001057 0.000000 0.036415 0.000000
# 6 0.000000 0.000000 0.000000 0.007144 0.000000 0.020269
#
#
# Mechanical properties :
#
#
# Convention : Reuss Voigt Hill
#
# Bulk Modulus (GPa) = 46.86687 49.54371 48.20529
# Shear Modulus (GPa) = 28.62313 32.84571 30.73442
#
# Velocity S-wave (km/s) = 4.07461 4.36482 4.22221
# Velocity P-wave (km/s) = 7.02289 7.35794 7.19236
#
# Compressibility (1/GPa) = 0.02133703
#
# Stress axis : x y z
#
# Youngs Moduli (GPa) = 61.59233 71.02823 57.97568
#
# Poissons Ratio (x) = 0.12189 0.45325
# Poissons Ratio (y) = 0.10570 0.20750
# Poissons Ratio (z) = 0.48152 0.25422
#
# Static dielectric constant tensor:
#      x y z
#    x 1.755940 0.000000 0.032880 
#    y 0.000000 1.597830 0.000000 
#    z 0.032880 0.000000 1.613100 
# 
# From -- ./inp_files/80423.got.cif
#   From: 2010.05.17/outbox.cif.g08.bks.cpg/sg10_41_cif.got.tgz:80423.got - 2010.06.03 11:33:40.
