data_PCOD9144486
_publ_section_title
;
Structure prediction by ZEFSAII (Michael W. Deem and Ramdas Pophale) SiO2 
 PCOD9144486
Probable space group: P 2/M
;
_chemical_formula_sum "Si O2"
_cell_formula_units_Z 20
_cell_length_a 14.730291
_cell_length_b 19.567211
_cell_length_c 12.772285
_cell_angle_alpha 90.000000
_cell_angle_beta 160.199101
_cell_angle_gamma 90.000000
_cell_volume 1247.072204
_symmetry_space_group_name_H-M "P 2/M"
_symmetry_group_IT_number 10
_symmetry_cell_setting 'monoclinic'
loop_
_space_group_symop_operation_xyz
x,y,z
-x,y,-z
-x,-y,-z
x,-y,z
loop_
_atom_site_type_symbol
_atom_site_label
_atom_site_fract_x
_atom_site_fract_y
_atom_site_fract_z
Si Si1 0.713178 0.921811 0.638043
Si Si2 0.542465 0.857410 0.833725
Si Si3 0.081896 0.919392 0.471690
Si Si4 0.708075 0.276130 0.129547
Si Si5 0.708879 0.573224 0.131168
O O1 0.500000 0.920787 0.500000
O O2 0.626607 0.869305 0.454580
O O3 0.720091 0.000000 0.601160
O O4 0.000000 0.907528 0.000000
O O5 0.343906 0.883526 0.710118
O O6 0.812420 0.902439 0.115321
O O7 0.641251 0.782480 0.973827
O O8 0.000000 0.897136 0.500000
O O9 0.133551 0.000000 0.529305
O O10 0.685018 0.352138 0.054170
O O11 0.000000 0.268338 0.500000
O O12 0.500000 0.271604 0.000000
O O13 0.675292 0.500000 0.037207
O O14 0.000000 0.572654 0.500000
O O15 0.500000 0.573256 0.000000
#
# Coordination Sequence:
#
# PCOD9144486 Si02
#       5
#     4   4   4   4   4
#     4  10  21  36  51  65  81 107 150 200 242 276
#     4  12  21  33  50  67  90 118 150 190 236 271
#     4  11  22  33  46  66  92 122 152 179 215 272
#     4  10  19  30  45  68  97 124 148 176 215 266
#     4   8  14  25  41  61  88 122 152 174 200 243
#
# _framework density 16.037564
#
# number of rings (size 3 to 8) (size 9 to 14) (size 15 to 20)
#    0.000    1.800    0.000    6.600    0.000    3.200 
#    0.000    0.000    0.000    0.000    0.000    0.000 
#    0.000    1.600    0.000    0.000    0.000    2.000 
#
# Total GULP energy -111523.063520 kJ/mol
# GULP energy per Si atom -5576.153176 kJ/mol
# Density = 1.600106 g / cm^3
# Si number density = 16.037564 Si / 1000 Ang^3
#
#
#
# Elastic Constant Matrix: (Units=GPa)
#
#
# Indices 1 2 3 4 5 6 
#
# 1 40.6997 25.5203 26.4706 0.0000 8.9414 0.0000
# 2 25.5203 138.9306 37.4952 0.0000 -13.3105 0.0000
# 3 26.4706 37.4952 94.4775 0.0000 13.5926 0.0000
# 4 0.0000 0.0000 0.0000 20.5699 0.0000 4.6786
# 5 8.9414 -13.3105 13.5926 0.0000 36.1831 0.0000
# 6 0.0000 0.0000 0.0000 4.6786 0.0000 7.3542
#
#
#
# Elastic Compliance Matrix: (Units=1/GPa)
#
#
# Indices 1 2 3 4 5 6 
#
# 1 0.033643 -0.005267 -0.006196 0.000000 -0.007924 0.000000
# 2 -0.005267 0.009610 -0.003207 0.000000 0.006042 0.000000
# 3 -0.006196 -0.003207 0.014317 0.000000 -0.005027 0.000000
# 4 0.000000 0.000000 0.000000 0.056839 0.000000 -0.036160
# 5 -0.007924 0.006042 -0.005027 0.000000 0.033706 0.000000
# 6 0.000000 0.000000 0.000000 -0.036160 0.000000 0.158981
#
#
# Mechanical properties :
#
#
# Convention : Reuss Voigt Hill
#
# Bulk Modulus (GPa) = 35.42405 50.34221 42.88313
# Shear Modulus (GPa) = 14.45731 25.12955 19.79343
#
# Velocity S-wave (km/s) = 3.00570 3.96273 3.51692
# Velocity P-wave (km/s) = 5.84652 7.23850 6.57943
#
# Compressibility (1/GPa) = 0.02822941
#
# Stress axis : x y z
#
# Youngs Moduli (GPa) = 29.72359 104.06092 69.84900
#
# Poissons Ratio (x) = 0.54809 0.43277
# Poissons Ratio (y) = 0.15655 0.22403
# Poissons Ratio (z) = 0.18416 0.33376
#
# Static dielectric constant tensor:
#      x y z
#    x 1.521740 0.000000 0.009430 
#    y 0.000000 1.600860 0.000000 
#    z 0.009430 0.000000 1.554650 
# 
# From -- ./inp_files/7008.got.cif
#   From: 2010.05.17/outbox.cif.g08.bks.cpg/sg10_4_cif.got.tgz:7008.got - 2010.06.03 11:33:40.
