data_PCOD9144681
_publ_section_title
;
Structure prediction by ZEFSAII (Michael W. Deem and Ramdas Pophale) SiO2 
 PCOD9144681
Probable space group: P 2/M
;
_chemical_formula_sum "Si O2"
_cell_formula_units_Z 32
_cell_length_a 23.656783
_cell_length_b 7.750814
_cell_length_c 17.495328
_cell_angle_alpha 90.000000
_cell_angle_beta 148.394305
_cell_angle_gamma 90.000000
_cell_volume 1681.182480
_symmetry_space_group_name_H-M "P 2/M"
_symmetry_group_IT_number 10
_symmetry_cell_setting 'monoclinic'
loop_
_space_group_symop_operation_xyz
x,y,z
-x,y,-z
-x,-y,-z
x,-y,z
loop_
_atom_site_type_symbol
_atom_site_label
_atom_site_fract_x
_atom_site_fract_y
_atom_site_fract_z
Si Si1 0.330073 0.290026 0.827676
Si Si2 0.117173 0.708152 0.966709
Si Si3 0.319729 0.702650 0.643480
Si Si4 0.887063 0.295791 0.341723
Si Si5 0.131154 0.712555 0.316899
Si Si6 0.869128 0.698462 0.851476
Si Si7 0.770733 0.794881 0.059700
Si Si8 0.448121 0.203131 0.114720
O O1 0.335186 0.500000 0.833359
O O2 0.335071 0.226123 0.746737
O O3 0.216316 0.228620 0.731729
O O4 0.418078 0.233897 0.991070
O O5 0.112861 0.500000 0.967856
O O6 0.194113 0.753036 0.985344
O O7 0.992803 0.764686 0.809544
O O8 0.156142 0.775640 0.094570
O O9 0.296760 0.500000 0.626864
O O10 0.218938 0.772516 0.479393
O O11 0.434662 0.720280 0.734378
O O12 0.889252 0.500000 0.360236
O O13 0.860828 0.272459 0.222516
O O14 0.000000 0.221521 0.500000
O O15 0.131617 0.500000 0.315910
O O16 0.162129 0.772926 0.266789
O O17 0.830208 0.500000 0.807061
O O18 0.000000 0.693718 0.000000
O O19 0.767603 0.000000 0.065270
O O20 0.653960 0.727380 0.954044
O O21 0.455648 0.000000 0.136865
#
# Coordination Sequence:
#
# PCOD9144681 Si02
#       8
#     4   4   4   4   4   4   4   4
#     4   9  18  31  47  70  94 119 156 197 236 275
#     4   9  16  28  52  77  98 124 157 190 225 283
#     4  10  19  30  49  73  96 121 152 197 240 278
#     4   9  18  31  49  69  94 126 157 191 231 280
#     4   8  15  27  47  76 105 124 145 186 241 287
#     4   7  11  23  44  73 101 124 148 181 228 281
#     4  10  21  34  47  66  94 127 162 198 236 275
#     4  10  21  36  49  62  88 127 167 202 235 273
#
# _framework density 19.034220999999999
#
# number of rings (size 3 to 8) (size 9 to 14) (size 15 to 20)
#    0.000    3.000    0.000    2.625    1.750    3.750 
#    0.000    0.625    0.000    4.875    0.000    5.250 
#    0.000    0.000    0.000    0.000    0.000    0.000 
#
# Total GULP energy -178278.906677 kJ/mol
# GULP energy per Si atom -5571.215834 kJ/mol
# Density = 1.899090 g / cm^3
# Si number density = 19.034221 Si / 1000 Ang^3
#
#
#
# Elastic Constant Matrix: (Units=GPa)
#
#
# Indices 1 2 3 4 5 6 
#
# 1 108.8902 -12.6792 39.3897 0.0000 -14.3431 0.0000
# 2 -12.6792 16.5034 1.6011 0.0000 5.3360 0.0000
# 3 39.3897 1.6011 62.0400 0.0000 -3.4725 0.0000
# 4 0.0000 0.0000 0.0000 160.8766 0.0000 -79.4696
# 5 -14.3431 5.3360 -3.4725 0.0000 10.5683 0.0000
# 6 0.0000 0.0000 0.0000 -79.4696 0.0000 41.0664
#
#
#
# Elastic Compliance Matrix: (Units=1/GPa)
#
#
# Indices 1 2 3 4 5 6 
#
# 1 0.015217 0.008206 -0.009117 0.000000 0.013513 0.000000
# 2 0.008206 0.077823 -0.008959 0.000000 -0.031100 0.000000
# 3 -0.009117 -0.008959 0.022105 0.000000 -0.000586 0.000000
# 4 0.000000 0.000000 0.000000 0.141022 0.000000 0.272898
# 5 0.013513 -0.031100 -0.000586 0.000000 0.128473 0.000000
# 6 0.000000 0.000000 0.000000 0.272898 0.000000 0.552449
#
#
# Mechanical properties :
#
#
# Convention : Reuss Voigt Hill
#
# Bulk Modulus (GPa) = 10.48164 27.11745 18.79954
# Shear Modulus (GPa) = 5.05751 53.11039 29.08395
#
# Velocity S-wave (km/s) = 1.63182 5.28802 3.91318
# Velocity P-wave (km/s) = 3.01150 7.18066 5.50595
#
# Compressibility (1/GPa) = 0.09540493
#
# Stress axis : x y z
#
# Youngs Moduli (GPa) = 65.71626 12.84974 45.23790
#
# Poissons Ratio (x) = -0.10545 0.41242
# Poissons Ratio (y) = -0.53927 0.40530
# Poissons Ratio (z) = 0.59912 0.11512
#
# Static dielectric constant tensor:
#      x y z
#    x 1.691210 0.000000 -0.008590 
#    y 0.000000 1.697760 0.000000 
#    z -0.008590 0.000000 1.660590 
# 
# From -- ./inp_files/79969.got.cif
#   From: 2010.05.17/outbox.cif.g08.bks.cpg/sg10_40_cif.got.tgz:79969.got - 2010.06.03 11:33:40.
