data_PCOD9144939
_publ_section_title
;
Structure prediction by ZEFSAII (Michael W. Deem and Ramdas Pophale) SiO2 
 PCOD9144939
Probable space group: P 2/M
;
_chemical_formula_sum "Si O2"
_cell_formula_units_Z 32
_cell_length_a 12.495657
_cell_length_b 18.786928
_cell_length_c 15.297420
_cell_angle_alpha 90.000000
_cell_angle_beta 29.312903
_cell_angle_gamma 90.000000
_cell_volume 1758.149035
_symmetry_space_group_name_H-M "P 2/M"
_symmetry_group_IT_number 10
_symmetry_cell_setting 'monoclinic'
loop_
_space_group_symop_operation_xyz
x,y,z
-x,y,-z
-x,-y,-z
x,-y,z
loop_
_atom_site_type_symbol
_atom_site_label
_atom_site_fract_x
_atom_site_fract_y
_atom_site_fract_z
Si Si1 0.261892 0.798923 0.327563
Si Si2 0.114972 0.830719 0.007949
Si Si3 0.143381 0.717946 0.580394
Si Si4 0.300092 0.734787 0.027165
Si Si5 0.843399 0.418316 0.534163
Si Si6 0.447541 0.084186 0.308098
Si Si7 0.710551 0.837343 0.410076
Si Si8 0.416558 0.422503 0.958479
O O1 0.270694 0.749741 0.407440
O O2 0.453319 0.763273 0.131735
O O3 0.349022 0.876551 0.293091
O O4 0.000000 0.801586 0.500000
O O5 0.225593 0.769564 0.988476
O O6 0.304978 0.887631 0.855917
O O7 0.000000 0.806734 0.000000
O O8 0.921934 0.860594 0.205732
O O9 0.144924 0.634238 0.556621
O O10 0.257026 0.754751 0.582815
O O11 0.895749 0.749102 0.764342
O O12 0.292497 0.649749 0.027877
O O13 0.910134 0.500000 0.466633
O O14 0.612896 0.421481 0.748249
O O15 0.000000 0.389245 0.500000
O O16 0.317094 0.115328 0.483997
O O17 0.436724 0.000000 0.310670
O O18 0.500000 0.843936 0.500000
O O19 0.306921 0.500000 0.028943
O O20 0.500000 0.417553 0.000000
#
# Coordination Sequence:
#
# PCOD9144939 Si02
#       8
#     4   4   4   4   4   4   4   4
#     4  10  21  36  54  78 107 140 181 220 256 316
#     4  10  20  37  57  82 108 136 179 222 269 317
#     4  10  20  33  53  78 105 139 181 224 263 310
#     4  10  21  33  54  78 105 144 180 222 267 314
#     4  10  19  31  48  74 108 143 178 220 269 313
#     4  10  22  38  56  81 111 139 172 217 269 324
#     4  10  20  36  56  81 107 137 176 219 267 321
#     4  10  20  31  47  76 111 145 180 221 269 314
#
# _framework density 18.200959999999998
#
# number of rings (size 3 to 8) (size 9 to 14) (size 15 to 20)
#    0.000    2.000    2.500    1.125    1.750    2.750 
#    0.000    0.000    0.000    0.750    0.000    7.000 
#    0.000    0.000    0.000    0.000    0.000    0.000 
#
# Total GULP energy -178137.147007 kJ/mol
# GULP energy per Si atom -5566.785844 kJ/mol
# Density = 1.815953 g / cm^3
# Si number density = 18.200960 Si / 1000 Ang^3
#
#
#
# Elastic Constant Matrix: (Units=GPa)
#
#
# Indices 1 2 3 4 5 6 
#
# 1 24.3952 18.3488 18.5138 0.0000 -2.0288 0.0000
# 2 18.3488 116.8938 22.5541 0.0000 4.5425 0.0000
# 3 18.5138 22.5541 127.4713 0.0000 7.6713 0.0000
# 4 0.0000 0.0000 0.0000 -56.0801 0.0000 -20.9922
# 5 -2.0288 4.5425 7.6713 0.0000 27.7923 0.0000
# 6 0.0000 0.0000 0.0000 -20.9922 0.0000 4.0511
#
#
#
# Elastic Compliance Matrix: (Units=1/GPa)
#
#
# Indices 1 2 3 4 5 6 
#
# 1 0.052011 -0.007136 -0.006701 0.000000 0.006813 0.000000
# 2 -0.007136 0.009865 -0.000591 0.000000 -0.001970 0.000000
# 3 -0.006701 -0.000591 0.009097 0.000000 -0.002904 0.000000
# 4 0.000000 0.000000 0.000000 -0.006066 0.000000 -0.031432
# 5 0.006813 -0.001970 -0.002904 0.000000 0.037602 0.000000
# 6 0.000000 0.000000 0.000000 -0.031432 0.000000 0.083970
#
#
# Mechanical properties :
#
#
# Convention : Reuss Voigt Hill
#
# Bulk Modulus (GPa) = 23.74263 43.06597 33.40430
# Shear Modulus (GPa) = 21.79827 9.10890 15.45358
#
# Velocity S-wave (km/s) = 3.46445 2.23953 2.91701
# Velocity P-wave (km/s) = 5.39224 5.51362 5.45327
#
# Compressibility (1/GPa) = 0.04211833
#
# Stress axis : x y z
#
# Youngs Moduli (GPa) = 19.22654 101.36417 109.92087
#
# Poissons Ratio (x) = 0.72333 0.73663
# Poissons Ratio (y) = 0.13720 0.06491
# Poissons Ratio (z) = 0.12885 0.05986
#
# Static dielectric constant tensor:
#      x y z
#    x 1.644700 0.000000 -0.011510 
#    y 0.000000 1.648140 0.000000 
#    z -0.011510 0.000000 1.677140 
# 
# From -- ./inp_files/65393.got.cif
#   From: 2010.05.17/outbox.cif.g08.bks.cpg/sg10_33_cif.got.tgz:65393.got - 2010.06.03 11:33:40.
