data_PCOD9144920
_publ_section_title
;
Structure prediction by ZEFSAII (Michael W. Deem and Ramdas Pophale) SiO2 
 PCOD9144920
Probable space group: P 2/M
;
_chemical_formula_sum "Si O2"
_cell_formula_units_Z 32
_cell_length_a 18.919116
_cell_length_b 13.427873
_cell_length_c 21.986791
_cell_angle_alpha 90.000000
_cell_angle_beta 159.373107
_cell_angle_gamma 90.000000
_cell_volume 1967.700952
_symmetry_space_group_name_H-M "P 2/M"
_symmetry_group_IT_number 10
_symmetry_cell_setting 'monoclinic'
loop_
_space_group_symop_operation_xyz
x,y,z
-x,y,-z
-x,-y,-z
x,-y,z
loop_
_atom_site_type_symbol
_atom_site_label
_atom_site_fract_x
_atom_site_fract_y
_atom_site_fract_z
Si Si1 0.010757 0.751163 0.376810
Si Si2 0.164330 0.885192 0.087092
Si Si3 0.903048 0.883827 0.668263
Si Si4 0.391082 0.248836 0.757136
Si Si5 0.698690 0.883828 0.933476
Si Si6 0.295793 0.115925 0.795793
Si Si7 0.369503 0.618225 0.956501
Si Si8 0.432614 0.114808 0.509852
O O1 0.882254 0.830325 0.312131
O O2 0.098904 0.811904 0.390756
O O3 0.192863 0.711250 0.564287
O O4 0.847943 0.668916 0.226188
O O5 0.206010 0.846404 0.053253
O O6 0.373758 0.886070 0.291253
O O7 0.096431 0.000000 0.021900
O O8 0.000000 0.838692 0.000000
O O9 0.752263 0.846403 0.599506
O O10 0.850072 0.000000 0.610890
O O11 0.126689 0.884430 0.875563
O O12 0.525537 0.188096 0.817390
O O13 0.328110 0.169676 0.757989
O O14 0.517319 0.331085 0.895565
O O15 0.632522 0.000000 0.871704
O O16 0.253587 0.000000 0.753587
O O17 0.500000 0.124899 0.000000
O O18 0.354020 0.500000 0.951341
O O19 0.500000 0.637654 0.000000
O O20 0.500000 0.161309 0.500000
O O21 0.372835 0.000000 0.447366
#
# Coordination Sequence:
#
# PCOD9144920 Si02
#       8
#     4   4   4   4   4   4   4   4
#     4  12  22  36  56  79 105 136 174 215 263 314
#     4   9  16  26  40  62  95 139 184 217 249 291
#     4  10  19  31  48  72 106 146 180 214 255 302
#     4  12  22  36  56  79 105 136 174 215 263 314
#     4  10  19  31  48  72 106 146 180 214 255 302
#     4  11  21  35  53  75 109 146 177 208 248 302
#     4  11  24  44  62  78 102 130 170 224 280 326
#     4   9  16  26  40  62  95 139 184 217 249 291
#
# _framework density 16.262633000000001
#
# number of rings (size 3 to 8) (size 9 to 14) (size 15 to 20)
#    0.000    1.500    3.750    2.625    0.000    9.000 
#    0.000    1.250    0.000    0.000    0.000    0.000 
#    0.000    1.000    0.500    0.000    0.000    0.000 
#
# Total GULP energy -178544.564873 kJ/mol
# GULP energy per Si atom -5579.517652 kJ/mol
# Density = 1.622562 g / cm^3
# Si number density = 16.262633 Si / 1000 Ang^3
#
#
#
# Elastic Constant Matrix: (Units=GPa)
#
#
# Indices 1 2 3 4 5 6 
#
# 1 113.6509 33.0310 29.2813 0.0000 7.2271 0.0000
# 2 33.0310 77.3908 35.6785 0.0000 -0.6287 0.0000
# 3 29.2813 35.6785 105.6586 0.0000 -5.3317 0.0000
# 4 0.0000 0.0000 0.0000 1.8314 0.0000 -1.8991
# 5 7.2271 -0.6287 -5.3317 0.0000 29.9408 0.0000
# 6 0.0000 0.0000 0.0000 -1.8991 0.0000 -6.1676
#
#
#
# Elastic Compliance Matrix: (Units=1/GPa)
#
#
# Indices 1 2 3 4 5 6 
#
# 1 0.010524 -0.003675 -0.001824 0.000000 -0.002942 0.000000
# 2 -0.003675 0.016598 -0.004565 0.000000 0.000423 0.000000
# 3 -0.001824 -0.004565 0.011633 0.000000 0.002416 0.000000
# 4 0.000000 0.000000 0.000000 0.413876 0.000000 -0.127437
# 5 -0.002942 0.000423 0.002416 0.000000 0.034549 0.000000
# 6 0.000000 0.000000 0.000000 -0.127437 0.000000 -0.122897
#
#
# Mechanical properties :
#
#
# Convention : Reuss Voigt Hill
#
# Bulk Modulus (GPa) = 53.68399 54.74243 54.21321
# Shear Modulus (GPa) = 12.80020 18.36823 15.58421
#
# Velocity S-wave (km/s) = 2.80856 3.36441 3.09897
# Velocity P-wave (km/s) = 6.60300 6.98763 6.79803
#
# Compressibility (1/GPa) = 0.01862753
#
# Stress axis : x y z
#
# Youngs Moduli (GPa) = 95.02157 60.24901 85.95950
#
# Poissons Ratio (x) = 0.22139 0.15680
# Poissons Ratio (y) = 0.34917 0.39241
# Poissons Ratio (z) = 0.17333 0.27504
#
# Static dielectric constant tensor:
#      x y z
#    x 1.573210 0.000000 -0.000210 
#    y 0.000000 1.507190 0.000000 
#    z -0.000210 0.000000 1.574110 
# 
# From -- ./inp_files/85978.got.cif
#   From: 2010.05.17/outbox.cif.g08.bks.cpg/sg10_43_cif.got.tgz:85978.got - 2010.06.03 11:33:40.
