data_PCOD9144865
_publ_section_title
;
Structure prediction by ZEFSAII (Michael W. Deem and Ramdas Pophale) SiO2 
 PCOD9144865
Probable space group: P 2/M
;
_chemical_formula_sum "Si O2"
_cell_formula_units_Z 28
_cell_length_a 25.757460
_cell_length_b 7.407784
_cell_length_c 19.445766
_cell_angle_alpha 90.000000
_cell_angle_beta 19.460944
_cell_angle_gamma 90.000000
_cell_volume 1236.160211
_symmetry_space_group_name_H-M "P 2/M"
_symmetry_group_IT_number 10
_symmetry_cell_setting 'monoclinic'
loop_
_space_group_symop_operation_xyz
x,y,z
-x,y,-z
-x,-y,-z
x,-y,z
loop_
_atom_site_type_symbol
_atom_site_label
_atom_site_fract_x
_atom_site_fract_y
_atom_site_fract_z
Si Si1 0.342115 0.779290 0.232731
Si Si2 0.829728 0.778904 0.421303
Si Si3 0.154109 0.217780 0.084024
Si Si4 0.527927 0.779097 0.387299
Si Si5 0.650472 0.793100 0.518807
Si Si6 0.855148 0.793019 0.642578
Si Si7 0.336149 0.709524 0.990515
O O1 0.304202 0.725170 0.357219
O O2 0.204171 0.716941 0.354680
O O3 0.344113 0.000000 0.229112
O O4 0.500000 0.717813 0.000000
O O5 0.780968 0.714721 0.406504
O O6 0.993927 0.721377 0.248894
O O7 0.831493 0.000000 0.416894
O O8 0.196512 0.272402 0.108960
O O9 0.148808 0.000000 0.091751
O O10 0.302975 0.274486 0.852632
O O11 0.500000 0.721766 0.500000
O O12 0.399598 0.714753 0.492183
O O13 0.525057 0.000000 0.389632
O O14 0.696208 0.000000 0.448541
O O15 0.488963 0.792594 0.764318
O O16 0.716250 0.792845 0.871886
O O17 0.000000 0.704756 0.500000
O O18 0.900278 0.000000 0.570563
O O19 0.367140 0.500000 0.963024
#
# Coordination Sequence:
#
# PCOD9144865 Si02
#       7
#     4   4   4   4   4   4   4
#     4   9  16  25  41  65  89 113 149 199 241 272
#     4   9  16  28  48  73  94 118 161 207 242 280
#     4   9  17  31  51  71  94 126 162 200 240 287
#     4   8  14  26  46  73 102 128 154 188 233 284
#     4   9  17  31  52  72  93 124 160 196 234 283
#     4  10  19  31  48  67  88 120 162 205 246 285
#     4  11  21  32  47  68  96 128 163 201 241 288
#
# _framework density 22.650784000000002
#
# number of rings (size 3 to 8) (size 9 to 14) (size 15 to 20)
#    0.000    2.714    0.000    3.857    0.000    4.857 
#    0.000    1.429    0.000   15.000    0.000    0.000 
#    0.000    9.143    0.000    0.000    0.000    0.000 
#
# Total GULP energy -156363.354261 kJ/mol
# GULP energy per Si atom -5584.405509 kJ/mol
# Density = 2.259923 g / cm^3
# Si number density = 22.650784 Si / 1000 Ang^3
#
#
#
# Elastic Constant Matrix: (Units=GPa)
#
#
# Indices 1 2 3 4 5 6 
#
# 1 175.9095 -2.5784 33.3233 0.0000 -7.8235 0.0000
# 2 -2.5784 85.1483 -2.5500 0.0000 -2.8907 0.0000
# 3 33.3233 -2.5500 37.2201 0.0000 -8.3001 0.0000
# 4 0.0000 0.0000 0.0000 -90.3047 0.0000 35.0202
# 5 -7.8235 -2.8907 -8.3001 0.0000 40.0646 0.0000
# 6 0.0000 0.0000 0.0000 35.0202 0.0000 -65.1889
#
#
#
# Elastic Compliance Matrix: (Units=1/GPa)
#
#
# Indices 1 2 3 4 5 6 
#
# 1 0.006846 0.000027 -0.006111 0.000000 0.000073 0.000000
# 2 0.000027 0.011812 0.001024 0.000000 0.001070 0.000000
# 3 -0.006111 0.001024 0.033717 0.000000 0.005866 0.000000
# 4 0.000000 0.000000 0.000000 -0.013988 0.000000 -0.007514
# 5 0.000073 0.001070 0.005866 0.000000 0.026266 0.000000
# 6 0.000000 0.000000 0.000000 -0.007514 0.000000 -0.019377
#
#
# Mechanical properties :
#
#
# Convention : Reuss Voigt Hill
#
# Bulk Modulus (GPa) = 23.66668 39.40752 31.53710
# Shear Modulus (GPa) = 71.96064 -5.08027 33.44019
#
# Velocity S-wave (km/s) = 5.64257 -1.49924 3.84648
# Velocity P-wave (km/s) = 7.27479 3.79982 5.80350
#
# Compressibility (1/GPa) = 0.04225351
#
# Stress axis : x y z
#
# Youngs Moduli (GPa) = 146.06969 84.65972 29.65881
#
# Poissons Ratio (x) = -0.00227 0.18125
# Poissons Ratio (y) = -0.00391 -0.03037
# Poissons Ratio (z) = 0.89267 -0.08668
#
# Static dielectric constant tensor:
#      x y z
#    x 1.838830 0.000000 -0.043190 
#    y 0.000000 1.860220 0.000000 
#    z -0.043190 0.000000 1.830690 
# 
# From -- ./inp_files/85608.got.cif
#   From: 2010.05.17/outbox.cif.g08.bks.cpg/sg10_43_cif.got.tgz:85608.got - 2010.06.03 11:33:40.
