data_PCOD9144363
_publ_section_title
;
Structure prediction by ZEFSAII (Michael W. Deem and Ramdas Pophale) SiO2 
 PCOD9144363
Probable space group: P 2/M
;
_chemical_formula_sum "Si O2"
_cell_formula_units_Z 32
_cell_length_a 15.154935
_cell_length_b 9.039211
_cell_length_c 21.252462
_cell_angle_alpha 90.000000
_cell_angle_beta 138.260423
_cell_angle_gamma 90.000000
_cell_volume 1938.216891
_symmetry_space_group_name_H-M "P 2/M"
_symmetry_group_IT_number 10
_symmetry_cell_setting 'monoclinic'
loop_
_space_group_symop_operation_xyz
x,y,z
-x,y,-z
-x,-y,-z
x,-y,z
loop_
_atom_site_type_symbol
_atom_site_label
_atom_site_fract_x
_atom_site_fract_y
_atom_site_fract_z
Si Si1 0.703428 0.828380 0.686135
Si Si2 0.888480 0.677545 0.991167
Si Si3 0.634582 0.823374 0.390880
Si Si4 0.983674 0.668702 0.689480
Si Si5 0.336270 0.670341 0.462301
Si Si6 0.978625 0.168969 0.165326
Si Si7 0.373204 0.677144 0.224202
Si Si8 0.083092 0.321779 0.481623
O O1 0.641143 0.746798 0.592734
O O2 0.674940 0.739343 0.734237
O O3 0.862220 0.827913 0.760475
O O4 0.660606 0.000000 0.667930
O O5 0.900208 0.500000 0.001132
O O6 0.743369 0.713001 0.886911
O O7 0.915473 0.743800 0.073783
O O8 0.000000 0.729014 0.000000
O O9 0.615184 0.763869 0.452183
O O10 0.513586 0.755063 0.287046
O O11 0.775836 0.759547 0.443957
O O12 0.633928 0.000000 0.389677
O O13 0.031231 0.500000 0.719200
O O14 0.044941 0.762323 0.778432
O O15 0.824237 0.666945 0.615414
O O16 0.995684 0.722170 0.623963
O O17 0.382396 0.500000 0.489786
O O18 0.934659 0.000000 0.140286
O O19 0.388848 0.500000 0.235492
O O20 0.105892 0.500000 0.489014
O O21 0.000000 0.292204 0.500000
#
# Coordination Sequence:
#
# PCOD9144363 Si02
#       8
#     4   4   4   4   4   4   4   4
#     4  10  19  30  45  69  97 128 167 211 256 296
#     4  10  20  34  51  70  92 127 177 224 259 294
#     4  11  22  35  50  72 103 132 162 203 251 301
#     4   8  15  28  48  73 101 130 161 200 241 288
#     4   9  17  31  49  67  92 130 172 207 243 290
#     4  10  19  29  46  70 100 133 166 210 256 298
#     4  11  22  35  50  67  93 131 174 214 253 298
#     4   9  18  35  59  84 107 133 165 199 240 297
#
# _framework density 16.510020999999998
#
# number of rings (size 3 to 8) (size 9 to 14) (size 15 to 20)
#    0.000    2.250    1.250    3.375    0.000    6.000 
#    0.000    2.500    0.000    0.000    0.000    0.875 
#    0.000    7.000    0.000    0.000    0.000    0.000 
#
# Total GULP energy -178578.340770 kJ/mol
# GULP energy per Si atom -5580.573149 kJ/mol
# Density = 1.647244 g / cm^3
# Si number density = 16.510021 Si / 1000 Ang^3
#
#
#
# Elastic Constant Matrix: (Units=GPa)
#
#
# Indices 1 2 3 4 5 6 
#
# 1 81.4532 37.4140 50.9148 0.0000 -19.1984 0.0000
# 2 37.4140 85.4404 67.2370 0.0000 -4.4527 0.0000
# 3 50.9148 67.2370 128.1781 0.0000 -17.2818 0.0000
# 4 0.0000 0.0000 0.0000 14.9875 0.0000 6.5272
# 5 -19.1984 -4.4527 -17.2818 0.0000 20.7154 0.0000
# 6 0.0000 0.0000 0.0000 6.5272 0.0000 4.6168
#
#
#
# Elastic Compliance Matrix: (Units=1/GPa)
#
#
# Indices 1 2 3 4 5 6 
#
# 1 0.020379 -0.005738 -0.003048 0.000000 0.015111 0.000000
# 2 -0.005738 0.022018 -0.010534 0.000000 -0.009374 0.000000
# 3 -0.003048 -0.010534 0.015608 0.000000 0.007932 0.000000
# 4 0.000000 0.000000 0.000000 0.173624 0.000000 -0.245464
# 5 0.015111 -0.009374 0.007932 0.000000 0.066880 0.000000
# 6 0.000000 0.000000 0.000000 -0.245464 0.000000 0.563628
#
#
# Mechanical properties :
#
#
# Convention : Reuss Voigt Hill
#
# Bulk Modulus (GPa) = 51.64024 67.35594 59.49809
# Shear Modulus (GPa) = 5.51127 17.36433 11.43780
#
# Velocity S-wave (km/s) = 1.82904 3.24658 2.63493
# Velocity P-wave (km/s) = 5.98386 7.41210 6.73594
#
# Compressibility (1/GPa) = 0.01936474
#
# Stress axis : x y z
#
# Youngs Moduli (GPa) = 49.06905 45.41682 64.07149
#
# Poissons Ratio (x) = 0.26061 0.19527
# Poissons Ratio (y) = 0.28157 0.67495
# Poissons Ratio (z) = 0.14955 0.47844
#
# Static dielectric constant tensor:
#      x y z
#    x 1.558540 0.000000 0.010980 
#    y 0.000000 1.554310 0.000000 
#    z 0.010980 0.000000 1.558860 
# 
# From -- ./inp_files/84767.got.cif
#   From: 2010.05.17/outbox.cif.g08.bks.cpg/sg10_43_cif.got.tgz:84767.got - 2010.06.03 11:33:40.
