data_PCOD9144572
_publ_section_title
;
Structure prediction by ZEFSAII (Michael W. Deem and Ramdas Pophale) SiO2 
 PCOD9144572
Probable space group: P 2/M
;
_chemical_formula_sum "Si O2"
_cell_formula_units_Z 32
_cell_length_a 24.291126
_cell_length_b 7.513354
_cell_length_c 16.986531
_cell_angle_alpha 90.000000
_cell_angle_beta 30.366064
_cell_angle_gamma 90.000000
_cell_volume 1567.209131
_symmetry_space_group_name_H-M "P 2/M"
_symmetry_group_IT_number 10
_symmetry_cell_setting 'monoclinic'
loop_
_space_group_symop_operation_xyz
x,y,z
-x,y,-z
-x,-y,-z
x,-y,z
loop_
_atom_site_type_symbol
_atom_site_label
_atom_site_fract_x
_atom_site_fract_y
_atom_site_fract_z
Si Si1 0.871183 0.218274 0.487180
Si Si2 0.462710 0.200350 0.338574
Si Si3 0.132308 0.204646 0.336176
Si Si4 0.121183 0.215136 0.832103
Si Si5 0.339179 0.701611 0.642429
Si Si6 0.332187 0.214794 0.830411
Si Si7 0.748472 0.782030 0.483239
Si Si8 0.121733 0.218147 0.176642
O O1 0.837158 0.281303 0.616481
O O2 0.793888 0.273680 0.511436
O O3 0.996830 0.272133 0.316758
O O4 0.871383 0.000000 0.489314
O O5 0.401394 0.189120 0.498895
O O6 0.578390 0.283296 0.217821
O O7 0.372065 0.280957 0.392735
O O8 0.483953 0.000000 0.283141
O O9 0.159138 0.280647 0.217518
O O10 0.000000 0.200897 0.500000
O O11 0.171130 0.000000 0.287668
O O12 0.210822 0.271189 0.785316
O O13 0.168887 0.271652 0.688575
O O14 0.118653 0.000000 0.835225
O O15 0.000000 0.279001 0.000000
O O16 0.369084 0.500000 0.587844
O O17 0.363396 0.739462 0.702934
O O18 0.333893 0.000000 0.832834
O O19 0.211001 0.273834 0.003077
O O20 0.745775 0.000000 0.485386
O O21 0.120075 0.000000 0.180593
#
# Coordination Sequence:
#
# PCOD9144572 Si02
#       8
#     4   4   4   4   4   4   4   4
#     4   8  12  19  36  60  86 113 141 174 212 265
#     4   9  18  33  47  61  84 115 154 192 226 265
#     4   7  10  18  31  53  87 117 135 164 215 267
#     4   9  18  31  48  67  91 122 153 183 216 262
#     4  11  22  33  46  65  89 117 150 188 230 271
#     4  10  19  30  47  65  85 114 150 194 229 264
#     4   8  14  24  39  60  82 110 147 180 212 254
#     4   8  14  22  36  61  88 112 141 177 222 267
#
# _framework density 20.418462999999999
#
# number of rings (size 3 to 8) (size 9 to 14) (size 15 to 20)
#    0.000    3.250    0.000    3.750    1.750    2.250 
#    0.000    0.000    0.000    0.750    0.000    5.250 
#    0.000    8.500    0.000    5.625    0.000    6.250 
#
# Total GULP energy -178328.106864 kJ/mol
# GULP energy per Si atom -5572.753339 kJ/mol
# Density = 2.037199 g / cm^3
# Si number density = 20.418463 Si / 1000 Ang^3
#
#
#
# Elastic Constant Matrix: (Units=GPa)
#
#
# Indices 1 2 3 4 5 6 
#
# 1 147.5330 -0.0541 8.8042 0.0000 -6.7515 0.0000
# 2 -0.0541 58.9513 -2.7314 0.0000 0.0616 0.0000
# 3 8.8042 -2.7314 20.1118 0.0000 -6.1378 0.0000
# 4 0.0000 0.0000 0.0000 -16.5804 0.0000 -0.3579
# 5 -6.7515 0.0616 -6.1378 0.0000 22.8849 0.0000
# 6 0.0000 0.0000 0.0000 -0.3579 0.0000 -41.0987
#
#
#
# Elastic Compliance Matrix: (Units=1/GPa)
#
#
# Indices 1 2 3 4 5 6 
#
# 1 0.006999 -0.000119 -0.002668 0.000000 0.001350 0.000000
# 2 -0.000119 0.017081 0.002556 0.000000 0.000605 0.000000
# 3 -0.002668 0.002556 0.055541 0.000000 0.014102 0.000000
# 4 0.000000 0.000000 0.000000 -0.060324 0.000000 0.000525
# 5 0.001350 0.000605 0.014102 0.000000 0.047876 0.000000
# 6 0.000000 0.000000 0.000000 0.000525 0.000000 -0.024336
#
#
# Mechanical properties :
#
#
# Convention : Reuss Voigt Hill
#
# Bulk Modulus (GPa) = 12.63267 26.51483 19.57375
# Shear Modulus (GPa) = 71.75166 7.74630 39.74898
#
# Velocity S-wave (km/s) = 5.93438 1.94987 4.41695
# Velocity P-wave (km/s) = 7.29083 4.25244 5.96822
#
# Compressibility (1/GPa) = 0.07915982
#
# Stress axis : x y z
#
# Youngs Moduli (GPa) = 142.87577 58.54505 18.00469
#
# Poissons Ratio (x) = 0.00694 0.04804
# Poissons Ratio (y) = 0.01695 -0.04602
# Poissons Ratio (z) = 0.38122 -0.14965
#
# Static dielectric constant tensor:
#      x y z
#    x 1.736190 0.000000 -0.008180 
#    y 0.000000 1.776280 0.000000 
#    z -0.008180 0.000000 1.712460 
# 
# From -- ./inp_files/79923.got.cif
#   From: 2010.05.17/outbox.cif.g08.bks.cpg/sg10_40_cif.got.tgz:79923.got - 2010.06.03 11:33:40.
