data_PCOD9144321
_publ_section_title
;
Structure prediction by ZEFSAII (Michael W. Deem and Ramdas Pophale) SiO2 
 PCOD9144321
Probable space group: P 2/M
;
_chemical_formula_sum "Si O2"
_cell_formula_units_Z 16
_cell_length_a 7.042278
_cell_length_b 11.410813
_cell_length_c 9.715568
_cell_angle_alpha 90.000000
_cell_angle_beta 117.235561
_cell_angle_gamma 90.000000
_cell_volume 694.167753
_symmetry_space_group_name_H-M "P 2/M"
_symmetry_group_IT_number 10
_symmetry_cell_setting 'monoclinic'
loop_
_space_group_symop_operation_xyz
x,y,z
-x,y,-z
-x,-y,-z
x,-y,z
loop_
_atom_site_type_symbol
_atom_site_label
_atom_site_fract_x
_atom_site_fract_y
_atom_site_fract_z
Si Si1 0.242449 0.627484 0.025094
Si Si2 0.733339 0.139633 0.516086
Si Si3 0.743862 0.877286 0.941680
Si Si4 0.172552 0.780198 0.757485
O O1 0.339414 0.500000 0.081779
O O2 0.337931 0.747025 0.122383
O O3 0.227325 0.660549 0.857370
O O4 0.000000 0.622650 0.000000
O O5 0.500000 0.156532 0.500000
O O6 0.917480 0.198804 0.669105
O O7 0.756622 0.194914 0.372849
O O8 0.777850 0.000000 0.524046
O O9 0.730052 0.873649 0.103082
O O10 0.660666 0.000000 0.854003
O O11 0.000000 0.876274 0.000000
#
# Coordination Sequence:
#
# PCOD9144321 Si02
#       4
#     4   4   4   4
#     4   8  15  27  47  73  94 119 155 187 228 285
#     4  10  19  29  44  68  96 126 158 190 228 274
#     4   8  13  22  43  70  88 112 151 189 230 277
#     4   9  16  29  48  66  93 121 152 188 231 267
#
# _framework density 23.049182999999999
#
# number of rings (size 3 to 8) (size 9 to 14) (size 15 to 20)
#    1.500    1.750    0.000    3.000    0.000    0.000 
#    0.000    2.500    0.000    9.000    0.000   21.000 
#    0.000    0.000    0.000    0.000    0.000    0.000 
#
# Total GULP energy -89169.372873 kJ/mol
# GULP energy per Si atom -5573.085805 kJ/mol
# Density = 2.299672 g / cm^3
# Si number density = 23.049183 Si / 1000 Ang^3
#
#
#
# Elastic Constant Matrix: (Units=GPa)
#
#
# Indices 1 2 3 4 5 6 
#
# 1 101.7241 19.0641 23.1359 0.0000 -0.5803 0.0000
# 2 19.0641 211.4953 11.1942 0.0000 2.6838 0.0000
# 3 23.1359 11.1942 86.5177 0.0000 -13.3232 0.0000
# 4 0.0000 0.0000 0.0000 15.4937 0.0000 13.0133
# 5 -0.5803 2.6838 -13.3232 0.0000 40.0024 0.0000
# 6 0.0000 0.0000 0.0000 13.0133 0.0000 -25.6513
#
#
#
# Elastic Compliance Matrix: (Units=1/GPa)
#
#
# Indices 1 2 3 4 5 6 
#
# 1 0.010624 -0.000797 -0.002852 0.000000 -0.000742 0.000000
# 2 -0.000797 0.004832 -0.000489 0.000000 -0.000499 0.000000
# 3 -0.002852 -0.000489 0.013052 0.000000 0.004339 0.000000
# 4 0.000000 0.000000 0.000000 0.045258 0.000000 0.022960
# 5 -0.000742 -0.000499 0.004339 0.000000 0.026466 0.000000
# 6 0.000000 0.000000 0.000000 0.022960 0.000000 -0.027336
#
#
# Mechanical properties :
#
#
# Convention : Reuss Voigt Hill
#
# Bulk Modulus (GPa) = 49.42560 56.28061 52.85311
# Shear Modulus (GPa) = 56.87127 29.05847 42.96487
#
# Velocity S-wave (km/s) = 4.97267 3.55451 4.32215
# Velocity P-wave (km/s) = 7.37970 6.42780 6.92014
#
# Compressibility (1/GPa) = 0.02023243
#
# Stress axis : x y z
#
# Youngs Moduli (GPa) = 94.12282 206.94067 76.61403
#
# Poissons Ratio (x) = 0.16499 0.21852
# Poissons Ratio (y) = 0.07504 0.03745
# Poissons Ratio (z) = 0.26846 0.10115
#
# Static dielectric constant tensor:
#      x y z
#    x 1.958160 0.000000 -0.057670 
#    y 0.000000 1.877920 0.000000 
#    z -0.057670 0.000000 1.820300 
# 
# From -- ./inp_files/41095.got.cif
#   From: 2010.05.17/outbox.cif.g08.bks.cpg/sg10_21_cif.got.tgz:41095.got - 2010.06.03 11:33:40.
