data_PCOD9144562
_publ_section_title
;
Structure prediction by ZEFSAII (Michael W. Deem and Ramdas Pophale) SiO2 
 PCOD9144562
Probable space group: P 2/M
;
_chemical_formula_sum "Si O2"
_cell_formula_units_Z 32
_cell_length_a 22.172031
_cell_length_b 17.811140
_cell_length_c 21.869520
_cell_angle_alpha 90.000000
_cell_angle_beta 166.537550
_cell_angle_gamma 90.000000
_cell_volume 2010.640563
_symmetry_space_group_name_H-M "P 2/M"
_symmetry_group_IT_number 10
_symmetry_cell_setting 'monoclinic'
loop_
_space_group_symop_operation_xyz
x,y,z
-x,y,-z
-x,-y,-z
x,-y,z
loop_
_atom_site_type_symbol
_atom_site_label
_atom_site_fract_x
_atom_site_fract_y
_atom_site_fract_z
Si Si1 0.784590 0.168686 0.620144
Si Si2 0.171449 0.729968 0.446419
Si Si3 0.239176 0.085681 0.282124
Si Si4 0.750406 0.204630 0.211877
Si Si5 0.843499 0.413539 0.489070
Si Si6 0.661137 0.184755 0.986075
Si Si7 0.633716 0.620581 0.069828
Si Si8 0.299573 0.913141 0.083408
O O1 0.770861 0.246745 0.567544
O O2 0.772140 0.153385 0.680230
O O3 0.547900 0.119943 0.361607
O O4 0.050813 0.130475 0.862257
O O5 0.152093 0.644035 0.449577
O O6 0.891701 0.764075 0.186666
O O7 0.391161 0.772401 0.704407
O O8 0.500000 0.090083 0.500000
O O9 0.230613 0.000000 0.301556
O O10 0.000000 0.090628 0.000000
O O11 0.735733 0.172594 0.129543
O O12 0.712707 0.294233 0.164333
O O13 0.000000 0.192376 0.500000
O O14 0.500000 0.176074 0.000000
O O15 0.807045 0.500000 0.471271
O O16 0.103884 0.409970 0.703413
O O17 0.598417 0.386513 0.207379
O O18 0.663349 0.107849 0.950805
O O19 0.500000 0.588205 0.000000
O O20 0.270236 0.000000 0.065562
#
# Coordination Sequence:
#
# PCOD9144562 Si02
#       8
#     4   4   4   4   4   4   4   4
#     4  10  20  32  52  70  99 134 160 196 224 264
#     4  10  19  35  48  69  91 119 164 194 233 278
#     4  10  19  30  46  72 106 136 160 184 218 270
#     4  11  19  30  49  65  84 113 153 191 230 285
#     4  12  22  34  50  67  96 125 152 199 248 289
#     4  10  19  32  50  66  89 117 150 200 239 278
#     4  11  22  34  48  67  92 123 157 193 238 301
#     4  10  19  31  50  73  94 120 158 198 237 276
#
# _framework density 15.915326
#
# number of rings (size 3 to 8) (size 9 to 14) (size 15 to 20)
#    0.000    1.500    2.500    4.875    0.000    2.500 
#    0.000    0.000    0.000    0.750    0.000    0.000 
#    0.000    1.000    0.000    0.000    0.000    3.000 
#
# Total GULP energy -178251.549938 kJ/mol
# GULP energy per Si atom -5570.360936 kJ/mol
# Density = 1.587910 g / cm^3
# Si number density = 15.915326 Si / 1000 Ang^3
#
#
#
# Elastic Constant Matrix: (Units=GPa)
#
#
# Indices 1 2 3 4 5 6 
#
# 1 86.3549 25.4836 17.3514 0.0000 -8.2425 0.0000
# 2 25.4836 38.5772 13.8000 0.0000 -0.8883 0.0000
# 3 17.3514 13.8000 113.7312 0.0000 -0.9054 0.0000
# 4 0.0000 0.0000 0.0000 37.1607 0.0000 22.9274
# 5 -8.2425 -0.8883 -0.9054 0.0000 20.0521 0.0000
# 6 0.0000 0.0000 0.0000 22.9274 0.0000 -33.0288
#
#
#
# Elastic Compliance Matrix: (Units=1/GPa)
#
#
# Indices 1 2 3 4 5 6 
#
# 1 0.015150 -0.009476 -0.001116 0.000000 0.005757 0.000000
# 2 -0.009476 0.033048 -0.002585 0.000000 -0.002548 0.000000
# 3 -0.001116 -0.002585 0.009275 0.000000 -0.000154 0.000000
# 4 0.000000 0.000000 0.000000 0.018841 0.000000 0.013079
# 5 0.005757 -0.002548 -0.000154 0.000000 0.052117 0.000000
# 6 0.000000 0.000000 0.000000 0.013079 0.000000 -0.021198
#
#
# Mechanical properties :
#
#
# Convention : Reuss Voigt Hill
#
# Bulk Modulus (GPa) = 32.13344 39.10369 35.61857
# Shear Modulus (GPa) = 34.73181 16.97201 25.85191
#
# Velocity S-wave (km/s) = 4.67656 3.26911 4.03468
# Velocity P-wave (km/s) = 7.02812 6.23479 6.64331
#
# Compressibility (1/GPa) = 0.03112023
#
# Stress axis : x y z
#
# Youngs Moduli (GPa) = 66.00498 30.25908 107.81376
#
# Poissons Ratio (x) = 0.28675 0.12029
# Poissons Ratio (y) = 0.62549 0.27865
# Poissons Ratio (z) = 0.07364 0.07820
#
# Static dielectric constant tensor:
#      x y z
#    x 1.549360 0.000000 0.006250 
#    y 0.000000 1.551890 0.000000 
#    z 0.006250 0.000000 1.531150 
# 
# From -- ./inp_files/91153.got.cif
#   From: 2010.05.17/outbox.cif.g08.bks.cpg/sg10_46_cif.got.tgz:91153.got - 2010.06.03 11:33:40.
