data_PCOD9144047
_publ_section_title
;
Structure prediction by ZEFSAII (Michael W. Deem and Ramdas Pophale) SiO2 
 PCOD9144047
Probable space group: P 2/M
;
_chemical_formula_sum "Si O2"
_cell_formula_units_Z 28
_cell_length_a 24.607603
_cell_length_b 7.617937
_cell_length_c 18.121013
_cell_angle_alpha 90.000000
_cell_angle_beta 22.782308
_cell_angle_gamma 90.000000
_cell_volume 1315.404063
_symmetry_space_group_name_H-M "P 2/M"
_symmetry_group_IT_number 10
_symmetry_cell_setting 'monoclinic'
loop_
_space_group_symop_operation_xyz
x,y,z
-x,y,-z
-x,-y,-z
x,-y,z
loop_
_atom_site_type_symbol
_atom_site_label
_atom_site_fract_x
_atom_site_fract_y
_atom_site_fract_z
Si Si1 0.391435 0.285090 0.425743
Si Si2 0.711392 0.288048 0.033701
Si Si3 0.209661 0.288406 0.513714
Si Si4 0.889700 0.201912 0.954890
Si Si5 0.157990 0.714741 0.284078
Si Si6 0.149892 0.298841 0.834116
Si Si7 0.338268 0.714727 0.198628
O O1 0.398089 0.500000 0.417597
O O2 0.550780 0.224590 0.235640
O O3 0.320058 0.231373 0.437946
O O4 0.285524 0.225232 0.622831
O O5 0.708573 0.500000 0.033849
O O6 0.796939 0.240493 0.999500
O O7 0.789096 0.226597 0.862148
O O8 0.213812 0.500000 0.507283
O O9 0.254851 0.227099 0.376020
O O10 0.052174 0.238927 0.733050
O O11 0.875424 0.000000 0.992361
O O12 0.841267 0.300797 0.089009
O O13 0.158073 0.500000 0.283329
O O14 0.261881 0.770321 0.219407
O O15 0.000000 0.770479 0.500000
O O16 0.142596 0.500000 0.815397
O O17 0.000000 0.215900 0.000000
O O18 0.337506 0.500000 0.199674
O O19 0.500000 0.769822 0.000000
#
# Coordination Sequence:
#
# PCOD9144047 Si02
#       7
#     4   4   4   4   4   4   4
#     4   9  18  33  58  87 109 138 181 229 275 331
#     4  10  20  36  57  81 112 147 185 227 276 328
#     4  10  18  34  59  85 113 146 185 229 281 333
#     4  12  25  38  54  80 113 147 190 230 271 326
#     4   9  16  27  46  76 109 141 176 216 264 317
#     4  10  19  37  62  85 110 138 179 227 278 337
#     4   9  16  26  48  84 116 137 169 227 286 329
#
# _framework density 21.286235000000001
#
# number of rings (size 3 to 8) (size 9 to 14) (size 15 to 20)
#    0.000    2.143    1.429    3.000    0.000    6.571 
#    0.000    4.286    0.000    4.286    0.000    0.000 
#    0.000    0.000    0.000    0.000    0.000    0.000 
#
# Total GULP energy -156446.293213 kJ/mol
# GULP energy per Si atom -5587.367615 kJ/mol
# Density = 2.123779 g / cm^3
# Si number density = 21.286235 Si / 1000 Ang^3
#
#
#
# Elastic Constant Matrix: (Units=GPa)
#
#
# Indices 1 2 3 4 5 6 
#
# 1 160.9749 -6.9350 64.7250 0.0000 -8.1390 0.0000
# 2 -6.9350 44.6889 2.0869 0.0000 -2.2698 0.0000
# 3 64.7250 2.0869 128.2258 0.0000 -3.8815 0.0000
# 4 0.0000 0.0000 0.0000 17.1473 0.0000 -40.2426
# 5 -8.1390 -2.2698 -3.8815 0.0000 44.3288 0.0000
# 6 0.0000 0.0000 0.0000 -40.2426 0.0000 -3.6468
#
#
#
# Elastic Compliance Matrix: (Units=1/GPa)
#
#
# Indices 1 2 3 4 5 6 
#
# 1 0.007943 0.001479 -0.003998 0.000000 0.001184 0.000000
# 2 0.001479 0.022725 -0.001076 0.000000 0.001341 0.000000
# 3 -0.003998 -0.001076 0.009836 0.000000 0.000072 0.000000
# 4 0.000000 0.000000 0.000000 0.002168 0.000000 -0.023925
# 5 0.001184 0.001341 0.000072 0.000000 0.022851 0.000000
# 6 0.000000 0.000000 0.000000 -0.023925 0.000000 -0.010195
#
#
# Mechanical properties :
#
#
# Convention : Reuss Voigt Hill
#
# Bulk Modulus (GPa) = 30.01580 50.40483 40.21032
# Shear Modulus (GPa) = 67.91359 29.83337 48.87348
#
# Velocity S-wave (km/s) = 5.65457 3.74777 4.79687
# Velocity P-wave (km/s) = 7.53418 6.51603 7.04353
#
# Compressibility (1/GPa) = 0.03331578
#
# Stress axis : x y z
#
# Youngs Moduli (GPa) = 125.89434 44.00467 101.66328
#
# Poissons Ratio (x) = -0.06510 0.40642
# Poissons Ratio (y) = -0.18626 0.10940
# Poissons Ratio (z) = 0.50329 0.04735
#
# Static dielectric constant tensor:
#      x y z
#    x 1.726430 0.000000 0.006180 
#    y 0.000000 1.809470 0.000000 
#    z 0.006180 0.000000 1.747430 
# 
# From -- ./inp_files/70212.got.cif
#   From: 2010.05.17/outbox.cif.g08.bks.cpg/sg10_36_cif.got.tgz:70212.got - 2010.06.03 11:33:40.
