data_PCOD9144297
_publ_section_title
;
Structure prediction by ZEFSAII (Michael W. Deem and Ramdas Pophale) SiO2 
 PCOD9144297
Probable space group: P 2/M
;
_chemical_formula_sum "Si O2"
_cell_formula_units_Z 26
_cell_length_a 14.792854
_cell_length_b 17.192145
_cell_length_c 5.506692
_cell_angle_alpha 90.000000
_cell_angle_beta 56.056104
_cell_angle_gamma 90.000000
_cell_volume 1161.805894
_symmetry_space_group_name_H-M "P 2/M"
_symmetry_group_IT_number 10
_symmetry_cell_setting 'monoclinic'
loop_
_space_group_symop_operation_xyz
x,y,z
-x,y,-z
-x,-y,-z
x,-y,z
loop_
_atom_site_type_symbol
_atom_site_label
_atom_site_fract_x
_atom_site_fract_y
_atom_site_fract_z
Si Si1 0.933867 0.000000 0.849200
Si Si2 0.628431 0.693945 0.807356
Si Si3 0.067707 0.581285 0.648440
Si Si4 0.737287 0.887432 0.144075
Si Si5 0.010367 0.260019 0.234450
Si Si6 0.743955 0.700199 0.134069
Si Si7 0.625685 0.883279 0.811477
O O1 0.000000 0.000000 0.500000
O O2 0.855281 0.075072 0.967079
O O3 0.000000 0.000000 0.000000
O O4 0.687223 0.669191 0.466424
O O5 0.632464 0.788492 0.801309
O O6 0.500000 0.672219 0.000000
O O7 0.687223 0.669191 0.971913
O O8 0.137275 0.500000 0.544087
O O9 0.000000 0.575144 0.500000
O O10 0.086536 0.675004 0.620195
O O11 0.000000 0.575144 0.000000
O O12 0.733259 0.793831 0.150115
O O13 0.680096 0.910799 0.481062
O O14 0.680092 0.910799 0.978671
O O15 0.000000 0.215038 0.500000
O O16 0.125198 0.306176 0.062202
O O17 0.000000 0.215038 0.000000
O O18 0.500000 0.904511 0.000000
#
# Coordination Sequence:
#
# PCOD9144297 Si02
#       7
#     2   4   4   4   4   4   4
#     4  12  26  42  55  66  89 128 168 198 218 252
#     4   9  17  30  49  71  95 122 149 183 230 278
#     4   8  14  25  40  58  84 119 152 182 221 267
#     4  10  21  36  52  72  94 120 156 190 225 273
#     4  10  19  29  43  66  96 125 153 187 225 267
#     4  10  19  31  49  71  95 120 151 191 229 269
#     4   9  17  33  56  78  98 116 137 180 242 293
#
# _framework density 22.378955000000001
#
# number of rings (size 3 to 8) (size 9 to 14) (size 15 to 20)
#    0.000    2.462    0.000    2.769    0.000    4.923 
#    0.000    2.308    0.000    0.000    0.000    0.000 
#    0.000    3.692    0.000    0.000    0.000    0.000 
#
# Total GULP energy -144776.619063 kJ/mol
# GULP energy per Si atom -5568.331502 kJ/mol
# Density = 2.232802 g / cm^3
# Si number density = 22.378955 Si / 1000 Ang^3
#
#
#
# Elastic Constant Matrix: (Units=GPa)
#
#
# Indices 1 2 3 4 5 6 
#
# 1 189.4101 -6.0670 109.9365 0.0000 36.6874 0.0000
# 2 -6.0670 33.2210 -0.8908 0.0000 11.2501 0.0000
# 3 109.9365 -0.8908 224.0286 0.0000 38.5603 0.0000
# 4 0.0000 0.0000 0.0000 58.0774 0.0000 25.9174
# 5 36.6874 11.2501 38.5603 0.0000 52.2478 0.0000
# 6 0.0000 0.0000 0.0000 25.9174 0.0000 46.1572
#
#
#
# Elastic Compliance Matrix: (Units=1/GPa)
#
#
# Indices 1 2 3 4 5 6 
#
# 1 0.007987 0.002649 -0.003259 0.000000 -0.003773 0.000000
# 2 0.002649 0.033810 0.000467 0.000000 -0.009485 0.000000
# 3 -0.003259 0.000467 0.006516 0.000000 -0.002621 0.000000
# 4 0.000000 0.000000 0.000000 0.022975 0.000000 -0.012901
# 5 -0.003773 -0.009485 -0.002621 0.000000 0.025766 0.000000
# 6 0.000000 0.000000 0.000000 -0.012901 0.000000 0.028909
#
#
# Mechanical properties :
#
#
# Convention : Reuss Voigt Hill
#
# Bulk Modulus (GPa) = 20.82201 72.51302 46.66752
# Shear Modulus (GPa) = 35.14727 54.20854 44.67790
#
# Velocity S-wave (km/s) = 3.96732 4.92703 4.47298
# Velocity P-wave (km/s) = 5.50551 8.05234 6.89749
#
# Compressibility (1/GPa) = 0.04802610
#
# Stress axis : x y z
#
# Youngs Moduli (GPa) = 125.20204 29.57732 153.46345
#
# Poissons Ratio (x) = -0.07835 0.50021
# Poissons Ratio (y) = -0.33166 -0.07167
# Poissons Ratio (z) = 0.40809 -0.01381
#
# Static dielectric constant tensor:
#      x y z
#    x 1.888410 0.000000 0.025820 
#    y 0.000000 1.898690 0.000000 
#    z 0.025820 0.000000 1.900290 
# 
# From -- ./inp_files/10034.got.cif
#   From: 2010.05.17/outbox.cif.g08.bks.cpg/sg10_6_cif.got.tgz:10034.got - 2010.06.03 11:33:40.
