data_PCOD9144595
_publ_section_title
;
Structure prediction by ZEFSAII (Michael W. Deem and Ramdas Pophale) SiO2 
 PCOD9144595
Probable space group: P 2/M
;
_chemical_formula_sum "Si O2"
_cell_formula_units_Z 28
_cell_length_a 18.687885
_cell_length_b 8.959001
_cell_length_c 13.981620
_cell_angle_alpha 90.000000
_cell_angle_beta 48.559693
_cell_angle_gamma 90.000000
_cell_volume 1754.822775
_symmetry_space_group_name_H-M "P 2/M"
_symmetry_group_IT_number 10
_symmetry_cell_setting 'monoclinic'
loop_
_space_group_symop_operation_xyz
x,y,z
-x,y,-z
-x,-y,-z
x,-y,z
loop_
_atom_site_type_symbol
_atom_site_label
_atom_site_fract_x
_atom_site_fract_y
_atom_site_fract_z
Si Si1 0.721549 0.822556 0.245662
Si Si2 0.894967 0.329280 0.641904
Si Si3 0.022176 0.177453 0.254757
Si Si4 0.824851 0.679728 0.502850
Si Si5 0.662746 0.177617 0.518603
Si Si6 0.470087 0.671997 0.638645
Si Si7 0.084712 0.322443 0.000820
O O1 0.702765 0.796212 0.375416
O O2 0.630374 0.756950 0.270192
O O3 0.728329 0.000000 0.225254
O O4 0.817444 0.742454 0.127654
O O5 0.873621 0.500000 0.689886
O O6 0.905739 0.225638 0.724122
O O7 0.827330 0.283151 0.613995
O O8 0.000000 0.331105 0.500000
O O9 0.058174 0.242862 0.123144
O O10 0.919600 0.249729 0.371509
O O11 0.012622 0.000000 0.259096
O O12 0.830686 0.500000 0.489856
O O13 0.733199 0.742788 0.530072
O O14 0.556427 0.245119 0.615257
O O15 0.660717 0.000000 0.535740
O O16 0.500000 0.671950 0.500000
O O17 0.461070 0.500000 0.677099
O O18 0.092993 0.500000 0.008396
O O19 0.000000 0.295791 0.000000
#
# Coordination Sequence:
#
# PCOD9144595 Si02
#       7
#     4   4   4   4   4   4   4
#     4  10  20  33  48  68  96 127 160 198 238 278
#     4   8  16  31  48  66  91 123 157 193 233 279
#     4  11  21  32  48  69  95 126 159 197 238 280
#     4  10  19  31  48  70  97 127 158 194 236 282
#     4  10  19  30  47  72 100 126 154 195 242 282
#     4   9  17  30  48  68  92 124 160 194 232 282
#     4  11  23  36  50  68  93 128 166 198 230 275
#
# _framework density 15.956026
#
# number of rings (size 3 to 8) (size 9 to 14) (size 15 to 20)
#    0.000    2.143    0.000    5.143    0.000   10.000 
#    0.000    0.000    0.000    0.000    0.000    1.000 
#    0.000    8.000    0.000    0.000    0.000    0.000 
#
# Total GULP energy -156215.073992 kJ/mol
# GULP energy per Si atom -5579.109785 kJ/mol
# Density = 1.591971 g / cm^3
# Si number density = 15.956026 Si / 1000 Ang^3
#
#
#
# Elastic Constant Matrix: (Units=GPa)
#
#
# Indices 1 2 3 4 5 6 
#
# 1 152.0887 87.1911 53.6986 0.0000 -13.1198 0.0000
# 2 87.1911 114.9439 52.0172 0.0000 -0.7593 0.0000
# 3 53.6986 52.0172 57.9296 0.0000 -9.9950 0.0000
# 4 0.0000 0.0000 0.0000 24.2486 0.0000 -3.2621
# 5 -13.1198 -0.7593 -9.9950 0.0000 25.1579 0.0000
# 6 0.0000 0.0000 0.0000 -3.2621 0.0000 23.7767
#
#
#
# Elastic Compliance Matrix: (Units=1/GPa)
#
#
# Indices 1 2 3 4 5 6 
#
# 1 0.013021 -0.008034 -0.004000 0.000000 0.004959 0.000000
# 2 -0.008034 0.020258 -0.012197 0.000000 -0.008424 0.000000
# 3 -0.004000 -0.012197 0.033817 0.000000 0.010981 0.000000
# 4 0.000000 0.000000 0.000000 0.042015 0.000000 0.005764
# 5 0.004959 -0.008424 0.010981 0.000000 0.046443 0.000000
# 6 0.000000 0.000000 0.000000 0.005764 0.000000 0.042849
#
#
# Mechanical properties :
#
#
# Convention : Reuss Voigt Hill
#
# Bulk Modulus (GPa) = 53.66559 78.97510 66.32035
# Shear Modulus (GPa) = 19.75679 23.44032 21.59856
#
# Velocity S-wave (km/s) = 3.52263 3.83699 3.68316
# Velocity P-wave (km/s) = 7.08884 8.32063 7.72931
#
# Compressibility (1/GPa) = 0.01863392
#
# Stress axis : x y z
#
# Youngs Moduli (GPa) = 76.79755 49.36285 29.57083
#
# Poissons Ratio (x) = 0.39659 0.11830
# Poissons Ratio (y) = 0.61701 0.36067
# Poissons Ratio (z) = 0.30722 0.60206
#
# Static dielectric constant tensor:
#      x y z
#    x 1.540940 0.000000 0.003120 
#    y 0.000000 1.530490 0.000000 
#    z 0.003120 0.000000 1.502460 
# 
# From -- ./inp_files/57405.got.cif
#   From: 2010.05.17/outbox.cif.g08.bks.cpg/sg10_29_cif.got.tgz:57405.got - 2010.06.03 11:33:40.
