data_PCOD9144941
_publ_section_title
;
Structure prediction by ZEFSAII (Michael W. Deem and Ramdas Pophale) SiO2 
 PCOD9144941
Probable space group: P 2/M
;
_chemical_formula_sum "Si O2"
_cell_formula_units_Z 24
_cell_length_a 9.633423
_cell_length_b 11.874042
_cell_length_c 26.154351
_cell_angle_alpha 90.000000
_cell_angle_beta 150.856927
_cell_angle_gamma 90.000000
_cell_volume 1456.951478
_symmetry_space_group_name_H-M "P 2/M"
_symmetry_group_IT_number 10
_symmetry_cell_setting 'monoclinic'
loop_
_space_group_symop_operation_xyz
x,y,z
-x,y,-z
-x,-y,-z
x,-y,z
loop_
_atom_site_type_symbol
_atom_site_label
_atom_site_fract_x
_atom_site_fract_y
_atom_site_fract_z
Si Si1 0.960678 0.737197 0.206519
Si Si2 0.591101 0.131811 0.943368
Si Si3 0.810883 0.132282 0.623800
Si Si4 0.960131 0.500000 0.047522
Si Si5 0.347261 0.500000 0.895043
Si Si6 0.398183 0.868955 0.763592
Si Si7 0.155993 0.264133 0.156468
O O1 0.672494 0.812361 0.111511
O O2 0.842398 0.610570 0.173671
O O3 0.130007 0.786682 0.309324
O O4 0.141640 0.742328 0.213014
O O5 0.526033 0.145837 0.861931
O O6 0.605735 0.000000 0.959291
O O7 0.886009 0.191495 0.050526
O O8 0.500000 0.146744 0.500000
O O9 0.062138 0.152360 0.663404
O O10 0.843993 0.000000 0.650433
O O11 0.095257 0.389928 0.117124
O O12 0.000000 0.500000 0.000000
O O13 0.620294 0.500000 0.946488
O O14 0.500000 0.500000 0.000000
O O15 0.562266 0.788206 0.777832
O O16 0.440634 0.000000 0.762736
#
# Coordination Sequence:
#
# PCOD9144941 Si02
#       7
#     4   4   4   2   2   4   4
#     4  11  21  34  55  78 108 147 187 227 271 327
#     4  10  19  31  48  74 111 149 179 214 265 332
#     4   9  20  41  63  81 105 140 187 239 287 335
#     4  12  24  34  52  77 112 160 191 213 259 317
#     4  12  20  40  53  79 120 155 185 223 266 318
#     4   9  19  33  51  77 108 141 176 222 277 327
#     4  12  21  32  49  79 115 144 183 224 267 327
#
# _framework density 16.472752
#
# number of rings (size 3 to 8) (size 9 to 14) (size 15 to 20)
#    0.000    1.500    3.333    4.000    2.333    4.667 
#    0.000    1.250    0.000    3.000    0.000    2.333 
#    0.000    0.000    0.000    0.000    0.000    0.000 
#
# Total GULP energy -134004.296236 kJ/mol
# GULP energy per Si atom -5583.512343 kJ/mol
# Density = 1.643526 g / cm^3
# Si number density = 16.472752 Si / 1000 Ang^3
#
#
#
# Elastic Constant Matrix: (Units=GPa)
#
#
# Indices 1 2 3 4 5 6 
#
# 1 139.0175 75.2300 46.1569 0.0000 7.1914 0.0000
# 2 75.2300 139.9288 55.1335 0.0000 3.1847 0.0000
# 3 46.1569 55.1335 89.2752 0.0000 10.7479 0.0000
# 4 0.0000 0.0000 0.0000 32.5988 0.0000 -4.0327
# 5 7.1914 3.1847 10.7479 0.0000 11.1406 0.0000
# 6 0.0000 0.0000 0.0000 -4.0327 0.0000 24.8963
#
#
#
# Elastic Compliance Matrix: (Units=1/GPa)
#
#
# Indices 1 2 3 4 5 6 
#
# 1 0.010694 -0.004832 -0.002127 0.000000 -0.003470 0.000000
# 2 -0.004832 0.011738 -0.005342 0.000000 0.004918 0.000000
# 3 -0.002127 -0.005342 0.017255 0.000000 -0.013747 0.000000
# 4 0.000000 0.000000 0.000000 0.031303 0.000000 0.005070
# 5 -0.003470 0.004918 -0.013747 0.000000 0.103858 0.000000
# 6 0.000000 0.000000 0.000000 0.005070 0.000000 0.040988
#
#
# Mechanical properties :
#
#
# Convention : Reuss Voigt Hill
#
# Bulk Modulus (GPa) = 66.29808 80.14026 73.21917
# Shear Modulus (GPa) = 20.36930 26.50722 23.43826
#
# Velocity S-wave (km/s) = 3.52027 4.01578 3.77616
# Velocity P-wave (km/s) = 7.54039 8.38199 7.97231
#
# Compressibility (1/GPa) = 0.01508339
#
# Stress axis : x y z
#
# Youngs Moduli (GPa) = 93.50902 85.19615 57.95325
#
# Poissons Ratio (x) = 0.41171 0.12326
# Poissons Ratio (y) = 0.45188 0.30961
# Poissons Ratio (z) = 0.19889 0.45515
#
# Static dielectric constant tensor:
#      x y z
#    x 1.584780 0.000000 0.003870 
#    y 0.000000 1.554730 0.000000 
#    z 0.003870 0.000000 1.527800 
# 
# From -- ./inp_files/27796.got.cif
#   From: 2010.05.17/outbox.cif.g08.bks.cpg/sg10_14_cif.got.tgz:27796.got - 2010.06.03 11:33:40.
