data_PCOD9144917
_publ_section_title
;
Structure prediction by ZEFSAII (Michael W. Deem and Ramdas Pophale) SiO2 
 PCOD9144917
Probable space group: P 2/M
;
_chemical_formula_sum "Si O2"
_cell_formula_units_Z 28
_cell_length_a 16.545797
_cell_length_b 7.602504
_cell_length_c 20.943532
_cell_angle_alpha 90.000000
_cell_angle_beta 151.006416
_cell_angle_gamma 90.000000
_cell_volume 1276.961360
_symmetry_space_group_name_H-M "P 2/M"
_symmetry_group_IT_number 10
_symmetry_cell_setting 'monoclinic'
loop_
_space_group_symop_operation_xyz
x,y,z
-x,y,-z
-x,-y,-z
x,-y,z
loop_
_atom_site_type_symbol
_atom_site_label
_atom_site_fract_x
_atom_site_fract_y
_atom_site_fract_z
Si Si1 0.587830 0.801479 0.652173
Si Si2 0.294447 0.216452 0.535268
Si Si3 0.510693 0.213192 0.804223
Si Si4 0.104901 0.294931 0.210186
Si Si5 0.035076 0.796626 0.750861
Si Si6 0.586969 0.215457 0.995033
Si Si7 0.808375 0.296367 0.922416
O O1 0.419028 0.721211 0.564694
O O2 0.702008 0.723248 0.675403
O O3 0.709559 0.800084 0.798275
O O4 0.550175 0.000000 0.607481
O O5 0.372517 0.268152 0.657089
O O6 0.108443 0.279829 0.393545
O O7 0.297154 0.000000 0.534786
O O8 0.492433 0.267913 0.864771
O O9 0.686298 0.282644 0.898831
O O10 0.519099 0.000000 0.807967
O O11 0.065963 0.500000 0.190081
O O12 0.045036 0.207730 0.233866
O O13 0.986668 0.230493 0.070222
O O14 0.053832 0.000000 0.744871
O O15 0.221071 0.722712 0.877180
O O16 0.587493 0.000000 0.995416
O O17 0.500000 0.273148 0.000000
O O18 0.822384 0.500000 0.911305
#
# Coordination Sequence:
#
# PCOD9144917 Si02
#       7
#     4   4   4   4   4   4   4
#     4  10  20  33  50  72 101 138 178 212 249 298
#     4   8  17  32  50  73 101 134 173 212 245 293
#     4   9  16  31  53  75 101 134 170 207 250 303
#     4  11  22  33  47  72 106 135 171 219 259 293
#     4  10  19  34  54  73  99 137 173 206 255 307
#     4   9  17  30  53  83 106 126 163 212 254 301
#     4  10  19  31  48  72 104 134 169 216 258 295
#
# _framework density 21.927053000000001
#
# number of rings (size 3 to 8) (size 9 to 14) (size 15 to 20)
#    0.000    2.429    1.429    2.571    0.000    4.000 
#    0.000    7.143    0.000    6.000    0.000    0.000 
#    0.000    5.714    0.000    0.000    0.000    0.000 
#
# Total GULP energy -156318.787541 kJ/mol
# GULP energy per Si atom -5582.813841 kJ/mol
# Density = 2.187715 g / cm^3
# Si number density = 21.927053 Si / 1000 Ang^3
#
#
#
# Elastic Constant Matrix: (Units=GPa)
#
#
# Indices 1 2 3 4 5 6 
#
# 1 134.7084 -2.3114 52.7187 0.0000 -4.0117 0.0000
# 2 -2.3114 48.2943 4.2340 0.0000 -2.2158 0.0000
# 3 52.7187 4.2340 122.8565 0.0000 -6.0204 0.0000
# 4 0.0000 0.0000 0.0000 48.0019 0.0000 -4.8492
# 5 -4.0117 -2.2158 -6.0204 0.0000 18.5946 0.0000
# 6 0.0000 0.0000 0.0000 -4.8492 0.0000 -28.6773
#
#
#
# Elastic Compliance Matrix: (Units=1/GPa)
#
#
# Indices 1 2 3 4 5 6 
#
# 1 0.008961 0.000801 -0.003834 0.000000 0.000787 0.000000
# 2 0.000801 0.020936 -0.000950 0.000000 0.002360 0.000000
# 3 -0.003834 -0.000950 0.009929 0.000000 0.002274 0.000000
# 4 0.000000 0.000000 0.000000 0.020483 0.000000 -0.003464
# 5 0.000787 0.002360 0.002274 0.000000 0.054966 0.000000
# 6 0.000000 0.000000 0.000000 -0.003464 0.000000 -0.034285
#
#
# Mechanical properties :
#
#
# Convention : Reuss Voigt Hill
#
# Bulk Modulus (GPa) = 31.38642 46.12687 38.75665
# Shear Modulus (GPa) = 50.21262 24.33170 37.27216
#
# Velocity S-wave (km/s) = 4.79057 3.33478 4.12737
# Velocity P-wave (km/s) = 6.70407 5.99248 6.35824
#
# Compressibility (1/GPa) = 0.03186092
#
# Stress axis : x y z
#
# Youngs Moduli (GPa) = 111.59176 47.76401 100.71388
#
# Poissons Ratio (x) = -0.03827 0.38617
# Poissons Ratio (y) = -0.08941 0.09564
# Poissons Ratio (z) = 0.42788 0.04536
#
# Static dielectric constant tensor:
#      x y z
#    x 1.789180 0.000000 -0.024620 
#    y 0.000000 1.789240 0.000000 
#    z -0.024620 0.000000 1.820020 
# 
# From -- ./inp_files/70307.got.cif
#   From: 2010.05.17/outbox.cif.g08.bks.cpg/sg10_36_cif.got.tgz:70307.got - 2010.06.03 11:33:40.
