data_PCOD9144738
_publ_section_title
;
Structure prediction by ZEFSAII (Michael W. Deem and Ramdas Pophale) SiO2 
 PCOD9144738
Probable space group: P 2/M
;
_chemical_formula_sum "Si O2"
_cell_formula_units_Z 28
_cell_length_a 23.213498
_cell_length_b 12.449046
_cell_length_c 5.382195
_cell_angle_alpha 90.000000
_cell_angle_beta 60.588302
_cell_angle_gamma 90.000000
_cell_volume 1354.911303
_symmetry_space_group_name_H-M "P 2/M"
_symmetry_group_IT_number 10
_symmetry_cell_setting 'monoclinic'
loop_
_space_group_symop_operation_xyz
x,y,z
-x,y,-z
-x,-y,-z
x,-y,z
loop_
_atom_site_type_symbol
_atom_site_label
_atom_site_fract_x
_atom_site_fract_y
_atom_site_fract_z
Si Si1 0.837541 0.619541 0.323741
Si Si2 0.771909 0.778236 0.152279
Si Si3 0.704649 0.379916 0.909267
Si Si4 0.361762 0.771295 0.291531
Si Si5 0.542558 0.624583 0.657921
Si Si6 0.965581 0.629071 0.325256
Si Si7 0.649113 0.000000 0.724168
Si Si8 0.736607 0.000000 0.038247
O O1 0.856117 0.500000 0.180658
O O2 0.834469 0.718812 0.141093
O O3 0.763297 0.609811 0.581983
O O4 0.887657 0.643993 0.442104
O O5 0.714674 0.798344 0.478892
O O6 0.778145 0.890785 0.995558
O O7 0.738533 0.689507 0.048756
O O8 0.686432 0.500000 0.024760
O O9 0.644752 0.314907 0.914361
O O10 0.398877 0.710212 0.433222
O O11 0.390350 0.887831 0.167861
O O12 0.500000 0.640764 0.500000
O O13 0.565217 0.500000 0.612577
O O14 0.500000 0.639289 0.000000
O O15 0.974992 0.500000 0.311387
O O16 0.000000 0.672289 0.500000
O O17 0.000000 0.668789 0.000000
O O18 0.680947 0.000000 0.376972
O O19 0.701492 0.000000 0.843809
#
# Coordination Sequence:
#
# PCOD9144738 Si02
#       8
#     4   4   4   4   4   4   2   2
#     4   9  19  32  47  78 114 140 176 224 269 321
#     4  10  20  33  54  79 108 143 176 223 272 323
#     4  10  19  30  51  79 110 141 172 216 273 327
#     4  10  21  37  55  79 108 142 182 220 272 325
#     4  10  23  40  58  80 109 144 182 225 266 315
#     4   9  18  31  48  70 102 146 182 212 258 317
#     4  10  20  36  58  81 106 141 177 225 265 314
#     4  10  20  36  54  79 110 142 181 218 265 324
#
# _framework density 20.665561
#
# number of rings (size 3 to 8) (size 9 to 14) (size 15 to 20)
#    0.000    2.286    1.429    0.857    4.000    1.714 
#    0.000    0.714    0.000    0.000    0.000    1.000 
#    0.000    0.000    0.000    0.000    0.000    0.000 
#
# Total GULP energy -156072.550561 kJ/mol
# GULP energy per Si atom -5574.019663 kJ/mol
# Density = 2.061853 g / cm^3
# Si number density = 20.665561 Si / 1000 Ang^3
#
#
#
# Elastic Constant Matrix: (Units=GPa)
#
#
# Indices 1 2 3 4 5 6 
#
# 1 104.6816 60.0774 27.4603 0.0000 30.2612 0.0000
# 2 60.0774 155.0032 12.3189 0.0000 27.0897 0.0000
# 3 27.4603 12.3189 58.7403 0.0000 20.7644 0.0000
# 4 0.0000 0.0000 0.0000 9.1758 0.0000 11.8576
# 5 30.2612 27.0897 20.7644 0.0000 37.4024 0.0000
# 6 0.0000 0.0000 0.0000 11.8576 0.0000 3.1132
#
#
#
# Elastic Compliance Matrix: (Units=1/GPa)
#
#
# Indices 1 2 3 4 5 6 
#
# 1 0.014999 -0.004301 -0.003634 0.000000 -0.007002 0.000000
# 2 -0.004301 0.008628 0.001468 0.000000 -0.003585 0.000000
# 3 -0.003634 0.001468 0.022086 0.000000 -0.010384 0.000000
# 4 0.000000 0.000000 0.000000 -0.027787 0.000000 0.105836
# 5 -0.007002 -0.003585 -0.010384 0.000000 0.040763 0.000000
# 6 0.000000 0.000000 0.000000 0.105836 0.000000 -0.081899
#
#
# Mechanical properties :
#
#
# Convention : Reuss Voigt Hill
#
# Bulk Modulus (GPa) = 30.50734 57.57093 44.03913
# Shear Modulus (GPa) = 7696.43388 24.50950 3860.47169
#
# Velocity S-wave (km/s) = 61.09309 3.44758 43.26807
# Velocity P-wave (km/s) = 70.64900 6.61563 50.17493
#
# Compressibility (1/GPa) = 0.03277900
#
# Stress axis : x y z
#
# Youngs Moduli (GPa) = 66.67315 115.89950 45.27758
#
# Poissons Ratio (x) = 0.49844 0.16456
# Poissons Ratio (y) = 0.28674 -0.06648
# Poissons Ratio (z) = 0.24232 -0.17016
#
# Static dielectric constant tensor:
#      x y z
#    x 1.747190 0.000000 -0.019960 
#    y 0.000000 1.814920 0.000000 
#    z -0.019960 0.000000 1.832720 
# 
# From -- ./inp_files/12271.got.cif
#   From: 2010.05.17/outbox.cif.g08.bks.cpg/sg10_7_cif.got.tgz:12271.got - 2010.06.03 11:33:40.
