data_PCOD9144020
_publ_section_title
;
Structure prediction by ZEFSAII (Michael W. Deem and Ramdas Pophale) SiO2 
 PCOD9144020
Probable space group: P 2/M
;
_chemical_formula_sum "Si O2"
_cell_formula_units_Z 32
_cell_length_a 21.784781
_cell_length_b 15.342165
_cell_length_c 15.811178
_cell_angle_alpha 90.000000
_cell_angle_beta 161.258499
_cell_angle_gamma 90.000000
_cell_volume 1697.905234
_symmetry_space_group_name_H-M "P 2/M"
_symmetry_group_IT_number 10
_symmetry_cell_setting 'monoclinic'
loop_
_space_group_symop_operation_xyz
x,y,z
-x,y,-z
-x,-y,-z
x,-y,z
loop_
_atom_site_type_symbol
_atom_site_label
_atom_site_fract_x
_atom_site_fract_y
_atom_site_fract_z
Si Si1 0.102255 0.723754 0.504583
Si Si2 0.646827 0.159830 0.398486
Si Si3 0.697175 0.283912 0.708473
Si Si4 0.719228 0.904799 0.313731
Si Si5 0.094635 0.674482 0.304104
Si Si6 0.307270 0.292604 0.942883
Si Si7 0.218980 0.903032 0.253723
Si Si8 0.623396 0.402012 0.448226
O O1 0.159541 0.824129 0.561926
O O2 0.122844 0.675246 0.441746
O O3 0.240531 0.689557 0.759617
O O4 0.886090 0.719793 0.256252
O O5 0.706574 0.100243 0.398452
O O6 0.802502 0.237789 0.597196
O O7 0.655913 0.110979 0.498724
O O8 0.443265 0.207200 0.119879
O O9 0.500000 0.293895 0.500000
O O10 0.738157 0.181235 0.746863
O O11 0.676743 0.335727 0.593441
O O12 0.874070 0.321933 0.991740
O O13 0.787317 0.000000 0.374532
O O14 0.500000 0.893143 0.000000
O O15 0.206755 0.601277 0.398945
O O16 0.436736 0.366013 0.156004
O O17 0.250233 0.000000 0.257938
O O18 0.000000 0.898622 0.000000
O O19 0.596040 0.500000 0.444331
#
# Coordination Sequence:
#
# PCOD9144020 Si02
#       8
#     4   4   4   4   4   4   4   4
#     4  10  21  38  61  87 123 169 196 247 313 357
#     4  10  18  34  58  79 116 160 207 250 299 344
#     4  12  23  40  63  91 129 162 196 249 306 364
#     4  10  19  32  52  85 119 157 213 256 286 343
#     4  10  21  37  63  89 119 158 201 248 295 362
#     4  10  20  39  63  88 121 160 199 244 309 373
#     4  11  21  37  59  86 121 167 212 250 296 350
#     4  11  24  43  69  92 117 152 199 253 308 371
#
# _framework density 18.846751999999999
#
# number of rings (size 3 to 8) (size 9 to 14) (size 15 to 20)
#    0.000    1.500    5.000    1.500    0.000    1.500 
#    0.000    6.875    0.000    0.000    0.000    0.000 
#    0.000    0.000    0.000    0.000    0.000    0.000 
#
# Total GULP energy -178550.329799 kJ/mol
# GULP energy per Si atom -5579.697806 kJ/mol
# Density = 1.880386 g / cm^3
# Si number density = 18.846752 Si / 1000 Ang^3
#
#
#
# Elastic Constant Matrix: (Units=GPa)
#
#
# Indices 1 2 3 4 5 6 
#
# 1 74.2012 17.7832 22.3166 0.0000 -6.2160 0.0000
# 2 17.7832 82.3305 18.7276 0.0000 -1.6794 0.0000
# 3 22.3166 18.7276 104.4241 0.0000 -0.9887 0.0000
# 4 0.0000 0.0000 0.0000 2.7084 0.0000 6.3811
# 5 -6.2160 -1.6794 -0.9887 0.0000 28.2801 0.0000
# 6 0.0000 0.0000 0.0000 6.3811 0.0000 0.9218
#
#
#
# Elastic Compliance Matrix: (Units=1/GPa)
#
#
# Indices 1 2 3 4 5 6 
#
# 1 0.015184 -0.002591 -0.002751 0.000000 0.003087 0.000000
# 2 -0.002591 0.013118 -0.001797 0.000000 0.000147 0.000000
# 3 -0.002751 -0.001797 0.010483 0.000000 -0.000345 0.000000
# 4 0.000000 0.000000 0.000000 -0.024118 0.000000 0.166949
# 5 0.003087 0.000147 -0.000345 0.000000 0.036036 0.000000
# 6 0.000000 0.000000 0.000000 0.166949 0.000000 -0.070859
#
#
# Mechanical properties :
#
#
# Convention : Reuss Voigt Hill
#
# Bulk Modulus (GPa) = 40.80633 42.06784 41.43709
# Shear Modulus (GPa) = 2182.18198 19.85728 1101.01963
#
# Velocity S-wave (km/s) = 34.06419 3.24947 24.19637
# Velocity P-wave (km/s) = 39.60881 6.03723 28.33113
#
# Compressibility (1/GPa) = 0.02450600
#
# Stress axis : x y z
#
# Youngs Moduli (GPa) = 65.85937 76.23314 95.38925
#
# Poissons Ratio (x) = 0.19751 0.26242
# Poissons Ratio (y) = 0.17064 0.17146
# Poissons Ratio (z) = 0.18118 0.13703
#
# Static dielectric constant tensor:
#      x y z
#    x 1.648760 0.000000 -0.023460 
#    y 0.000000 1.658690 0.000000 
#    z -0.023460 0.000000 1.650880 
# 
# From -- ./inp_files/70789.got.cif
#   From: 2010.05.17/outbox.cif.g08.bks.cpg/sg10_36_cif.got.tgz:70789.got - 2010.06.03 11:33:40.
