data_PCOD9144893
_publ_section_title
;
Structure prediction by ZEFSAII (Michael W. Deem and Ramdas Pophale) SiO2 
 PCOD9144893
Probable space group: P 2/M
;
_chemical_formula_sum "Si O2"
_cell_formula_units_Z 28
_cell_length_a 9.172341
_cell_length_b 7.574581
_cell_length_c 29.728695
_cell_angle_alpha 90.000000
_cell_angle_beta 40.780654
_cell_angle_gamma 90.000000
_cell_volume 1349.079473
_symmetry_space_group_name_H-M "P 2/M"
_symmetry_group_IT_number 10
_symmetry_cell_setting 'monoclinic'
loop_
_space_group_symop_operation_xyz
x,y,z
-x,y,-z
-x,-y,-z
x,-y,z
loop_
_atom_site_type_symbol
_atom_site_label
_atom_site_fract_x
_atom_site_fract_y
_atom_site_fract_z
Si Si1 0.749898 0.712606 0.067189
Si Si2 0.410596 0.283244 0.069537
Si Si3 0.079908 0.704254 0.793190
Si Si4 0.178832 0.798467 0.351438
Si Si5 0.489370 0.710174 0.645805
Si Si6 0.412052 0.210027 0.795126
Si Si7 0.162717 0.786985 0.502327
O O1 0.757611 0.500000 0.062565
O O2 0.581688 0.773546 0.067994
O O3 0.660257 0.757677 0.137322
O O4 0.000000 0.778961 0.000000
O O5 0.405610 0.500000 0.069666
O O6 0.161814 0.218979 0.139512
O O7 0.500000 0.227093 0.000000
O O8 0.039332 0.500000 0.790987
O O9 0.241733 0.776063 0.716083
O O10 0.231043 0.712816 0.802828
O O11 0.343956 0.796897 0.356557
O O12 0.340399 0.719722 0.275630
O O13 0.949253 0.720846 0.425225
O O14 0.129517 0.000000 0.349632
O O15 0.495563 0.500000 0.652930
O O16 0.591318 0.741433 0.572715
O O17 0.415358 0.000000 0.786084
O O18 0.000000 0.722418 0.500000
O O19 0.148657 0.000000 0.506788
#
# Coordination Sequence:
#
# PCOD9144893 Si02
#       7
#     4   4   4   4   4   4   4
#     4  10  20  34  53  74  94 119 153 191 230 275
#     4   9  17  31  52  73  91 117 154 191 226 270
#     4   9  17  30  47  68  95 125 157 192 230 275
#     4   8  15  26  38  55  83 120 154 182 219 267
#     4   9  15  21  34  59  88 115 145 186 230 266
#     4  10  19  31  48  70  97 126 155 190 232 275
#     4   8  13  22  35  52  80 117 152 183 219 266
#
# _framework density 20.754891000000001
#
# number of rings (size 3 to 8) (size 9 to 14) (size 15 to 20)
#    0.000    3.000    0.000    2.571    0.000    6.286 
#    0.000    0.714    0.000    1.714    0.000    1.000 
#    0.000    8.000    0.000    0.000    0.000    0.000 
#
# Total GULP energy -155954.513570 kJ/mol
# GULP energy per Si atom -5569.804056 kJ/mol
# Density = 2.070765 g / cm^3
# Si number density = 20.754891 Si / 1000 Ang^3
#
#
#
# Elastic Constant Matrix: (Units=GPa)
#
#
# Indices 1 2 3 4 5 6 
#
# 1 47.6723 -3.5592 73.3686 0.0000 -3.7379 0.0000
# 2 -3.5592 53.0812 0.4917 0.0000 -3.3685 0.0000
# 3 73.3686 0.4917 278.7063 0.0000 -5.3303 0.0000
# 4 0.0000 0.0000 0.0000 21.1279 0.0000 -6.2451
# 5 -3.7379 -3.3685 -5.3303 0.0000 20.5117 0.0000
# 6 0.0000 0.0000 0.0000 -6.2451 0.0000 36.4443
#
#
#
# Elastic Compliance Matrix: (Units=1/GPa)
#
#
# Indices 1 2 3 4 5 6 
#
# 1 0.036003 0.002792 -0.009395 0.000000 0.004578 0.000000
# 2 0.002792 0.019254 -0.000702 0.000000 0.003488 0.000000
# 3 -0.009395 -0.000702 0.006058 0.000000 -0.000253 0.000000
# 4 0.000000 0.000000 0.000000 0.049856 0.000000 0.008543
# 5 0.004578 0.003488 -0.000253 0.000000 0.050094 0.000000
# 6 0.000000 0.000000 0.000000 0.008543 0.000000 0.028903
#
#
# Mechanical properties :
#
#
# Convention : Reuss Voigt Hill
#
# Bulk Modulus (GPa) = 21.41159 57.78467 39.59813
# Shear Modulus (GPa) = 22.69146 36.22735 29.45940
#
# Velocity S-wave (km/s) = 3.31011 4.18243 3.77157
# Velocity P-wave (km/s) = 4.99478 7.15720 6.17144
#
# Compressibility (1/GPa) = 0.04670367
#
# Stress axis : x y z
#
# Youngs Moduli (GPa) = 27.77538 51.93692 165.08116
#
# Poissons Ratio (x) = -0.14499 1.55095
# Poissons Ratio (y) = -0.07754 0.11591
# Poissons Ratio (z) = 0.26095 0.03647
#
# Static dielectric constant tensor:
#      x y z
#    x 1.685930 0.000000 -0.018380 
#    y 0.000000 1.798100 0.000000 
#    z -0.018380 0.000000 1.831110 
# 
# From -- ./inp_files/86532.got.cif
#   From: 2010.05.17/outbox.cif.g08.bks.cpg/sg10_44_cif.got.tgz:86532.got - 2010.06.03 11:33:40.
