data_PCOD9144868
_publ_section_title
;
Structure prediction by ZEFSAII (Michael W. Deem and Ramdas Pophale) SiO2 
 PCOD9144868
Probable space group: P 2/M
;
_chemical_formula_sum "Si O2"
_cell_formula_units_Z 24
_cell_length_a 19.724380
_cell_length_b 10.436155
_cell_length_c 11.372310
_cell_angle_alpha 90.000000
_cell_angle_beta 41.089446
_cell_angle_gamma 90.000000
_cell_volume 1538.559149
_symmetry_space_group_name_H-M "P 2/M"
_symmetry_group_IT_number 10
_symmetry_cell_setting 'monoclinic'
loop_
_space_group_symop_operation_xyz
x,y,z
-x,y,-z
-x,-y,-z
x,-y,z
loop_
_atom_site_type_symbol
_atom_site_label
_atom_site_fract_x
_atom_site_fract_y
_atom_site_fract_z
Si Si1 0.620963 0.148599 0.859484
Si Si2 0.246835 0.648705 0.172245
Si Si3 0.875568 0.649884 0.167167
Si Si4 0.137208 0.348015 0.080661
Si Si5 0.796751 0.859355 0.451623
Si Si6 0.943706 0.777190 0.459423
O O1 0.672795 0.251378 0.878466
O O2 0.683912 0.160537 0.654965
O O3 0.635793 0.000000 0.879440
O O4 0.500000 0.170565 0.000000
O O5 0.276044 0.500000 0.149275
O O6 0.224347 0.675774 0.064424
O O7 0.136449 0.673605 0.381261
O O8 0.851210 0.500000 0.223378
O O9 0.830250 0.745384 0.322728
O O10 0.837414 0.686353 0.086251
O O11 0.000000 0.660277 0.000000
O O12 0.116836 0.500000 0.107158
O O13 0.033579 0.281455 0.262068
O O14 0.872673 0.858560 0.465639
O O15 0.802871 0.000000 0.386992
O O16 0.000000 0.837606 0.500000
#
# Coordination Sequence:
#
# PCOD9144868 Si02
#       6
#     4   4   4   4   4   4
#     4   9  19  36  54  70  93 124 155 195 250 299
#     4   9  17  28  48  74  96 118 155 203 238 273
#     4  10  19  31  48  67  96 137 169 187 219 280
#     4   9  16  28  44  67  98 131 160 187 226 277
#     4  10  20  32  47  70  96 121 159 204 238 273
#     4   9  16  27  43  66  97 130 157 185 231 284
#
# _framework density 15.59901
#
# number of rings (size 3 to 8) (size 9 to 14) (size 15 to 20)
#    0.000    2.667    1.667    0.500    0.000    5.667 
#    0.000    3.333    0.000    1.000    0.000    7.000 
#    0.000    0.000    0.000    0.000    0.000    0.000 
#
# Total GULP energy -133612.449361 kJ/mol
# GULP energy per Si atom -5567.185390 kJ/mol
# Density = 1.556351 g / cm^3
# Si number density = 15.599010 Si / 1000 Ang^3
#
#
#
# Elastic Constant Matrix: (Units=GPa)
#
#
# Indices 1 2 3 4 5 6 
#
# 1 74.1531 64.0950 52.6875 0.0000 5.5117 0.0000
# 2 64.0950 98.9309 56.9724 0.0000 5.0846 0.0000
# 3 52.6875 56.9724 77.5431 0.0000 1.0205 0.0000
# 4 0.0000 0.0000 0.0000 15.7079 0.0000 7.7050
# 5 5.5117 5.0846 1.0205 0.0000 26.5878 0.0000
# 6 0.0000 0.0000 0.0000 7.7050 0.0000 1.7802
#
#
#
# Elastic Compliance Matrix: (Units=1/GPa)
#
#
# Indices 1 2 3 4 5 6 
#
# 1 0.037390 -0.016317 -0.013362 0.000000 -0.004118 0.000000
# 2 -0.016317 0.024863 -0.007166 0.000000 -0.001097 0.000000
# 3 -0.013362 -0.007166 0.027199 0.000000 0.003096 0.000000
# 4 0.000000 0.000000 0.000000 -0.056690 0.000000 0.245359
# 5 -0.004118 -0.001097 0.003096 0.000000 0.038556 0.000000
# 6 0.000000 0.000000 0.000000 0.245359 0.000000 -0.500208
#
#
# Mechanical properties :
#
#
# Convention : Reuss Voigt Hill
#
# Bulk Modulus (GPa) = 63.44613 66.45966 64.95290
# Shear Modulus (GPa) = -14.28788 13.94000 -0.17394
#
# Velocity S-wave (km/s) = -3.02975 2.99263 -0.33429
# Velocity P-wave (km/s) = 5.34063 7.39180 6.44830
#
# Compressibility (1/GPa) = 0.01576140
#
# Stress axis : x y z
#
# Youngs Moduli (GPa) = 26.74524 40.22096 36.76616
#
# Poissons Ratio (x) = 0.65630 0.49127
# Poissons Ratio (y) = 0.43641 0.26345
# Poissons Ratio (z) = 0.35737 0.28821
#
# Static dielectric constant tensor:
#      x y z
#    x 1.543740 0.000000 0.018050 
#    y 0.000000 1.521610 0.000000 
#    z 0.018050 0.000000 1.500810 
# 
# From -- ./inp_files/45132.got.cif
#   From: 2010.05.17/outbox.cif.g08.bks.cpg/sg10_23_cif.got.tgz:45132.got - 2010.06.03 11:33:40.
