data_PCOD9144892
_publ_section_title
;
Structure prediction by ZEFSAII (Michael W. Deem and Ramdas Pophale) SiO2 
 PCOD9144892
Probable space group: P 2/M
;
_chemical_formula_sum "Si O2"
_cell_formula_units_Z 32
_cell_length_a 28.948893
_cell_length_b 7.558079
_cell_length_c 15.021594
_cell_angle_alpha 90.000000
_cell_angle_beta 151.203639
_cell_angle_gamma 90.000000
_cell_volume 1583.194477
_symmetry_space_group_name_H-M "P 2/M"
_symmetry_group_IT_number 10
_symmetry_cell_setting 'monoclinic'
loop_
_space_group_symop_operation_xyz
x,y,z
-x,y,-z
-x,-y,-z
x,-y,z
loop_
_atom_site_type_symbol
_atom_site_label
_atom_site_fract_x
_atom_site_fract_y
_atom_site_fract_z
Si Si1 0.410828 0.716458 0.731530
Si Si2 0.797979 0.291792 0.955376
Si Si3 0.011704 0.205083 0.620202
Si Si4 0.518870 0.793594 0.432097
Si Si5 0.801562 0.714009 0.304733
Si Si6 0.698163 0.299542 0.621216
Si Si7 0.309737 0.285998 0.055950
Si Si8 0.375846 0.715595 0.875929
O O1 0.411308 0.500000 0.727851
O O2 0.339595 0.782635 0.534525
O O3 0.379056 0.765505 0.777470
O O4 0.522219 0.772026 0.909518
O O5 0.776057 0.500000 0.910390
O O6 0.902663 0.279352 0.175293
O O7 0.776808 0.217884 0.821197
O O8 0.725156 0.218805 0.907044
O O9 0.000000 0.283051 0.500000
O O10 0.909942 0.223141 0.497329
O O11 0.035966 0.000000 0.649343
O O12 0.500000 0.723636 0.500000
O O13 0.602239 0.698211 0.519934
O O14 0.415946 0.774701 0.212072
O O15 0.544746 0.000000 0.481776
O O16 0.803575 0.500000 0.310842
O O17 0.719800 0.774822 0.235271
O O18 0.765097 0.769319 0.145463
O O19 0.729034 0.500000 0.651173
O O20 0.310359 0.500000 0.058581
O O21 0.375915 0.500000 0.879413
#
# Coordination Sequence:
#
# PCOD9144892 Si02
#       8
#     4   4   4   4   4   4   4   4
#     4   8  14  27  49  77 107 130 158 199 244 293
#     4  10  20  33  50  71  95 127 166 206 246 291
#     4  11  23  36  51  71  98 132 168 207 253 300
#     4  11  22  31  42  65 100 137 167 198 236 286
#     4  10  19  32  53  76  99 127 164 207 251 296
#     4  10  19  32  51  72  97 132 169 204 244 293
#     4  10  19  31  48  70  96 128 164 201 242 291
#     4   8  14  26  48  79 106 129 157 199 249 291
#
# _framework density 20.212299000000002
#
# number of rings (size 3 to 8) (size 9 to 14) (size 15 to 20)
#    0.000    2.250    2.500    2.250    0.000    4.500 
#    0.000    0.000    0.000    1.500    0.000    7.875 
#    0.000    0.000    0.000    0.000    0.000    0.000 
#
# Total GULP energy -178577.284858 kJ/mol
# GULP energy per Si atom -5580.540152 kJ/mol
# Density = 2.016630 g / cm^3
# Si number density = 20.212299 Si / 1000 Ang^3
#
#
#
# Elastic Constant Matrix: (Units=GPa)
#
#
# Indices 1 2 3 4 5 6 
#
# 1 85.3322 1.9474 51.3108 0.0000 -12.4984 0.0000
# 2 1.9474 51.1486 0.3322 0.0000 -4.2161 0.0000
# 3 51.3108 0.3322 153.8100 0.0000 -17.3546 0.0000
# 4 0.0000 0.0000 0.0000 57.4507 0.0000 18.6514
# 5 -12.4984 -4.2161 -17.3546 0.0000 35.7329 0.0000
# 6 0.0000 0.0000 0.0000 18.6514 0.0000 4.5313
#
#
#
# Elastic Compliance Matrix: (Units=1/GPa)
#
#
# Indices 1 2 3 4 5 6 
#
# 1 0.014956 -0.000297 -0.004658 0.000000 0.002934 0.000000
# 2 -0.000297 0.019757 0.000326 0.000000 0.002385 0.000000
# 3 -0.004658 0.000326 0.008332 0.000000 0.002456 0.000000
# 4 0.000000 0.000000 0.000000 -0.051760 0.000000 0.213049
# 5 0.002934 0.002385 0.002456 0.000000 0.030486 0.000000
# 6 0.000000 0.000000 0.000000 0.213049 0.000000 -0.656242
#
#
# Mechanical properties :
#
#
# Convention : Reuss Voigt Hill
#
# Bulk Modulus (GPa) = 29.59817 44.16351 36.88084
# Shear Modulus (GPa) = -8.14398 35.32302 13.58952
#
# Velocity S-wave (km/s) = -2.00947 4.18497 2.59576
# Velocity P-wave (km/s) = 3.04819 6.72675 5.22210
#
# Compressibility (1/GPa) = 0.03378587
#
# Stress axis : x y z
#
# Youngs Moduli (GPa) = 66.86228 50.61575 120.02355
#
# Poissons Ratio (x) = 0.01505 0.55903
# Poissons Ratio (y) = 0.01988 -0.03908
# Poissons Ratio (z) = 0.31142 -0.01648
#
# Static dielectric constant tensor:
#      x y z
#    x 1.712010 0.000000 -0.044050 
#    y 0.000000 1.763550 0.000000 
#    z -0.044050 0.000000 1.743940 
# 
# From -- ./inp_files/72209.got.cif
#   From: 2010.05.17/outbox.cif.g08.bks.cpg/sg10_37_cif.got.tgz:72209.got - 2010.06.03 11:33:40.
