data_PCOD9144330
_publ_section_title
;
Structure prediction by ZEFSAII (Michael W. Deem and Ramdas Pophale) SiO2 
 PCOD9144330
Probable space group: P 2/M
;
_chemical_formula_sum "Si O2"
_cell_formula_units_Z 32
_cell_length_a 22.020987
_cell_length_b 7.410650
_cell_length_c 31.017560
_cell_angle_alpha 90.000000
_cell_angle_beta 162.339932
_cell_angle_gamma 90.000000
_cell_volume 1535.578290
_symmetry_space_group_name_H-M "P 2/M"
_symmetry_group_IT_number 10
_symmetry_cell_setting 'monoclinic'
loop_
_space_group_symop_operation_xyz
x,y,z
-x,y,-z
-x,-y,-z
x,-y,z
loop_
_atom_site_type_symbol
_atom_site_label
_atom_site_fract_x
_atom_site_fract_y
_atom_site_fract_z
Si Si1 0.699335 0.780296 0.580133
Si Si2 0.922429 0.220372 0.994871
Si Si3 0.273790 0.717527 0.646111
Si Si4 0.760749 0.780251 0.718730
Si Si5 0.527122 0.793274 0.307597
Si Si6 0.130781 0.216566 0.395901
Si Si7 0.286971 0.283994 0.840149
Si Si8 0.190715 0.280589 0.680729
O O1 0.782902 0.723740 0.683591
O O2 0.464498 0.727956 0.419312
O O3 0.816554 0.719278 0.616745
O O4 0.702979 0.000000 0.582686
O O5 0.694297 0.286759 0.842673
O O6 0.921353 0.000000 0.996932
O O7 0.000000 0.268158 0.000000
O O8 0.069989 0.280826 0.133152
O O9 0.290141 0.500000 0.654929
O O10 0.397687 0.792514 0.690537
O O11 0.316120 0.776732 0.723696
O O12 0.041859 0.766092 0.482081
O O13 0.763677 0.000000 0.720871
O O14 0.701138 0.715619 0.456211
O O15 0.498127 0.000000 0.694512
O O16 0.907814 0.253971 0.262158
O O17 0.146219 0.000000 0.405637
O O18 0.303770 0.500000 0.848014
O O19 0.253979 0.213022 0.769758
O O20 0.500000 0.214338 0.000000
O O21 0.197308 0.500000 0.684991
#
# Coordination Sequence:
#
# PCOD9144330 Si02
#       8
#     4   4   4   4   4   4   4   4
#     4   8  14  25  43  66  90 122 159 192 225 268
#     4   9  16  26  41  63  94 128 156 187 230 274
#     4   9  16  30  52  69  86 119 157 190 226 275
#     4   8  13  24  42  63  90 124 162 192 219 267
#     4  10  19  29  44  71 100 122 152 195 237 274
#     4  10  19  31  47  69  98 124 151 191 238 282
#     4  10  20  35  53  70  90 118 157 199 231 273
#     4   8  15  30  51  70  86 113 155 191 224 274
#
# _framework density 20.839054000000001
#
# number of rings (size 3 to 8) (size 9 to 14) (size 15 to 20)
#    0.000    3.000    1.250    2.250    0.000    3.250 
#    2.250    1.875    0.000    0.375    0.000    2.625 
#    0.000    0.000    0.000    0.000    0.000    0.000 
#
# Total GULP energy -178441.260098 kJ/mol
# GULP energy per Si atom -5576.289378 kJ/mol
# Density = 2.079162 g / cm^3
# Si number density = 20.839054 Si / 1000 Ang^3
#
#
#
# Elastic Constant Matrix: (Units=GPa)
#
#
# Indices 1 2 3 4 5 6 
#
# 1 200.8978 -0.1738 117.2655 0.0000 -5.5523 0.0000
# 2 -0.1738 66.7398 5.9441 0.0000 -4.7601 0.0000
# 3 117.2655 5.9441 167.7932 0.0000 -7.6820 0.0000
# 4 0.0000 0.0000 0.0000-1100.4187 0.0000 -373.3523
# 5 -5.5523 -4.7601 -7.6820 0.0000 17.8317 0.0000
# 6 0.0000 0.0000 0.0000 -373.3523 0.0000 -118.5036
#
#
#
# Elastic Compliance Matrix: (Units=1/GPa)
#
#
# Indices 1 2 3 4 5 6 
#
# 1 0.008428 0.000564 -0.005899 0.000000 0.000233 0.000000
# 2 0.000564 0.015334 -0.000757 0.000000 0.003943 0.000000
# 3 -0.005899 -0.000757 0.010218 0.000000 0.002363 0.000000
# 4 0.000000 0.000000 0.000000 0.013184 0.000000 -0.041537
# 5 0.000233 0.003943 0.002363 0.000000 0.058223 0.000000
# 6 0.000000 0.000000 0.000000 -0.041537 0.000000 0.122426
#
#
# Mechanical properties :
#
#
# Convention : Reuss Voigt Hill
#
# Bulk Modulus (GPa) = 45.88238 75.72249 60.80244
# Shear Modulus (GPa) = 20.22141 -219.39178 -99.58518
#
# Velocity S-wave (km/s) = 3.11844 -10.27169 -6.92037
# Velocity P-wave (km/s) = 5.91874 10.21084 5.88344
#
# Compressibility (1/GPa) = 0.02179486
#
# Stress axis : x y z
#
# Youngs Moduli (GPa) = 118.64988 65.21599 97.86963
#
# Poissons Ratio (x) = -0.03678 0.57738
# Poissons Ratio (y) = -0.06692 0.07407
# Poissons Ratio (z) = 0.69997 0.04936
#
# Static dielectric constant tensor:
#      x y z
#    x 1.749080 0.000000 -0.021720 
#    y 0.000000 1.813990 0.000000 
#    z -0.021720 0.000000 1.728920 
# 
# From -- ./inp_files/93480.got.cif
#   From: 2010.05.17/outbox.cif.g08.bks.cpg/sg10_47_cif.got.tgz:93480.got - 2010.06.03 11:33:40.
