data_PCOD9144704
_publ_section_title
;
Structure prediction by ZEFSAII (Michael W. Deem and Ramdas Pophale) SiO2 
 PCOD9144704
Probable space group: P 2/M
;
_chemical_formula_sum "Si O2"
_cell_formula_units_Z 28
_cell_length_a 5.351428
_cell_length_b 15.415855
_cell_length_c 20.624372
_cell_angle_alpha 90.000000
_cell_angle_beta 128.920593
_cell_angle_gamma 90.000000
_cell_volume 1323.754184
_symmetry_space_group_name_H-M "P 2/M"
_symmetry_group_IT_number 10
_symmetry_cell_setting 'monoclinic'
loop_
_space_group_symop_operation_xyz
x,y,z
-x,y,-z
-x,-y,-z
x,-y,z
loop_
_atom_site_type_symbol
_atom_site_label
_atom_site_fract_x
_atom_site_fract_y
_atom_site_fract_z
Si Si1 0.596418 0.219480 0.828568
Si Si2 0.916877 0.770562 0.660051
Si Si3 0.151392 0.405688 0.292644
Si Si4 0.984168 0.906258 0.574802
Si Si5 0.719917 0.097858 0.739608
Si Si6 0.621880 0.404537 0.819678
Si Si7 0.615974 0.100095 0.945719
O O1 0.783077 0.147347 0.817268
O O2 0.753563 0.312839 0.868513
O O3 0.479953 0.170753 0.873755
O O4 0.298310 0.242932 0.732658
O O5 0.756892 0.678964 0.650964
O O6 0.837237 0.842163 0.700945
O O7 0.839125 0.819246 0.581087
O O8 0.247434 0.500000 0.335455
O O9 0.297745 0.399610 0.244257
O O10 0.760397 0.406003 0.226321
O O11 0.339129 0.909204 0.663652
O O12 0.000000 0.901987 0.500000
O O13 0.835916 0.000000 0.569235
O O14 0.847777 0.000000 0.760168
O O15 0.747072 0.500000 0.861523
O O16 0.541112 0.000000 0.915861
O O17 0.500000 0.114030 0.000000
O O18 0.000000 0.109703 0.000000
#
# Coordination Sequence:
#
# PCOD9144704 Si02
#       7
#     4   4   4   4   4   4   4
#     4  10  20  34  53  76 106 135 174 221 270 308
#     4  10  19  31  51  78 103 132 177 221 268 313
#     4   9  17  30  49  76 108 135 168 216 266 315
#     4   9  19  34  48  69 105 143 176 213 261 320
#     4  10  19  30  49  77 102 131 173 220 264 309
#     4   9  17  30  51  79 106 133 168 213 266 318
#     4  10  23  39  54  75 105 146 186 216 258 318
#
# _framework density 21.151962999999999
#
# number of rings (size 3 to 8) (size 9 to 14) (size 15 to 20)
#    0.000    2.429    1.429    0.857    2.000    2.286 
#    0.000    2.143    0.000    1.286    0.000    1.000 
#    0.000    0.000    0.000    0.000    0.000    0.000 
#
# Total GULP energy -156011.129341 kJ/mol
# GULP energy per Si atom -5571.826048 kJ/mol
# Density = 2.110382 g / cm^3
# Si number density = 21.151963 Si / 1000 Ang^3
#
#
#
# Elastic Constant Matrix: (Units=GPa)
#
#
# Indices 1 2 3 4 5 6 
#
# 1 81.3587 12.4869 17.7111 0.0000 -8.5739 0.0000
# 2 12.4869 218.8789 44.2623 0.0000 -34.8364 0.0000
# 3 17.7111 44.2623 53.3643 0.0000 -8.0825 0.0000
# 4 0.0000 0.0000 0.0000 18.2415 0.0000 -1.6786
# 5 -8.5739 -34.8364 -8.0825 0.0000 34.3895 0.0000
# 6 0.0000 0.0000 0.0000 -1.6786 0.0000 21.7723
#
#
#
# Elastic Compliance Matrix: (Units=1/GPa)
#
#
# Indices 1 2 3 4 5 6 
#
# 1 0.013494 0.000614 -0.004546 0.000000 0.002918 0.000000
# 2 0.000614 0.006345 -0.004635 0.000000 0.005491 0.000000
# 3 -0.004546 -0.004635 0.024066 0.000000 -0.000172 0.000000
# 4 0.000000 0.000000 0.000000 0.055212 0.000000 0.004257
# 5 0.002918 0.005491 -0.000172 0.000000 0.035328 0.000000
# 6 0.000000 0.000000 0.000000 0.004257 0.000000 0.046258
#
#
# Mechanical properties :
#
#
# Convention : Reuss Voigt Hill
#
# Bulk Modulus (GPa) = 37.35308 55.83585 46.59446
# Shear Modulus (GPa) = 24.18260 33.49011 28.83636
#
# Velocity S-wave (km/s) = 3.38491 3.98340 3.69629
# Velocity P-wave (km/s) = 5.74235 6.90010 6.34768
#
# Compressibility (1/GPa) = 0.02677156
#
# Stress axis : x y z
#
# Youngs Moduli (GPa) = 74.10652 157.60621 41.55244
#
# Poissons Ratio (x) = -0.09674 0.18889
# Poissons Ratio (y) = -0.04549 0.19259
# Poissons Ratio (z) = 0.33687 0.73047
#
# Static dielectric constant tensor:
#      x y z
#    x 1.847030 0.000000 0.024690 
#    y 0.000000 1.864180 0.000000 
#    z 0.024690 0.000000 1.748200 
# 
# From -- ./inp_files/11161.got.cif
#   From: 2010.05.17/outbox.cif.g08.bks.cpg/sg10_6_cif.got.tgz:11161.got - 2010.06.03 11:33:40.
