data_PCOD9144126
_publ_section_title
;
Structure prediction by ZEFSAII (Michael W. Deem and Ramdas Pophale) SiO2 
 PCOD9144126
Probable space group: P 2/M
;
_chemical_formula_sum "Si O2"
_cell_formula_units_Z 23
_cell_length_a 7.873033
_cell_length_b 11.280438
_cell_length_c 12.915613
_cell_angle_alpha 90.000000
_cell_angle_beta 105.154544
_cell_angle_gamma 90.000000
_cell_volume 1107.162226
_symmetry_space_group_name_H-M "P 2/M"
_symmetry_group_IT_number 10
_symmetry_cell_setting 'monoclinic'
loop_
_space_group_symop_operation_xyz
x,y,z
-x,y,-z
-x,-y,-z
x,-y,z
loop_
_atom_site_type_symbol
_atom_site_label
_atom_site_fract_x
_atom_site_fract_y
_atom_site_fract_z
Si Si1 0.379804 0.127867 0.694217
Si Si2 0.500000 0.777942 0.500000
Si Si3 0.786958 0.636749 0.672956
Si Si4 0.187207 0.368204 0.729592
Si Si5 0.194970 0.628959 0.979112
Si Si6 0.265211 0.189631 0.142100
Si Si7 0.000000 0.000000 0.000000
O O1 0.427496 0.142544 0.581513
O O2 0.283781 0.250525 0.707301
O O3 0.559993 0.128069 0.788365
O O4 0.288809 0.000000 0.698240
O O5 0.650868 0.694640 0.572079
O O6 0.742690 0.500000 0.690365
O O7 0.784700 0.717744 0.775308
O O8 0.984974 0.637671 0.661645
O O9 0.258875 0.500000 0.711481
O O10 0.183183 0.364175 0.854105
O O11 0.268930 0.500000 0.018857
O O12 0.305942 0.732929 0.047039
O O13 0.000000 0.635340 0.000000
O O14 0.109049 0.102632 0.083740
#
# Coordination Sequence:
#
# PCOD9144126 Si02
#       7
#     4   2   4   4   4   4   1
#     4  11  25  46  62  92 129 172 214 270 325 383
#     4  10  24  42  72  94 121 163 220 272 329 382
#     4  10  20  40  67 100 128 162 213 270 326 379
#     4  10  22  40  64  96 135 171 210 263 322 384
#     4  10  18  35  62  92 124 166 212 257 312 379
#     4  11  21  37  64  91 126 171 216 265 310 375
#     4  12  20  36  58  92 124 168 230 258 308 372
#
# _framework density 20.77383
#
# number of rings (size 3 to 8) (size 9 to 14) (size 15 to 20)
#    0.000    1.565    3.478    1.043    0.000    5.565 
#    6.261    5.217    0.000    0.000    0.000    0.000 
#    0.000    0.000    0.000    0.000    0.000    0.000 
#
# Total GULP energy -128132.474858 kJ/mol
# GULP energy per Si atom -5570.977168 kJ/mol
# Density = 2.072655 g / cm^3
# Si number density = 20.773830 Si / 1000 Ang^3
#
#
#
# Elastic Constant Matrix: (Units=GPa)
#
#
# Indices 1 2 3 4 5 6 
#
# 1 44.5755 49.6863 30.8118 0.0000 7.0948 0.0000
# 2 49.6863 207.0336 59.3279 0.0000 10.9343 0.0000
# 3 30.8118 59.3279 105.0058 0.0000 26.7720 0.0000
# 4 0.0000 0.0000 0.0000 -43.7476 0.0000 -8.6419
# 5 7.0948 10.9343 26.7720 0.0000 32.2561 0.0000
# 6 0.0000 0.0000 0.0000 -8.6419 0.0000 26.3280
#
#
#
# Elastic Compliance Matrix: (Units=1/GPa)
#
#
# Indices 1 2 3 4 5 6 
#
# 1 0.033864 -0.006300 -0.006371 0.000000 -0.000025 0.000000
# 2 -0.006300 0.006958 -0.002327 0.000000 0.000958 0.000000
# 3 -0.006371 -0.002327 0.015410 0.000000 -0.010600 0.000000
# 4 0.000000 0.000000 0.000000 -0.021466 0.000000 -0.007046
# 5 -0.000025 0.000958 -0.010600 0.000000 0.039480 0.000000
# 6 0.000000 0.000000 0.000000 -0.007046 0.000000 0.035670
#
#
# Mechanical properties :
#
#
# Convention : Reuss Voigt Hill
#
# Bulk Modulus (GPa) = 38.11515 70.69634 54.40574
# Shear Modulus (GPa) = 33.63448 17.41990 25.52719
#
# Velocity S-wave (km/s) = 4.02814 2.89891 3.50925
# Velocity P-wave (km/s) = 6.32630 6.73129 6.53194
#
# Compressibility (1/GPa) = 0.02623629
#
# Stress axis : x y z
#
# Youngs Moduli (GPa) = 29.52998 143.71181 64.89289
#
# Poissons Ratio (x) = 0.90540 0.41341
# Poissons Ratio (y) = 0.18604 0.15102
# Poissons Ratio (z) = 0.18813 0.33444
#
# Static dielectric constant tensor:
#      x y z
#    x 1.772600 0.000000 0.004340 
#    y 0.000000 1.790160 0.000000 
#    z 0.004340 0.000000 1.737620 
# 
# From -- ./inp_files/42097.got.cif
#   From: 2010.05.17/outbox.cif.g08.bks.cpg/sg10_22_cif.got.tgz:42097.got - 2010.06.03 11:33:40.
