data_PCOD9144349
_publ_section_title
;
Structure prediction by ZEFSAII (Michael W. Deem and Ramdas Pophale) SiO2 
 PCOD9144349
Probable space group: P 2/M
;
_chemical_formula_sum "Si O2"
_cell_formula_units_Z 32
_cell_length_a 12.749025
_cell_length_b 9.936066
_cell_length_c 18.014727
_cell_angle_alpha 90.000000
_cell_angle_beta 137.498851
_cell_angle_gamma 90.000000
_cell_volume 1541.742966
_symmetry_space_group_name_H-M "P 2/M"
_symmetry_group_IT_number 10
_symmetry_cell_setting 'monoclinic'
loop_
_space_group_symop_operation_xyz
x,y,z
-x,y,-z
-x,-y,-z
x,-y,z
loop_
_atom_site_type_symbol
_atom_site_label
_atom_site_fract_x
_atom_site_fract_y
_atom_site_fract_z
Si Si1 0.117890 0.841342 0.328505
Si Si2 0.601091 0.161367 0.619178
Si Si3 0.149732 0.347266 0.026744
Si Si4 0.217148 0.655418 0.683877
Si Si5 0.542116 0.151456 0.129178
Si Si6 0.154235 0.656194 0.484195
Si Si7 0.398718 0.846897 0.218081
Si Si8 0.194727 0.840816 0.912190
O O1 0.219788 0.807097 0.308150
O O2 0.180851 0.753998 0.429287
O O3 0.934383 0.821313 0.218455
O O4 0.140809 0.000000 0.356166
O O5 0.500000 0.220900 0.500000
O O6 0.537236 0.190169 0.667574
O O7 0.591326 0.000000 0.609106
O O8 0.193456 0.500000 0.029679
O O9 0.277556 0.270092 0.140505
O O10 0.136487 0.255529 0.947240
O O11 0.000000 0.350558 0.000000
O O12 0.267547 0.500000 0.715491
O O13 0.318034 0.743669 0.793206
O O14 0.228496 0.695920 0.602383
O O15 0.033325 0.660317 0.603350
O O16 0.494582 0.147058 0.191996
O O17 0.591114 0.000000 0.132402
O O18 0.380663 0.186176 0.002078
O O19 0.196127 0.500000 0.491349
O O20 0.332207 0.000000 0.190978
O O21 0.187478 0.000000 0.929141
#
# Coordination Sequence:
#
# PCOD9144349 Si02
#       8
#     4   4   4   4   4   4   4   4
#     4  10  20  34  56  80 105 140 179 216 259 313
#     4   9  18  31  49  75 106 139 176 215 257 309
#     4  10  19  29  45  70  97 130 175 224 262 294
#     4   9  19  37  58  78 104 137 175 213 261 323
#     4   9  18  31  53  81 107 134 173 226 267 298
#     4   9  20  38  57  78 105 139 173 213 264 318
#     4   9  18  32  49  71 101 139 174 210 258 309
#     4   9  19  35  51  74 105 140 178 212 258 319
#
# _framework density 20.75573
#
# number of rings (size 3 to 8) (size 9 to 14) (size 15 to 20)
#    0.000    2.750    0.000    2.625    1.750    5.500 
#    0.000    2.500    0.000    4.500    0.000    0.000 
#    0.000    0.000    0.000    0.000    0.000    0.000 
#
# Total GULP energy -178257.763540 kJ/mol
# GULP energy per Si atom -5570.555111 kJ/mol
# Density = 2.070849 g / cm^3
# Si number density = 20.755730 Si / 1000 Ang^3
#
#
#
# Elastic Constant Matrix: (Units=GPa)
#
#
# Indices 1 2 3 4 5 6 
#
# 1 52.9273 16.8290 7.3285 0.0000 -5.4863 0.0000
# 2 16.8290 66.6118 44.0419 0.0000 6.4683 0.0000
# 3 7.3285 44.0419 98.2830 0.0000 3.1636 0.0000
# 4 0.0000 0.0000 0.0000 20.0545 0.0000 -4.4505
# 5 -5.4863 6.4683 3.1636 0.0000 27.9337 0.0000
# 6 0.0000 0.0000 0.0000 -4.4505 0.0000 23.0549
#
#
#
# Elastic Compliance Matrix: (Units=1/GPa)
#
#
# Indices 1 2 3 4 5 6 
#
# 1 0.021470 -0.006813 0.001270 0.000000 0.005650 0.000000
# 2 -0.006813 0.023920 -0.010026 0.000000 -0.005741 0.000000
# 3 0.001270 -0.010026 0.014543 0.000000 0.000924 0.000000
# 4 0.000000 0.000000 0.000000 0.052096 0.000000 0.010056
# 5 0.005650 -0.005741 0.000924 0.000000 0.038134 0.000000
# 6 0.000000 0.000000 0.000000 0.010056 0.000000 0.045316
#
#
# Mechanical properties :
#
#
# Convention : Reuss Voigt Hill
#
# Bulk Modulus (GPa) = 34.72749 39.35791 37.04270
# Shear Modulus (GPa) = 21.16723 24.18348 22.67535
#
# Velocity S-wave (km/s) = 3.19694 3.41713 3.30886
# Velocity P-wave (km/s) = 5.51317 5.87985 5.69946
#
# Compressibility (1/GPa) = 0.02879563
#
# Stress axis : x y z
#
# Youngs Moduli (GPa) = 46.57689 41.80603 68.76126
#
# Poissons Ratio (x) = 0.28481 -0.08733
# Poissons Ratio (y) = 0.31731 0.68941
# Poissons Ratio (z) = -0.05915 0.41915
#
# Static dielectric constant tensor:
#      x y z
#    x 1.828320 0.000000 0.009050 
#    y 0.000000 1.708610 0.000000 
#    z 0.009050 0.000000 1.773690 
# 
# From -- ./inp_files/84744.got.cif
#   From: 2010.05.17/outbox.cif.g08.bks.cpg/sg10_43_cif.got.tgz:84744.got - 2010.06.03 11:33:40.
