data_PCOD9144003
_publ_section_title
;
Structure prediction by ZEFSAII (Michael W. Deem and Ramdas Pophale) SiO2 
 PCOD9144003
Probable space group: P 2/M
;
_chemical_formula_sum "Si O2"
_cell_formula_units_Z 28
_cell_length_a 12.214420
_cell_length_b 14.053663
_cell_length_c 8.688371
_cell_angle_alpha 90.000000
_cell_angle_beta 111.074442
_cell_angle_gamma 90.000000
_cell_volume 1391.667418
_symmetry_space_group_name_H-M "P 2/M"
_symmetry_group_IT_number 10
_symmetry_cell_setting 'monoclinic'
loop_
_space_group_symop_operation_xyz
x,y,z
-x,y,-z
-x,-y,-z
x,-y,z
loop_
_atom_site_type_symbol
_atom_site_label
_atom_site_fract_x
_atom_site_fract_y
_atom_site_fract_z
Si Si1 0.327460 0.309614 0.591057
Si Si2 0.766379 0.603884 0.767711
Si Si3 0.107527 0.246549 0.969889
Si Si4 0.411216 0.103677 0.717960
Si Si5 0.555357 0.633825 0.876495
Si Si6 0.351375 0.843168 0.031662
Si Si7 0.892608 0.386273 0.323391
O O1 0.291161 0.344285 0.405543
O O2 0.351503 0.196106 0.611919
O O3 0.450481 0.355226 0.703154
O O4 0.226305 0.348794 0.653852
O O5 0.812283 0.500000 0.745912
O O6 0.667005 0.593591 0.847301
O O7 0.860100 0.672833 0.888757
O O8 0.088101 0.309966 0.805266
O O9 0.216030 0.173493 0.004360
O O10 0.000000 0.195409 0.000000
O O11 0.553607 0.113836 0.801008
O O12 0.381621 0.000000 0.637882
O O13 0.369118 0.108629 0.875295
O O14 0.601799 0.735688 0.958044
O O15 0.500000 0.590560 0.000000
O O16 0.880855 0.500000 0.273332
O O17 0.000000 0.380912 0.500000
#
# Coordination Sequence:
#
# PCOD9144003 Si02
#       7
#     4   4   4   4   4   4   4
#     4  11  20  37  57  86 122 155 199 253 312 360
#     4  11  24  36  53  84 123 168 207 248 297 356
#     4  11  22  38  58  84 123 168 206 244 296 361
#     4  10  18  34  68  97 117 148 199 258 311 371
#     4  10  18  34  56  80 116 160 198 244 301 361
#     4   9  16  34  58  92 119 150 195 243 310 361
#     4  11  23  38  59  86 117 161 213 255 294 352
#
# _framework density 20.119748999999999
#
# number of rings (size 3 to 8) (size 9 to 14) (size 15 to 20)
#    0.000    1.571    4.286    3.857    0.000    4.286 
#    0.000    0.000    0.000   21.857    0.000    0.000 
#    0.000    0.000    0.000    0.000    0.000    0.000 
#
# Total GULP energy -156128.267059 kJ/mol
# GULP energy per Si atom -5576.009538 kJ/mol
# Density = 2.007396 g / cm^3
# Si number density = 20.119749 Si / 1000 Ang^3
#
#
#
# Elastic Constant Matrix: (Units=GPa)
#
#
# Indices 1 2 3 4 5 6 
#
# 1 126.9757 -1.9162 -6.3402 0.0000 -0.9942 0.0000
# 2 -1.9162 80.4636 -5.2559 0.0000 -1.1372 0.0000
# 3 -6.3402 -5.2559 54.8219 0.0000 -2.3350 0.0000
# 4 0.0000 0.0000 0.0000 34.4435 0.0000 -3.0259
# 5 -0.9942 -1.1372 -2.3350 0.0000 26.5031 0.0000
# 6 0.0000 0.0000 0.0000 -3.0259 0.0000 11.0155
#
#
#
# Elastic Compliance Matrix: (Units=1/GPa)
#
#
# Indices 1 2 3 4 5 6 
#
# 1 0.007930 0.000257 0.000959 0.000000 0.000393 0.000000
# 2 0.000257 0.012526 0.001259 0.000000 0.000658 0.000000
# 3 0.000959 0.001259 0.018546 0.000000 0.001724 0.000000
# 4 0.000000 0.000000 0.000000 0.029751 0.000000 0.008172
# 5 0.000393 0.000658 0.001724 0.000000 0.037926 0.000000
# 6 0.000000 0.000000 0.000000 0.008172 0.000000 0.093026
#
#
# Mechanical properties :
#
#
# Convention : Reuss Voigt Hill
#
# Bulk Modulus (GPa) = 22.75306 26.13738 24.44522
# Shear Modulus (GPa) = 23.87693 32.77732 28.32712
#
# Velocity S-wave (km/s) = 3.44865 4.04060 3.75631
# Velocity P-wave (km/s) = 5.21449 5.89811 5.56681
#
# Compressibility (1/GPa) = 0.04395013
#
# Stress axis : x y z
#
# Youngs Moduli (GPa) = 126.09802 79.83643 53.92047
#
# Poissons Ratio (x) = -0.02052 -0.05168
# Poissons Ratio (y) = -0.03241 -0.06787
# Poissons Ratio (z) = -0.12087 -0.10048
#
# Static dielectric constant tensor:
#      x y z
#    x 1.764280 0.000000 -0.021740 
#    y 0.000000 1.778020 0.000000 
#    z -0.021740 0.000000 1.737180 
# 
# From -- ./inp_files/25035.got.cif
#   From: 2010.05.17/outbox.cif.g08.bks.cpg/sg10_13_cif.got.tgz:25035.got - 2010.06.03 11:33:40.
