data_PCOD9144948
_publ_section_title
;
Structure prediction by ZEFSAII (Michael W. Deem and Ramdas Pophale) SiO2 
 PCOD9144948
Probable space group: P 2/M
;
_chemical_formula_sum "Si O2"
_cell_formula_units_Z 32
_cell_length_a 9.621796
_cell_length_b 7.804443
_cell_length_c 22.388393
_cell_angle_alpha 90.000000
_cell_angle_beta 109.832310
_cell_angle_gamma 90.000000
_cell_volume 1581.493175
_symmetry_space_group_name_H-M "P 2/M"
_symmetry_group_IT_number 10
_symmetry_cell_setting 'monoclinic'
loop_
_space_group_symop_operation_xyz
x,y,z
-x,y,-z
-x,-y,-z
x,-y,z
loop_
_atom_site_type_symbol
_atom_site_label
_atom_site_fract_x
_atom_site_fract_y
_atom_site_fract_z
Si Si1 0.464870 0.703886 0.061732
Si Si2 0.219539 0.205835 0.868951
Si Si3 0.328121 0.196226 0.331810
Si Si4 0.267048 0.696985 0.454303
Si Si5 0.849683 0.204621 0.007453
Si Si6 0.009341 0.209882 0.263936
Si Si7 0.055452 0.792464 0.609453
Si Si8 0.639258 0.792677 0.403752
O O1 0.460016 0.500000 0.058086
O O2 0.609345 0.753515 0.120080
O O3 0.500000 0.774453 0.000000
O O4 0.299704 0.763824 0.052089
O O5 0.179767 0.272720 0.929650
O O6 0.103476 0.268825 0.803051
O O7 0.207873 0.000000 0.868868
O O8 0.299023 0.196695 0.399193
O O9 0.491019 0.273972 0.350168
O O10 0.178704 0.272201 0.282239
O O11 0.336656 0.000000 0.311821
O O12 0.294245 0.500000 0.443047
O O13 0.357366 0.745784 0.526039
O O14 0.093364 0.724463 0.442706
O O15 0.866214 0.000000 0.015266
O O16 0.000000 0.272491 0.000000
O O17 0.955179 0.256282 0.322357
O O18 0.013724 0.000000 0.263242
O O19 0.208315 0.732598 0.603296
O O20 0.050579 0.000000 0.604512
O O21 0.636494 0.000000 0.399797
#
# Coordination Sequence:
#
# PCOD9144948 Si02
#       8
#     4   4   4   4   4   4   4   4
#     4   9  17  29  46  69  95 124 158 191 223 264
#     4   9  16  29  50  71  93 123 157 192 229 271
#     4   9  18  33  50  67  90 119 152 189 230 279
#     4  11  21  31  46  69  94 121 153 188 230 280
#     4   9  17  29  46  72 103 129 153 187 233 276
#     4   8  15  30  50  69  89 118 156 193 228 271
#     4   9  18  33  50  68  91 118 152 193 234 278
#     4  10  19  31  49  70  91 118 150 189 237 282
#
# _framework density 20.234041999999999
#
# number of rings (size 3 to 8) (size 9 to 14) (size 15 to 20)
#    0.000    2.750    0.000    3.000    0.000    5.750 
#    0.000    3.750    0.000    6.000    0.000    3.500 
#    0.000    0.000    0.000    0.000    0.000    0.000 
#
# Total GULP energy -178416.492270 kJ/mol
# GULP energy per Si atom -5575.515383 kJ/mol
# Density = 2.018799 g / cm^3
# Si number density = 20.234042 Si / 1000 Ang^3
#
#
#
# Elastic Constant Matrix: (Units=GPa)
#
#
# Indices 1 2 3 4 5 6 
#
# 1 125.3784 -0.4346 42.0494 0.0000 37.5746 0.0000
# 2 -0.4346 33.3691 -0.7640 0.0000 -0.9168 0.0000
# 3 42.0494 -0.7640 91.6743 0.0000 39.5448 0.0000
# 4 0.0000 0.0000 0.0000 -29.6308 0.0000 -26.8378
# 5 37.5746 -0.9168 39.5448 0.0000 33.6810 0.0000
# 6 0.0000 0.0000 0.0000 -26.8378 0.0000 -25.4605
#
#
#
# Elastic Compliance Matrix: (Units=1/GPa)
#
#
# Indices 1 2 3 4 5 6 
#
# 1 0.011997 -0.000217 0.000550 0.000000 -0.014035 0.000000
# 2 -0.000217 0.029996 -0.000217 0.000000 0.001313 0.000000
# 3 0.000550 -0.000217 0.022129 0.000000 -0.026600 0.000000
# 4 0.000000 0.000000 0.000000 -0.745590 0.000000 0.785921
# 5 -0.014035 0.001313 -0.026600 0.000000 0.076615 0.000000
# 6 0.000000 0.000000 0.000000 0.785921 0.000000 -0.867711
#
#
# Mechanical properties :
#
#
# Convention : Reuss Voigt Hill
#
# Bulk Modulus (GPa) = 15.53924 36.90260 26.22092
# Shear Modulus (GPa) = -3.44508 9.68933 3.12212
#
# Velocity S-wave (km/s) = -1.30626 2.19067 1.24353
# Velocity P-wave (km/s) = 2.32838 4.96751 3.87927
#
# Compressibility (1/GPa) = 0.06435320
#
# Stress axis : x y z
#
# Youngs Moduli (GPa) = 83.35470 33.33760 45.19044
#
# Poissons Ratio (x) = 0.00723 -0.02483
# Poissons Ratio (y) = 0.01807 0.00981
# Poissons Ratio (z) = -0.04581 0.00723
#
# Static dielectric constant tensor:
#      x y z
#    x 1.763000 0.000000 0.025250 
#    y 0.000000 1.731700 0.000000 
#    z 0.025250 0.000000 1.704540 
# 
# From -- ./inp_files/36598.got.cif
#   From: 2010.05.17/outbox.cif.g08.bks.cpg/sg10_19_cif.got.tgz:36598.got - 2010.06.03 11:33:40.
