data_PCOD9144065
_publ_section_title
;
Structure prediction by ZEFSAII (Michael W. Deem and Ramdas Pophale) SiO2 
 PCOD9144065
Probable space group: P 2/M
;
_chemical_formula_sum "Si O2"
_cell_formula_units_Z 32
_cell_length_a 8.795857
_cell_length_b 22.407744
_cell_length_c 15.509463
_cell_angle_alpha 90.000000
_cell_angle_beta 30.642643
_cell_angle_gamma 90.000000
_cell_volume 1558.017240
_symmetry_space_group_name_H-M "P 2/M"
_symmetry_group_IT_number 10
_symmetry_cell_setting 'monoclinic'
loop_
_space_group_symop_operation_xyz
x,y,z
-x,y,-z
-x,-y,-z
x,-y,z
loop_
_atom_site_type_symbol
_atom_site_label
_atom_site_fract_x
_atom_site_fract_y
_atom_site_fract_z
Si Si1 0.659328 0.632452 0.673936
Si Si2 0.131831 0.931034 0.025690
Si Si3 0.780984 0.888962 0.672352
Si Si4 0.861197 0.849426 0.817552
Si Si5 0.490304 0.767300 0.757678
Si Si6 0.995682 0.253322 0.860194
Si Si7 0.723829 0.384612 0.971300
Si Si8 0.361268 0.568192 0.660039
O O1 0.659155 0.704407 0.684988
O O2 0.483083 0.611329 0.675112
O O3 0.000000 0.611612 0.500000
O O4 0.474658 0.608419 0.846009
O O5 0.039768 0.893003 0.153614
O O6 0.044632 0.000000 0.078239
O O7 0.487038 0.925310 0.841039
O O8 0.000000 0.907398 0.000000
O O9 0.936365 0.871897 0.686343
O O10 0.675979 0.827709 0.675954
O O11 0.000000 0.921122 0.500000
O O12 0.986586 0.784491 0.777745
O O13 0.500000 0.845891 0.000000
O O14 0.299136 0.758143 0.764023
O O15 0.258831 0.771235 0.950582
O O16 0.894443 0.320704 0.893078
O O17 0.002700 0.428934 0.830360
O O18 0.500000 0.386815 0.000000
O O19 0.500000 0.585418 0.500000
O O20 0.454341 0.500000 0.633341
#
# Coordination Sequence:
#
# PCOD9144065 Si02
#       8
#     4   4   4   4   4   4   4   4
#     4  11  23  41  64  94 129 168 214 263 325 389
#     4  10  21  40  65  87 115 166 220 262 307 374
#     4  11  23  37  56  89 130 160 202 259 325 372
#     4  10  19  34  58  87 120 162 207 254 303 380
#     4  10  19  35  58  86 127 161 199 255 315 377
#     4  10  18  34  60  88 120 161 206 254 310 368
#     4  11  23  39  65  97 128 167 214 264 322 391
#     4  11  25  47  68  93 129 168 217 271 324 384
#
# _framework density 20.538926
#
# number of rings (size 3 to 8) (size 9 to 14) (size 15 to 20)
#    0.000    1.500    3.750    2.625    1.750    4.000 
#    2.250    2.500    0.000    1.500    0.000    0.000 
#    0.000    0.000    0.000    0.000    0.000    0.000 
#
# Total GULP energy -178729.078582 kJ/mol
# GULP energy per Si atom -5585.283706 kJ/mol
# Density = 2.049218 g / cm^3
# Si number density = 20.538926 Si / 1000 Ang^3
#
#
#
# Elastic Constant Matrix: (Units=GPa)
#
#
# Indices 1 2 3 4 5 6 
#
# 1 126.3962 20.8280 36.7048 0.0000 12.1520 0.0000
# 2 20.8280 53.9701 9.5583 0.0000 8.4011 0.0000
# 3 36.7048 9.5583 91.9054 0.0000 9.7233 0.0000
# 4 0.0000 0.0000 0.0000 3.8757 0.0000 0.7906
# 5 12.1520 8.4011 9.7233 0.0000 30.0241 0.0000
# 6 0.0000 0.0000 0.0000 0.7906 0.0000 5.1001
#
#
#
# Elastic Compliance Matrix: (Units=1/GPa)
#
#
# Indices 1 2 3 4 5 6 
#
# 1 0.009521 -0.002777 -0.003301 0.000000 -0.002007 0.000000
# 2 -0.002777 0.020382 -0.000545 0.000000 -0.004403 0.000000
# 3 -0.003301 -0.000545 0.012528 0.000000 -0.002568 0.000000
# 4 0.000000 0.000000 0.000000 0.266443 0.000000 -0.041303
# 5 -0.002007 -0.004403 -0.002568 0.000000 0.036183 0.000000
# 6 0.000000 0.000000 0.000000 -0.041303 0.000000 0.202475
#
#
# Mechanical properties :
#
#
# Convention : Reuss Voigt Hill
#
# Bulk Modulus (GPa) = 34.26494 45.16156 39.71325
# Shear Modulus (GPa) = 8.76415 21.47869 15.12142
#
# Velocity S-wave (km/s) = 2.06793 3.23732 2.71630
# Velocity P-wave (km/s) = 4.73508 6.00081 5.40512
#
# Compressibility (1/GPa) = 0.02918435
#
# Stress axis : x y z
#
# Youngs Moduli (GPa) = 105.03198 49.06198 79.82389
#
# Poissons Ratio (x) = 0.13625 0.26352
# Poissons Ratio (y) = 0.29169 0.04349
# Poissons Ratio (z) = 0.34673 0.02673
#
# Static dielectric constant tensor:
#      x y z
#    x 1.729040 0.000000 -0.006760 
#    y 0.000000 1.739680 0.000000 
#    z -0.006760 0.000000 1.718450 
# 
# From -- ./inp_files/62682.got.cif
#   From: 2010.05.17/outbox.cif.g08.bks.cpg/sg10_32_cif.got.tgz:62682.got - 2010.06.03 11:33:40.
