data_PCOD9144017
_publ_section_title
;
Structure prediction by ZEFSAII (Michael W. Deem and Ramdas Pophale) SiO2 
 PCOD9144017
Probable space group: P 2/M
;
_chemical_formula_sum "Si O2"
_cell_formula_units_Z 28
_cell_length_a 15.458173
_cell_length_b 8.552671
_cell_length_c 12.073877
_cell_angle_alpha 90.000000
_cell_angle_beta 118.238416
_cell_angle_gamma 90.000000
_cell_volume 1406.293238
_symmetry_space_group_name_H-M "P 2/M"
_symmetry_group_IT_number 10
_symmetry_cell_setting 'monoclinic'
loop_
_space_group_symop_operation_xyz
x,y,z
-x,y,-z
-x,-y,-z
x,-y,z
loop_
_atom_site_type_symbol
_atom_site_label
_atom_site_fract_x
_atom_site_fract_y
_atom_site_fract_z
Si Si1 0.796223 0.817988 0.755617
Si Si2 0.803346 0.187875 0.140610
Si Si3 0.009014 0.188786 0.879430
Si Si4 0.279103 0.183353 0.526206
Si Si5 0.507385 0.189326 0.375029
Si Si6 0.324183 0.683203 0.124773
Si Si7 0.114703 0.686206 0.580804
O O1 0.723883 0.808518 0.609123
O O2 0.762642 0.719226 0.839430
O O3 0.901749 0.775121 0.768910
O O4 0.801476 0.000000 0.796337
O O5 0.898728 0.248903 0.130622
O O6 0.827268 0.243943 0.278454
O O7 0.800604 0.000000 0.138525
O O8 0.709881 0.246852 0.013854
O O9 0.019540 0.000000 0.886583
O O10 0.000000 0.241880 0.000000
O O11 0.389189 0.239861 0.617858
O O12 0.187029 0.270535 0.523642
O O13 0.269214 0.000000 0.550519
O O14 0.500000 0.242927 0.500000
O O15 0.418051 0.242621 0.243267
O O16 0.507533 0.000000 0.378726
O O17 0.338846 0.500000 0.121669
O O18 0.109478 0.500000 0.589779
O O19 0.000000 0.743017 0.500000
#
# Coordination Sequence:
#
# PCOD9144017 Si02
#       7
#     4   4   4   4   4   4   4
#     4  10  18  34  57  85 120 157 202 252 302 359
#     4  11  22  40  65  87 117 162 214 264 303 357
#     4   9  16  28  53  85 113 145 193 248 301 351
#     4  10  21  38  65  93 118 158 214 262 302 356
#     4  10  20  39  65  92 123 161 208 261 307 360
#     4  12  24  36  55  89 130 164 197 244 314 381
#     4  11  25  44  64  90 130 169 202 249 311 374
#
# _framework density 19.910499999999999
#
# number of rings (size 3 to 8) (size 9 to 14) (size 15 to 20)
#    0.000    1.571    2.857    3.000    0.000    3.714 
#    0.000    2.857    0.000    4.286    0.000    0.000 
#    0.000    0.000    0.000    0.000    0.000    0.000 
#
# Total GULP energy -156132.413114 kJ/mol
# GULP energy per Si atom -5576.157611 kJ/mol
# Density = 1.986518 g / cm^3
# Si number density = 19.910500 Si / 1000 Ang^3
#
#
#
# Elastic Constant Matrix: (Units=GPa)
#
#
# Indices 1 2 3 4 5 6 
#
# 1 71.4501 20.5890 36.1319 0.0000 15.1069 0.0000
# 2 20.5890 44.6210 27.7053 0.0000 5.6026 0.0000
# 3 36.1319 27.7053 124.8449 0.0000 15.3290 0.0000
# 4 0.0000 0.0000 0.0000 -1.2412 0.0000 24.4618
# 5 15.1069 5.6026 15.3290 0.0000 33.0574 0.0000
# 6 0.0000 0.0000 0.0000 24.4618 0.0000 -9.4144
#
#
#
# Elastic Compliance Matrix: (Units=1/GPa)
#
#
# Indices 1 2 3 4 5 6 
#
# 1 0.018623 -0.005744 -0.003382 0.000000 -0.005969 0.000000
# 2 -0.005744 0.027869 -0.004522 0.000000 -0.000002 0.000000
# 3 -0.003382 -0.004522 0.010295 0.000000 -0.002462 0.000000
# 4 0.000000 0.000000 0.000000 0.016046 0.000000 0.041694
# 5 -0.005969 -0.000002 -0.002462 0.000000 0.034120 0.000000
# 6 0.000000 0.000000 0.000000 0.041694 0.000000 0.002116
#
#
# Mechanical properties :
#
#
# Convention : Reuss Voigt Hill
#
# Bulk Modulus (GPa) = 33.90881 45.52981 39.71931
# Shear Modulus (GPa) = 34.20073 14.91301 24.55687
#
# Velocity S-wave (km/s) = 4.14904 2.73976 3.51574
# Velocity P-wave (km/s) = 6.32616 5.73805 6.03927
#
# Compressibility (1/GPa) = 0.02949086
#
# Stress axis : x y z
#
# Youngs Moduli (GPa) = 53.69619 35.88185 97.13780
#
# Poissons Ratio (x) = 0.20609 0.32856
# Poissons Ratio (y) = 0.30841 0.43928
# Poissons Ratio (z) = 0.18162 0.16227
#
# Static dielectric constant tensor:
#      x y z
#    x 1.735650 0.000000 0.040100 
#    y 0.000000 1.692620 0.000000 
#    z 0.040100 0.000000 1.750800 
# 
# From -- ./inp_files/50076.got.cif
#   From: 2010.05.17/outbox.cif.g08.bks.cpg/sg10_26_cif.got.tgz:50076.got - 2010.06.03 11:33:40.
