data_PCOD9144805
_publ_section_title
;
Structure prediction by ZEFSAII (Michael W. Deem and Ramdas Pophale) SiO2 
 PCOD9144805
Probable space group: P 2/M
;
_chemical_formula_sum "Si O2"
_cell_formula_units_Z 25
_cell_length_a 20.351009
_cell_length_b 15.986794
_cell_length_c 5.245607
_cell_angle_alpha 90.000000
_cell_angle_beta 114.398304
_cell_angle_gamma 90.000000
_cell_volume 1554.234165
_symmetry_space_group_name_H-M "P 2/M"
_symmetry_group_IT_number 10
_symmetry_cell_setting 'monoclinic'
loop_
_space_group_symop_operation_xyz
x,y,z
-x,y,-z
-x,-y,-z
x,-y,z
loop_
_atom_site_type_symbol
_atom_site_label
_atom_site_fract_x
_atom_site_fract_y
_atom_site_fract_z
Si Si1 0.793409 0.601184 0.782234
Si Si2 0.065526 0.345305 0.275893
Si Si3 0.543629 0.601959 0.818829
Si Si4 0.087861 0.904336 0.124863
Si Si5 0.913810 0.814822 0.377507
Si Si6 0.708576 0.601796 0.142553
Si Si7 0.000000 0.500000 0.500000
O O1 0.798303 0.500000 0.799898
O O2 0.871183 0.632215 0.818699
O O3 0.762250 0.629182 0.003361
O O4 0.738288 0.624673 0.467579
O O5 0.092772 0.278851 0.527107
O O6 0.036710 0.426675 0.376502
O O7 0.000000 0.309196 0.000000
O O8 0.500000 0.629186 0.500000
O O9 0.545108 0.500000 0.817187
O O10 0.626753 0.629435 0.961542
O O11 0.500000 0.626963 0.000000
O O12 0.114745 0.874142 0.442909
O O13 0.107623 0.000000 0.099046
O O14 0.113454 0.842052 0.942641
O O15 0.000000 0.902153 0.000000
O O16 0.000000 0.828719 0.500000
O O17 0.708236 0.500000 0.135715
#
# Coordination Sequence:
#
# PCOD9144805 Si02
#       7
#     4   4   4   4   4   4   1
#     4  10  21  32  45  56  78 106 142 182 221 260
#     4  12  25  36  48  63  82 110 158 198 243 269
#     4   9  15  24  41  60  80  98 119 153 204 262
#     4   9  17  30  48  68  86 104 122 151 216 289
#     4  10  19  31  47  65  86 104 130 178 219 270
#     4   9  18  30  42  60  78 101 131 167 214 263
#     4  12  26  36  52  58  78 112 158 210 242 280
#
# _framework density 16.085090999999998
#
# number of rings (size 3 to 8) (size 9 to 14) (size 15 to 20)
#    0.000    2.080    1.600    3.120    2.240    5.760 
#    0.000    0.000    0.000    0.000    0.000    0.000 
#    0.000    0.000    0.000    0.000    0.000    0.000 
#
# Total GULP energy -139246.793564 kJ/mol
# GULP energy per Si atom -5569.871743 kJ/mol
# Density = 1.604848 g / cm^3
# Si number density = 16.085091 Si / 1000 Ang^3
#
#
#
# Elastic Constant Matrix: (Units=GPa)
#
#
# Indices 1 2 3 4 5 6 
#
# 1 66.6841 10.5384 24.6951 0.0000 -6.0360 0.0000
# 2 10.5384 60.0865 16.0308 0.0000 -12.2210 0.0000
# 3 24.6951 16.0308 62.4349 0.0000 -12.3716 0.0000
# 4 0.0000 0.0000 0.0000 2.6789 0.0000 0.2021
# 5 -6.0360 -12.2210 -12.3716 0.0000 31.2365 0.0000
# 6 0.0000 0.0000 0.0000 0.2021 0.0000 -1.0252
#
#
#
# Elastic Compliance Matrix: (Units=1/GPa)
#
#
# Indices 1 2 3 4 5 6 
#
# 1 0.017670 -0.001277 -0.006602 0.000000 0.000300 0.000000
# 2 -0.001277 0.018915 -0.003184 0.000000 0.005892 0.000000
# 3 -0.006602 -0.003184 0.020559 0.000000 0.005621 0.000000
# 4 0.000000 0.000000 0.000000 0.367817 0.000000 0.072509
# 5 0.000300 0.005892 0.005621 0.000000 0.036604 0.000000
# 6 0.000000 0.000000 0.000000 0.072509 0.000000 -0.961093
#
#
# Mechanical properties :
#
#
# Convention : Reuss Voigt Hill
#
# Bulk Modulus (GPa) = 28.55593 32.41488 30.48541
# Shear Modulus (GPa) = -10.73581 15.77411 2.51915
#
# Velocity S-wave (km/s) = -2.58629 3.13496 1.25281
# Velocity P-wave (km/s) = 2.97877 5.77060 4.59200
#
# Compressibility (1/GPa) = 0.03501899
#
# Stress axis : x y z
#
# Youngs Moduli (GPa) = 56.59366 52.86942 48.63980
#
# Poissons Ratio (x) = 0.06750 0.32111
# Poissons Ratio (y) = 0.07225 0.15487
# Poissons Ratio (z) = 0.37362 0.16833
#
# Static dielectric constant tensor:
#      x y z
#    x 1.537250 0.000000 -0.009340 
#    y 0.000000 1.539060 0.000000 
#    z -0.009340 0.000000 1.597540 
# 
# From -- ./inp_files/11194.got.cif
#   From: 2010.05.17/outbox.cif.g08.bks.cpg/sg10_6_cif.got.tgz:11194.got - 2010.06.03 11:33:40.
