data_PCOD9144862
_publ_section_title
;
Structure prediction by ZEFSAII (Michael W. Deem and Ramdas Pophale) SiO2 
 PCOD9144862
Probable space group: P 2/M
;
_chemical_formula_sum "Si O2"
_cell_formula_units_Z 28
_cell_length_a 22.316088
_cell_length_b 8.199604
_cell_length_c 17.223872
_cell_angle_alpha 90.000000
_cell_angle_beta 148.733585
_cell_angle_gamma 90.000000
_cell_volume 1635.777731
_symmetry_space_group_name_H-M "P 2/M"
_symmetry_group_IT_number 10
_symmetry_cell_setting 'monoclinic'
loop_
_space_group_symop_operation_xyz
x,y,z
-x,y,-z
-x,-y,-z
x,-y,z
loop_
_atom_site_type_symbol
_atom_site_label
_atom_site_fract_x
_atom_site_fract_y
_atom_site_fract_z
Si Si1 0.664164 0.807113 0.631517
Si Si2 0.092370 0.800612 0.167364
Si Si3 0.991965 0.803713 0.758752
Si Si4 0.827464 0.690254 0.263480
Si Si5 0.074423 0.192822 0.479274
Si Si6 0.573620 0.307119 0.694203
Si Si7 0.756771 0.697416 0.022016
O O1 0.780031 0.749705 0.717588
O O2 0.549892 0.776713 0.454125
O O3 0.642637 0.722103 0.690343
O O4 0.674703 0.000000 0.658564
O O5 0.054222 0.742054 0.210159
O O6 0.092618 0.000000 0.169715
O O7 0.000000 0.751195 0.000000
O O8 0.121458 0.746954 0.881844
O O9 0.911494 0.762207 0.595340
O O10 0.995911 0.000000 0.767744
O O11 0.803012 0.500000 0.246416
O O12 0.827927 0.770605 0.348916
O O13 0.754871 0.755542 0.109637
O O14 0.958871 0.713912 0.378283
O O15 0.048749 0.000000 0.454888
O O16 0.554397 0.500000 0.681786
O O17 0.651554 0.246481 0.851729
O O18 0.754760 0.500000 0.021856
#
# Coordination Sequence:
#
# PCOD9144862 Si02
#       7
#     4   4   4   4   4   4   4
#     4  10  19  31  48  67  85 110 147 179 206 250
#     4   9  17  29  45  65  88 113 141 174 210 247
#     4   9  17  28  43  63  88 117 144 174 212 253
#     4   9  15  24  38  56  81 111 141 171 206 248
#     4   9  15  23  36  57  84 111 139 169 207 252
#     4  10  19  32  47  63  88 115 140 176 220 254
#     4   9  18  29  42  63  88 115 144 175 212 254
#
# _framework density 17.117239999999999
#
# number of rings (size 3 to 8) (size 9 to 14) (size 15 to 20)
#    0.000    2.714    0.000    4.286    0.000    3.429 
#    0.000    1.429    0.000    3.857    0.000    1.000 
#    0.000    8.000    0.000    0.000    0.000    0.000 
#
# Total GULP energy -155933.645277 kJ/mol
# GULP energy per Si atom -5569.058760 kJ/mol
# Density = 1.707828 g / cm^3
# Si number density = 17.117240 Si / 1000 Ang^3
#
#
#
# Elastic Constant Matrix: (Units=GPa)
#
#
# Indices 1 2 3 4 5 6 
#
# 1 90.2098 2.5230 62.5623 0.0000 -21.7725 0.0000
# 2 2.5230 10.1564 -1.6124 0.0000 -1.0721 0.0000
# 3 62.5623 -1.6124 122.0827 0.0000 -32.5247 0.0000
# 4 0.0000 0.0000 0.0000 15.3119 0.0000 -2.6695
# 5 -21.7725 -1.0721 -32.5247 0.0000 29.8856 0.0000
# 6 0.0000 0.0000 0.0000 -2.6695 0.0000 29.2767
#
#
#
# Elastic Compliance Matrix: (Units=1/GPa)
#
#
# Indices 1 2 3 4 5 6 
#
# 1 0.017847 -0.005318 -0.008173 0.000000 0.003917 0.000000
# 2 -0.005318 0.101296 0.005632 0.000000 0.005889 0.000000
# 3 -0.008173 0.005632 0.015381 0.000000 0.010987 0.000000
# 4 0.000000 0.000000 0.000000 0.066364 0.000000 0.006051
# 5 0.003917 0.005889 0.010987 0.000000 0.048483 0.000000
# 6 0.000000 0.000000 0.000000 0.006051 0.000000 0.034709
#
#
# Mechanical properties :
#
#
# Convention : Reuss Voigt Hill
#
# Bulk Modulus (GPa) = 8.41697 38.82162 23.61930
# Shear Modulus (GPa) = 14.73192 25.49325 20.11259
#
# Velocity S-wave (km/s) = 2.93686 3.86337 3.43153
# Velocity P-wave (km/s) = 4.05316 6.52916 5.43406
#
# Compressibility (1/GPa) = 0.11880758
#
# Stress axis : x y z
#
# Youngs Moduli (GPa) = 56.03087 9.87203 65.01615
#
# Poissons Ratio (x) = 0.05250 0.53135
# Poissons Ratio (y) = 0.29795 -0.36616
# Poissons Ratio (z) = 0.45792 -0.05560
#
# Static dielectric constant tensor:
#      x y z
#    x 1.577710 0.000000 -0.049460 
#    y 0.000000 1.594880 0.000000 
#    z -0.049460 0.000000 1.610360 
# 
# From -- ./inp_files/79871.got.cif
#   From: 2010.05.17/outbox.cif.g08.bks.cpg/sg10_40_cif.got.tgz:79871.got - 2010.06.03 11:33:40.
