data_PCOD9144722
_publ_section_title
;
Structure prediction by ZEFSAII (Michael W. Deem and Ramdas Pophale) SiO2 
 PCOD9144722
Probable space group: P 2/M
;
_chemical_formula_sum "Si O2"
_cell_formula_units_Z 28
_cell_length_a 19.320002
_cell_length_b 7.639979
_cell_length_c 15.973140
_cell_angle_alpha 90.000000
_cell_angle_beta 142.076019
_cell_angle_gamma 90.000000
_cell_volume 1449.082390
_symmetry_space_group_name_H-M "P 2/M"
_symmetry_group_IT_number 10
_symmetry_cell_setting 'monoclinic'
loop_
_space_group_symop_operation_xyz
x,y,z
-x,y,-z
-x,-y,-z
x,-y,z
loop_
_atom_site_type_symbol
_atom_site_label
_atom_site_fract_x
_atom_site_fract_y
_atom_site_fract_z
Si Si1 0.372134 0.787991 0.893880
Si Si2 0.220542 0.704449 0.904024
Si Si3 0.993911 0.707908 0.399435
Si Si4 0.396378 0.784658 0.595611
Si Si5 0.755348 0.788592 0.394047
Si Si6 0.636013 0.798031 0.617596
Si Si7 0.650103 0.793253 0.810426
O O1 0.320203 0.728832 0.931776
O O2 0.293942 0.728180 0.742304
O O3 0.372232 0.000000 0.894928
O O4 0.500000 0.730684 0.000000
O O5 0.201368 0.500000 0.898983
O O6 0.108687 0.781070 0.753512
O O7 0.259780 0.774918 0.030643
O O8 0.972530 0.500000 0.387279
O O9 0.000000 0.780878 0.500000
O O10 0.115512 0.734145 0.474696
O O11 0.323832 0.727992 0.605729
O O12 0.346564 0.723780 0.458600
O O13 0.527219 0.727636 0.723331
O O14 0.395873 0.000000 0.595216
O O15 0.751499 0.000000 0.389578
O O16 0.500000 0.798801 0.500000
O O17 0.679962 0.719260 0.746853
O O18 0.674815 0.000000 0.649421
O O19 0.633480 0.000000 0.780178
#
# Coordination Sequence:
#
# PCOD9144722 Si02
#       7
#     4   4   4   4   4   4   4
#     4  10  20  33  49  72 101 127 150 186 239 291
#     4  11  22  34  49  68  93 128 165 202 240 280
#     4  10  21  38  52  62  87 128 170 207 242 280
#     4   8  14  27  48  77 106 126 151 190 239 289
#     4  10  19  30  50  75  96 121 157 202 239 277
#     4   7  11  22  45  74 100 128 156 183 226 287
#     4   9  16  29  51  76 102 129 157 192 235 285
#
# _framework density 19.322572999999998
#
# number of rings (size 3 to 8) (size 9 to 14) (size 15 to 20)
#    0.000    2.714    1.429    3.000    0.000    4.000 
#    0.000    2.143    0.000    5.571    0.000    6.000 
#    0.000    0.000    0.000    0.000    0.000    0.000 
#
# Total GULP energy -156102.272929 kJ/mol
# GULP energy per Si atom -5575.081176 kJ/mol
# Density = 1.927859 g / cm^3
# Si number density = 19.322573 Si / 1000 Ang^3
#
#
#
# Elastic Constant Matrix: (Units=GPa)
#
#
# Indices 1 2 3 4 5 6 
#
# 1 27.9103 -0.6775 28.6618 0.0000 -19.3243 0.0000
# 2 -0.6775 30.1163 2.9689 0.0000 -4.1379 0.0000
# 3 28.6618 2.9689 133.9806 0.0000 -19.0970 0.0000
# 4 0.0000 0.0000 0.0000 9.6069 0.0000 20.3467
# 5 -19.3243 -4.1379 -19.0970 0.0000 37.4958 0.0000
# 6 0.0000 0.0000 0.0000 20.3467 0.0000 -19.5348
#
#
#
# Elastic Compliance Matrix: (Units=1/GPa)
#
#
# Indices 1 2 3 4 5 6 
#
# 1 0.067526 0.006696 -0.010274 0.000000 0.030307 0.000000
# 2 0.006696 0.034387 -0.001253 0.000000 0.006608 0.000000
# 3 -0.010274 -0.001253 0.009613 0.000000 -0.000537 0.000000
# 4 0.000000 0.000000 0.000000 0.032468 0.000000 0.033818
# 5 0.030307 0.006608 -0.000537 0.000000 0.042745 0.000000
# 6 0.000000 0.000000 0.000000 0.033818 0.000000 -0.015967
#
#
# Mechanical properties :
#
#
# Convention : Reuss Voigt Hill
#
# Bulk Modulus (GPa) = 9.81700 28.21262 19.01481
# Shear Modulus (GPa) = 23.32230 16.25050 19.78640
#
# Velocity S-wave (km/s) = 3.47796 2.90317 3.20348
# Velocity P-wave (km/s) = 4.60650 5.08629 4.85233
#
# Compressibility (1/GPa) = 0.10186409
#
# Stress axis : x y z
#
# Youngs Moduli (GPa) = 14.80912 29.08112 104.02789
#
# Poissons Ratio (x) = -0.19472 1.06878
# Poissons Ratio (y) = -0.09916 0.13030
# Poissons Ratio (z) = 0.15215 0.03643
#
# Static dielectric constant tensor:
#      x y z
#    x 1.655040 0.000000 -0.031000 
#    y 0.000000 1.740200 0.000000 
#    z -0.031000 0.000000 1.699730 
# 
# From -- ./inp_files/54697.got.cif
#   From: 2010.05.17/outbox.cif.g08.bks.cpg/sg10_28_cif.got.tgz:54697.got - 2010.06.03 11:33:40.
