data_PCOD9144627
_publ_section_title
;
Structure prediction by ZEFSAII (Michael W. Deem and Ramdas Pophale) SiO2 
 PCOD9144627
Probable space group: P 2/M
;
_chemical_formula_sum "Si O2"
_cell_formula_units_Z 32
_cell_length_a 5.612054
_cell_length_b 18.287194
_cell_length_c 12.272584
_cell_angle_alpha 90.000000
_cell_angle_beta 101.619175
_cell_angle_gamma 90.000000
_cell_volume 1233.709389
_symmetry_space_group_name_H-M "P 2/M"
_symmetry_group_IT_number 10
_symmetry_cell_setting 'monoclinic'
loop_
_space_group_symop_operation_xyz
x,y,z
-x,y,-z
-x,-y,-z
x,-y,z
loop_
_atom_site_type_symbol
_atom_site_label
_atom_site_fract_x
_atom_site_fract_y
_atom_site_fract_z
Si Si1 0.674663 0.586223 0.119768
Si Si2 0.226385 0.395007 0.447451
Si Si3 0.484051 0.918682 0.284597
Si Si4 0.495986 0.761393 0.791637
Si Si5 0.211435 0.585025 0.193233
Si Si6 0.966412 0.222327 0.125671
Si Si7 0.266820 0.231407 0.534162
Si Si8 0.983628 0.917957 0.284436
O O1 0.714755 0.500000 0.147280
O O2 0.486745 0.615080 0.195102
O O3 0.950243 0.612571 0.123756
O O4 0.500000 0.593533 0.000000
O O5 0.500000 0.420678 0.500000
O O6 0.174288 0.413104 0.318610
O O7 0.234861 0.307673 0.465614
O O8 0.000000 0.420546 0.500000
O O9 0.461906 0.850530 0.200888
O O10 0.261206 0.913138 0.346686
O O11 0.761866 0.912323 0.348046
O O12 0.461158 0.000000 0.233244
O O13 0.780337 0.737994 0.814189
O O14 0.349616 0.750597 0.665056
O O15 0.299504 0.743919 0.868095
O O16 0.228718 0.500000 0.156223
O O17 0.958103 0.146294 0.193420
O O18 0.000000 0.212732 0.000000
O O19 0.500000 0.195385 0.500000
O O20 0.000000 0.197926 0.500000
O O21 0.958566 0.000000 0.234493
#
# Coordination Sequence:
#
# PCOD9144627 Si02
#       8
#     4   4   4   4   4   4   4   4
#     4   9  17  30  49  77 114 155 193 218 243 295
#     4  10  21  36  54  80 107 138 177 224 276 320
#     4   8  14  25  42  65  95 130 162 199 250 298
#     4  10  19  33  53  75 102 134 171 214 255 306
#     4  10  19  31  51  81 116 150 181 218 264 308
#     4  10  19  30  47  76 108 136 168 204 250 310
#     4  10  21  38  59  81  97 126 177 228 272 314
#     4   8  14  24  38  60  95 136 170 196 229 288
#
# _framework density 25.938039
#
# number of rings (size 3 to 8) (size 9 to 14) (size 15 to 20)
#    0.000    2.625    0.000    2.250    0.000    2.250 
#    0.000    0.000    0.000    8.250    0.000   70.000 
#    0.000    0.000    0.000    0.000    0.000    0.750 
#
# Total GULP energy -178476.263526 kJ/mol
# GULP energy per Si atom -5577.383235 kJ/mol
# Density = 2.587900 g / cm^3
# Si number density = 25.938039 Si / 1000 Ang^3
#
#
#
# Elastic Constant Matrix: (Units=GPa)
#
#
# Indices 1 2 3 4 5 6 
#
# 1 353.2235 36.2410 58.1692 0.0000 10.3969 0.0000
# 2 36.2410 51.6619 5.7481 0.0000 4.5609 0.0000
# 3 58.1692 5.7481 90.7185 0.0000 2.0865 0.0000
# 4 0.0000 0.0000 0.0000 13.0309 0.0000 7.0662
# 5 10.3969 4.5609 2.0865 0.0000 45.0080 0.0000
# 6 0.0000 0.0000 0.0000 7.0662 0.0000 48.0441
#
#
#
# Elastic Compliance Matrix: (Units=1/GPa)
#
#
# Indices 1 2 3 4 5 6 
#
# 1 0.003397 -0.002115 -0.002033 0.000000 -0.000476 0.000000
# 2 -0.002115 0.020978 0.000064 0.000000 -0.001640 0.000000
# 3 -0.002033 0.000064 0.012325 0.000000 -0.000108 0.000000
# 4 0.000000 0.000000 0.000000 0.083391 0.000000 -0.012265
# 5 -0.000476 -0.001640 -0.000108 0.000000 0.022499 0.000000
# 6 0.000000 0.000000 0.000000 -0.012265 0.000000 0.022618
#
#
# Mechanical properties :
#
#
# Convention : Reuss Voigt Hill
#
# Bulk Modulus (GPa) = 35.04705 77.32450 56.18577
# Shear Modulus (GPa) = 27.33936 47.57964 37.45950
#
# Velocity S-wave (km/s) = 3.25010 4.28759 3.80437
# Velocity P-wave (km/s) = 5.25598 7.37476 6.40361
#
# Compressibility (1/GPa) = 0.02853307
#
# Stress axis : x y z
#
# Youngs Moduli (GPa) = 294.38850 47.66961 81.13473
#
# Poissons Ratio (x) = 0.10081 0.16496
# Poissons Ratio (y) = 0.62253 -0.00523
# Poissons Ratio (z) = 0.59854 -0.00307
#
# Static dielectric constant tensor:
#      x y z
#    x 2.193520 0.000000 -0.010810 
#    y 0.000000 2.184280 0.000000 
#    z -0.010810 0.000000 1.929970 
# 
# From -- ./inp_files/40013.got.cif
#   From: 2010.05.17/outbox.cif.g08.bks.cpg/sg10_21_cif.got.tgz:40013.got - 2010.06.03 11:33:40.
