data_PCOD9144813
_publ_section_title
;
Structure prediction by ZEFSAII (Michael W. Deem and Ramdas Pophale) SiO2 
 PCOD9144813
Probable space group: P 2/M
;
_chemical_formula_sum "Si O2"
_cell_formula_units_Z 32
_cell_length_a 8.342503
_cell_length_b 14.080335
_cell_length_c 27.982005
_cell_angle_alpha 90.000000
_cell_angle_beta 145.668163
_cell_angle_gamma 90.000000
_cell_volume 1853.769517
_symmetry_space_group_name_H-M "P 2/M"
_symmetry_group_IT_number 10
_symmetry_cell_setting 'monoclinic'
loop_
_space_group_symop_operation_xyz
x,y,z
-x,y,-z
-x,-y,-z
x,-y,z
loop_
_atom_site_type_symbol
_atom_site_label
_atom_site_fract_x
_atom_site_fract_y
_atom_site_fract_z
Si Si1 0.637449 0.114845 0.305423
Si Si2 0.920632 0.694984 0.912643
Si Si3 0.769789 0.713849 0.101644
Si Si4 0.446412 0.612029 0.101037
Si Si5 0.232214 0.110072 0.835400
Si Si6 0.623906 0.114739 0.660213
Si Si7 0.270906 0.115617 0.483613
Si Si8 0.715582 0.110332 0.876902
O O1 0.458047 0.147354 0.307008
O O2 0.484098 0.133846 0.217851
O O3 0.959035 0.149380 0.392000
O O4 0.648877 0.000000 0.310289
O O5 0.632351 0.660087 0.867534
O O6 0.948644 0.807101 0.931988
O O7 0.966684 0.685536 0.867251
O O8 0.171578 0.637134 0.000504
O O9 0.706244 0.654486 0.134163
O O10 0.777933 0.821655 0.121886
O O11 0.500000 0.702985 0.000000
O O12 0.473060 0.500000 0.113165
O O13 0.516606 0.119432 0.874392
O O14 0.956983 0.134794 0.734849
O O15 0.201534 0.000000 0.841970
O O16 0.400758 0.149321 0.565902
O O17 0.600238 0.000000 0.653315
O O18 0.500000 0.139637 0.500000
O O19 0.255242 0.000000 0.482021
O O20 0.812718 0.000000 0.897749
#
# Coordination Sequence:
#
# PCOD9144813 Si02
#       8
#     4   4   4   4   4   4   4   4
#     4   9  16  25  38  58  83 117 159 197 233 270
#     4  10  19  33  53  73  95 122 156 190 237 283
#     4  10  21  34  52  73  96 122 158 198 238 290
#     4  10  21  38  56  75  95 116 150 196 248 298
#     4  10  19  32  46  64  94 131 167 200 237 277
#     4   9  16  25  39  57  81 117 159 200 235 269
#     4   9  15  23  35  54  80 112 155 199 233 268
#     4  10  19  31  47  66  95 132 165 197 233 277
#
# _framework density 17.262124
#
# number of rings (size 3 to 8) (size 9 to 14) (size 15 to 20)
#    0.000    2.375    1.250    2.625    0.000    9.000 
#    0.000    3.125    0.000    0.000    0.000    0.000 
#    0.000    0.000    0.000    3.375    0.000   30.875 
#
# Total GULP energy -178268.149210 kJ/mol
# GULP energy per Si atom -5570.879663 kJ/mol
# Density = 1.722283 g / cm^3
# Si number density = 17.262124 Si / 1000 Ang^3
#
#
#
# Elastic Constant Matrix: (Units=GPa)
#
#
# Indices 1 2 3 4 5 6 
#
# 1 106.5965 35.5434 16.2696 0.0000 -20.1110 0.0000
# 2 35.5434 68.2885 6.8713 0.0000 -3.2142 0.0000
# 3 16.2696 6.8713 39.9373 0.0000 -7.8640 0.0000
# 4 0.0000 0.0000 0.0000 -6.3695 0.0000 4.1271
# 5 -20.1110 -3.2142 -7.8640 0.0000 23.0121 0.0000
# 6 0.0000 0.0000 0.0000 4.1271 0.0000 4.5804
#
#
#
# Elastic Compliance Matrix: (Units=1/GPa)
#
#
# Indices 1 2 3 4 5 6 
#
# 1 0.013882 -0.006486 -0.002497 0.000000 0.010373 0.000000
# 2 -0.006486 0.017968 -0.001148 0.000000 -0.003551 0.000000
# 3 -0.002497 -0.001148 0.027654 0.000000 0.007108 0.000000
# 4 0.000000 0.000000 0.000000 -0.099126 0.000000 0.089316
# 5 0.010373 -0.003551 0.007108 0.000000 0.054453 0.000000
# 6 0.000000 0.000000 0.000000 0.089316 0.000000 0.137843
#
#
# Mechanical properties :
#
#
# Convention : Reuss Voigt Hill
#
# Bulk Modulus (GPa) = 25.48346 36.91009 31.19677
# Shear Modulus (GPa) = 26.87928 14.65380 20.76654
#
# Velocity S-wave (km/s) = 3.95032 2.91675 3.47221
# Velocity P-wave (km/s) = 5.96669 5.72466 5.84693
#
# Compressibility (1/GPa) = 0.03924115
#
# Stress axis : x y z
#
# Youngs Moduli (GPa) = 72.03656 55.65446 36.16170
#
# Poissons Ratio (x) = 0.36097 0.09029
# Poissons Ratio (y) = 0.46722 0.04153
# Poissons Ratio (z) = 0.17986 0.06392
#
# Static dielectric constant tensor:
#      x y z
#    x 1.656470 0.000000 0.006270 
#    y 0.000000 1.574700 0.000000 
#    z 0.006270 0.000000 1.615300 
# 
# From -- ./inp_files/92333.got.cif
#   From: 2010.05.17/outbox.cif.g08.bks.cpg/sg10_47_cif.got.tgz:92333.got - 2010.06.03 11:33:40.
