data_PCOD9144171
_publ_section_title
;
Structure prediction by ZEFSAII (Michael W. Deem and Ramdas Pophale) SiO2 
 PCOD9144171
Probable space group: P 2/M
;
_chemical_formula_sum "Si O2"
_cell_formula_units_Z 21
_cell_length_a 11.775315
_cell_length_b 8.170219
_cell_length_c 8.454511
_cell_angle_alpha 90.000000
_cell_angle_beta 80.901895
_cell_angle_gamma 90.000000
_cell_volume 803.149181
_symmetry_space_group_name_H-M "P 2/M"
_symmetry_group_IT_number 10
_symmetry_cell_setting 'monoclinic'
loop_
_space_group_symop_operation_xyz
x,y,z
-x,y,-z
-x,-y,-z
x,-y,z
loop_
_atom_site_type_symbol
_atom_site_label
_atom_site_fract_x
_atom_site_fract_y
_atom_site_fract_z
Si Si1 0.843358 0.193974 0.987453
Si Si2 0.946210 0.307340 0.270384
Si Si3 0.315624 0.500000 0.417959
Si Si4 0.427642 0.500000 0.734755
Si Si5 0.000000 0.000000 0.500000
Si Si6 0.457041 0.167007 0.831674
Si Si7 0.285525 0.176203 0.295206
O O1 0.737685 0.198405 0.885914
O O2 0.938455 0.287986 0.861564
O O3 0.870944 0.000000 0.995305
O O4 0.847801 0.270033 0.160709
O O5 0.937132 0.500000 0.326243
O O6 0.957663 0.151462 0.385424
O O7 0.374928 0.500000 0.573527
O O8 0.431475 0.500000 0.282590
O O9 0.246757 0.335341 0.397440
O O10 0.392969 0.332620 0.819219
O O11 0.577133 0.165970 0.706379
O O12 0.391929 0.000000 0.806245
O O13 0.500000 0.160880 0.000000
O O14 0.229893 0.000000 0.350679
#
# Coordination Sequence:
#
# PCOD9144171 Si02
#       7
#     4   4   2   2   1   4   4
#     4  10  18  37  60  85 113 145 195 240 273 324
#     4  11  22  36  62  87 110 150 191 230 279 336
#     4   9  18  30  48  75 100 133 173 220 269 314
#     4   9  17  30  48  70 101 134 172 215 271 323
#     4  12  22  42  56  82 124 146 180 226 288 352
#     4   9  17  31  51  75 102 139 181 219 264 320
#     4   9  19  31  53  79 103 137 175 227 272 308
#
# _framework density 26.147071
#
# number of rings (size 3 to 8) (size 9 to 14) (size 15 to 20)
#    0.000    2.286    1.905    2.286    2.667    0.762 
#    0.000    3.810    4.190    0.000    0.000    0.000 
#    0.000    0.000    0.000    0.000    0.000    0.000 
#
# Total GULP energy -116995.063109 kJ/mol
# GULP energy per Si atom -5571.193481 kJ/mol
# Density = 2.608756 g / cm^3
# Si number density = 26.147071 Si / 1000 Ang^3
#
#
#
# Elastic Constant Matrix: (Units=GPa)
#
#
# Indices 1 2 3 4 5 6 
#
# 1 86.6188 30.5234 16.9513 0.0000 16.3827 0.0000
# 2 30.5234 347.8787 98.0054 0.0000 20.1115 0.0000
# 3 16.9513 98.0054 92.6409 0.0000 20.6445 0.0000
# 4 0.0000 0.0000 0.0000 44.9432 0.0000 13.1792
# 5 16.3827 20.1115 20.6445 0.0000 30.2143 0.0000
# 6 0.0000 0.0000 0.0000 13.1792 0.0000 34.8077
#
#
#
# Elastic Compliance Matrix: (Units=1/GPa)
#
#
# Indices 1 2 3 4 5 6 
#
# 1 0.013059 -0.000719 -0.000186 0.000000 -0.006475 0.000000
# 2 -0.000719 0.004137 -0.004386 0.000000 0.000633 0.000000
# 3 -0.000186 -0.004386 0.017452 0.000000 -0.008905 0.000000
# 4 0.000000 0.000000 0.000000 0.025029 0.000000 -0.009477
# 5 -0.006475 0.000633 -0.008905 0.000000 0.042271 0.000000
# 6 0.000000 0.000000 0.000000 -0.009477 0.000000 0.032317
#
#
# Mechanical properties :
#
#
# Convention : Reuss Voigt Hill
#
# Bulk Modulus (GPa) = 41.55048 90.89986 66.22517
# Shear Modulus (GPa) = 32.70768 47.43692 40.07230
#
# Velocity S-wave (km/s) = 3.54066 4.26400 3.91906
# Velocity P-wave (km/s) = 5.71320 7.68652 6.77212
#
# Compressibility (1/GPa) = 0.02406711
#
# Stress axis : x y z
#
# Youngs Moduli (GPa) = 76.57351 241.74476 57.29909
#
# Poissons Ratio (x) = 0.17385 0.01065
# Poissons Ratio (y) = 0.05507 0.25129
# Poissons Ratio (z) = 0.01423 1.06020
#
# Static dielectric constant tensor:
#      x y z
#    x 2.283070 0.000000 -0.075570 
#    y 0.000000 2.095740 0.000000 
#    z -0.075570 0.000000 1.982900 
# 
# From -- ./inp_files/30994.got.cif
#   From: 2010.05.17/outbox.cif.g08.bks.cpg/sg10_16_cif.got.tgz:30994.got - 2010.06.03 11:33:40.
