data_PCOD9144946
_publ_section_title
;
Structure prediction by ZEFSAII (Michael W. Deem and Ramdas Pophale) SiO2 
 PCOD9144946
Probable space group: P 2/M
;
_chemical_formula_sum "Si O2"
_cell_formula_units_Z 28
_cell_length_a 15.823064
_cell_length_b 7.525983
_cell_length_c 13.122998
_cell_angle_alpha 90.000000
_cell_angle_beta 123.792777
_cell_angle_gamma 90.000000
_cell_volume 1298.722707
_symmetry_space_group_name_H-M "P 2/M"
_symmetry_group_IT_number 10
_symmetry_cell_setting 'monoclinic'
loop_
_space_group_symop_operation_xyz
x,y,z
-x,y,-z
-x,-y,-z
x,-y,z
loop_
_atom_site_type_symbol
_atom_site_label
_atom_site_fract_x
_atom_site_fract_y
_atom_site_fract_z
Si Si1 0.521002 0.202452 0.186274
Si Si2 0.923264 0.283414 0.803173
Si Si3 0.697578 0.714724 0.035622
Si Si4 0.781583 0.717913 0.528569
Si Si5 0.854390 0.716675 0.975340
Si Si6 0.742521 0.299903 0.282601
Si Si7 0.446075 0.714430 0.566584
O O1 0.420482 0.240163 0.055079
O O2 0.621374 0.310538 0.224865
O O3 0.499345 0.233277 0.291525
O O4 0.551290 0.000000 0.191081
O O5 0.922875 0.500000 0.801748
O O6 0.869708 0.224419 0.663988
O O7 0.860528 0.227829 0.861766
O O8 0.039580 0.230051 0.900195
O O9 0.703365 0.500000 0.042782
O O10 0.760015 0.777222 0.979232
O O11 0.746842 0.782905 0.173637
O O12 0.781046 0.500000 0.524930
O O13 0.788749 0.780804 0.416518
O O14 0.671362 0.771280 0.499249
O O15 0.852520 0.500000 0.973017
O O16 0.784495 0.500000 0.302493
O O17 0.500000 0.779096 0.500000
O O18 0.446148 0.500000 0.562836
#
# Coordination Sequence:
#
# PCOD9144946 Si02
#       7
#     4   4   4   4   4   4   4
#     4  11  22  33  47  69  98 130 161 199 245 287
#     4   8  13  24  42  67  98 123 148 191 242 294
#     4  10  19  31  49  69  94 125 164 206 241 285
#     4   8  14  25  43  65  92 125 155 186 234 286
#     4   8  15  25  41  69  98 121 151 195 245 287
#     4   9  18  33  48  67  94 127 164 202 240 287
#     4   9  18  31  49  73  99 129 164 196 231 284
#
# _framework density 21.559646000000001
#
# number of rings (size 3 to 8) (size 9 to 14) (size 15 to 20)
#    0.000    3.000    0.000    3.429    2.000    2.571 
#    0.000    0.714    0.000    4.286    0.000    6.000 
#    0.000    5.714    0.000    0.000    0.000    0.000 
#
# Total GULP energy -156210.479722 kJ/mol
# GULP energy per Si atom -5578.945704 kJ/mol
# Density = 2.151057 g / cm^3
# Si number density = 21.559646 Si / 1000 Ang^3
#
#
#
# Elastic Constant Matrix: (Units=GPa)
#
#
# Indices 1 2 3 4 5 6 
#
# 1 22.7698 -4.7393 -1.6896 0.0000 -5.2533 0.0000
# 2 -4.7393 62.5050 -4.8825 0.0000 -0.5090 0.0000
# 3 -1.6896 -4.8825 124.1718 0.0000 4.9641 0.0000
# 4 0.0000 0.0000 0.0000 -40.8672 0.0000 -8.2740
# 5 -5.2533 -0.5090 4.9641 0.0000 18.2085 0.0000
# 6 0.0000 0.0000 0.0000 -8.2740 0.0000 -17.1565
#
#
#
# Elastic Compliance Matrix: (Units=1/GPa)
#
#
# Indices 1 2 3 4 5 6 
#
# 1 0.047918 0.003765 0.000246 0.000000 0.013863 0.000000
# 2 0.003765 0.016345 0.000639 0.000000 0.001369 0.000000
# 3 0.000246 0.000639 0.008167 0.000000 -0.002138 0.000000
# 4 0.000000 0.000000 0.000000 -0.027117 0.000000 0.013078
# 5 0.013863 0.001369 -0.002138 0.000000 0.059540 0.000000
# 6 0.000000 0.000000 0.000000 0.013078 0.000000 -0.064594
#
#
# Mechanical properties :
#
#
# Convention : Reuss Voigt Hill
#
# Bulk Modulus (GPa) = 12.23517 20.75820 16.49668
# Shear Modulus (GPa) = 85.90664 6.75417 46.33040
#
# Velocity S-wave (km/s) = 6.31922 1.77189 4.64070
# Velocity P-wave (km/s) = 7.67664 3.71958 6.03183
#
# Compressibility (1/GPa) = 0.08173163
#
# Stress axis : x y z
#
# Youngs Moduli (GPa) = 20.86894 61.17971 122.43948
#
# Poissons Ratio (x) = -0.23036 -0.03011
# Poissons Ratio (y) = -0.07858 -0.07826
# Poissons Ratio (z) = -0.00513 -0.03911
#
# Static dielectric constant tensor:
#      x y z
#    x 1.753340 0.000000 -0.031480 
#    y 0.000000 1.816430 0.000000 
#    z -0.031480 0.000000 1.785200 
# 
# From -- ./inp_files/50108.got.cif
#   From: 2010.05.17/outbox.cif.g08.bks.cpg/sg10_26_cif.got.tgz:50108.got - 2010.06.03 11:33:40.
