data_PCOD9144133
_publ_section_title
;
Structure prediction by ZEFSAII (Michael W. Deem and Ramdas Pophale) SiO2 
 PCOD9144133
Probable space group: P 2/M
;
_chemical_formula_sum "Si O2"
_cell_formula_units_Z 21
_cell_length_a 7.044118
_cell_length_b 16.172597
_cell_length_c 7.388357
_cell_angle_alpha 90.000000
_cell_angle_beta 91.941647
_cell_angle_gamma 90.000000
_cell_volume 841.210797
_symmetry_space_group_name_H-M "P 2/M"
_symmetry_group_IT_number 10
_symmetry_cell_setting 'monoclinic'
loop_
_space_group_symop_operation_xyz
x,y,z
-x,y,-z
-x,-y,-z
x,-y,z
loop_
_atom_site_type_symbol
_atom_site_label
_atom_site_fract_x
_atom_site_fract_y
_atom_site_fract_z
Si Si1 0.177340 0.723750 0.782944
Si Si2 0.769041 0.409301 0.498505
Si Si3 0.782486 0.909252 0.142387
Si Si4 0.269266 0.306528 0.184332
Si Si5 0.354556 0.877070 0.246414
Si Si6 0.500000 0.000000 0.500000
O O1 0.267326 0.670775 0.626152
O O2 0.160771 0.822691 0.766778
O O3 0.958804 0.698420 0.797779
O O4 0.290333 0.699240 0.968944
O O5 0.704609 0.500000 0.435072
O O6 0.686482 0.386230 0.693474
O O7 0.000000 0.414232 0.500000
O O8 0.557921 0.910801 0.183536
O O9 0.857142 0.000000 0.193807
O O10 0.789741 0.897216 0.923174
O O11 0.355414 0.221231 0.263557
O O12 0.344854 0.927719 0.429606
#
# Coordination Sequence:
#
# PCOD9144133 Si02
#       6
#     4   4   4   4   4   1
#     4   9  19  34  54  76 108 135 168 212 264 299
#     4   9  18  33  55  79 104 133 168 211 260 315
#     4  10  18  36  50  73 101 143 177 208 245 306
#     4   9  19  35  51  78 106 134 167 216 258 305
#     4  10  20  32  51  71 103 134 178 213 247 296
#     4  12  20  30  48  80  98 136 182 216 242 300
#
# _framework density 24.964015
#
# number of rings (size 3 to 8) (size 9 to 14) (size 15 to 20)
#    0.000    2.476    1.905    0.571    2.667    0.762 
#    1.714    5.714    0.000    5.143    0.000    5.333 
#    0.000    0.000    0.000    0.000    0.000    0.000 
#
# Total GULP energy -116971.296716 kJ/mol
# GULP energy per Si atom -5570.061748 kJ/mol
# Density = 2.490720 g / cm^3
# Si number density = 24.964015 Si / 1000 Ang^3
#
#
#
# Elastic Constant Matrix: (Units=GPa)
#
#
# Indices 1 2 3 4 5 6 
#
# 1 64.2955 2.4030 -8.9395 0.0000 2.7585 0.0000
# 2 2.4030 199.4438 79.9699 0.0000 10.6529 0.0000
# 3 -8.9395 79.9699 91.3912 0.0000 3.7730 0.0000
# 4 0.0000 0.0000 0.0000 23.0981 0.0000 4.4734
# 5 2.7585 10.6529 3.7730 0.0000 16.7880 0.0000
# 6 0.0000 0.0000 0.0000 4.4734 0.0000 25.1623
#
#
#
# Elastic Compliance Matrix: (Units=1/GPa)
#
#
# Indices 1 2 3 4 5 6 
#
# 1 0.016074 -0.001126 0.002662 0.000000 -0.002525 0.000000
# 2 -0.001126 0.008002 -0.006975 0.000000 -0.003325 0.000000
# 3 0.002662 -0.006975 0.017301 0.000000 0.000100 0.000000
# 4 0.000000 0.000000 0.000000 0.044837 0.000000 -0.007971
# 5 -0.002525 -0.003325 0.000100 0.000000 0.062068 0.000000
# 6 0.000000 0.000000 0.000000 -0.007971 0.000000 0.041159
#
#
# Mechanical properties :
#
#
# Convention : Reuss Voigt Hill
#
# Bulk Modulus (GPa) = 32.78803 55.77748 44.28276
# Shear Modulus (GPa) = 23.75462 31.78951 27.77207
#
# Velocity S-wave (km/s) = 3.08807 3.57236 3.33901
# Velocity P-wave (km/s) = 5.08700 6.27753 5.71336
#
# Compressibility (1/GPa) = 0.03049893
#
# Stress axis : x y z
#
# Youngs Moduli (GPa) = 62.21340 124.97402 57.79954
#
# Poissons Ratio (x) = 0.14074 -0.15386
# Poissons Ratio (y) = 0.07006 0.40313
# Poissons Ratio (z) = -0.16561 0.87164
#
# Static dielectric constant tensor:
#      x y z
#    x 2.086220 0.000000 -0.030400 
#    y 0.000000 2.015570 0.000000 
#    z -0.030400 0.000000 2.311730 
# 
# From -- ./inp_files/18840.got.cif
#   From: 2010.05.17/outbox.cif.g08.bks.cpg/sg10_10_cif.got.tgz:18840.got - 2010.06.03 11:33:40.
