data_PCOD9144629
_publ_section_title
;
Structure prediction by ZEFSAII (Michael W. Deem and Ramdas Pophale) SiO2 
 PCOD9144629
Probable space group: P 2/M
;
_chemical_formula_sum "Si O2"
_cell_formula_units_Z 32
_cell_length_a 34.274770
_cell_length_b 9.416084
_cell_length_c 13.335636
_cell_angle_alpha 90.000000
_cell_angle_beta 154.871195
_cell_angle_gamma 90.000000
_cell_volume 1827.656084
_symmetry_space_group_name_H-M "P 2/M"
_symmetry_group_IT_number 10
_symmetry_cell_setting 'monoclinic'
loop_
_space_group_symop_operation_xyz
x,y,z
-x,y,-z
-x,-y,-z
x,-y,z
loop_
_atom_site_type_symbol
_atom_site_label
_atom_site_fract_x
_atom_site_fract_y
_atom_site_fract_z
Si Si1 0.722338 0.332513 0.463105
Si Si2 0.974237 0.171528 0.555916
Si Si3 0.418094 0.172989 0.234316
Si Si4 0.276677 0.343280 0.204362
Si Si5 0.403584 0.830604 0.968963
Si Si6 0.235253 0.169816 0.919133
Si Si7 0.125446 0.335554 0.028590
Si Si8 0.432011 0.339582 0.723608
O O1 0.728969 0.500000 0.454462
O O2 0.817140 0.289499 0.739216
O O3 0.642157 0.319320 0.360997
O O4 0.687628 0.242081 0.288436
O O5 0.870030 0.217232 0.339099
O O6 0.000000 0.212216 0.500000
O O7 0.980255 0.000000 0.574014
O O8 0.043352 0.240167 0.796472
O O9 0.500000 0.221204 0.500000
O O10 0.425306 0.212566 0.134355
O O11 0.420213 0.000000 0.242446
O O12 0.317682 0.220099 0.039577
O O13 0.269019 0.500000 0.138509
O O14 0.199925 0.335228 0.111883
O O15 0.373023 0.333023 0.484822
O O16 0.263239 0.220221 0.094453
O O17 0.488079 0.773855 0.098909
O O18 0.395934 0.000000 0.946435
O O19 0.233807 0.000000 0.910008
O O20 0.096796 0.500000 0.976068
O O21 0.470612 0.500000 0.821950
#
# Coordination Sequence:
#
# PCOD9144629 Si02
#       8
#     4   4   4   4   4   4   4   4
#     4   9  19  35  52  71  99 135 168 199 250 309
#     4  10  19  30  47  77 108 131 161 203 254 304
#     4   9  19  35  52  71  98 134 172 205 242 291
#     4   9  17  29  46  71 100 129 165 203 238 290
#     4  11  21  32  50  75  97 124 171 217 249 290
#     4  10  19  32  50  70 100 138 167 200 251 301
#     4   9  18  32  50  72 100 135 165 194 243 304
#     4   9  18  32  49  70 100 135 165 198 249 305
#
# _framework density 17.508765
#
# number of rings (size 3 to 8) (size 9 to 14) (size 15 to 20)
#    0.000    2.500    1.250    3.000    0.000    4.750 
#    0.000    3.750    0.000    4.125    0.000    5.250 
#    0.000    0.000    0.000    0.000    0.000    0.000 
#
# Total GULP energy -178271.171020 kJ/mol
# GULP energy per Si atom -5570.974094 kJ/mol
# Density = 1.746891 g / cm^3
# Si number density = 17.508765 Si / 1000 Ang^3
#
#
#
# Elastic Constant Matrix: (Units=GPa)
#
#
# Indices 1 2 3 4 5 6 
#
# 1 45.5668 19.1401 45.7085 0.0000 -3.6472 0.0000
# 2 19.1401 24.8376 47.3736 0.0000 -4.4361 0.0000
# 3 45.7085 47.3736 139.4668 0.0000 -11.0762 0.0000
# 4 0.0000 0.0000 0.0000 29.9542 0.0000 -10.7519
# 5 -3.6472 -4.4361 -11.0762 0.0000 28.1291 0.0000
# 6 0.0000 0.0000 0.0000 -10.7519 0.0000 10.3140
#
#
#
# Elastic Compliance Matrix: (Units=1/GPa)
#
#
# Indices 1 2 3 4 5 6 
#
# 1 0.034375 -0.014230 -0.006459 0.000000 -0.000330 0.000000
# 2 -0.014230 0.120447 -0.036014 0.000000 0.002969 0.000000
# 3 -0.006459 -0.036014 0.021680 0.000000 0.002020 0.000000
# 4 0.000000 0.000000 0.000000 0.053346 0.000000 0.055611
# 5 -0.000330 0.002969 0.002020 0.000000 0.036771 0.000000
# 6 0.000000 0.000000 0.000000 0.055611 0.000000 0.154927
#
#
# Mechanical properties :
#
#
# Convention : Reuss Voigt Hill
#
# Bulk Modulus (GPa) = 15.84825 48.25728 32.05277
# Shear Modulus (GPa) = 8.99306 20.18940 14.59123
#
# Velocity S-wave (km/s) = 2.26880 3.39942 2.88994
# Velocity P-wave (km/s) = 3.99181 6.55970 5.42974
#
# Compressibility (1/GPa) = 0.06309843
#
# Stress axis : x y z
#
# Youngs Moduli (GPa) = 29.09051 8.30240 46.12477
#
# Poissons Ratio (x) = 0.11814 0.29791
# Poissons Ratio (y) = 0.41395 1.66112
# Poissons Ratio (z) = 0.18789 0.29900
#
# Static dielectric constant tensor:
#      x y z
#    x 1.603390 0.000000 0.000890 
#    y 0.000000 1.589270 0.000000 
#    z 0.000890 0.000000 1.625550 
# 
# From -- ./inp_files/58374.got.cif
#   From: 2010.05.17/outbox.cif.g08.bks.cpg/sg10_30_cif.got.tgz:58374.got - 2010.06.03 11:33:40.
