data_PCOD9144947
_publ_section_title
;
Structure prediction by ZEFSAII (Michael W. Deem and Ramdas Pophale) SiO2 
 PCOD9144947
Probable space group: P 2/M
;
_chemical_formula_sum "Si O2"
_cell_formula_units_Z 32
_cell_length_a 19.572809
_cell_length_b 9.518460
_cell_length_c 10.633089
_cell_angle_alpha 90.000000
_cell_angle_beta 124.965064
_cell_angle_gamma 90.000000
_cell_volume 1623.413367
_symmetry_space_group_name_H-M "P 2/M"
_symmetry_group_IT_number 10
_symmetry_cell_setting 'monoclinic'
loop_
_space_group_symop_operation_xyz
x,y,z
-x,y,-z
-x,-y,-z
x,-y,z
loop_
_atom_site_type_symbol
_atom_site_label
_atom_site_fract_x
_atom_site_fract_y
_atom_site_fract_z
Si Si1 0.263707 0.660403 0.359329
Si Si2 0.130650 0.161176 0.086636
Si Si3 0.159570 0.336656 0.509774
Si Si4 0.449165 0.660084 0.814589
Si Si5 0.595152 0.161963 0.862700
Si Si6 0.698944 0.833179 0.222356
Si Si7 0.975600 0.838138 0.764579
Si Si8 0.402770 0.838414 0.415980
O O1 0.276903 0.500000 0.339938
O O2 0.205657 0.736129 0.195411
O O3 0.214541 0.667568 0.439086
O O4 0.351185 0.740010 0.452490
O O5 0.076685 0.162048 0.159387
O O6 0.158577 0.000000 0.097239
O O7 0.068636 0.200869 0.907814
O O8 0.150934 0.500000 0.536917
O O9 0.213434 0.244257 0.663255
O O10 0.072142 0.263969 0.380748
O O11 0.426519 0.500000 0.753370
O O12 0.516430 0.736045 0.797267
O O13 0.369605 0.756136 0.762171
O O14 0.500000 0.650997 0.000000
O O15 0.631658 0.176020 0.762340
O O16 0.565171 0.000000 0.844486
O O17 0.662480 0.184711 0.043224
O O18 0.704474 0.000000 0.255518
O O19 0.975672 0.000000 0.719771
O O20 0.500000 0.807701 0.500000
O O21 0.394755 0.000000 0.448465
#
# Coordination Sequence:
#
# PCOD9144947 Si02
#       8
#     4   4   4   4   4   4   4   4
#     4  10  21  34  48  71 101 132 165 201 243 290
#     4   8  14  27  48  70  96 129 165 199 232 283
#     4  10  20  31  45  72 107 134 161 197 241 292
#     4   9  17  29  46  68  92 118 150 191 241 291
#     4   9  19  35  51  70  91 119 163 206 244 288
#     4  10  19  31  49  69  94 126 160 200 242 289
#     4   8  14  26  45  71  99 130 163 194 235 285
#     4  10  22  38  54  71  93 125 167 209 248 289
#
# _framework density 19.711552999999999
#
# number of rings (size 3 to 8) (size 9 to 14) (size 15 to 20)
#    0.000    2.750    0.000    2.250    1.750    4.750 
#    0.000    2.500    0.000    0.000    0.000    0.875 
#    0.000    7.000    0.000    0.000    0.000    0.000 
#
# Total GULP energy -178525.851127 kJ/mol
# GULP energy per Si atom -5578.932848 kJ/mol
# Density = 1.966669 g / cm^3
# Si number density = 19.711553 Si / 1000 Ang^3
#
#
#
# Elastic Constant Matrix: (Units=GPa)
#
#
# Indices 1 2 3 4 5 6 
#
# 1 12.6438 13.7935 6.1001 0.0000 3.8071 0.0000
# 2 13.7935 89.9775 59.3375 0.0000 11.7931 0.0000
# 3 6.1001 59.3375 101.3418 0.0000 12.0268 0.0000
# 4 0.0000 0.0000 0.0000 4.2128 0.0000 3.0042
# 5 3.8071 11.7931 12.0268 0.0000 20.1087 0.0000
# 6 0.0000 0.0000 0.0000 3.0042 0.0000 17.1532
#
#
#
# Elastic Compliance Matrix: (Units=1/GPa)
#
#
# Indices 1 2 3 4 5 6 
#
# 1 0.098823 -0.017263 0.005574 0.000000 -0.011919 0.000000
# 2 -0.017263 0.021525 -0.011253 0.000000 -0.002625 0.000000
# 3 0.005574 -0.011253 0.016644 0.000000 -0.004411 0.000000
# 4 0.000000 0.000000 0.000000 0.271249 0.000000 -0.047507
# 5 -0.011919 -0.002625 -0.004411 0.000000 0.056164 0.000000
# 6 0.000000 0.000000 0.000000 -0.047507 0.000000 0.066619
#
#
# Mechanical properties :
#
#
# Convention : Reuss Voigt Hill
#
# Bulk Modulus (GPa) = 10.97591 40.26947 25.62269
# Shear Modulus (GPa) = 8.23347 16.61039 12.42193
#
# Velocity S-wave (km/s) = 2.04598 2.90603 2.51307
# Velocity P-wave (km/s) = 3.34092 5.63327 4.63117
#
# Compressibility (1/GPa) = 0.09110864
#
# Stress axis : x y z
#
# Youngs Moduli (GPa) = 10.11909 46.45703 60.08098
#
# Poissons Ratio (x) = 0.80199 -0.33488
# Poissons Ratio (y) = 0.17469 0.67608
# Poissons Ratio (z) = -0.05640 0.52277
#
# Static dielectric constant tensor:
#      x y z
#    x 1.680690 0.000000 -0.003090 
#    y 0.000000 1.674010 0.000000 
#    z -0.003090 0.000000 1.747650 
# 
# From -- ./inp_files/55334.got.cif
#   From: 2010.05.17/outbox.cif.g08.bks.cpg/sg10_28_cif.got.tgz:55334.got - 2010.06.03 11:33:40.
