data_PCOD9144773
_publ_section_title
;
Structure prediction by ZEFSAII (Michael W. Deem and Ramdas Pophale) SiO2 
 PCOD9144773
Probable space group: P 2/M
;
_chemical_formula_sum "Si O2"
_cell_formula_units_Z 32
_cell_length_a 22.472542
_cell_length_b 9.164349
_cell_length_c 31.710258
_cell_angle_alpha 90.000000
_cell_angle_beta 19.026596
_cell_angle_gamma 90.000000
_cell_volume 2129.023939
_symmetry_space_group_name_H-M "P 2/M"
_symmetry_group_IT_number 10
_symmetry_cell_setting 'monoclinic'
loop_
_space_group_symop_operation_xyz
x,y,z
-x,y,-z
-x,-y,-z
x,-y,z
loop_
_atom_site_type_symbol
_atom_site_label
_atom_site_fract_x
_atom_site_fract_y
_atom_site_fract_z
Si Si1 0.839568 0.331849 0.515519
Si Si2 0.133625 0.831599 0.369333
Si Si3 0.714806 0.826673 0.084859
Si Si4 0.862516 0.173820 0.207960
Si Si5 0.539052 0.174485 0.664672
Si Si6 0.573783 0.667309 0.775747
Si Si7 0.543397 0.675770 0.368489
Si Si8 0.692692 0.666185 0.396158
O O1 0.864334 0.500000 0.486046
O O2 0.728261 0.239545 0.555782
O O3 0.709906 0.332130 0.644004
O O4 0.026569 0.257260 0.405218
O O5 0.320093 0.756601 0.259519
O O6 0.000000 0.829818 0.500000
O O7 0.159788 0.000000 0.340083
O O8 0.612216 0.795589 0.197686
O O9 0.609391 0.741306 0.118739
O O10 0.694887 0.000000 0.090519
O O11 0.928500 0.792281 0.943402
O O12 0.721196 0.256378 0.272036
O O13 0.819779 0.228263 0.284042
O O14 0.833827 0.000000 0.223952
O O15 0.484575 0.253795 0.658207
O O16 0.550758 0.000000 0.651341
O O17 0.545329 0.500000 0.807288
O O18 0.560128 0.500000 0.355481
O O19 0.369620 0.709075 0.515245
O O20 0.500000 0.663552 0.500000
O O21 0.763907 0.500000 0.348279
#
# Coordination Sequence:
#
# PCOD9144773 Si02
#       8
#     4   4   4   4   4   4   4   4
#     4   9  16  26  39  57  82 110 143 180 215 252
#     4   9  15  23  37  56  79 109 143 177 214 254
#     4   9  19  32  43  60  89 120 146 178 218 257
#     4  10  19  31  48  67  86 111 145 182 219 260
#     4  10  19  31  45  61  86 119 151 179 213 258
#     4   9  16  25  39  58  80 110 146 180 212 251
#     4  10  20  33  47  64  87 113 143 181 223 261
#     4   8  16  31  48  65  85 107 134 176 226 265
#
# _framework density 15.030360999999999
#
# number of rings (size 3 to 8) (size 9 to 14) (size 15 to 20)
#    0.000    2.750    0.000    3.000    0.000    9.250 
#    0.000    2.500    0.000    0.000    0.000    0.000 
#    0.000    1.000    0.000   10.500    0.000    8.875 
#
# Total GULP energy -178243.738180 kJ/mol
# GULP energy per Si atom -5570.116818 kJ/mol
# Density = 1.499615 g / cm^3
# Si number density = 15.030361 Si / 1000 Ang^3
#
#
#
# Elastic Constant Matrix: (Units=GPa)
#
#
# Indices 1 2 3 4 5 6 
#
# 1 88.5221 67.9495 63.2957 0.0000 -17.6455 0.0000
# 2 67.9495 97.9542 48.2566 0.0000 -9.7514 0.0000
# 3 63.2957 48.2566 44.6288 0.0000 -5.9854 0.0000
# 4 0.0000 0.0000 0.0000 12.5430 0.0000 0.6194
# 5 -17.6455 -9.7514 -5.9854 0.0000 13.7398 0.0000
# 6 0.0000 0.0000 0.0000 0.6194 0.0000 25.1134
#
#
#
# Elastic Compliance Matrix: (Units=1/GPa)
#
#
# Indices 1 2 3 4 5 6 
#
# 1 -0.126500 -0.007916 0.175694 0.000000 -0.091540 0.000000
# 2 -0.007916 0.021755 -0.012308 0.000000 -0.000088 0.000000
# 3 0.175694 -0.012308 -0.195817 0.000000 0.131599 0.000000
# 4 0.000000 0.000000 0.000000 0.079823 0.000000 -0.001969
# 5 -0.091540 -0.000088 0.131599 0.000000 0.012485 0.000000
# 6 0.000000 0.000000 0.000000 -0.001969 0.000000 0.039868
#
#
# Mechanical properties :
#
#
# Convention : Reuss Voigt Hill
#
# Bulk Modulus (GPa) = 96.35776 65.56763 80.96269
# Shear Modulus (GPa) = -10.50712 13.71947 1.60618
#
# Velocity S-wave (km/s) = -2.64684 3.02451 1.03486
# Velocity P-wave (km/s) = 7.40992 7.47764 7.44385
#
# Compressibility (1/GPa) = 0.01037799
#
# Stress axis : x y z
#
# Youngs Moduli (GPa) = -7.90514 45.96712 -5.10681
#
# Poissons Ratio (x) = 0.36389 0.89724
# Poissons Ratio (y) = -0.06258 -0.06285
# Poissons Ratio (z) = 1.38889 0.56574
#
# Static dielectric constant tensor:
#      x y z
#    x 1.487740 0.000000 0.001600 
#    y 0.000000 1.504610 0.000000 
#    z 0.001600 0.000000 1.483540 
# 
# From -- ./inp_files/54803.got.cif
#   From: 2010.05.17/outbox.cif.g08.bks.cpg/sg10_28_cif.got.tgz:54803.got - 2010.06.03 11:33:40.
