data_PCOD9144178
_publ_section_title
;
Structure prediction by ZEFSAII (Michael W. Deem and Ramdas Pophale) SiO2 
 PCOD9144178
Probable space group: P 2/M
;
_chemical_formula_sum "Si O2"
_cell_formula_units_Z 29
_cell_length_a 18.139048
_cell_length_b 15.478452
_cell_length_c 9.589745
_cell_angle_alpha 90.000000
_cell_angle_beta 38.131606
_cell_angle_gamma 90.000000
_cell_volume 1662.512233
_symmetry_space_group_name_H-M "P 2/M"
_symmetry_group_IT_number 10
_symmetry_cell_setting 'monoclinic'
loop_
_space_group_symop_operation_xyz
x,y,z
-x,y,-z
-x,-y,-z
x,-y,z
loop_
_atom_site_type_symbol
_atom_site_label
_atom_site_fract_x
_atom_site_fract_y
_atom_site_fract_z
Si Si1 0.998740 0.899465 0.833559
Si Si2 0.699993 0.595441 0.226107
Si Si3 0.221125 0.783542 0.879576
Si Si4 0.262446 0.098293 0.320792
Si Si5 0.365170 0.096686 0.466569
Si Si6 0.522452 0.375859 0.235952
Si Si7 0.500000 0.500000 0.000000
Si Si8 0.604461 0.815371 0.122345
O O1 0.129990 0.883862 0.575802
O O2 0.966857 0.000000 0.851059
O O3 0.903928 0.831840 0.914591
O O4 0.000000 0.890704 0.000000
O O5 0.755336 0.500000 0.156669
O O6 0.782763 0.679520 0.122736
O O7 0.595967 0.604018 0.497439
O O8 0.632230 0.600381 0.177110
O O9 0.281766 0.830405 0.657341
O O10 0.313523 0.803569 0.865501
O O11 0.349386 0.101211 0.324247
O O12 0.262457 0.000000 0.265799
O O13 0.310882 0.160422 0.131070
O O14 0.502208 0.113923 0.299044
O O15 0.326448 0.000000 0.568098
O O16 0.519193 0.425756 0.095300
O O17 0.535055 0.273582 0.196780
#
# Coordination Sequence:
#
# PCOD9144178 Si02
#       8
#     4   4   4   4   4   4   1   4
#     4  10  20  39  61  81 107 147 203 244 272 328
#     4  10  18  38  54  77 113 152 183 230 284 336
#     4  11  22  35  60  85 107 150 197 233 281 332
#     4  10  22  38  56  78 113 156 189 231 287 329
#     4  11  21  35  54  80 118 156 185 224 283 348
#     4  10  20  32  53  80 116 148 185 224 276 343
#     4  12  20  30  52  84 106 154 186 222 276 326
#     4  11  23  35  51  88 122 146 181 231 288 348
#
# _framework density 17.443479
#
# number of rings (size 3 to 8) (size 9 to 14) (size 15 to 20)
#    0.000    1.517    4.138    2.069    1.931    4.414 
#    0.000    1.379    0.000    0.414    1.793    1.931 
#    0.000    0.000    0.000    0.000    0.000    0.000 
#
# Total GULP energy -161539.336571 kJ/mol
# GULP energy per Si atom -5570.321951 kJ/mol
# Density = 1.740378 g / cm^3
# Si number density = 17.443479 Si / 1000 Ang^3
#
#
#
# Elastic Constant Matrix: (Units=GPa)
#
#
# Indices 1 2 3 4 5 6 
#
# 1 62.8558 45.0807 11.7952 0.0000 10.7803 0.0000
# 2 45.0807 124.9475 26.4603 0.0000 6.8233 0.0000
# 3 11.7952 26.4603 46.4466 0.0000 9.9836 0.0000
# 4 0.0000 0.0000 0.0000 15.0683 0.0000 37.7949
# 5 10.7803 6.8233 9.9836 0.0000 32.4311 0.0000
# 6 0.0000 0.0000 0.0000 37.7949 0.0000 -191.2426
#
#
#
# Elastic Compliance Matrix: (Units=1/GPa)
#
#
# Indices 1 2 3 4 5 6 
#
# 1 0.022506 -0.007797 -0.000019 0.000000 -0.005835 0.000000
# 2 -0.007797 0.011806 -0.005107 0.000000 0.001680 0.000000
# 3 -0.000019 -0.005107 0.025928 0.000000 -0.006901 0.000000
# 4 0.000000 0.000000 0.000000 0.044370 0.000000 0.008769
# 5 -0.005835 0.001680 -0.006901 0.000000 0.034545 0.000000
# 6 0.000000 0.000000 0.000000 0.008769 0.000000 -0.003496
#
#
# Mechanical properties :
#
#
# Convention : Reuss Voigt Hill
#
# Bulk Modulus (GPa) = 29.07563 44.54692 36.81128
# Shear Modulus (GPa) = 28.90658 -18.68773 5.10943
#
# Velocity S-wave (km/s) = 4.07524 -3.27667 1.71333
# Velocity P-wave (km/s) = 6.23282 3.35826 5.00629
#
# Compressibility (1/GPa) = 0.03439306
#
# Stress axis : x y z
#
# Youngs Moduli (GPa) = 44.43227 84.69952 38.56880
#
# Poissons Ratio (x) = 0.66044 0.00074
# Poissons Ratio (y) = 0.34646 0.19697
# Poissons Ratio (z) = 0.00085 0.43256
#
# Static dielectric constant tensor:
#      x y z
#    x 1.584210 0.000000 0.001820 
#    y 0.000000 1.632170 0.000000 
#    z 0.001820 0.000000 1.577830 
# 
# From -- ./inp_files/32810.got.cif
#   From: 2010.05.17/outbox.cif.g08.bks.cpg/sg10_17_cif.got.tgz:32810.got - 2010.06.03 11:33:40.
