data_PCOD9144216
_publ_section_title
;
Structure prediction by ZEFSAII (Michael W. Deem and Ramdas Pophale) SiO2 
 PCOD9144216
Probable space group: P 2/M
;
_chemical_formula_sum "Si O2"
_cell_formula_units_Z 28
_cell_length_a 11.760499
_cell_length_b 7.930429
_cell_length_c 22.518494
_cell_angle_alpha 90.000000
_cell_angle_beta 49.474225
_cell_angle_gamma 90.000000
_cell_volume 1596.394966
_symmetry_space_group_name_H-M "P 2/M"
_symmetry_group_IT_number 10
_symmetry_cell_setting 'monoclinic'
loop_
_space_group_symop_operation_xyz
x,y,z
-x,y,-z
-x,-y,-z
x,-y,z
loop_
_atom_site_type_symbol
_atom_site_label
_atom_site_fract_x
_atom_site_fract_y
_atom_site_fract_z
Si Si1 0.166472 0.207012 0.924427
Si Si2 0.250087 0.200588 0.765730
Si Si3 0.476193 0.800914 0.596050
Si Si4 0.739325 0.306284 0.435638
Si Si5 0.032706 0.700355 0.732844
Si Si6 0.292816 0.203586 0.119655
Si Si7 0.378273 0.205761 0.959124
O O1 0.208745 0.269159 0.844307
O O2 0.285096 0.261697 0.933924
O O3 0.166785 0.000000 0.923765
O O4 0.000000 0.258349 0.000000
O O5 0.406506 0.256105 0.682312
O O6 0.121495 0.232199 0.760355
O O7 0.261682 0.000000 0.769396
O O8 0.376810 0.707203 0.580242
O O9 0.649072 0.775087 0.520740
O O10 0.444407 0.000000 0.599759
O O11 0.764397 0.500000 0.443173
O O12 0.888694 0.232914 0.354320
O O13 0.056092 0.500000 0.724518
O O14 0.858552 0.737399 0.798555
O O15 0.448273 0.258703 0.097177
O O16 0.291535 0.000000 0.120163
O O17 0.302721 0.257611 0.047159
O O18 0.377741 0.000000 0.959209
#
# Coordination Sequence:
#
# PCOD9144216 Si02
#       7
#     4   4   4   4   4   4   4
#     4   9  15  24  42  66  88 110 137 168 201 241
#     4   9  17  27  41  62  86 113 142 170 203 245
#     4   9  15  23  36  56  81 106 134 168 203 241
#     4   9  16  25  37  54  78 108 137 165 202 248
#     4  10  19  28  40  61  87 112 139 172 209 248
#     4   9  16  28  46  64  83 108 140 176 208 242
#     4   8  15  27  44  66  86 107 139 174 206 242
#
# _framework density 17.539518999999999
#
# number of rings (size 3 to 8) (size 9 to 14) (size 15 to 20)
#    0.000    3.000    0.000    3.857    0.000    4.571 
#    0.000    1.429    0.000    4.714    0.000    1.000 
#    0.000    8.000    0.000    0.000    0.000    0.000 
#
# Total GULP energy -155869.036011 kJ/mol
# GULP energy per Si atom -5566.751286 kJ/mol
# Density = 1.749960 g / cm^3
# Si number density = 17.539519 Si / 1000 Ang^3
#
#
#
# Elastic Constant Matrix: (Units=GPa)
#
#
# Indices 1 2 3 4 5 6 
#
# 1 69.7032 0.4263 70.0795 0.0000 -7.3063 0.0000
# 2 0.4263 11.6447 11.4856 0.0000 2.4577 0.0000
# 3 70.0795 11.4856 190.2424 0.0000 -22.5367 0.0000
# 4 0.0000 0.0000 0.0000 16.4846 0.0000 13.5822
# 5 -7.3063 2.4577 -22.5367 0.0000 24.8175 0.0000
# 6 0.0000 0.0000 0.0000 13.5822 0.0000 41.7391
#
#
#
# Elastic Compliance Matrix: (Units=1/GPa)
#
#
# Indices 1 2 3 4 5 6 
#
# 1 0.023637 0.009131 -0.009571 0.000000 -0.002637 0.000000
# 2 0.009131 0.100681 -0.011547 0.000000 -0.017768 0.000000
# 3 -0.009571 -0.011547 0.010400 0.000000 0.007770 0.000000
# 4 0.000000 0.000000 0.000000 0.082885 0.000000 -0.026971
# 5 -0.002637 -0.017768 0.007770 0.000000 0.048333 0.000000
# 6 0.000000 0.000000 0.000000 -0.026971 0.000000 0.032735
#
#
# Mechanical properties :
#
#
# Convention : Reuss Voigt Hill
#
# Bulk Modulus (GPa) = 9.02985 48.39702 28.71344
# Shear Modulus (GPa) = 13.90597 29.24818 21.57708
#
# Velocity S-wave (km/s) = 2.81879 4.08801 3.51122
# Velocity P-wave (km/s) = 3.96908 7.06650 5.73101
#
# Compressibility (1/GPa) = 0.11074375
#
# Stress axis : x y z
#
# Youngs Moduli (GPa) = 42.30725 9.93240 96.15821
#
# Poissons Ratio (x) = -0.09069 0.92029
# Poissons Ratio (y) = -0.38631 1.11033
# Poissons Ratio (z) = 0.40491 0.11469
#
# Static dielectric constant tensor:
#      x y z
#    x 1.560980 0.000000 -0.018280 
#    y 0.000000 1.629490 0.000000 
#    z -0.018280 0.000000 1.662280 
# 
# From -- ./inp_files/83311.got.cif
#   From: 2010.05.17/outbox.cif.g08.bks.cpg/sg10_42_cif.got.tgz:83311.got - 2010.06.03 11:33:40.
